MODEL 1
REMARK VINA RESULT:     -12.7      0.000      0.000
REMARK SMILES O=C(NCCCNC(=O)c1cc2ccccc2cc1NS(=O)(=O)c1ccccc1Br)c1ccc(-c2c3nc(c(-c4c(F)cc(S(=O)(=O)[O-])cc4F)c4ccc([nH]4)c(-c4c(F)cc(S(=O)(=O)[O-])cc4F)c4nc(c(-c5c(F)cc(S(=O)(=O)[O-])cc5F)c5ccc2[nH]5)C=C4)C=C3)cc1
REMARK SMILES IDX 5 1 4 2 3 3 1 4 2 5 31 7 32 8 96 9 33 10 95 11 34 12 35 13
REMARK SMILES IDX 36 14 89 15 37 16 94 17 88 18 90 19 38 20 93 21 87 22 86 23
REMARK SMILES IDX 39 25 73 26 52 27 72 28 53 29 56 30 71 31 91 32 54 33 55 34
REMARK SMILES IDX 70 36 92 37 57 38 40 39 41 40 50 41 42 42 43 43 49 44 51 45
REMARK SMILES IDX 44 46 45 47 46 48 47 49 48 50 74 51 75 52 84 53 76 54 77 55
REMARK SMILES IDX 83 56 85 57 78 58 79 59 80 60 81 61 82 62 58 63 59 64 68 65
REMARK SMILES IDX 60 66 61 67 67 68 69 69 62 70 63 71 64 72 65 73 66 74 6 75
REMARK SMILES IDX 7 76 8 77 9 79 10 80 11 81 19 82 12 83 18 84 13 85 17 86
REMARK SMILES IDX 14 87 16 88 15 89 20 90 21 92 22 93 23 94 24 95 25 96 29 97
REMARK SMILES IDX 26 98 28 99 30 100 27 101
REMARK H PARENT 3 6 90 24 56 35 7 78 20 91
REMARK Flexibility Score: inf
ROOT
ATOM      1  C   UNL A   1      34.148  28.190  26.001  1.00  0.00     0.042 C 
ENDROOT
BRANCH   1   2
ATOM      2  C   UNL A   1      33.655  28.443  27.415  1.00  0.00     0.118 C 
BRANCH   2   3
ATOM      3  N   UNL A   1      33.543  29.859  27.740  1.00  0.00    -0.352 N 
ATOM      4  O   UNL A   1      34.135  31.839  28.639  1.00  0.00    -0.269 OA
ATOM      5  C   UNL A   1      34.469  30.709  28.294  1.00  0.00     0.251 C 
ATOM      6  H   UNL A   1      32.672  30.268  27.529  1.00  0.00     0.163 HD
BRANCH   5   7
ATOM      7  C   UNL A   1      35.861  30.252  28.483  1.00  0.00     0.039 A 
ATOM      8  C   UNL A   1      36.796  30.409  27.460  1.00  0.00     0.014 A 
ATOM      9  C   UNL A   1      36.238  29.675  29.699  1.00  0.00     0.014 A 
ATOM     10  C   UNL A   1      38.060  29.854  27.588  1.00  0.00     0.010 A 
ATOM     11  C   UNL A   1      37.549  29.222  29.870  1.00  0.00     0.010 A 
ATOM     12  C   UNL A   1      38.465  29.298  28.810  1.00  0.00    -0.014 A 
BRANCH  12  13
ATOM     13  C   UNL A   1      39.895  28.952  28.995  1.00  0.00     0.031 A 
ATOM     14  C   UNL A   1      40.443  27.617  28.580  1.00  0.00     0.074 A 
ATOM     15  C   UNL A   1      40.694  29.882  29.557  1.00  0.00     0.049 A 
ATOM     16  N   UNL A   1      41.664  27.163  28.706  1.00  0.00    -0.248 NA
ATOM     17  C   UNL A   1      39.513  26.669  27.948  1.00  0.00     0.031 C 
ATOM     18  C   UNL A   1      40.250  31.205  30.015  1.00  0.00     0.029 A 
ATOM     19  N   UNL A   1      42.034  29.871  29.843  1.00  0.00    -0.354 N 
ATOM     20  C   UNL A   1      41.646  25.870  28.198  1.00  0.00     0.074 A 
ATOM     21  C   UNL A   1      40.291  25.608  27.763  1.00  0.00     0.031 C 
ATOM     22  C   UNL A   1      41.300  31.884  30.495  1.00  0.00     0.029 A 
ATOM     23  C   UNL A   1      42.471  31.020  30.460  1.00  0.00     0.049 A 
ATOM     24  H   UNL A   1      42.626  29.115  29.626  1.00  0.00     0.167 HD
ATOM     25  C   UNL A   1      42.672  24.992  28.112  1.00  0.00     0.037 A 
ATOM     26  C   UNL A   1      43.669  31.330  30.990  1.00  0.00     0.037 A 
ATOM     27  C   UNL A   1      44.020  25.286  28.532  1.00  0.00     0.049 A 
ATOM     28  C   UNL A   1      44.773  30.317  30.907  1.00  0.00     0.074 A 
ATOM     29  C   UNL A   1      45.149  24.492  28.409  1.00  0.00     0.029 A 
ATOM     30  N   UNL A   1      44.421  26.450  29.172  1.00  0.00    -0.354 N 
ATOM     31  N   UNL A   1      44.759  29.131  30.346  1.00  0.00    -0.248 NA
ATOM     32  C   UNL A   1      46.051  30.673  31.535  1.00  0.00     0.031 C 
ATOM     33  C   UNL A   1      46.213  25.144  29.037  1.00  0.00     0.029 A 
ATOM     34  C   UNL A   1      45.766  26.373  29.496  1.00  0.00     0.049 A 
ATOM     35  H   UNL A   1      43.837  27.219  29.366  1.00  0.00     0.167 HD
ATOM     36  C   UNL A   1      46.027  28.603  30.549  1.00  0.00     0.074 A 
ATOM     37  C   UNL A   1      46.792  29.612  31.253  1.00  0.00     0.031 C 
ATOM     38  C   UNL A   1      46.511  27.388  30.197  1.00  0.00     0.037 A 
BRANCH  25  39
ATOM     39  C   UNL A   1      42.404  23.616  27.567  1.00  0.00     0.058 A 
ATOM     40  C   UNL A   1      42.411  23.347  26.190  1.00  0.00     0.135 A 
ATOM     41  C   UNL A   1      42.266  22.527  28.445  1.00  0.00     0.135 A 
ATOM     42  F   UNL A   1      42.527  24.349  25.305  1.00  0.00    -0.206 F 
ATOM     43  C   UNL A   1      42.297  22.047  25.704  1.00  0.00     0.059 A 
ATOM     44  C   UNL A   1      42.173  21.218  27.982  1.00  0.00     0.059 A 
ATOM     45  F   UNL A   1      42.250  22.729  29.771  1.00  0.00    -0.206 F 
ATOM     46  C   UNL A   1      42.191  20.988  26.608  1.00  0.00     0.060 A 
BRANCH  46  47
ATOM     47  S   UNL A   1      42.110  19.305  25.959  1.00  0.00     0.124 S 
ATOM     48  O   UNL A   1      42.611  18.530  27.090  1.00  0.00    -0.237 OA
ATOM     49  O   UNL A   1      40.688  19.152  25.667  1.00  0.00    -0.237 OA
ATOM     50  O   UNL A   1      42.986  19.345  24.792  1.00  0.00    -0.744 OA
ENDBRANCH  46  47
ENDBRANCH  25  39
BRANCH  26  51
ATOM     51  C   UNL A   1      43.859  32.623  31.698  1.00  0.00     0.058 A 
ATOM     52  C   UNL A   1      43.622  32.742  33.074  1.00  0.00     0.135 A 
ATOM     53  C   UNL A   1      44.267  33.773  31.003  1.00  0.00     0.135 A 
ATOM     54  F   UNL A   1      43.230  31.672  33.783  1.00  0.00    -0.206 F 
ATOM     55  C   UNL A   1      43.746  33.963  33.729  1.00  0.00     0.059 A 
ATOM     56  C   UNL A   1      44.434  34.996  31.643  1.00  0.00     0.059 A 
ATOM     57  F   UNL A   1      44.529  33.710  29.687  1.00  0.00    -0.206 F 
ATOM     58  C   UNL A   1      44.147  35.085  33.003  1.00  0.00     0.060 A 
BRANCH  58  59
ATOM     59  S   UNL A   1      44.300  36.665  33.861  1.00  0.00     0.124 S 
ATOM     60  O   UNL A   1      44.141  37.609  32.761  1.00  0.00    -0.237 OA
ATOM     61  O   UNL A   1      43.198  36.604  34.816  1.00  0.00    -0.237 OA
ATOM     62  O   UNL A   1      45.634  36.600  34.450  1.00  0.00    -0.744 OA
ENDBRANCH  58  59
ENDBRANCH  26  51
BRANCH  38  63
ATOM     63  C   UNL A   1      47.938  27.085  30.560  1.00  0.00     0.058 A 
ATOM     64  C   UNL A   1      48.999  27.444  29.715  1.00  0.00     0.135 A 
ATOM     65  C   UNL A   1      48.250  26.486  31.790  1.00  0.00     0.135 A 
ATOM     66  F   UNL A   1      48.753  28.006  28.521  1.00  0.00    -0.206 F 
ATOM     67  C   UNL A   1      50.321  27.205  30.071  1.00  0.00     0.059 A 
ATOM     68  C   UNL A   1      49.566  26.267  32.181  1.00  0.00     0.059 A 
ATOM     69  F   UNL A   1      47.271  26.128  32.638  1.00  0.00    -0.206 F 
ATOM     70  C   UNL A   1      50.596  26.625  31.310  1.00  0.00     0.060 A 
BRANCH  70  71
ATOM     71  S   UNL A   1      52.319  26.374  31.782  1.00  0.00     0.124 S 
ATOM     72  O   UNL A   1      52.401  27.142  33.020  1.00  0.00    -0.237 OA
ATOM     73  O   UNL A   1      52.393  24.923  31.928  1.00  0.00    -0.237 OA
ATOM     74  O   UNL A   1      53.065  26.924  30.653  1.00  0.00    -0.744 OA
ENDBRANCH  70  71
ENDBRANCH  38  63
ENDBRANCH  12  13
ENDBRANCH   5   7
ENDBRANCH   2   3
ENDBRANCH   1   2
BRANCH   1  75
ATOM     75  C   UNL A   1      33.729  29.261  25.014  1.00  0.00     0.118 C 
BRANCH  75  76
ATOM     76  N   UNL A   1      34.122  28.980  23.649  1.00  0.00    -0.352 N 
ATOM     77  C   UNL A   1      33.463  28.268  22.689  1.00  0.00     0.253 C 
ATOM     78  H   UNL A   1      34.989  29.358  23.373  1.00  0.00     0.163 HD
ATOM     79  O   UNL A   1      34.029  28.004  21.632  1.00  0.00    -0.269 OA
BRANCH  77  80
ATOM     80  C   UNL A   1      32.081  27.792  22.900  1.00  0.00     0.064 A 
ATOM     81  C   UNL A   1      31.075  28.740  22.623  1.00  0.00     0.024 A 
ATOM     82  C   UNL A   1      31.757  26.560  23.496  1.00  0.00     0.062 A 
ATOM     83  C   UNL A   1      29.729  28.475  22.917  1.00  0.00    -0.017 A 
ATOM     84  C   UNL A   1      30.429  26.369  23.889  1.00  0.00     0.036 A 
ATOM     85  C   UNL A   1      28.701  29.388  22.630  1.00  0.00     0.009 A 
ATOM     86  C   UNL A   1      29.405  27.263  23.551  1.00  0.00    -0.016 A 
ATOM     87  C   UNL A   1      27.371  29.082  22.931  1.00  0.00     0.001 A 
ATOM     88  C   UNL A   1      28.066  26.965  23.847  1.00  0.00     0.009 A 
ATOM     89  C   UNL A   1      27.053  27.866  23.527  1.00  0.00     0.001 A 
BRANCH  82  90
ATOM     90  N   UNL A   1      32.738  25.574  23.900  1.00  0.00    -0.279 N 
ATOM     91  H   UNL A   1      33.221  25.700  24.748  1.00  0.00     0.180 HD
BRANCH  90  92
ATOM     92  S   UNL A   1      33.082  24.187  22.942  1.00  0.00     0.263 S 
ATOM     93  O   UNL A   1      31.863  23.448  22.737  1.00  0.00    -0.201 OA
ATOM     94  O   UNL A   1      33.775  24.709  21.776  1.00  0.00    -0.201 OA
BRANCH  92  95
ATOM     95  C   UNL A   1      34.231  23.167  23.827  1.00  0.00     0.101 A 
ATOM     96  C   UNL A   1      35.515  23.036  23.267  1.00  0.00     0.023 A 
ATOM     97  C   UNL A   1      33.936  22.528  25.040  1.00  0.00     0.038 A 
ATOM     98  C   UNL A   1      36.519  22.349  23.949  1.00  0.00     0.001 A 
ATOM     99  C   UNL A   1      34.958  21.845  25.717  1.00  0.00     0.017 A 
ATOM    100  Br  UNL A   1      32.270  22.574  25.949  1.00  0.00    -0.049 Br
ATOM    101  C   UNL A   1      36.244  21.768  25.182  1.00  0.00     0.001 A 
ENDBRANCH  92  95
ENDBRANCH  90  92
ENDBRANCH  82  90
ENDBRANCH  77  80
ENDBRANCH  75  76
ENDBRANCH   1  75
TORSDOF 16
ENDMDL
MODEL 2
REMARK VINA RESULT:     -12.3      2.563      8.430
REMARK SMILES O=C(NCCCNC(=O)c1cc2ccccc2cc1NS(=O)(=O)c1ccccc1Br)c1ccc(-c2c3nc(c(-c4c(F)cc(S(=O)(=O)[O-])cc4F)c4ccc([nH]4)c(-c4c(F)cc(S(=O)(=O)[O-])cc4F)c4nc(c(-c5c(F)cc(S(=O)(=O)[O-])cc5F)c5ccc2[nH]5)C=C4)C=C3)cc1
REMARK SMILES IDX 5 1 4 2 3 3 1 4 2 5 31 7 32 8 96 9 33 10 95 11 34 12 35 13
REMARK SMILES IDX 36 14 89 15 37 16 94 17 88 18 90 19 38 20 93 21 87 22 86 23
REMARK SMILES IDX 39 25 73 26 52 27 72 28 53 29 56 30 71 31 91 32 54 33 55 34
REMARK SMILES IDX 70 36 92 37 57 38 40 39 41 40 50 41 42 42 43 43 49 44 51 45
REMARK SMILES IDX 44 46 45 47 46 48 47 49 48 50 74 51 75 52 84 53 76 54 77 55
REMARK SMILES IDX 83 56 85 57 78 58 79 59 80 60 81 61 82 62 58 63 59 64 68 65
REMARK SMILES IDX 60 66 61 67 67 68 69 69 62 70 63 71 64 72 65 73 66 74 6 75
REMARK SMILES IDX 7 76 8 77 9 79 10 80 11 81 19 82 12 83 18 84 13 85 17 86
REMARK SMILES IDX 14 87 16 88 15 89 20 90 21 92 22 93 23 94 24 95 25 96 29 97
REMARK SMILES IDX 26 98 28 99 30 100 27 101
REMARK H PARENT 3 6 90 24 56 35 7 78 20 91
REMARK Flexibility Score: inf
ROOT
ATOM      1  C   UNL A   1      34.135  28.959  27.430  1.00  0.00     0.042 C 
ENDROOT
BRANCH   1   2
ATOM      2  C   UNL A   1      35.332  29.866  27.655  1.00  0.00     0.118 C 
BRANCH   2   3
ATOM      3  N   UNL A   1      35.281  30.580  28.924  1.00  0.00    -0.352 N 
ATOM      4  O   UNL A   1      35.967  31.239  30.967  1.00  0.00    -0.269 OA
ATOM      5  C   UNL A   1      36.250  30.731  29.886  1.00  0.00     0.251 C 
ATOM      6  H   UNL A   1      34.423  31.021  29.122  1.00  0.00     0.163 HD
BRANCH   5   7
ATOM      7  C   UNL A   1      37.627  30.267  29.617  1.00  0.00     0.039 A 
ATOM      8  C   UNL A   1      38.124  30.265  28.314  1.00  0.00     0.014 A 
ATOM      9  C   UNL A   1      38.432  29.845  30.678  1.00  0.00     0.014 A 
ATOM     10  C   UNL A   1      39.362  29.700  28.047  1.00  0.00     0.010 A 
ATOM     11  C   UNL A   1      39.727  29.385  30.421  1.00  0.00     0.010 A 
ATOM     12  C   UNL A   1      40.196  29.299  29.102  1.00  0.00    -0.014 A 
BRANCH  12  13
ATOM     13  C   UNL A   1      41.603  28.944  28.800  1.00  0.00     0.031 A 
ATOM     14  C   UNL A   1      42.698  29.971  28.825  1.00  0.00     0.074 A 
ATOM     15  C   UNL A   1      41.869  27.657  28.495  1.00  0.00     0.049 A 
ATOM     16  N   UNL A   1      43.968  29.814  28.555  1.00  0.00    -0.248 NA
ATOM     17  C   UNL A   1      42.329  31.346  29.196  1.00  0.00     0.031 C 
ATOM     18  C   UNL A   1      40.868  26.586  28.424  1.00  0.00     0.029 A 
ATOM     19  N   UNL A   1      43.046  27.025  28.189  1.00  0.00    -0.354 N 
ATOM     20  C   UNL A   1      44.547  31.069  28.693  1.00  0.00     0.074 A 
ATOM     21  C   UNL A   1      43.489  31.982  29.069  1.00  0.00     0.031 C 
ATOM     22  C   UNL A   1      41.475  25.430  28.124  1.00  0.00     0.029 A 
ATOM     23  C   UNL A   1      42.890  25.690  27.898  1.00  0.00     0.049 A 
ATOM     24  H   UNL A   1      43.918  27.482  28.180  1.00  0.00     0.167 HD
ATOM     25  C   UNL A   1      45.844  31.415  28.516  1.00  0.00     0.037 A 
ATOM     26  C   UNL A   1      43.774  24.781  27.448  1.00  0.00     0.037 A 
ATOM     27  C   UNL A   1      46.885  30.482  28.164  1.00  0.00     0.049 A 
ATOM     28  C   UNL A   1      45.195  25.210  27.229  1.00  0.00     0.074 A 
ATOM     29  C   UNL A   1      48.245  30.719  28.042  1.00  0.00     0.029 A 
ATOM     30  N   UNL A   1      46.687  29.143  27.856  1.00  0.00    -0.354 N 
ATOM     31  N   UNL A   1      45.742  26.383  27.447  1.00  0.00    -0.248 NA
ATOM     32  C   UNL A   1      46.119  24.203  26.695  1.00  0.00     0.031 C 
ATOM     33  C   UNL A   1      48.855  29.545  27.593  1.00  0.00     0.029 A 
ATOM     34  C   UNL A   1      47.890  28.557  27.495  1.00  0.00     0.049 A 
ATOM     35  H   UNL A   1      45.820  28.678  27.890  1.00  0.00     0.167 HD
ATOM     36  C   UNL A   1      47.074  26.252  27.081  1.00  0.00     0.074 A 
ATOM     37  C   UNL A   1      47.260  24.877  26.663  1.00  0.00     0.031 C 
ATOM     38  C   UNL A   1      48.054  27.187  27.081  1.00  0.00     0.037 A 
BRANCH  25  39
ATOM     39  C   UNL A   1      46.236  32.859  28.673  1.00  0.00     0.058 A 
ATOM     40  C   UNL A   1      46.192  33.762  27.600  1.00  0.00     0.135 A 
ATOM     41  C   UNL A   1      46.537  33.371  29.947  1.00  0.00     0.135 A 
ATOM     42  F   UNL A   1      45.923  33.327  26.359  1.00  0.00    -0.206 F 
ATOM     43  C   UNL A   1      46.426  35.122  27.787  1.00  0.00     0.059 A 
ATOM     44  C   UNL A   1      46.752  34.729  30.161  1.00  0.00     0.059 A 
ATOM     45  F   UNL A   1      46.595  32.550  31.007  1.00  0.00    -0.206 F 
ATOM     46  C   UNL A   1      46.693  35.598  29.073  1.00  0.00     0.060 A 
BRANCH  46  47
ATOM     47  S   UNL A   1      46.929  37.373  29.303  1.00  0.00     0.124 S 
ATOM     48  O   UNL A   1      47.885  37.402  30.406  1.00  0.00    -0.237 OA
ATOM     49  O   UNL A   1      47.448  37.789  28.005  1.00  0.00    -0.237 OA
ATOM     50  O   UNL A   1      45.590  37.858  29.625  1.00  0.00    -0.744 OA
ENDBRANCH  46  47
ENDBRANCH  25  39
BRANCH  26  51
ATOM     51  C   UNL A   1      43.324  23.404  27.113  1.00  0.00     0.058 A 
ATOM     52  C   UNL A   1      43.111  22.443  28.111  1.00  0.00     0.135 A 
ATOM     53  C   UNL A   1      43.113  23.018  25.779  1.00  0.00     0.135 A 
ATOM     54  F   UNL A   1      43.299  22.763  29.401  1.00  0.00    -0.206 F 
ATOM     55  C   UNL A   1      42.743  21.140  27.798  1.00  0.00     0.059 A 
ATOM     56  C   UNL A   1      42.709  21.731  25.443  1.00  0.00     0.059 A 
ATOM     57  F   UNL A   1      43.281  23.904  24.785  1.00  0.00    -0.206 F 
ATOM     58  C   UNL A   1      42.550  20.792  26.460  1.00  0.00     0.060 A 
BRANCH  58  59
ATOM     59  S   UNL A   1      42.077  19.096  26.063  1.00  0.00     0.124 S 
ATOM     60  O   UNL A   1      42.432  18.400  27.294  1.00  0.00    -0.237 OA
ATOM     61  O   UNL A   1      40.649  19.231  25.792  1.00  0.00    -0.237 OA
ATOM     62  O   UNL A   1      42.901  18.782  24.899  1.00  0.00    -0.744 OA
ENDBRANCH  58  59
ENDBRANCH  26  51
BRANCH  38  63
ATOM     63  C   UNL A   1      49.417  26.753  26.619  1.00  0.00     0.058 A 
ATOM     64  C   UNL A   1      50.298  26.076  27.477  1.00  0.00     0.135 A 
ATOM     65  C   UNL A   1      49.822  26.963  25.292  1.00  0.00     0.135 A 
ATOM     66  F   UNL A   1      49.964  25.864  28.759  1.00  0.00    -0.206 F 
ATOM     67  C   UNL A   1      51.541  25.634  27.037  1.00  0.00     0.059 A 
ATOM     68  C   UNL A   1      51.047  26.502  24.822  1.00  0.00     0.059 A 
ATOM     69  F   UNL A   1      49.014  27.602  24.429  1.00  0.00    -0.206 F 
ATOM     70  C   UNL A   1      51.903  25.844  25.705  1.00  0.00     0.060 A 
BRANCH  70  71
ATOM     71  S   UNL A   1      53.495  25.214  25.136  1.00  0.00     0.124 S 
ATOM     72  O   UNL A   1      54.422  25.920  26.014  1.00  0.00    -0.237 OA
ATOM     73  O   UNL A   1      53.363  23.779  25.375  1.00  0.00    -0.237 OA
ATOM     74  O   UNL A   1      53.537  25.609  23.732  1.00  0.00    -0.744 OA
ENDBRANCH  70  71
ENDBRANCH  38  63
ENDBRANCH  12  13
ENDBRANCH   5   7
ENDBRANCH   2   3
ENDBRANCH   1   2
BRANCH   1  75
ATOM     75  C   UNL A   1      33.286  29.361  26.242  1.00  0.00     0.118 C 
BRANCH  75  76
ATOM     76  N   UNL A   1      33.970  29.244  24.970  1.00  0.00    -0.352 N 
ATOM     77  C   UNL A   1      33.541  28.672  23.808  1.00  0.00     0.253 C 
ATOM     78  H   UNL A   1      34.874  29.635  24.940  1.00  0.00     0.163 HD
ATOM     79  O   UNL A   1      34.327  28.530  22.874  1.00  0.00    -0.269 OA
BRANCH  77  80
ATOM     80  C   UNL A   1      32.150  28.204  23.650  1.00  0.00     0.064 A 
ATOM     81  C   UNL A   1      31.210  29.214  23.360  1.00  0.00     0.024 A 
ATOM     82  C   UNL A   1      31.726  26.893  23.933  1.00  0.00     0.062 A 
ATOM     83  C   UNL A   1      29.835  28.937  23.329  1.00  0.00    -0.017 A 
ATOM     84  C   UNL A   1      30.347  26.670  24.014  1.00  0.00     0.036 A 
ATOM     85  C   UNL A   1      28.876  29.916  23.020  1.00  0.00     0.009 A 
ATOM     86  C   UNL A   1      29.403  27.639  23.652  1.00  0.00    -0.016 A 
ATOM     87  C   UNL A   1      27.516  29.597  22.991  1.00  0.00     0.001 A 
ATOM     88  C   UNL A   1      28.035  27.330  23.618  1.00  0.00     0.009 A 
ATOM     89  C   UNL A   1      27.097  28.301  23.277  1.00  0.00     0.001 A 
BRANCH  82  90
ATOM     90  N   UNL A   1      32.615  25.823  24.333  1.00  0.00    -0.279 N 
ATOM     91  H   UNL A   1      32.970  25.815  25.250  1.00  0.00     0.180 HD
BRANCH  90  92
ATOM     92  S   UNL A   1      33.070  24.565  23.252  1.00  0.00     0.263 S 
ATOM     93  O   UNL A   1      31.914  23.751  22.972  1.00  0.00    -0.201 OA
ATOM     94  O   UNL A   1      33.714  25.248  22.143  1.00  0.00    -0.201 OA
BRANCH  92  95
ATOM     95  C   UNL A   1      34.300  23.563  24.043  1.00  0.00     0.101 A 
ATOM     96  C   UNL A   1      35.510  23.388  23.347  1.00  0.00     0.023 A 
ATOM     97  C   UNL A   1      34.138  22.980  25.309  1.00  0.00     0.038 A 
ATOM     98  C   UNL A   1      36.577  22.714  23.939  1.00  0.00     0.001 A 
ATOM     99  C   UNL A   1      35.223  22.309  25.893  1.00  0.00     0.017 A 
ATOM    100  Br  UNL A   1      32.587  23.091  26.398  1.00  0.00    -0.049 Br
ATOM    101  C   UNL A   1      36.439  22.189  25.219  1.00  0.00     0.001 A 
ENDBRANCH  92  95
ENDBRANCH  90  92
ENDBRANCH  82  90
ENDBRANCH  77  80
ENDBRANCH  75  76
ENDBRANCH   1  75
TORSDOF 16
ENDMDL
MODEL 3
REMARK VINA RESULT:     -12.1      4.591      9.856
REMARK SMILES O=C(NCCCNC(=O)c1cc2ccccc2cc1NS(=O)(=O)c1ccccc1Br)c1ccc(-c2c3nc(c(-c4c(F)cc(S(=O)(=O)[O-])cc4F)c4ccc([nH]4)c(-c4c(F)cc(S(=O)(=O)[O-])cc4F)c4nc(c(-c5c(F)cc(S(=O)(=O)[O-])cc5F)c5ccc2[nH]5)C=C4)C=C3)cc1
REMARK SMILES IDX 5 1 4 2 3 3 1 4 2 5 31 7 32 8 96 9 33 10 95 11 34 12 35 13
REMARK SMILES IDX 36 14 89 15 37 16 94 17 88 18 90 19 38 20 93 21 87 22 86 23
REMARK SMILES IDX 39 25 73 26 52 27 72 28 53 29 56 30 71 31 91 32 54 33 55 34
REMARK SMILES IDX 70 36 92 37 57 38 40 39 41 40 50 41 42 42 43 43 49 44 51 45
REMARK SMILES IDX 44 46 45 47 46 48 47 49 48 50 74 51 75 52 84 53 76 54 77 55
REMARK SMILES IDX 83 56 85 57 78 58 79 59 80 60 81 61 82 62 58 63 59 64 68 65
REMARK SMILES IDX 60 66 61 67 67 68 69 69 62 70 63 71 64 72 65 73 66 74 6 75
REMARK SMILES IDX 7 76 8 77 9 79 10 80 11 81 19 82 12 83 18 84 13 85 17 86
REMARK SMILES IDX 14 87 16 88 15 89 20 90 21 92 22 93 23 94 24 95 25 96 29 97
REMARK SMILES IDX 26 98 28 99 30 100 27 101
REMARK H PARENT 3 6 90 24 56 35 7 78 20 91
REMARK Flexibility Score: inf
ROOT
ATOM      1  C   UNL A   1      37.561  23.008  26.031  1.00  0.00     0.042 C 
ENDROOT
BRANCH   1   2
ATOM      2  C   UNL A   1      38.507  24.098  26.504  1.00  0.00     0.118 C 
BRANCH   2   3
ATOM      3  N   UNL A   1      39.888  23.875  26.098  1.00  0.00    -0.352 N 
ATOM      4  O   UNL A   1      42.083  24.330  25.855  1.00  0.00    -0.269 OA
ATOM      5  C   UNL A   1      41.024  24.577  26.424  1.00  0.00     0.251 C 
ATOM      6  H   UNL A   1      40.029  23.105  25.500  1.00  0.00     0.163 HD
BRANCH   5   7
ATOM      7  C   UNL A   1      40.959  25.636  27.452  1.00  0.00     0.039 A 
ATOM      8  C   UNL A   1      40.061  25.529  28.514  1.00  0.00     0.014 A 
ATOM      9  C   UNL A   1      41.813  26.738  27.361  1.00  0.00     0.014 A 
ATOM     10  C   UNL A   1      39.904  26.587  29.396  1.00  0.00     0.010 A 
ATOM     11  C   UNL A   1      41.737  27.751  28.321  1.00  0.00     0.010 A 
ATOM     12  C   UNL A   1      40.773  27.687  29.339  1.00  0.00    -0.014 A 
BRANCH  12  13
ATOM     13  C   UNL A   1      40.748  28.671  30.448  1.00  0.00     0.031 A 
ATOM     14  C   UNL A   1      41.692  28.571  31.611  1.00  0.00     0.074 A 
ATOM     15  C   UNL A   1      39.840  29.666  30.378  1.00  0.00     0.049 A 
ATOM     16  N   UNL A   1      41.768  29.341  32.667  1.00  0.00    -0.248 NA
ATOM     17  C   UNL A   1      42.672  27.474  31.597  1.00  0.00     0.031 C 
ATOM     18  C   UNL A   1      38.862  29.838  29.296  1.00  0.00     0.029 A 
ATOM     19  N   UNL A   1      39.581  30.716  31.220  1.00  0.00    -0.354 N 
ATOM     20  C   UNL A   1      42.779  28.809  33.456  1.00  0.00     0.074 A 
ATOM     21  C   UNL A   1      43.290  27.647  32.761  1.00  0.00     0.031 C 
ATOM     22  C   UNL A   1      38.134  30.938  29.526  1.00  0.00     0.029 A 
ATOM     23  C   UNL A   1      38.531  31.502  30.807  1.00  0.00     0.049 A 
ATOM     24  H   UNL A   1      40.099  30.891  32.040  1.00  0.00     0.167 HD
ATOM     25  C   UNL A   1      43.229  29.257  34.652  1.00  0.00     0.037 A 
ATOM     26  C   UNL A   1      37.916  32.533  31.415  1.00  0.00     0.037 A 
ATOM     27  C   UNL A   1      42.719  30.432  35.315  1.00  0.00     0.049 A 
ATOM     28  C   UNL A   1      38.419  32.979  32.756  1.00  0.00     0.074 A 
ATOM     29  C   UNL A   1      43.165  31.015  36.489  1.00  0.00     0.029 A 
ATOM     30  N   UNL A   1      41.641  31.190  34.878  1.00  0.00    -0.354 N 
ATOM     31  N   UNL A   1      39.433  32.516  33.448  1.00  0.00    -0.248 NA
ATOM     32  C   UNL A   1      37.695  34.077  33.407  1.00  0.00     0.031 C 
ATOM     33  C   UNL A   1      42.315  32.080  36.799  1.00  0.00     0.029 A 
ATOM     34  C   UNL A   1      41.377  32.202  35.787  1.00  0.00     0.049 A 
ATOM     35  H   UNL A   1      41.140  31.033  34.046  1.00  0.00     0.167 HD
ATOM     36  C   UNL A   1      39.470  33.270  34.613  1.00  0.00     0.074 A 
ATOM     37  C   UNL A   1      38.401  34.242  34.516  1.00  0.00     0.031 C 
ATOM     38  C   UNL A   1      40.307  33.161  35.673  1.00  0.00     0.037 A 
BRANCH  25  39
ATOM     39  C   UNL A   1      44.311  28.484  35.355  1.00  0.00     0.058 A 
ATOM     40  C   UNL A   1      45.671  28.764  35.161  1.00  0.00     0.135 A 
ATOM     41  C   UNL A   1      43.972  27.534  36.334  1.00  0.00     0.135 A 
ATOM     42  F   UNL A   1      46.054  29.652  34.230  1.00  0.00    -0.206 F 
ATOM     43  C   UNL A   1      46.657  28.135  35.917  1.00  0.00     0.059 A 
ATOM     44  C   UNL A   1      44.938  26.910  37.117  1.00  0.00     0.059 A 
ATOM     45  F   UNL A   1      42.685  27.226  36.558  1.00  0.00    -0.206 F 
ATOM     46  C   UNL A   1      46.280  27.218  36.902  1.00  0.00     0.060 A 
BRANCH  46  47
ATOM     47  S   UNL A   1      47.570  26.464  37.915  1.00  0.00     0.124 S 
ATOM     48  O   UNL A   1      46.843  26.179  39.150  1.00  0.00    -0.237 OA
ATOM     49  O   UNL A   1      47.948  25.300  37.122  1.00  0.00    -0.237 OA
ATOM     50  O   UNL A   1      48.584  27.509  38.015  1.00  0.00    -0.744 OA
ENDBRANCH  46  47
ENDBRANCH  25  39
BRANCH  26  51
ATOM     51  C   UNL A   1      36.722  33.162  30.791  1.00  0.00     0.058 A 
ATOM     52  C   UNL A   1      36.846  34.070  29.731  1.00  0.00     0.135 A 
ATOM     53  C   UNL A   1      35.428  32.876  31.258  1.00  0.00     0.135 A 
ATOM     54  F   UNL A   1      38.060  34.376  29.248  1.00  0.00    -0.206 F 
ATOM     55  C   UNL A   1      35.736  34.702  29.181  1.00  0.00     0.059 A 
ATOM     56  C   UNL A   1      34.300  33.466  30.700  1.00  0.00     0.059 A 
ATOM     57  F   UNL A   1      35.250  31.997  32.257  1.00  0.00    -0.206 F 
ATOM     58  C   UNL A   1      34.467  34.397  29.677  1.00  0.00     0.060 A 
BRANCH  58  59
ATOM     59  S   UNL A   1      33.033  35.225  28.961  1.00  0.00     0.124 S 
ATOM     60  O   UNL A   1      32.557  34.219  28.019  1.00  0.00    -0.237 OA
ATOM     61  O   UNL A   1      32.193  35.453  30.133  1.00  0.00    -0.237 OA
ATOM     62  O   UNL A   1      33.603  36.430  28.365  1.00  0.00    -0.744 OA
ENDBRANCH  58  59
ENDBRANCH  26  51
BRANCH  38  63
ATOM     63  C   UNL A   1      40.102  34.122  36.811  1.00  0.00     0.058 A 
ATOM     64  C   UNL A   1      40.650  35.414  36.784  1.00  0.00     0.135 A 
ATOM     65  C   UNL A   1      39.303  33.768  37.909  1.00  0.00     0.135 A 
ATOM     66  F   UNL A   1      41.434  35.795  35.763  1.00  0.00    -0.206 F 
ATOM     67  C   UNL A   1      40.424  36.318  37.815  1.00  0.00     0.059 A 
ATOM     68  C   UNL A   1      39.037  34.668  38.936  1.00  0.00     0.059 A 
ATOM     69  F   UNL A   1      38.752  32.546  37.981  1.00  0.00    -0.206 F 
ATOM     70  C   UNL A   1      39.608  35.939  38.883  1.00  0.00     0.060 A 
BRANCH  70  71
ATOM     71  S   UNL A   1      39.278  37.145  40.184  1.00  0.00     0.124 S 
ATOM     72  O   UNL A   1      40.623  37.423  40.676  1.00  0.00    -0.237 OA
ATOM     73  O   UNL A   1      38.635  38.229  39.446  1.00  0.00    -0.237 OA
ATOM     74  O   UNL A   1      38.409  36.421  41.107  1.00  0.00    -0.744 OA
ENDBRANCH  70  71
ENDBRANCH  38  63
ENDBRANCH  12  13
ENDBRANCH   5   7
ENDBRANCH   2   3
ENDBRANCH   1   2
BRANCH   1  75
ATOM     75  C   UNL A   1      36.123  23.467  25.907  1.00  0.00     0.118 C 
BRANCH  75  76
ATOM     76  N   UNL A   1      35.311  23.161  27.067  1.00  0.00    -0.352 N 
ATOM     77  C   UNL A   1      34.066  22.605  27.127  1.00  0.00     0.253 C 
ATOM     78  H   UNL A   1      35.717  23.384  27.936  1.00  0.00     0.163 HD
ATOM     79  O   UNL A   1      33.470  22.566  28.201  1.00  0.00    -0.269 OA
BRANCH  77  80
ATOM     80  C   UNL A   1      33.408  22.061  25.923  1.00  0.00     0.064 A 
ATOM     81  C   UNL A   1      33.574  20.675  25.728  1.00  0.00     0.024 A 
ATOM     82  C   UNL A   1      32.806  22.855  24.930  1.00  0.00     0.062 A 
ATOM     83  C   UNL A   1      33.130  20.050  24.553  1.00  0.00    -0.017 A 
ATOM     84  C   UNL A   1      32.481  22.232  23.721  1.00  0.00     0.036 A 
ATOM     85  C   UNL A   1      33.258  18.668  24.340  1.00  0.00     0.009 A 
ATOM     86  C   UNL A   1      32.565  20.845  23.540  1.00  0.00    -0.016 A 
ATOM     87  C   UNL A   1      32.794  18.083  23.158  1.00  0.00     0.001 A 
ATOM     88  C   UNL A   1      32.101  20.247  22.359  1.00  0.00     0.009 A 
ATOM     89  C   UNL A   1      32.204  18.870  22.175  1.00  0.00     0.001 A 
BRANCH  82  90
ATOM     90  N   UNL A   1      32.684  24.296  25.010  1.00  0.00    -0.279 N 
ATOM     91  H   UNL A   1      33.447  24.855  24.737  1.00  0.00     0.180 HD
BRANCH  90  92
ATOM     92  S   UNL A   1      31.247  25.059  25.566  1.00  0.00     0.263 S 
ATOM     93  O   UNL A   1      30.198  24.836  24.603  1.00  0.00    -0.201 OA
ATOM     94  O   UNL A   1      31.061  24.553  26.915  1.00  0.00    -0.201 OA
BRANCH  92  95
ATOM     95  C   UNL A   1      31.550  26.801  25.692  1.00  0.00     0.101 A 
ATOM     96  C   UNL A   1      31.425  27.370  26.972  1.00  0.00     0.023 A 
ATOM     97  C   UNL A   1      31.930  27.609  24.609  1.00  0.00     0.038 A 
ATOM     98  C   UNL A   1      31.755  28.707  27.190  1.00  0.00     0.001 A 
ATOM     99  C   UNL A   1      32.264  28.951  24.845  1.00  0.00     0.017 A 
ATOM    100  Br  UNL A   1      32.144  27.038  22.812  1.00  0.00    -0.049 Br
ATOM    101  C   UNL A   1      32.191  29.493  26.130  1.00  0.00     0.001 A 
ENDBRANCH  92  95
ENDBRANCH  90  92
ENDBRANCH  82  90
ENDBRANCH  77  80
ENDBRANCH  75  76
ENDBRANCH   1  75
TORSDOF 16
ENDMDL
