MODEL 1
REMARK VINA RESULT:     -12.6      0.000      0.000
REMARK SMILES C=C[C@@H]1[C@@H](O)C[C@H]2[C@]3(CC[C@]4(C)[C@@H]([C@H](C)CCC=C(C)C)CC[C@]24C)C[C@]13CCC(=O)NCCCNC(=O)c1ccc(-c2c3nc(c(-c4c(F)cc(S(=O)(=O)[O-])cc4F)c4ccc([nH]4)c(-c4c(F)cc(S(=O)(=O)[O-])cc4F)c4nc(c(-c5c(F)cc(S(=O)(=O)[O-])cc5F)c5ccc2[nH]5)C=C4)C=C3)cc1
REMARK SMILES IDX 30 1 31 2 32 3 29 5 28 6 27 7 3 8 4 9 6 10 8 11 26 12 7 13
REMARK SMILES IDX 9 14 24 15 10 16 11 17 23 18 25 19 13 20 12 21 22 22 2 23
REMARK SMILES IDX 1 24 5 25 14 27 15 28 16 29 17 30 18 31 19 32 20 33 21 34
REMARK SMILES IDX 33 35 34 36 35 37 36 38 37 39 38 41 39 42 40 43 104 44 41 45
REMARK SMILES IDX 103 46 42 47 43 48 44 49 97 50 45 51 102 52 96 53 98 54
REMARK SMILES IDX 46 55 101 56 95 57 94 58 47 60 81 61 60 62 80 63 61 64 64 65
REMARK SMILES IDX 79 66 99 67 62 68 63 69 78 71 100 72 65 73 48 74 49 75 58 76
REMARK SMILES IDX 50 77 51 78 57 79 59 80 52 81 53 82 54 83 55 84 56 85 82 86
REMARK SMILES IDX 83 87 92 88 84 89 85 90 91 91 93 92 86 93 87 94 88 95 89 96
REMARK SMILES IDX 90 97 66 98 67 99 76 100 68 101 69 102 75 103 77 104 70 105
REMARK SMILES IDX 71 106 72 107 73 108 74 109
REMARK H PARENT 32 4 5 26 36 40 98 59 64 70
REMARK Flexibility Score: inf
ROOT
ATOM      1  C   UNL A   1      34.366  30.260  27.282  1.00  0.00     0.220 C 
ATOM      2  O   UNL A   1      35.187  29.335  27.442  1.00  0.00    -0.275 OA
ATOM      3  N   UNL A   1      34.790  31.414  27.891  1.00  0.00    -0.356 N 
ATOM      4  H   UNL A   1      35.658  31.215  28.310  1.00  0.00     0.163 HD
ENDROOT
BRANCH   1   5
ATOM      5  C   UNL A   1      33.106  29.917  26.379  1.00  0.00     0.100 C 
BRANCH   5   6
ATOM      6  C   UNL A   1      33.164  29.372  24.874  1.00  0.00     0.018 C 
BRANCH   6   7
ATOM      7  C   UNL A   1      32.140  28.284  24.494  1.00  0.00    -0.014 C 
ATOM      8  C   UNL A   1      31.393  28.713  23.255  1.00  0.00     0.047 C 
ATOM      9  C   UNL A   1      31.828  27.795  22.093  1.00  0.00     0.122 C 
ATOM     10  C   UNL A   1      31.455  26.391  22.414  1.00  0.00     0.037 C 
ATOM     11  C   UNL A   1      32.317  26.734  24.842  1.00  0.00    -0.019 C 
ATOM     12  C   UNL A   1      31.216  27.558  25.451  1.00  0.00     0.016 C 
ATOM     13  C   UNL A   1      32.293  25.841  23.566  1.00  0.00     0.005 C 
ATOM     14  C   UNL A   1      33.055  26.067  25.992  1.00  0.00     0.008 C 
ATOM     15  C   UNL A   1      31.979  24.311  23.744  1.00  0.00    -0.023 C 
ATOM     16  C   UNL A   1      32.471  24.647  26.188  1.00  0.00     0.008 C 
ATOM     17  C   UNL A   1      32.727  23.704  24.984  1.00  0.00    -0.024 C 
ATOM     18  C   UNL A   1      32.632  23.527  22.570  1.00  0.00     0.008 C 
ATOM     19  C   UNL A   1      30.451  24.065  23.732  1.00  0.00     0.012 C 
ATOM     20  C   UNL A   1      34.211  23.655  24.463  1.00  0.00    -0.002 C 
ATOM     21  C   UNL A   1      32.205  22.289  25.326  1.00  0.00     0.012 C 
ATOM     22  C   UNL A   1      34.091  23.300  22.963  1.00  0.00     0.005 C 
BRANCH   8  23
ATOM     23  C   UNL A   1      29.946  29.107  23.550  1.00  0.00    -0.028 C 
ATOM     24  C   UNL A   1      29.565  30.399  23.571  1.00  0.00     0.004 C 
ENDBRANCH   8  23
BRANCH   9  25
ATOM     25  O   UNL A   1      33.239  27.907  21.847  1.00  0.00    -0.392 OA
ATOM     26  H   UNL A   1      33.726  27.729  22.666  1.00  0.00     0.210 HD
ENDBRANCH   9  25
BRANCH  20  27
ATOM     27  C   UNL A   1      35.374  22.943  25.216  1.00  0.00    -0.010 C 
ATOM     28  C   UNL A   1      36.635  23.782  25.474  1.00  0.00     0.008 C 
BRANCH  27  29
ATOM     29  C   UNL A   1      35.777  21.574  24.612  1.00  0.00     0.008 C 
BRANCH  29  30
ATOM     30  C   UNL A   1      35.216  20.340  25.327  1.00  0.00     0.027 C 
BRANCH  30  31
ATOM     31  C   UNL A   1      34.118  19.675  24.534  1.00  0.00    -0.028 C 
ATOM     32  C   UNL A   1      34.045  18.373  24.187  1.00  0.00    -0.080 C 
ATOM     33  C   UNL A   1      32.898  17.848  23.363  1.00  0.00     0.039 C 
ATOM     34  C   UNL A   1      35.087  17.349  24.546  1.00  0.00     0.039 C 
ENDBRANCH  30  31
ENDBRANCH  29  30
ENDBRANCH  27  29
ENDBRANCH  20  27
ENDBRANCH   6   7
ENDBRANCH   5   6
ENDBRANCH   1   5
BRANCH   3  35
ATOM     35  C   UNL A   1      34.478  32.869  28.187  1.00  0.00     0.117 C 
BRANCH  35  36
ATOM     36  C   UNL A   1      35.703  33.682  28.689  1.00  0.00     0.042 C 
BRANCH  36  37
ATOM     37  C   UNL A   1      36.381  33.488  30.048  1.00  0.00     0.118 C 
BRANCH  37  38
ATOM     38  N   UNL A   1      36.008  32.296  30.814  1.00  0.00    -0.352 N 
ATOM     39  C   UNL A   1      36.646  31.099  31.110  1.00  0.00     0.251 C 
ATOM     40  H   UNL A   1      35.106  32.357  31.204  1.00  0.00     0.163 HD
ATOM     41  O   UNL A   1      36.022  30.296  31.809  1.00  0.00    -0.269 OA
BRANCH  39  42
ATOM     42  C   UNL A   1      38.012  30.703  30.636  1.00  0.00     0.039 A 
ATOM     43  C   UNL A   1      38.288  30.720  29.252  1.00  0.00     0.014 A 
ATOM     44  C   UNL A   1      39.010  30.229  31.480  1.00  0.00     0.014 A 
ATOM     45  C   UNL A   1      39.537  30.304  28.748  1.00  0.00     0.010 A 
ATOM     46  C   UNL A   1      40.289  29.938  30.996  1.00  0.00     0.010 A 
ATOM     47  C   UNL A   1      40.563  29.921  29.621  1.00  0.00    -0.014 A 
BRANCH  47  48
ATOM     48  C   UNL A   1      41.877  29.373  29.159  1.00  0.00     0.031 A 
ATOM     49  C   UNL A   1      43.082  30.291  29.112  1.00  0.00     0.074 A 
ATOM     50  C   UNL A   1      41.993  28.110  28.702  1.00  0.00     0.049 A 
ATOM     51  N   UNL A   1      44.254  30.110  28.559  1.00  0.00    -0.248 NA
ATOM     52  C   UNL A   1      42.912  31.622  29.718  1.00  0.00     0.031 C 
ATOM     53  C   UNL A   1      40.916  27.122  28.654  1.00  0.00     0.029 A 
ATOM     54  N   UNL A   1      43.075  27.445  28.177  1.00  0.00    -0.354 N 
ATOM     55  C   UNL A   1      44.926  31.324  28.688  1.00  0.00     0.074 A 
ATOM     56  C   UNL A   1      44.005  32.247  29.312  1.00  0.00     0.031 C 
ATOM     57  C   UNL A   1      41.400  25.966  28.166  1.00  0.00     0.029 A 
ATOM     58  C   UNL A   1      42.810  26.142  27.828  1.00  0.00     0.049 A 
ATOM     59  H   UNL A   1      43.959  27.864  28.061  1.00  0.00     0.167 HD
ATOM     60  C   UNL A   1      46.202  31.638  28.353  1.00  0.00     0.037 A 
ATOM     61  C   UNL A   1      43.613  25.195  27.300  1.00  0.00     0.037 A 
ATOM     62  C   UNL A   1      47.143  30.687  27.825  1.00  0.00     0.049 A 
ATOM     63  C   UNL A   1      45.049  25.534  26.998  1.00  0.00     0.074 A 
ATOM     64  C   UNL A   1      48.483  30.867  27.529  1.00  0.00     0.029 A 
ATOM     65  N   UNL A   1      46.844  29.362  27.541  1.00  0.00    -0.354 N 
ATOM     66  N   UNL A   1      45.673  26.680  27.144  1.00  0.00    -0.248 NA
ATOM     67  C   UNL A   1      45.891  24.454  26.467  1.00  0.00     0.031 C 
ATOM     68  C   UNL A   1      48.990  29.652  27.048  1.00  0.00     0.029 A 
ATOM     69  C   UNL A   1      47.974  28.709  27.076  1.00  0.00     0.049 A 
ATOM     70  H   UNL A   1      45.959  28.947  27.652  1.00  0.00     0.167 HD
ATOM     71  C   UNL A   1      46.987  26.451  26.748  1.00  0.00     0.074 A 
ATOM     72  C   UNL A   1      47.069  25.057  26.364  1.00  0.00     0.031 C 
ATOM     73  C   UNL A   1      48.033  27.315  26.711  1.00  0.00     0.037 A 
BRANCH  60  74
ATOM     74  C   UNL A   1      46.641  33.066  28.566  1.00  0.00     0.058 A 
ATOM     75  C   UNL A   1      47.177  33.503  29.790  1.00  0.00     0.135 A 
ATOM     76  C   UNL A   1      46.483  34.023  27.550  1.00  0.00     0.135 A 
ATOM     77  F   UNL A   1      47.345  32.635  30.802  1.00  0.00    -0.206 F 
ATOM     78  C   UNL A   1      47.461  34.844  30.025  1.00  0.00     0.059 A 
ATOM     79  C   UNL A   1      46.797  35.366  27.752  1.00  0.00     0.059 A 
ATOM     80  F   UNL A   1      45.992  33.665  26.353  1.00  0.00    -0.206 F 
ATOM     81  C   UNL A   1      47.251  35.770  29.008  1.00  0.00     0.060 A 
BRANCH  81  82
ATOM     82  S   UNL A   1      47.557  37.523  29.335  1.00  0.00     0.124 S 
ATOM     83  O   UNL A   1      48.391  37.442  30.537  1.00  0.00    -0.237 OA
ATOM     84  O   UNL A   1      48.261  37.946  28.120  1.00  0.00    -0.237 OA
ATOM     85  O   UNL A   1      46.241  38.073  29.517  1.00  0.00    -0.744 OA
ENDBRANCH  81  82
ENDBRANCH  60  74
BRANCH  61  86
ATOM     86  C   UNL A   1      43.094  23.814  27.102  1.00  0.00     0.058 A 
ATOM     87  C   UNL A   1      42.714  23.378  25.824  1.00  0.00     0.135 A 
ATOM     88  C   UNL A   1      43.022  22.889  28.155  1.00  0.00     0.135 A 
ATOM     89  F   UNL A   1      42.756  24.229  24.787  1.00  0.00    -0.206 F 
ATOM     90  C   UNL A   1      42.287  22.075  25.592  1.00  0.00     0.059 A 
ATOM     91  C   UNL A   1      42.615  21.573  27.945  1.00  0.00     0.059 A 
ATOM     92  F   UNL A   1      43.385  23.252  29.394  1.00  0.00    -0.206 F 
ATOM     93  C   UNL A   1      42.251  21.175  26.658  1.00  0.00     0.060 A 
BRANCH  93  94
ATOM     94  S   UNL A   1      41.785  19.462  26.324  1.00  0.00     0.124 S 
ATOM     95  O   UNL A   1      40.343  19.577  26.142  1.00  0.00    -0.237 OA
ATOM     96  O   UNL A   1      42.559  19.163  25.124  1.00  0.00    -0.237 OA
ATOM     97  O   UNL A   1      42.215  18.756  27.529  1.00  0.00    -0.744 OA
ENDBRANCH  93  94
ENDBRANCH  61  86
BRANCH  73  98
ATOM     98  C   UNL A   1      49.362  26.772  26.272  1.00  0.00     0.058 A 
ATOM     99  C   UNL A   1      49.841  26.963  24.968  1.00  0.00     0.135 A 
ATOM    100  C   UNL A   1      50.191  26.104  27.188  1.00  0.00     0.135 A 
ATOM    101  F   UNL A   1      49.083  27.591  24.055  1.00  0.00    -0.206 F 
ATOM    102  C   UNL A   1      51.092  26.495  24.579  1.00  0.00     0.059 A 
ATOM    103  C   UNL A   1      51.455  25.647  26.828  1.00  0.00     0.059 A 
ATOM    104  F   UNL A   1      49.782  25.905  28.451  1.00  0.00    -0.206 F 
ATOM    105  C   UNL A   1      51.893  25.840  25.518  1.00  0.00     0.060 A 
BRANCH 105 106
ATOM    106  S   UNL A   1      53.531  25.273  25.014  1.00  0.00     0.124 S 
ATOM    107  O   UNL A   1      53.497  23.873  25.424  1.00  0.00    -0.237 OA
ATOM    108  O   UNL A   1      53.518  25.513  23.575  1.00  0.00    -0.237 OA
ATOM    109  O   UNL A   1      54.435  26.129  25.776  1.00  0.00    -0.744 OA
ENDBRANCH 105 106
ENDBRANCH  73  98
ENDBRANCH  47  48
ENDBRANCH  39  42
ENDBRANCH  37  38
ENDBRANCH  36  37
ENDBRANCH  35  36
ENDBRANCH   3  35
TORSDOF 21
ENDMDL
MODEL 2
REMARK VINA RESULT:     -12.3      1.520      2.386
REMARK SMILES C=C[C@@H]1[C@@H](O)C[C@H]2[C@]3(CC[C@]4(C)[C@@H]([C@H](C)CCC=C(C)C)CC[C@]24C)C[C@]13CCC(=O)NCCCNC(=O)c1ccc(-c2c3nc(c(-c4c(F)cc(S(=O)(=O)[O-])cc4F)c4ccc([nH]4)c(-c4c(F)cc(S(=O)(=O)[O-])cc4F)c4nc(c(-c5c(F)cc(S(=O)(=O)[O-])cc5F)c5ccc2[nH]5)C=C4)C=C3)cc1
REMARK SMILES IDX 30 1 31 2 32 3 29 5 28 6 27 7 3 8 4 9 6 10 8 11 26 12 7 13
REMARK SMILES IDX 9 14 24 15 10 16 11 17 23 18 25 19 13 20 12 21 22 22 2 23
REMARK SMILES IDX 1 24 5 25 14 27 15 28 16 29 17 30 18 31 19 32 20 33 21 34
REMARK SMILES IDX 33 35 34 36 35 37 36 38 37 39 38 41 39 42 40 43 104 44 41 45
REMARK SMILES IDX 103 46 42 47 43 48 44 49 97 50 45 51 102 52 96 53 98 54
REMARK SMILES IDX 46 55 101 56 95 57 94 58 47 60 81 61 60 62 80 63 61 64 64 65
REMARK SMILES IDX 79 66 99 67 62 68 63 69 78 71 100 72 65 73 48 74 49 75 58 76
REMARK SMILES IDX 50 77 51 78 57 79 59 80 52 81 53 82 54 83 55 84 56 85 82 86
REMARK SMILES IDX 83 87 92 88 84 89 85 90 91 91 93 92 86 93 87 94 88 95 89 96
REMARK SMILES IDX 90 97 66 98 67 99 76 100 68 101 69 102 75 103 77 104 70 105
REMARK SMILES IDX 71 106 72 107 73 108 74 109
REMARK H PARENT 32 4 5 26 36 40 98 59 64 70
REMARK Flexibility Score: inf
ROOT
ATOM      1  C   UNL A   1      33.434  30.996  27.227  1.00  0.00     0.220 C 
ATOM      2  O   UNL A   1      34.389  30.342  27.692  1.00  0.00    -0.275 OA
ATOM      3  N   UNL A   1      33.423  32.279  27.714  1.00  0.00    -0.356 N 
ATOM      4  H   UNL A   1      34.191  32.360  28.324  1.00  0.00     0.163 HD
ENDROOT
BRANCH   1   5
ATOM      5  C   UNL A   1      32.535  30.240  26.159  1.00  0.00     0.100 C 
BRANCH   5   6
ATOM      6  C   UNL A   1      33.080  29.260  25.015  1.00  0.00     0.018 C 
BRANCH   6   7
ATOM      7  C   UNL A   1      32.118  28.154  24.538  1.00  0.00    -0.014 C 
ATOM      8  C   UNL A   1      31.428  28.603  23.273  1.00  0.00     0.047 C 
ATOM      9  C   UNL A   1      31.960  27.743  22.107  1.00  0.00     0.122 C 
ATOM     10  C   UNL A   1      31.619  26.318  22.357  1.00  0.00     0.037 C 
ATOM     11  C   UNL A   1      32.329  26.599  24.841  1.00  0.00    -0.019 C 
ATOM     12  C   UNL A   1      31.166  27.363  25.414  1.00  0.00     0.016 C 
ATOM     13  C   UNL A   1      32.409  25.753  23.536  1.00  0.00     0.005 C 
ATOM     14  C   UNL A   1      33.023  25.914  26.008  1.00  0.00     0.008 C 
ATOM     15  C   UNL A   1      32.139  24.208  23.641  1.00  0.00    -0.023 C 
ATOM     16  C   UNL A   1      32.478  24.469  26.120  1.00  0.00     0.008 C 
ATOM     17  C   UNL A   1      32.835  23.580  24.901  1.00  0.00    -0.024 C 
ATOM     18  C   UNL A   1      32.884  23.490  22.480  1.00  0.00     0.008 C 
ATOM     19  C   UNL A   1      30.623  23.912  23.532  1.00  0.00     0.012 C 
ATOM     20  C   UNL A   1      34.347  23.599  24.465  1.00  0.00    -0.002 C 
ATOM     21  C   UNL A   1      32.344  22.138  25.162  1.00  0.00     0.012 C 
ATOM     22  C   UNL A   1      34.326  23.297  22.949  1.00  0.00     0.005 C 
BRANCH   8  23
ATOM     23  C   UNL A   1      29.954  28.939  23.498  1.00  0.00    -0.028 C 
ATOM     24  C   UNL A   1      29.514  30.212  23.459  1.00  0.00     0.004 C 
ENDBRANCH   8  23
BRANCH   9  25
ATOM     25  O   UNL A   1      33.378  27.911  21.947  1.00  0.00    -0.392 OA
ATOM     26  H   UNL A   1      33.599  27.920  21.003  1.00  0.00     0.210 HD
ENDBRANCH   9  25
BRANCH  20  27
ATOM     27  C   UNL A   1      35.489  22.899  25.260  1.00  0.00    -0.010 C 
ATOM     28  C   UNL A   1      36.639  23.798  25.738  1.00  0.00     0.008 C 
BRANCH  27  29
ATOM     29  C   UNL A   1      36.071  21.643  24.560  1.00  0.00     0.008 C 
BRANCH  29  30
ATOM     30  C   UNL A   1      35.672  20.297  25.173  1.00  0.00     0.027 C 
BRANCH  30  31
ATOM     31  C   UNL A   1      34.328  19.822  24.674  1.00  0.00    -0.028 C 
ATOM     32  C   UNL A   1      33.993  18.562  24.325  1.00  0.00    -0.080 C 
ATOM     33  C   UNL A   1      32.616  18.235  23.812  1.00  0.00     0.039 C 
ATOM     34  C   UNL A   1      34.943  17.396  24.377  1.00  0.00     0.039 C 
ENDBRANCH  30  31
ENDBRANCH  29  30
ENDBRANCH  27  29
ENDBRANCH  20  27
ENDBRANCH   6   7
ENDBRANCH   5   6
ENDBRANCH   1   5
BRANCH   3  35
ATOM     35  C   UNL A   1      32.720  33.622  27.704  1.00  0.00     0.117 C 
BRANCH  35  36
ATOM     36  C   UNL A   1      33.439  34.711  28.547  1.00  0.00     0.042 C 
BRANCH  36  37
ATOM     37  C   UNL A   1      34.591  34.443  29.519  1.00  0.00     0.118 C 
BRANCH  37  38
ATOM     38  N   UNL A   1      34.283  33.655  30.716  1.00  0.00    -0.352 N 
ATOM     39  C   UNL A   1      34.936  32.637  31.397  1.00  0.00     0.251 C 
ATOM     40  H   UNL A   1      33.424  33.902  31.127  1.00  0.00     0.163 HD
ATOM     41  O   UNL A   1      34.375  32.193  32.402  1.00  0.00    -0.269 OA
BRANCH  39  42
ATOM     42  C   UNL A   1      36.246  32.027  30.997  1.00  0.00     0.039 A 
ATOM     43  C   UNL A   1      37.053  31.426  31.986  1.00  0.00     0.014 A 
ATOM     44  C   UNL A   1      36.763  32.098  29.708  1.00  0.00     0.014 A 
ATOM     45  C   UNL A   1      38.318  30.888  31.675  1.00  0.00     0.010 A 
ATOM     46  C   UNL A   1      37.958  31.454  29.372  1.00  0.00     0.010 A 
ATOM     47  C   UNL A   1      38.781  30.883  30.354  1.00  0.00    -0.014 A 
BRANCH  47  48
ATOM     48  C   UNL A   1      40.151  30.423  29.962  1.00  0.00     0.031 A 
ATOM     49  C   UNL A   1      41.304  31.404  30.031  1.00  0.00     0.074 A 
ATOM     50  C   UNL A   1      40.365  29.188  29.467  1.00  0.00     0.049 A 
ATOM     51  N   UNL A   1      42.519  31.308  29.553  1.00  0.00    -0.248 NA
ATOM     52  C   UNL A   1      41.022  32.699  30.673  1.00  0.00     0.031 C 
ATOM     53  C   UNL A   1      39.350  28.147  29.310  1.00  0.00     0.029 A 
ATOM     54  N   UNL A   1      41.515  28.602  28.992  1.00  0.00    -0.354 N 
ATOM     55  C   UNL A   1      43.113  32.548  29.772  1.00  0.00     0.074 A 
ATOM     56  C   UNL A   1      42.103  33.396  30.367  1.00  0.00     0.031 C 
ATOM     57  C   UNL A   1      39.928  27.039  28.813  1.00  0.00     0.029 A 
ATOM     58  C   UNL A   1      41.345  27.302  28.578  1.00  0.00     0.049 A 
ATOM     59  H   UNL A   1      42.381  29.071  28.953  1.00  0.00     0.167 HD
ATOM     60  C   UNL A   1      44.389  32.943  29.537  1.00  0.00     0.037 A 
ATOM     61  C   UNL A   1      42.232  26.421  28.071  1.00  0.00     0.037 A 
ATOM     62  C   UNL A   1      45.414  32.064  29.039  1.00  0.00     0.049 A 
ATOM     63  C   UNL A   1      43.664  26.847  27.880  1.00  0.00     0.074 A 
ATOM     64  C   UNL A   1      46.758  32.325  28.841  1.00  0.00     0.029 A 
ATOM     65  N   UNL A   1      45.207  30.738  28.686  1.00  0.00    -0.354 N 
ATOM     66  N   UNL A   1      44.214  28.017  28.110  1.00  0.00    -0.248 NA
ATOM     67  C   UNL A   1      44.597  25.835  27.367  1.00  0.00     0.031 C 
ATOM     68  C   UNL A   1      47.361  31.160  28.351  1.00  0.00     0.029 A 
ATOM     69  C   UNL A   1      46.398  30.165  28.275  1.00  0.00     0.049 A 
ATOM     70  H   UNL A   1      44.340  30.273  28.721  1.00  0.00     0.167 HD
ATOM     71  C   UNL A   1      45.561  27.874  27.797  1.00  0.00     0.074 A 
ATOM     72  C   UNL A   1      45.744  26.502  27.367  1.00  0.00     0.031 C 
ATOM     73  C   UNL A   1      46.558  28.792  27.863  1.00  0.00     0.037 A 
BRANCH  60  74
ATOM     74  C   UNL A   1      44.734  34.381  29.833  1.00  0.00     0.058 A 
ATOM     75  C   UNL A   1      44.627  35.387  28.856  1.00  0.00     0.135 A 
ATOM     76  C   UNL A   1      45.222  34.756  31.096  1.00  0.00     0.135 A 
ATOM     77  F   UNL A   1      44.174  35.088  27.626  1.00  0.00    -0.206 F 
ATOM     78  C   UNL A   1      45.066  36.684  29.092  1.00  0.00     0.059 A 
ATOM     79  C   UNL A   1      45.633  36.060  31.366  1.00  0.00     0.059 A 
ATOM     80  F   UNL A   1      45.333  33.845  32.076  1.00  0.00    -0.206 F 
ATOM     81  C   UNL A   1      45.584  37.007  30.343  1.00  0.00     0.060 A 
BRANCH  81  82
ATOM     82  S   UNL A   1      46.217  38.677  30.630  1.00  0.00     0.124 S 
ATOM     83  O   UNL A   1      45.278  39.474  29.835  1.00  0.00    -0.237 OA
ATOM     84  O   UNL A   1      46.072  38.818  32.083  1.00  0.00    -0.237 OA
ATOM     85  O   UNL A   1      47.568  38.622  30.141  1.00  0.00    -0.744 OA
ENDBRANCH  81  82
ENDBRANCH  60  74
BRANCH  61  86
ATOM     86  C   UNL A   1      41.804  25.025  27.787  1.00  0.00     0.058 A 
ATOM     87  C   UNL A   1      41.053  24.735  26.638  1.00  0.00     0.135 A 
ATOM     88  C   UNL A   1      42.178  23.951  28.609  1.00  0.00     0.135 A 
ATOM     89  F   UNL A   1      40.662  25.729  25.826  1.00  0.00    -0.206 F 
ATOM     90  C   UNL A   1      40.692  23.433  26.309  1.00  0.00     0.059 A 
ATOM     91  C   UNL A   1      41.845  22.635  28.290  1.00  0.00     0.059 A 
ATOM     92  F   UNL A   1      42.907  24.172  29.714  1.00  0.00    -0.206 F 
ATOM     93  C   UNL A   1      41.102  22.387  27.136  1.00  0.00     0.060 A 
BRANCH  93  94
ATOM     94  S   UNL A   1      40.708  20.693  26.645  1.00  0.00     0.124 S 
ATOM     95  O   UNL A   1      41.788  20.397  25.712  1.00  0.00    -0.237 OA
ATOM     96  O   UNL A   1      40.755  19.986  27.921  1.00  0.00    -0.237 OA
ATOM     97  O   UNL A   1      39.378  20.816  26.054  1.00  0.00    -0.744 OA
ENDBRANCH  93  94
ENDBRANCH  61  86
BRANCH  73  98
ATOM     98  C   UNL A   1      47.941  28.337  27.495  1.00  0.00     0.058 A 
ATOM     99  C   UNL A   1      48.867  27.936  28.469  1.00  0.00     0.135 A 
ATOM    100  C   UNL A   1      48.321  28.245  26.146  1.00  0.00     0.135 A 
ATOM    101  F   UNL A   1      48.553  28.010  29.772  1.00  0.00    -0.206 F 
ATOM    102  C   UNL A   1      50.132  27.474  28.120  1.00  0.00     0.059 A 
ATOM    103  C   UNL A   1      49.572  27.765  25.773  1.00  0.00     0.059 A 
ATOM    104  F   UNL A   1      47.467  28.607  25.176  1.00  0.00    -0.206 F 
ATOM    105  C   UNL A   1      50.474  27.390  26.768  1.00  0.00     0.060 A 
BRANCH 105 106
ATOM    106  S   UNL A   1      52.103  26.750  26.325  1.00  0.00     0.124 S 
ATOM    107  O   UNL A   1      51.807  26.015  25.100  1.00  0.00    -0.237 OA
ATOM    108  O   UNL A   1      52.886  27.970  26.159  1.00  0.00    -0.237 OA
ATOM    109  O   UNL A   1      52.469  25.931  27.477  1.00  0.00    -0.744 OA
ENDBRANCH 105 106
ENDBRANCH  73  98
ENDBRANCH  47  48
ENDBRANCH  39  42
ENDBRANCH  37  38
ENDBRANCH  36  37
ENDBRANCH  35  36
ENDBRANCH   3  35
TORSDOF 21
ENDMDL
MODEL 3
REMARK VINA RESULT:     -11.9      1.888      2.793
REMARK SMILES C=C[C@@H]1[C@@H](O)C[C@H]2[C@]3(CC[C@]4(C)[C@@H]([C@H](C)CCC=C(C)C)CC[C@]24C)C[C@]13CCC(=O)NCCCNC(=O)c1ccc(-c2c3nc(c(-c4c(F)cc(S(=O)(=O)[O-])cc4F)c4ccc([nH]4)c(-c4c(F)cc(S(=O)(=O)[O-])cc4F)c4nc(c(-c5c(F)cc(S(=O)(=O)[O-])cc5F)c5ccc2[nH]5)C=C4)C=C3)cc1
REMARK SMILES IDX 30 1 31 2 32 3 29 5 28 6 27 7 3 8 4 9 6 10 8 11 26 12 7 13
REMARK SMILES IDX 9 14 24 15 10 16 11 17 23 18 25 19 13 20 12 21 22 22 2 23
REMARK SMILES IDX 1 24 5 25 14 27 15 28 16 29 17 30 18 31 19 32 20 33 21 34
REMARK SMILES IDX 33 35 34 36 35 37 36 38 37 39 38 41 39 42 40 43 104 44 41 45
REMARK SMILES IDX 103 46 42 47 43 48 44 49 97 50 45 51 102 52 96 53 98 54
REMARK SMILES IDX 46 55 101 56 95 57 94 58 47 60 81 61 60 62 80 63 61 64 64 65
REMARK SMILES IDX 79 66 99 67 62 68 63 69 78 71 100 72 65 73 48 74 49 75 58 76
REMARK SMILES IDX 50 77 51 78 57 79 59 80 52 81 53 82 54 83 55 84 56 85 82 86
REMARK SMILES IDX 83 87 92 88 84 89 85 90 91 91 93 92 86 93 87 94 88 95 89 96
REMARK SMILES IDX 90 97 66 98 67 99 76 100 68 101 69 102 75 103 77 104 70 105
REMARK SMILES IDX 71 106 72 107 73 108 74 109
REMARK H PARENT 32 4 5 26 36 40 98 59 64 70
REMARK Flexibility Score: inf
ROOT
ATOM      1  C   UNL A   1      31.006  29.536  23.247  1.00  0.00     0.220 C 
ATOM      2  O   UNL A   1      30.039  29.725  22.481  1.00  0.00    -0.275 OA
ATOM      3  N   UNL A   1      30.859  30.238  24.417  1.00  0.00    -0.356 N 
ATOM      4  H   UNL A   1      30.007  30.725  24.355  1.00  0.00     0.163 HD
ENDROOT
BRANCH   1   5
ATOM      5  C   UNL A   1      32.101  28.505  22.737  1.00  0.00     0.100 C 
BRANCH   5   6
ATOM      6  C   UNL A   1      32.875  27.445  23.654  1.00  0.00     0.018 C 
BRANCH   6   7
ATOM      7  C   UNL A   1      32.024  26.321  24.278  1.00  0.00    -0.014 C 
ATOM      8  C   UNL A   1      30.713  26.217  23.537  1.00  0.00     0.047 C 
ATOM      9  C   UNL A   1      30.714  24.893  22.746  1.00  0.00     0.122 C 
ATOM     10  C   UNL A   1      30.816  23.755  23.698  1.00  0.00     0.037 C 
ATOM     11  C   UNL A   1      32.639  25.048  25.023  1.00  0.00    -0.019 C 
ATOM     12  C   UNL A   1      31.822  26.074  25.760  1.00  0.00     0.016 C 
ATOM     13  C   UNL A   1      32.187  23.709  24.368  1.00  0.00     0.005 C 
ATOM     14  C   UNL A   1      33.946  24.897  25.786  1.00  0.00     0.008 C 
ATOM     15  C   UNL A   1      32.296  22.396  25.225  1.00  0.00    -0.023 C 
ATOM     16  C   UNL A   1      33.810  23.698  26.755  1.00  0.00     0.008 C 
ATOM     17  C   UNL A   1      33.642  22.337  26.031  1.00  0.00    -0.024 C 
ATOM     18  C   UNL A   1      32.452  21.184  24.263  1.00  0.00     0.008 C 
ATOM     19  C   UNL A   1      31.024  22.201  26.085  1.00  0.00     0.012 C 
ATOM     20  C   UNL A   1      34.681  22.044  24.885  1.00  0.00    -0.002 C 
ATOM     21  C   UNL A   1      33.627  21.201  27.079  1.00  0.00     0.012 C 
ATOM     22  C   UNL A   1      33.937  21.106  23.907  1.00  0.00     0.005 C 
BRANCH   8  23
ATOM     23  C   UNL A   1      29.533  26.732  24.362  1.00  0.00    -0.028 C 
ATOM     24  C   UNL A   1      28.267  26.378  24.066  1.00  0.00     0.004 C 
ENDBRANCH   8  23
BRANCH   9  25
ATOM     25  O   UNL A   1      31.789  24.862  21.792  1.00  0.00    -0.392 OA
ATOM     26  H   UNL A   1      31.537  25.367  21.004  1.00  0.00     0.210 HD
ENDBRANCH   9  25
BRANCH  20  27
ATOM     27  C   UNL A   1      36.174  21.680  25.138  1.00  0.00    -0.010 C 
ATOM     28  C   UNL A   1      37.215  22.719  24.695  1.00  0.00     0.008 C 
BRANCH  27  29
ATOM     29  C   UNL A   1      36.583  20.280  24.613  1.00  0.00     0.008 C 
BRANCH  29  30
ATOM     30  C   UNL A   1      35.895  19.089  25.288  1.00  0.00     0.027 C 
BRANCH  30  31
ATOM     31  C   UNL A   1      35.335  18.112  24.283  1.00  0.00    -0.028 C 
ATOM     32  C   UNL A   1      34.121  17.524  24.315  1.00  0.00    -0.080 C 
ATOM     33  C   UNL A   1      33.703  16.539  23.255  1.00  0.00     0.039 C 
ATOM     34  C   UNL A   1      33.103  17.758  25.398  1.00  0.00     0.039 C 
ENDBRANCH  30  31
ENDBRANCH  29  30
ENDBRANCH  27  29
ENDBRANCH  20  27
ENDBRANCH   6   7
ENDBRANCH   5   6
ENDBRANCH   1   5
BRANCH   3  35
ATOM     35  C   UNL A   1      31.465  30.575  25.766  1.00  0.00     0.117 C 
BRANCH  35  36
ATOM     36  C   UNL A   1      32.227  29.390  26.423  1.00  0.00     0.042 C 
BRANCH  36  37
ATOM     37  C   UNL A   1      33.578  29.508  27.133  1.00  0.00     0.118 C 
BRANCH  37  38
ATOM     38  N   UNL A   1      33.711  30.564  28.140  1.00  0.00    -0.352 N 
ATOM     39  C   UNL A   1      34.766  31.042  28.906  1.00  0.00     0.251 C 
ATOM     40  H   UNL A   1      32.866  31.039  28.312  1.00  0.00     0.163 HD
ATOM     41  O   UNL A   1      34.517  31.976  29.673  1.00  0.00    -0.269 OA
BRANCH  39  42
ATOM     42  C   UNL A   1      36.166  30.503  28.887  1.00  0.00     0.039 A 
ATOM     43  C   UNL A   1      36.791  30.177  30.109  1.00  0.00     0.014 A 
ATOM     44  C   UNL A   1      36.927  30.387  27.729  1.00  0.00     0.014 A 
ATOM     45  C   UNL A   1      38.124  29.720  30.152  1.00  0.00     0.010 A 
ATOM     46  C   UNL A   1      38.202  29.815  27.757  1.00  0.00     0.010 A 
ATOM     47  C   UNL A   1      38.844  29.518  28.968  1.00  0.00    -0.014 A 
BRANCH  47  48
ATOM     48  C   UNL A   1      40.290  29.134  28.938  1.00  0.00     0.031 A 
ATOM     49  C   UNL A   1      41.335  30.171  29.296  1.00  0.00     0.074 A 
ATOM     50  C   UNL A   1      40.687  27.917  28.515  1.00  0.00     0.049 A 
ATOM     51  N   UNL A   1      42.635  30.141  29.142  1.00  0.00    -0.248 NA
ATOM     52  C   UNL A   1      40.832  31.441  29.844  1.00  0.00     0.031 C 
ATOM     53  C   UNL A   1      39.800  26.828  28.106  1.00  0.00     0.029 A 
ATOM     54  N   UNL A   1      41.948  27.395  28.348  1.00  0.00    -0.354 N 
ATOM     55  C   UNL A   1      43.088  31.408  29.503  1.00  0.00     0.074 A 
ATOM     56  C   UNL A   1      41.918  32.196  29.821  1.00  0.00     0.031 C 
ATOM     57  C   UNL A   1      40.542  25.756  27.774  1.00  0.00     0.029 A 
ATOM     58  C   UNL A   1      41.957  26.093  27.906  1.00  0.00     0.049 A 
ATOM     59  H   UNL A   1      42.770  27.908  28.529  1.00  0.00     0.167 HD
ATOM     60  C   UNL A   1      44.360  31.869  29.599  1.00  0.00     0.037 A 
ATOM     61  C   UNL A   1      42.988  25.265  27.642  1.00  0.00     0.037 A 
ATOM     62  C   UNL A   1      45.522  31.049  29.379  1.00  0.00     0.049 A 
ATOM     63  C   UNL A   1      44.397  25.765  27.821  1.00  0.00     0.074 A 
ATOM     64  C   UNL A   1      46.857  31.381  29.529  1.00  0.00     0.029 A 
ATOM     65  N   UNL A   1      45.481  29.718  28.987  1.00  0.00    -0.354 N 
ATOM     66  N   UNL A   1      44.809  26.958  28.181  1.00  0.00    -0.248 NA
ATOM     67  C   UNL A   1      45.481  24.807  27.563  1.00  0.00     0.031 C 
ATOM     68  C   UNL A   1      47.624  30.253  29.210  1.00  0.00     0.029 A 
ATOM     69  C   UNL A   1      46.766  29.212  28.893  1.00  0.00     0.049 A 
ATOM     70  H   UNL A   1      44.659  29.210  28.801  1.00  0.00     0.167 HD
ATOM     71  C   UNL A   1      46.198  26.887  28.221  1.00  0.00     0.074 A 
ATOM     72  C   UNL A   1      46.554  25.531  27.853  1.00  0.00     0.031 C 
ATOM     73  C   UNL A   1      47.096  27.854  28.536  1.00  0.00     0.037 A 
BRANCH  60  74
ATOM     74  C   UNL A   1      44.544  33.320  29.971  1.00  0.00     0.058 A 
ATOM     75  C   UNL A   1      44.737  33.726  31.303  1.00  0.00     0.135 A 
ATOM     76  C   UNL A   1      44.480  34.324  28.990  1.00  0.00     0.135 A 
ATOM     77  F   UNL A   1      44.798  32.812  32.286  1.00  0.00    -0.206 F 
ATOM     78  C   UNL A   1      44.777  35.070  31.657  1.00  0.00     0.059 A 
ATOM     79  C   UNL A   1      44.557  35.676  29.319  1.00  0.00     0.059 A 
ATOM     80  F   UNL A   1      44.314  33.999  27.699  1.00  0.00    -0.206 F 
ATOM     81  C   UNL A   1      44.669  36.037  30.662  1.00  0.00     0.060 A 
BRANCH  81  82
ATOM     82  S   UNL A   1      44.654  37.785  31.130  1.00  0.00     0.124 S 
ATOM     83  O   UNL A   1      44.152  38.401  29.898  1.00  0.00    -0.237 OA
ATOM     84  O   UNL A   1      43.714  37.795  32.255  1.00  0.00    -0.237 OA
ATOM     85  O   UNL A   1      46.026  38.063  31.461  1.00  0.00    -0.744 OA
ENDBRANCH  81  82
ENDBRANCH  60  74
BRANCH  61  86
ATOM     86  C   UNL A   1      42.719  23.852  27.261  1.00  0.00     0.058 A 
ATOM     87  C   UNL A   1      42.779  23.458  25.915  1.00  0.00     0.135 A 
ATOM     88  C   UNL A   1      42.459  22.859  28.219  1.00  0.00     0.135 A 
ATOM     89  F   UNL A   1      43.014  24.373  24.961  1.00  0.00    -0.206 F 
ATOM     90  C   UNL A   1      42.597  22.135  25.530  1.00  0.00     0.059 A 
ATOM     91  C   UNL A   1      42.292  21.523  27.860  1.00  0.00     0.059 A 
ATOM     92  F   UNL A   1      42.403  23.180  29.520  1.00  0.00    -0.206 F 
ATOM     93  C   UNL A   1      42.365  21.171  26.512  1.00  0.00     0.060 A 
BRANCH  93  94
ATOM     94  S   UNL A   1      42.226  19.442  26.006  1.00  0.00     0.124 S 
ATOM     95  O   UNL A   1      42.615  18.745  27.227  1.00  0.00    -0.237 OA
ATOM     96  O   UNL A   1      40.818  19.343  25.636  1.00  0.00    -0.237 OA
ATOM     97  O   UNL A   1      43.167  19.340  24.894  1.00  0.00    -0.744 OA
ENDBRANCH  93  94
ENDBRANCH  61  86
BRANCH  73  98
ATOM     98  C   UNL A   1      48.548  27.474  28.532  1.00  0.00     0.058 A 
ATOM     99  C   UNL A   1      49.343  27.614  27.386  1.00  0.00     0.135 A 
ATOM    100  C   UNL A   1      49.165  27.020  29.710  1.00  0.00     0.135 A 
ATOM    101  F   UNL A   1      48.799  28.039  26.234  1.00  0.00    -0.206 F 
ATOM    102  C   UNL A   1      50.699  27.302  27.400  1.00  0.00     0.059 A 
ATOM    103  C   UNL A   1      50.523  26.723  29.754  1.00  0.00     0.059 A 
ATOM    104  F   UNL A   1      48.449  26.879  30.837  1.00  0.00    -0.206 F 
ATOM    105  C   UNL A   1      51.280  26.859  28.591  1.00  0.00     0.060 A 
BRANCH 105 106
ATOM    106  S   UNL A   1      53.048  26.496  28.608  1.00  0.00     0.124 S 
ATOM    107  O   UNL A   1      53.152  25.489  27.557  1.00  0.00    -0.237 OA
ATOM    108  O   UNL A   1      53.639  27.795  28.304  1.00  0.00    -0.237 OA
ATOM    109  O   UNL A   1      53.281  26.012  29.966  1.00  0.00    -0.744 OA
ENDBRANCH 105 106
ENDBRANCH  73  98
ENDBRANCH  47  48
ENDBRANCH  39  42
ENDBRANCH  37  38
ENDBRANCH  36  37
ENDBRANCH  35  36
ENDBRANCH   3  35
TORSDOF 21
ENDMDL
