MODEL 1
REMARK VINA RESULT:     -12.0      0.000      0.000
REMARK SMILES C[C@@H](C(=O)NCCCNC(=O)c1ccc(-c2c3nc(c(-c4c(F)cc(S(=O)(=O)[O-])cc4F)c4ccc([nH]4)c(-c4c(F)cc(S(=O)(=O)[O-])cc4F)c4nc(c(-c5c(F)cc(S(=O)(=O)[O-])cc5F)c5ccc2[nH]5)C=C4)C=C3)cc1)c1ccc(C[C@@H]2CCC[C@@H]2O)cc1Br
REMARK SMILES IDX 6 1 5 2 3 3 4 4 2 6 1 7 78 8 79 9 90 10 80 11 89 12 91 13
REMARK SMILES IDX 81 14 82 15 83 16 84 17 87 18 85 19 86 20 88 21 7 23 8 24
REMARK SMILES IDX 9 25 10 26 11 28 12 29 13 30 77 31 14 32 76 33 15 34 16 35
REMARK SMILES IDX 17 36 70 37 18 38 75 39 69 40 71 41 19 42 74 43 68 44 67 45
REMARK SMILES IDX 20 47 54 48 33 49 53 50 34 51 37 52 52 53 72 54 35 55 36 56
REMARK SMILES IDX 51 58 73 59 38 60 21 61 22 62 31 63 23 64 24 65 30 66 32 67
REMARK SMILES IDX 25 68 26 69 27 70 28 71 29 72 55 73 56 74 65 75 57 76 58 77
REMARK SMILES IDX 64 78 66 79 59 80 60 81 61 82 62 83 63 84 39 85 40 86 49 87
REMARK SMILES IDX 41 88 42 89 48 90 50 91 43 92 44 93 45 94 46 95 47 96
REMARK H PARENT 5 5 88 22 9 27 71 46 37 57
REMARK Flexibility Score: inf
ROOT
ATOM      1  C   UNL A   1      38.132  23.488  26.228  1.00  0.00     0.117 C 
ENDROOT
BRANCH   1   2
ATOM      2  N   UNL A   1      37.712  23.560  24.839  1.00  0.00    -0.356 N 
ATOM      3  C   UNL A   1      36.567  23.120  24.238  1.00  0.00     0.227 C 
ATOM      4  O   UNL A   1      36.634  22.962  23.017  1.00  0.00    -0.274 OA
ATOM      5  H   UNL A   1      38.357  23.994  24.235  1.00  0.00     0.163 HD
BRANCH   3   6
ATOM      6  C   UNL A   1      35.309  22.819  25.084  1.00  0.00     0.106 C 
ATOM      7  C   UNL A   1      34.650  21.596  24.427  1.00  0.00     0.023 C 
BRANCH   6   8
ATOM      8  C   UNL A   1      34.339  24.003  25.297  1.00  0.00    -0.022 A 
ATOM      9  C   UNL A   1      34.542  25.215  24.604  1.00  0.00     0.006 A 
ATOM     10  C   UNL A   1      33.254  23.989  26.198  1.00  0.00     0.022 A 
ATOM     11  C   UNL A   1      33.662  26.297  24.700  1.00  0.00     0.004 A 
ATOM     12  C   UNL A   1      32.374  25.082  26.300  1.00  0.00     0.019 A 
ATOM     13  Br  UNL A   1      32.911  22.595  27.450  1.00  0.00    -0.051 Br
ATOM     14  C   UNL A   1      32.571  26.250  25.558  1.00  0.00    -0.047 A 
BRANCH  14  15
ATOM     15  C   UNL A   1      31.660  27.435  25.736  1.00  0.00     0.041 C 
BRANCH  15  16
ATOM     16  C   UNL A   1      30.553  27.658  24.680  1.00  0.00     0.022 C 
ATOM     17  C   UNL A   1      30.444  26.558  23.617  1.00  0.00     0.007 C 
ATOM     18  C   UNL A   1      30.633  28.932  23.830  1.00  0.00     0.117 C 
ATOM     19  C   UNL A   1      31.149  27.083  22.363  1.00  0.00     0.003 C 
ATOM     20  C   UNL A   1      31.487  28.547  22.631  1.00  0.00     0.032 C 
BRANCH  18  21
ATOM     21  O   UNL A   1      31.150  30.053  24.512  1.00  0.00    -0.393 OA
ATOM     22  H   UNL A   1      31.334  30.762  23.877  1.00  0.00     0.210 HD
ENDBRANCH  18  21
ENDBRANCH  15  16
ENDBRANCH  14  15
ENDBRANCH   6   8
ENDBRANCH   3   6
ENDBRANCH   1   2
BRANCH   1  23
ATOM     23  C   UNL A   1      39.364  22.598  26.404  1.00  0.00     0.042 C 
BRANCH  23  24
ATOM     24  C   UNL A   1      40.618  23.331  26.878  1.00  0.00     0.118 C 
BRANCH  24  25
ATOM     25  N   UNL A   1      41.115  24.281  25.894  1.00  0.00    -0.352 N 
ATOM     26  C   UNL A   1      41.295  25.639  26.001  1.00  0.00     0.251 C 
ATOM     27  H   UNL A   1      41.358  23.894  25.022  1.00  0.00     0.163 HD
ATOM     28  O   UNL A   1      41.532  26.300  24.991  1.00  0.00    -0.269 OA
BRANCH  26  29
ATOM     29  C   UNL A   1      41.175  26.314  27.314  1.00  0.00     0.039 A 
ATOM     30  C   UNL A   1      42.156  27.233  27.693  1.00  0.00     0.014 A 
ATOM     31  C   UNL A   1      40.107  26.040  28.173  1.00  0.00     0.014 A 
ATOM     32  C   UNL A   1      42.021  27.941  28.891  1.00  0.00     0.010 A 
ATOM     33  C   UNL A   1      39.937  26.796  29.333  1.00  0.00     0.010 A 
ATOM     34  C   UNL A   1      40.885  27.765  29.697  1.00  0.00    -0.014 A 
BRANCH  34  35
ATOM     35  C   UNL A   1      40.642  28.616  30.893  1.00  0.00     0.031 A 
ATOM     36  C   UNL A   1      39.569  29.671  30.876  1.00  0.00     0.074 A 
ATOM     37  C   UNL A   1      41.457  28.496  31.964  1.00  0.00     0.049 A 
ATOM     38  N   UNL A   1      39.289  30.575  31.780  1.00  0.00    -0.248 NA
ATOM     39  C   UNL A   1      38.712  29.734  29.681  1.00  0.00     0.031 C 
ATOM     40  C   UNL A   1      42.561  27.540  32.083  1.00  0.00     0.029 A 
ATOM     41  N   UNL A   1      41.502  29.197  33.144  1.00  0.00    -0.354 N 
ATOM     42  C   UNL A   1      38.246  31.328  31.254  1.00  0.00     0.074 A 
ATOM     43  C   UNL A   1      37.957  30.792  29.942  1.00  0.00     0.031 C 
ATOM     44  C   UNL A   1      43.169  27.712  33.267  1.00  0.00     0.029 A 
ATOM     45  C   UNL A   1      42.536  28.822  33.972  1.00  0.00     0.049 A 
ATOM     46  H   UNL A   1      40.855  29.903  33.377  1.00  0.00     0.167 HD
ATOM     47  C   UNL A   1      37.585  32.366  31.823  1.00  0.00     0.037 A 
ATOM     48  C   UNL A   1      42.950  29.331  35.150  1.00  0.00     0.037 A 
ATOM     49  C   UNL A   1      37.856  32.868  33.145  1.00  0.00     0.049 A 
ATOM     50  C   UNL A   1      42.206  30.497  35.747  1.00  0.00     0.074 A 
ATOM     51  C   UNL A   1      37.172  33.846  33.845  1.00  0.00     0.029 A 
ATOM     52  N   UNL A   1      38.899  32.450  33.957  1.00  0.00    -0.354 N 
ATOM     53  N   UNL A   1      41.153  31.126  35.282  1.00  0.00    -0.248 NA
ATOM     54  C   UNL A   1      42.706  31.028  37.023  1.00  0.00     0.031 C 
ATOM     55  C   UNL A   1      37.840  34.068  35.052  1.00  0.00     0.029 A 
ATOM     56  C   UNL A   1      38.905  33.186  35.131  1.00  0.00     0.049 A 
ATOM     57  H   UNL A   1      39.540  31.737  33.733  1.00  0.00     0.167 HD
ATOM     58  C   UNL A   1      40.854  32.110  36.218  1.00  0.00     0.074 A 
ATOM     59  C   UNL A   1      41.822  31.981  37.286  1.00  0.00     0.031 C 
ATOM     60  C   UNL A   1      39.869  33.041  36.193  1.00  0.00     0.037 A 
BRANCH  47  61
ATOM     61  C   UNL A   1      36.502  33.045  31.030  1.00  0.00     0.058 A 
ATOM     62  C   UNL A   1      35.144  32.892  31.347  1.00  0.00     0.135 A 
ATOM     63  C   UNL A   1      36.837  33.946  30.005  1.00  0.00     0.135 A 
ATOM     64  F   UNL A   1      34.766  32.034  32.308  1.00  0.00    -0.206 F 
ATOM     65  C   UNL A   1      34.156  33.603  30.673  1.00  0.00     0.059 A 
ATOM     66  C   UNL A   1      35.868  34.688  29.337  1.00  0.00     0.059 A 
ATOM     67  F   UNL A   1      38.122  34.130  29.662  1.00  0.00    -0.206 F 
ATOM     68  C   UNL A   1      34.529  34.507  29.675  1.00  0.00     0.060 A 
BRANCH  68  69
ATOM     69  S   UNL A   1      33.237  35.459  28.849  1.00  0.00     0.124 S 
ATOM     70  O   UNL A   1      32.559  34.422  28.078  1.00  0.00    -0.237 OA
ATOM     71  O   UNL A   1      32.484  36.003  29.976  1.00  0.00    -0.237 OA
ATOM     72  O   UNL A   1      33.982  36.438  28.064  1.00  0.00    -0.744 OA
ENDBRANCH  68  69
ENDBRANCH  47  61
BRANCH  48  73
ATOM     73  C   UNL A   1      44.145  28.767  35.838  1.00  0.00     0.058 A 
ATOM     74  C   UNL A   1      45.433  29.255  35.572  1.00  0.00     0.135 A 
ATOM     75  C   UNL A   1      44.027  27.707  36.751  1.00  0.00     0.135 A 
ATOM     76  F   UNL A   1      45.602  30.263  34.702  1.00  0.00    -0.206 F 
ATOM     77  C   UNL A   1      46.563  28.690  36.156  1.00  0.00     0.059 A 
ATOM     78  C   UNL A   1      45.138  27.147  37.374  1.00  0.00     0.059 A 
ATOM     79  F   UNL A   1      42.817  27.212  37.056  1.00  0.00    -0.206 F 
ATOM     80  C   UNL A   1      46.405  27.634  37.054  1.00  0.00     0.060 A 
BRANCH  80  81
ATOM     81  S   UNL A   1      47.876  26.912  37.812  1.00  0.00     0.124 S 
ATOM     82  O   UNL A   1      47.573  27.052  39.231  1.00  0.00    -0.237 OA
ATOM     83  O   UNL A   1      47.855  25.550  37.285  1.00  0.00    -0.237 OA
ATOM     84  O   UNL A   1      48.957  27.753  37.310  1.00  0.00    -0.744 OA
ENDBRANCH  80  81
ENDBRANCH  48  73
BRANCH  60  85
ATOM     85  C   UNL A   1      39.766  33.985  37.359  1.00  0.00     0.058 A 
ATOM     86  C   UNL A   1      40.323  35.272  37.312  1.00  0.00     0.135 A 
ATOM     87  C   UNL A   1      39.030  33.629  38.501  1.00  0.00     0.135 A 
ATOM     88  F   UNL A   1      41.046  35.658  36.249  1.00  0.00    -0.206 F 
ATOM     89  C   UNL A   1      40.158  36.172  38.360  1.00  0.00     0.059 A 
ATOM     90  C   UNL A   1      38.828  34.523  39.547  1.00  0.00     0.059 A 
ATOM     91  F   UNL A   1      38.472  32.412  38.593  1.00  0.00    -0.206 F 
ATOM     92  C   UNL A   1      39.400  35.793  39.468  1.00  0.00     0.060 A 
BRANCH  92  93
ATOM     93  S   UNL A   1      39.136  36.997  40.787  1.00  0.00     0.124 S 
ATOM     94  O   UNL A   1      38.317  37.999  40.113  1.00  0.00    -0.237 OA
ATOM     95  O   UNL A   1      38.456  36.201  41.804  1.00  0.00    -0.237 OA
ATOM     96  O   UNL A   1      40.489  37.424  41.135  1.00  0.00    -0.744 OA
ENDBRANCH  92  93
ENDBRANCH  60  85
ENDBRANCH  34  35
ENDBRANCH  26  29
ENDBRANCH  24  25
ENDBRANCH  23  24
ENDBRANCH   1  23
TORSDOF 17
ENDMDL
MODEL 2
REMARK VINA RESULT:     -12.0      0.479      8.264
REMARK SMILES C[C@@H](C(=O)NCCCNC(=O)c1ccc(-c2c3nc(c(-c4c(F)cc(S(=O)(=O)[O-])cc4F)c4ccc([nH]4)c(-c4c(F)cc(S(=O)(=O)[O-])cc4F)c4nc(c(-c5c(F)cc(S(=O)(=O)[O-])cc5F)c5ccc2[nH]5)C=C4)C=C3)cc1)c1ccc(C[C@@H]2CCC[C@@H]2O)cc1Br
REMARK SMILES IDX 6 1 5 2 3 3 4 4 2 6 1 7 78 8 79 9 90 10 80 11 89 12 91 13
REMARK SMILES IDX 81 14 82 15 83 16 84 17 87 18 85 19 86 20 88 21 7 23 8 24
REMARK SMILES IDX 9 25 10 26 11 28 12 29 13 30 77 31 14 32 76 33 15 34 16 35
REMARK SMILES IDX 17 36 70 37 18 38 75 39 69 40 71 41 19 42 74 43 68 44 67 45
REMARK SMILES IDX 20 47 54 48 33 49 53 50 34 51 37 52 52 53 72 54 35 55 36 56
REMARK SMILES IDX 51 58 73 59 38 60 21 61 22 62 31 63 23 64 24 65 30 66 32 67
REMARK SMILES IDX 25 68 26 69 27 70 28 71 29 72 55 73 56 74 65 75 57 76 58 77
REMARK SMILES IDX 64 78 66 79 59 80 60 81 61 82 62 83 63 84 39 85 40 86 49 87
REMARK SMILES IDX 41 88 42 89 48 90 50 91 43 92 44 93 45 94 46 95 47 96
REMARK H PARENT 5 5 88 22 9 27 71 46 37 57
REMARK Flexibility Score: inf
ROOT
ATOM      1  C   UNL A   1      38.042  23.660  26.238  1.00  0.00     0.117 C 
ENDROOT
BRANCH   1   2
ATOM      2  N   UNL A   1      37.675  23.642  24.833  1.00  0.00    -0.356 N 
ATOM      3  C   UNL A   1      36.566  23.134  24.216  1.00  0.00     0.227 C 
ATOM      4  O   UNL A   1      36.685  22.911  23.010  1.00  0.00    -0.274 OA
ATOM      5  H   UNL A   1      38.329  24.060  24.229  1.00  0.00     0.163 HD
BRANCH   3   6
ATOM      6  C   UNL A   1      35.285  22.842  25.031  1.00  0.00     0.106 C 
ATOM      7  C   UNL A   1      34.619  21.642  24.341  1.00  0.00     0.023 C 
BRANCH   6   8
ATOM      8  C   UNL A   1      34.333  24.039  25.244  1.00  0.00    -0.022 A 
ATOM      9  C   UNL A   1      34.555  25.249  24.553  1.00  0.00     0.006 A 
ATOM     10  C   UNL A   1      33.246  24.040  26.145  1.00  0.00     0.022 A 
ATOM     11  C   UNL A   1      33.690  26.344  24.650  1.00  0.00     0.004 A 
ATOM     12  C   UNL A   1      32.383  25.146  26.246  1.00  0.00     0.019 A 
ATOM     13  Br  UNL A   1      32.882  22.650  27.394  1.00  0.00    -0.051 Br
ATOM     14  C   UNL A   1      32.597  26.312  25.506  1.00  0.00    -0.047 A 
BRANCH  14  15
ATOM     15  C   UNL A   1      31.704  27.510  25.684  1.00  0.00     0.041 C 
BRANCH  15  16
ATOM     16  C   UNL A   1      30.560  27.714  24.664  1.00  0.00     0.022 C 
ATOM     17  C   UNL A   1      30.456  26.628  23.586  1.00  0.00     0.007 C 
ATOM     18  C   UNL A   1      30.576  29.003  23.835  1.00  0.00     0.117 C 
ATOM     19  C   UNL A   1      31.108  27.196  22.322  1.00  0.00     0.003 C 
ATOM     20  C   UNL A   1      31.406  28.666  22.605  1.00  0.00     0.032 C 
BRANCH  18  21
ATOM     21  O   UNL A   1      31.076  30.129  24.521  1.00  0.00    -0.393 OA
ATOM     22  H   UNL A   1      30.791  30.938  24.068  1.00  0.00     0.210 HD
ENDBRANCH  18  21
ENDBRANCH  15  16
ENDBRANCH  14  15
ENDBRANCH   6   8
ENDBRANCH   3   6
ENDBRANCH   1   2
BRANCH   1  23
ATOM     23  C   UNL A   1      39.089  22.593  26.566  1.00  0.00     0.042 C 
BRANCH  23  24
ATOM     24  C   UNL A   1      40.426  23.141  27.061  1.00  0.00     0.118 C 
BRANCH  24  25
ATOM     25  N   UNL A   1      41.129  23.905  26.042  1.00  0.00    -0.352 N 
ATOM     26  C   UNL A   1      41.520  25.223  26.048  1.00  0.00     0.251 C 
ATOM     27  H   UNL A   1      41.358  23.405  25.226  1.00  0.00     0.163 HD
ATOM     28  O   UNL A   1      41.921  25.740  25.007  1.00  0.00    -0.269 OA
BRANCH  26  29
ATOM     29  C   UNL A   1      41.431  26.028  27.288  1.00  0.00     0.039 A 
ATOM     30  C   UNL A   1      42.543  26.772  27.691  1.00  0.00     0.014 A 
ATOM     31  C   UNL A   1      40.263  26.049  28.056  1.00  0.00     0.014 A 
ATOM     32  C   UNL A   1      42.456  27.602  28.812  1.00  0.00     0.010 A 
ATOM     33  C   UNL A   1      40.155  26.930  29.132  1.00  0.00     0.010 A 
ATOM     34  C   UNL A   1      41.245  27.726  29.513  1.00  0.00    -0.014 A 
BRANCH  34  35
ATOM     35  C   UNL A   1      41.081  28.718  30.612  1.00  0.00     0.031 A 
ATOM     36  C   UNL A   1      41.889  28.597  31.875  1.00  0.00     0.074 A 
ATOM     37  C   UNL A   1      40.133  29.673  30.502  1.00  0.00     0.049 A 
ATOM     38  N   UNL A   1      41.803  29.298  32.977  1.00  0.00    -0.248 NA
ATOM     39  C   UNL A   1      42.913  27.540  31.917  1.00  0.00     0.031 C 
ATOM     40  C   UNL A   1      39.256  29.865  29.344  1.00  0.00     0.029 A 
ATOM     41  N   UNL A   1      39.729  30.646  31.384  1.00  0.00    -0.354 N 
ATOM     42  C   UNL A   1      42.738  28.753  33.849  1.00  0.00     0.074 A 
ATOM     43  C   UNL A   1      43.365  27.647  33.159  1.00  0.00     0.031 C 
ATOM     44  C   UNL A   1      38.424  30.890  29.585  1.00  0.00     0.029 A 
ATOM     45  C   UNL A   1      38.669  31.398  30.931  1.00  0.00     0.049 A 
ATOM     46  H   UNL A   1      40.158  30.792  32.258  1.00  0.00     0.167 HD
ATOM     47  C   UNL A   1      43.049  29.149  35.107  1.00  0.00     0.037 A 
ATOM     48  C   UNL A   1      37.952  32.365  31.538  1.00  0.00     0.037 A 
ATOM     49  C   UNL A   1      42.446  30.275  35.771  1.00  0.00     0.049 A 
ATOM     50  C   UNL A   1      38.311  32.770  32.944  1.00  0.00     0.074 A 
ATOM     51  C   UNL A   1      42.768  30.815  37.004  1.00  0.00     0.029 A 
ATOM     52  N   UNL A   1      41.389  31.020  35.273  1.00  0.00    -0.354 N 
ATOM     53  N   UNL A   1      39.271  32.312  33.712  1.00  0.00    -0.248 NA
ATOM     54  C   UNL A   1      37.488  33.815  33.571  1.00  0.00     0.031 C 
ATOM     55  C   UNL A   1      41.864  31.843  37.281  1.00  0.00     0.029 A 
ATOM     56  C   UNL A   1      41.016  31.984  36.196  1.00  0.00     0.049 A 
ATOM     57  H   UNL A   1      40.966  30.885  34.394  1.00  0.00     0.167 HD
ATOM     58  C   UNL A   1      39.180  33.029  34.902  1.00  0.00     0.074 A 
ATOM     59  C   UNL A   1      38.087  33.965  34.744  1.00  0.00     0.031 C 
ATOM     60  C   UNL A   1      39.932  32.918  36.024  1.00  0.00     0.037 A 
BRANCH  47  61
ATOM     61  C   UNL A   1      44.086  28.368  35.868  1.00  0.00     0.058 A 
ATOM     62  C   UNL A   1      43.744  27.286  36.691  1.00  0.00     0.135 A 
ATOM     63  C   UNL A   1      45.452  28.645  35.685  1.00  0.00     0.135 A 
ATOM     64  F   UNL A   1      42.454  26.985  36.911  1.00  0.00    -0.206 F 
ATOM     65  C   UNL A   1      44.717  26.508  37.310  1.00  0.00     0.059 A 
ATOM     66  C   UNL A   1      46.442  27.865  36.273  1.00  0.00     0.059 A 
ATOM     67  F   UNL A   1      45.835  29.671  34.908  1.00  0.00    -0.206 F 
ATOM     68  C   UNL A   1      46.065  26.799  37.087  1.00  0.00     0.060 A 
BRANCH  68  69
ATOM     69  S   UNL A   1      47.312  25.746  37.857  1.00  0.00     0.124 S 
ATOM     70  O   UNL A   1      48.523  26.171  37.161  1.00  0.00    -0.237 OA
ATOM     71  O   UNL A   1      47.221  26.133  39.261  1.00  0.00    -0.237 OA
ATOM     72  O   UNL A   1      46.855  24.394  37.550  1.00  0.00    -0.744 OA
ENDBRANCH  68  69
ENDBRANCH  47  61
BRANCH  48  73
ATOM     73  C   UNL A   1      36.802  33.004  30.839  1.00  0.00     0.058 A 
ATOM     74  C   UNL A   1      37.005  33.948  29.821  1.00  0.00     0.135 A 
ATOM     75  C   UNL A   1      35.477  32.708  31.197  1.00  0.00     0.135 A 
ATOM     76  F   UNL A   1      38.252  34.271  29.445  1.00  0.00    -0.206 F 
ATOM     77  C   UNL A   1      35.940  34.602  29.209  1.00  0.00     0.059 A 
ATOM     78  C   UNL A   1      34.395  33.324  30.577  1.00  0.00     0.059 A 
ATOM     79  F   UNL A   1      35.224  31.801  32.153  1.00  0.00    -0.206 F 
ATOM     80  C   UNL A   1      34.637  34.285  29.597  1.00  0.00     0.060 A 
BRANCH  80  81
ATOM     81  S   UNL A   1      33.262  35.134  28.792  1.00  0.00     0.124 S 
ATOM     82  O   UNL A   1      33.952  36.210  28.091  1.00  0.00    -0.237 OA
ATOM     83  O   UNL A   1      32.700  34.080  27.952  1.00  0.00    -0.237 OA
ATOM     84  O   UNL A   1      32.423  35.546  29.913  1.00  0.00    -0.744 OA
ENDBRANCH  80  81
ENDBRANCH  48  73
BRANCH  60  85
ATOM     85  C   UNL A   1      39.620  33.840  37.170  1.00  0.00     0.058 A 
ATOM     86  C   UNL A   1      38.707  33.482  38.173  1.00  0.00     0.135 A 
ATOM     87  C   UNL A   1      40.306  35.058  37.311  1.00  0.00     0.135 A 
ATOM     88  F   UNL A   1      38.017  32.334  38.080  1.00  0.00    -0.206 F 
ATOM     89  C   UNL A   1      38.480  34.301  39.274  1.00  0.00     0.059 A 
ATOM     90  C   UNL A   1      40.116  35.879  38.418  1.00  0.00     0.059 A 
ATOM     91  F   UNL A   1      41.193  35.446  36.382  1.00  0.00    -0.206 F 
ATOM     92  C   UNL A   1      39.197  35.492  39.394  1.00  0.00     0.060 A 
BRANCH  92  93
ATOM     93  S   UNL A   1      38.943  36.509  40.864  1.00  0.00     0.124 S 
ATOM     94  O   UNL A   1      38.020  35.685  41.637  1.00  0.00    -0.237 OA
ATOM     95  O   UNL A   1      40.295  36.623  41.401  1.00  0.00    -0.237 OA
ATOM     96  O   UNL A   1      38.381  37.747  40.329  1.00  0.00    -0.744 OA
ENDBRANCH  92  93
ENDBRANCH  60  85
ENDBRANCH  34  35
ENDBRANCH  26  29
ENDBRANCH  24  25
ENDBRANCH  23  24
ENDBRANCH   1  23
TORSDOF 17
ENDMDL
MODEL 3
REMARK VINA RESULT:     -11.9      5.425     10.360
REMARK SMILES C[C@@H](C(=O)NCCCNC(=O)c1ccc(-c2c3nc(c(-c4c(F)cc(S(=O)(=O)[O-])cc4F)c4ccc([nH]4)c(-c4c(F)cc(S(=O)(=O)[O-])cc4F)c4nc(c(-c5c(F)cc(S(=O)(=O)[O-])cc5F)c5ccc2[nH]5)C=C4)C=C3)cc1)c1ccc(C[C@@H]2CCC[C@@H]2O)cc1Br
REMARK SMILES IDX 6 1 5 2 3 3 4 4 2 6 1 7 78 8 79 9 90 10 80 11 89 12 91 13
REMARK SMILES IDX 81 14 82 15 83 16 84 17 87 18 85 19 86 20 88 21 7 23 8 24
REMARK SMILES IDX 9 25 10 26 11 28 12 29 13 30 77 31 14 32 76 33 15 34 16 35
REMARK SMILES IDX 17 36 70 37 18 38 75 39 69 40 71 41 19 42 74 43 68 44 67 45
REMARK SMILES IDX 20 47 54 48 33 49 53 50 34 51 37 52 52 53 72 54 35 55 36 56
REMARK SMILES IDX 51 58 73 59 38 60 21 61 22 62 31 63 23 64 24 65 30 66 32 67
REMARK SMILES IDX 25 68 26 69 27 70 28 71 29 72 55 73 56 74 65 75 57 76 58 77
REMARK SMILES IDX 64 78 66 79 59 80 60 81 61 82 62 83 63 84 39 85 40 86 49 87
REMARK SMILES IDX 41 88 42 89 48 90 50 91 43 92 44 93 45 94 46 95 47 96
REMARK H PARENT 5 5 88 22 9 27 71 46 37 57
REMARK Flexibility Score: inf
ROOT
ATOM      1  C   UNL A   1      32.200  26.583  26.361  1.00  0.00     0.117 C 
ENDROOT
BRANCH   1   2
ATOM      2  N   UNL A   1      31.418  26.235  25.188  1.00  0.00    -0.356 N 
ATOM      3  C   UNL A   1      31.813  25.736  23.979  1.00  0.00     0.227 C 
ATOM      4  O   UNL A   1      31.015  25.895  23.052  1.00  0.00    -0.274 OA
ATOM      5  H   UNL A   1      30.449  26.384  25.278  1.00  0.00     0.163 HD
BRANCH   3   6
ATOM      6  C   UNL A   1      33.194  25.060  23.828  1.00  0.00     0.106 C 
ATOM      7  C   UNL A   1      33.637  25.338  22.383  1.00  0.00     0.023 C 
BRANCH   6   8
ATOM      8  C   UNL A   1      33.261  23.567  24.217  1.00  0.00    -0.022 A 
ATOM      9  C   UNL A   1      32.099  22.769  24.157  1.00  0.00     0.006 A 
ATOM     10  C   UNL A   1      34.422  22.920  24.693  1.00  0.00     0.022 A 
ATOM     11  C   UNL A   1      32.109  21.397  24.430  1.00  0.00     0.004 A 
ATOM     12  C   UNL A   1      34.427  21.542  24.974  1.00  0.00     0.019 A 
ATOM     13  Br  UNL A   1      36.049  23.810  25.127  1.00  0.00    -0.051 Br
ATOM     14  C   UNL A   1      33.271  20.766  24.853  1.00  0.00    -0.047 A 
BRANCH  14  15
ATOM     15  C   UNL A   1      33.281  19.309  25.229  1.00  0.00     0.041 C 
BRANCH  15  16
ATOM     16  C   UNL A   1      33.709  18.289  24.149  1.00  0.00     0.022 C 
ATOM     17  C   UNL A   1      32.726  17.133  23.927  1.00  0.00     0.007 C 
ATOM     18  C   UNL A   1      35.039  17.556  24.357  1.00  0.00     0.117 C 
ATOM     19  C   UNL A   1      33.288  15.924  24.681  1.00  0.00     0.003 C 
ATOM     20  C   UNL A   1      34.680  16.318  25.166  1.00  0.00     0.032 C 
BRANCH  18  21
ATOM     21  O   UNL A   1      36.037  18.330  24.987  1.00  0.00    -0.393 OA
ATOM     22  H   UNL A   1      35.634  18.878  25.677  1.00  0.00     0.210 HD
ENDBRANCH  18  21
ENDBRANCH  15  16
ENDBRANCH  14  15
ENDBRANCH   6   8
ENDBRANCH   3   6
ENDBRANCH   1   2
BRANCH   1  23
ATOM     23  C   UNL A   1      32.479  28.086  26.434  1.00  0.00     0.042 C 
BRANCH  23  24
ATOM     24  C   UNL A   1      33.691  28.470  27.281  1.00  0.00     0.118 C 
BRANCH  24  25
ATOM     25  N   UNL A   1      33.672  29.869  27.680  1.00  0.00    -0.352 N 
ATOM     26  C   UNL A   1      34.638  30.612  28.315  1.00  0.00     0.251 C 
ATOM     27  H   UNL A   1      32.844  30.356  27.463  1.00  0.00     0.163 HD
ATOM     28  O   UNL A   1      34.355  31.727  28.751  1.00  0.00    -0.269 OA
BRANCH  26  29
ATOM     29  C   UNL A   1      36.002  30.069  28.505  1.00  0.00     0.039 A 
ATOM     30  C   UNL A   1      36.898  30.102  27.433  1.00  0.00     0.014 A 
ATOM     31  C   UNL A   1      36.399  29.522  29.729  1.00  0.00     0.014 A 
ATOM     32  C   UNL A   1      38.215  29.670  27.613  1.00  0.00     0.010 A 
ATOM     33  C   UNL A   1      37.731  29.156  29.927  1.00  0.00     0.010 A 
ATOM     34  C   UNL A   1      38.657  29.240  28.875  1.00  0.00    -0.014 A 
BRANCH  34  35
ATOM     35  C   UNL A   1      40.089  28.923  29.130  1.00  0.00     0.031 A 
ATOM     36  C   UNL A   1      41.036  29.992  29.602  1.00  0.00     0.074 A 
ATOM     37  C   UNL A   1      40.551  27.687  28.843  1.00  0.00     0.049 A 
ATOM     38  N   UNL A   1      42.332  29.928  29.769  1.00  0.00    -0.248 NA
ATOM     39  C   UNL A   1      40.457  31.311  29.907  1.00  0.00     0.031 C 
ATOM     40  C   UNL A   1      39.739  26.576  28.338  1.00  0.00     0.029 A 
ATOM     41  N   UNL A   1      41.818  27.162  28.910  1.00  0.00    -0.354 N 
ATOM     42  C   UNL A   1      42.727  31.198  30.172  1.00  0.00     0.074 A 
ATOM     43  C   UNL A   1      41.538  32.022  30.200  1.00  0.00     0.031 C 
ATOM     44  C   UNL A   1      40.525  25.506  28.145  1.00  0.00     0.029 A 
ATOM     45  C   UNL A   1      41.904  25.863  28.462  1.00  0.00     0.049 A 
ATOM     46  H   UNL A   1      42.594  27.666  29.247  1.00  0.00     0.167 HD
ATOM     47  C   UNL A   1      43.969  31.632  30.496  1.00  0.00     0.037 A 
ATOM     48  C   UNL A   1      42.973  25.058  28.294  1.00  0.00     0.037 A 
ATOM     49  C   UNL A   1      45.141  30.795  30.500  1.00  0.00     0.049 A 
ATOM     50  C   UNL A   1      44.343  25.576  28.645  1.00  0.00     0.074 A 
ATOM     51  C   UNL A   1      46.422  31.118  30.912  1.00  0.00     0.029 A 
ATOM     52  N   UNL A   1      45.183  29.482  30.056  1.00  0.00    -0.354 N 
ATOM     53  N   UNL A   1      44.681  26.749  29.127  1.00  0.00    -0.248 NA
ATOM     54  C   UNL A   1      45.479  24.668  28.427  1.00  0.00     0.031 C 
ATOM     55  C   UNL A   1      47.253  30.024  30.656  1.00  0.00     0.029 A 
ATOM     56  C   UNL A   1      46.479  28.998  30.140  1.00  0.00     0.049 A 
ATOM     57  H   UNL A   1      44.408  28.970  29.730  1.00  0.00     0.167 HD
ATOM     58  C   UNL A   1      46.062  26.709  29.288  1.00  0.00     0.074 A 
ATOM     59  C   UNL A   1      46.495  25.392  28.874  1.00  0.00     0.031 C 
ATOM     60  C   UNL A   1      46.896  27.680  29.735  1.00  0.00     0.037 A 
BRANCH  47  61
ATOM     61  C   UNL A   1      44.148  33.077  30.874  1.00  0.00     0.058 A 
ATOM     62  C   UNL A   1      44.439  34.063  29.920  1.00  0.00     0.135 A 
ATOM     63  C   UNL A   1      43.920  33.494  32.197  1.00  0.00     0.135 A 
ATOM     64  F   UNL A   1      44.679  33.720  28.644  1.00  0.00    -0.206 F 
ATOM     65  C   UNL A   1      44.502  35.410  30.263  1.00  0.00     0.059 A 
ATOM     66  C   UNL A   1      43.951  34.837  32.557  1.00  0.00     0.059 A 
ATOM     67  F   UNL A   1      43.639  32.591  33.150  1.00  0.00    -0.206 F 
ATOM     68  C   UNL A   1      44.247  35.788  31.583  1.00  0.00     0.060 A 
BRANCH  68  69
ATOM     69  S   UNL A   1      44.282  37.545  31.997  1.00  0.00     0.124 S 
ATOM     70  O   UNL A   1      45.696  37.747  32.294  1.00  0.00    -0.237 OA
ATOM     71  O   UNL A   1      43.799  38.164  30.766  1.00  0.00    -0.237 OA
ATOM     72  O   UNL A   1      43.381  37.645  33.141  1.00  0.00    -0.744 OA
ENDBRANCH  68  69
ENDBRANCH  47  61
BRANCH  48  73
ATOM     73  C   UNL A   1      42.805  23.685  27.739  1.00  0.00     0.058 A 
ATOM     74  C   UNL A   1      42.844  23.451  26.356  1.00  0.00     0.135 A 
ATOM     75  C   UNL A   1      42.570  22.585  28.578  1.00  0.00     0.135 A 
ATOM     76  F   UNL A   1      43.059  24.471  25.509  1.00  0.00    -0.206 F 
ATOM     77  C   UNL A   1      42.619  22.186  25.823  1.00  0.00     0.059 A 
ATOM     78  C   UNL A   1      42.375  21.304  28.072  1.00  0.00     0.059 A 
ATOM     79  F   UNL A   1      42.539  22.748  29.910  1.00  0.00    -0.206 F 
ATOM     80  C   UNL A   1      42.383  21.118  26.690  1.00  0.00     0.060 A 
BRANCH  80  81
ATOM     81  S   UNL A   1      42.099  19.478  25.989  1.00  0.00     0.124 S 
ATOM     82  O   UNL A   1      42.552  18.615  27.073  1.00  0.00    -0.237 OA
ATOM     83  O   UNL A   1      40.660  19.495  25.744  1.00  0.00    -0.237 OA
ATOM     84  O   UNL A   1      42.931  19.479  24.791  1.00  0.00    -0.744 OA
ENDBRANCH  80  81
ENDBRANCH  48  73
BRANCH  60  85
ATOM     85  C   UNL A   1      48.363  27.358  29.822  1.00  0.00     0.058 A 
ATOM     86  C   UNL A   1      49.259  27.736  28.811  1.00  0.00     0.135 A 
ATOM     87  C   UNL A   1      48.889  26.740  30.969  1.00  0.00     0.135 A 
ATOM     88  F   UNL A   1      48.806  28.319  27.690  1.00  0.00    -0.206 F 
ATOM     89  C   UNL A   1      50.626  27.508  28.931  1.00  0.00     0.059 A 
ATOM     90  C   UNL A   1      50.255  26.529  31.122  1.00  0.00     0.059 A 
ATOM     91  F   UNL A   1      48.075  26.363  31.967  1.00  0.00    -0.206 F 
ATOM     92  C   UNL A   1      51.116  26.914  30.095  1.00  0.00     0.060 A 
BRANCH  92  93
ATOM     93  S   UNL A   1      52.900  26.690  30.265  1.00  0.00     0.124 S 
ATOM     94  O   UNL A   1      53.254  26.143  28.959  1.00  0.00    -0.237 OA
ATOM     95  O   UNL A   1      53.359  28.050  30.529  1.00  0.00    -0.237 OA
ATOM     96  O   UNL A   1      53.022  25.764  31.387  1.00  0.00    -0.744 OA
ENDBRANCH  92  93
ENDBRANCH  60  85
ENDBRANCH  34  35
ENDBRANCH  26  29
ENDBRANCH  24  25
ENDBRANCH  23  24
ENDBRANCH   1  23
TORSDOF 17
ENDMDL
