MODEL 1
REMARK VINA RESULT:     -11.6      0.000      0.000
REMARK SMILES C/C(C(=O)NCCCNC(=O)c1ccc(-c2c3nc(c(-c4c(F)cc(S(=O)(=O)[O-])cc4F)c4ccc([nH]4)c(-c4c(F)cc(S(=O)(=O)[O-])cc4F)c4nc(c(-c5c(F)cc(S(=O)(=O)[O-])cc5F)c5ccc2[nH]5)C=C4)C=C3)cc1)=C(\C)C(=O)NCc1cscc1C
REMARK SMILES IDX 7 1 6 2 5 3 3 4 4 5 2 7 1 8 78 9 79 10 80 11 81 12 82 13
REMARK SMILES IDX 83 15 84 16 85 17 88 18 86 19 87 20 89 21 8 22 9 23 10 24
REMARK SMILES IDX 11 26 12 27 13 28 77 29 14 30 76 31 15 32 16 33 17 34 70 35
REMARK SMILES IDX 18 36 75 37 69 38 71 39 19 40 74 41 68 42 67 43 20 45 54 46
REMARK SMILES IDX 33 47 53 48 34 49 37 50 52 51 72 52 35 53 36 54 51 56 73 57
REMARK SMILES IDX 38 58 21 59 22 60 31 61 23 62 24 63 30 64 32 65 25 66 26 67
REMARK SMILES IDX 27 68 28 69 29 70 55 71 56 72 65 73 57 74 58 75 64 76 66 77
REMARK SMILES IDX 59 78 60 79 61 80 62 81 63 82 39 83 40 84 49 85 41 86 42 87
REMARK SMILES IDX 48 88 50 89 43 90 44 91 45 92 46 93 47 94
REMARK H PARENT 5 6 82 14 9 25 71 44 37 55
REMARK Flexibility Score: inf
ROOT
ATOM      1  C   UNL A   1      37.479  23.260  25.719  1.00  0.00     0.042 C 
ENDROOT
BRANCH   1   2
ATOM      2  C   UNL A   1      35.978  23.567  25.795  1.00  0.00     0.118 C 
BRANCH   2   3
ATOM      3  N   UNL A   1      35.316  22.667  26.728  1.00  0.00    -0.352 N 
ATOM      4  C   UNL A   1      34.073  22.105  26.758  1.00  0.00     0.247 C 
ATOM      5  O   UNL A   1      33.666  21.666  27.834  1.00  0.00    -0.270 OA
ATOM      6  H   UNL A   1      35.879  22.413  27.494  1.00  0.00     0.163 HD
BRANCH   4   7
ATOM      7  C   UNL A   1      33.195  22.068  25.543  1.00  0.00     0.022 C 
ATOM      8  C   UNL A   1      33.458  20.984  24.538  1.00  0.00     0.051 C 
ATOM      9  C   UNL A   1      32.307  23.071  25.291  1.00  0.00     0.022 C 
ATOM     10  C   UNL A   1      31.444  23.042  24.064  1.00  0.00     0.051 C 
BRANCH   9  11
ATOM     11  C   UNL A   1      32.061  24.149  26.307  1.00  0.00     0.247 C 
ATOM     12  O   UNL A   1      31.237  23.981  27.207  1.00  0.00    -0.270 OA
ATOM     13  N   UNL A   1      32.649  25.374  26.243  1.00  0.00    -0.348 N 
ATOM     14  H   UNL A   1      32.640  25.847  27.106  1.00  0.00     0.164 HD
BRANCH  13  15
ATOM     15  C   UNL A   1      33.287  26.141  25.188  1.00  0.00     0.153 C 
BRANCH  15  16
ATOM     16  C   UNL A   1      32.215  26.734  24.289  1.00  0.00    -0.015 A 
ATOM     17  C   UNL A   1      31.170  27.534  24.730  1.00  0.00     0.070 A 
ATOM     18  C   UNL A   1      32.128  26.552  22.849  1.00  0.00    -0.035 A 
ATOM     19  S   UNL A   1      30.148  28.083  23.484  1.00  0.00    -0.152 S 
ATOM     20  C   UNL A   1      31.062  27.255  22.313  1.00  0.00     0.068 A 
ATOM     21  C   UNL A   1      33.053  25.739  22.001  1.00  0.00     0.045 C 
ENDBRANCH  15  16
ENDBRANCH  13  15
ENDBRANCH   9  11
ENDBRANCH   4   7
ENDBRANCH   2   3
ENDBRANCH   1   2
BRANCH   1  22
ATOM     22  C   UNL A   1      38.357  24.291  26.427  1.00  0.00     0.118 C 
BRANCH  22  23
ATOM     23  N   UNL A   1      39.768  24.103  26.127  1.00  0.00    -0.352 N 
ATOM     24  C   UNL A   1      40.861  24.823  26.548  1.00  0.00     0.251 C 
ATOM     25  H   UNL A   1      39.971  23.346  25.533  1.00  0.00     0.163 HD
ATOM     26  O   UNL A   1      41.942  24.647  25.992  1.00  0.00    -0.269 OA
BRANCH  24  27
ATOM     27  C   UNL A   1      40.749  25.807  27.651  1.00  0.00     0.039 A 
ATOM     28  C   UNL A   1      41.701  26.828  27.741  1.00  0.00     0.014 A 
ATOM     29  C   UNL A   1      39.754  25.698  28.625  1.00  0.00     0.014 A 
ATOM     30  C   UNL A   1      41.627  27.763  28.778  1.00  0.00     0.010 A 
ATOM     31  C   UNL A   1      39.641  26.670  29.620  1.00  0.00     0.010 A 
ATOM     32  C   UNL A   1      40.581  27.708  29.713  1.00  0.00    -0.014 A 
BRANCH  32  33
ATOM     33  C   UNL A   1      40.458  28.718  30.795  1.00  0.00     0.031 A 
ATOM     34  C   UNL A   1      41.336  28.637  32.015  1.00  0.00     0.074 A 
ATOM     35  C   UNL A   1      39.514  29.677  30.707  1.00  0.00     0.049 A 
ATOM     36  N   UNL A   1      41.333  29.384  33.088  1.00  0.00    -0.248 NA
ATOM     37  C   UNL A   1      42.332  27.555  32.040  1.00  0.00     0.031 C 
ATOM     38  C   UNL A   1      38.578  29.840  29.593  1.00  0.00     0.029 A 
ATOM     39  N   UNL A   1      39.181  30.688  31.572  1.00  0.00    -0.354 N 
ATOM     40  C   UNL A   1      42.314  28.857  33.922  1.00  0.00     0.074 A 
ATOM     41  C   UNL A   1      42.852  27.694  33.250  1.00  0.00     0.031 C 
ATOM     42  C   UNL A   1      37.796  30.906  29.830  1.00  0.00     0.029 A 
ATOM     43  C   UNL A   1      38.147  31.477  31.126  1.00  0.00     0.049 A 
ATOM     44  H   UNL A   1      39.639  30.836  32.432  1.00  0.00     0.167 HD
ATOM     45  C   UNL A   1      42.741  29.312  35.125  1.00  0.00     0.037 A 
ATOM     46  C   UNL A   1      37.546  32.540  31.697  1.00  0.00     0.037 A 
ATOM     47  C   UNL A   1      42.209  30.479  35.781  1.00  0.00     0.049 A 
ATOM     48  C   UNL A   1      38.025  33.019  33.039  1.00  0.00     0.074 A 
ATOM     49  C   UNL A   1      42.603  31.050  36.979  1.00  0.00     0.029 A 
ATOM     50  N   UNL A   1      41.163  31.252  35.296  1.00  0.00    -0.354 N 
ATOM     51  N   UNL A   1      38.987  32.538  33.792  1.00  0.00    -0.248 NA
ATOM     52  C   UNL A   1      37.341  34.187  33.610  1.00  0.00     0.031 C 
ATOM     53  C   UNL A   1      41.770  32.146  37.237  1.00  0.00     0.029 A 
ATOM     54  C   UNL A   1      40.886  32.284  36.178  1.00  0.00     0.049 A 
ATOM     55  H   UNL A   1      40.689  31.091  34.449  1.00  0.00     0.167 HD
ATOM     56  C   UNL A   1      39.040  33.360  34.912  1.00  0.00     0.074 A 
ATOM     57  C   UNL A   1      38.019  34.373  34.735  1.00  0.00     0.031 C 
ATOM     58  C   UNL A   1      39.864  33.285  35.987  1.00  0.00     0.037 A 
BRANCH  45  59
ATOM     59  C   UNL A   1      43.836  28.532  35.806  1.00  0.00     0.058 A 
ATOM     60  C   UNL A   1      45.193  28.805  35.567  1.00  0.00     0.135 A 
ATOM     61  C   UNL A   1      43.527  27.492  36.698  1.00  0.00     0.135 A 
ATOM     62  F   UNL A   1      45.546  29.782  34.716  1.00  0.00    -0.206 F 
ATOM     63  C   UNL A   1      46.203  28.043  36.146  1.00  0.00     0.059 A 
ATOM     64  C   UNL A   1      44.521  26.736  37.311  1.00  0.00     0.059 A 
ATOM     65  F   UNL A   1      42.247  27.192  36.970  1.00  0.00    -0.206 F 
ATOM     66  C   UNL A   1      45.856  27.003  37.008  1.00  0.00     0.060 A 
BRANCH  66  67
ATOM     67  S   UNL A   1      47.175  25.994  37.719  1.00  0.00     0.124 S 
ATOM     68  O   UNL A   1      47.701  25.329  36.532  1.00  0.00    -0.237 OA
ATOM     69  O   UNL A   1      48.047  26.995  38.322  1.00  0.00    -0.237 OA
ATOM     70  O   UNL A   1      46.471  25.130  38.662  1.00  0.00    -0.744 OA
ENDBRANCH  66  67
ENDBRANCH  45  59
BRANCH  46  71
ATOM     71  C   UNL A   1      36.456  33.244  30.974  1.00  0.00     0.058 A 
ATOM     72  C   UNL A   1      35.130  33.162  31.424  1.00  0.00     0.135 A 
ATOM     73  C   UNL A   1      36.719  34.048  29.854  1.00  0.00     0.135 A 
ATOM     74  F   UNL A   1      34.830  32.400  32.487  1.00  0.00    -0.206 F 
ATOM     75  C   UNL A   1      34.101  33.851  30.791  1.00  0.00     0.059 A 
ATOM     76  C   UNL A   1      35.709  34.765  29.217  1.00  0.00     0.059 A 
ATOM     77  F   UNL A   1      37.973  34.172  29.393  1.00  0.00    -0.206 F 
ATOM     78  C   UNL A   1      34.402  34.658  29.692  1.00  0.00     0.060 A 
BRANCH  78  79
ATOM     79  S   UNL A   1      33.072  35.611  28.929  1.00  0.00     0.124 S 
ATOM     80  O   UNL A   1      33.819  36.599  28.161  1.00  0.00    -0.237 OA
ATOM     81  O   UNL A   1      32.373  34.592  28.152  1.00  0.00    -0.237 OA
ATOM     82  O   UNL A   1      32.332  36.129  30.076  1.00  0.00    -0.744 OA
ENDBRANCH  78  79
ENDBRANCH  46  71
BRANCH  58  83
ATOM     83  C   UNL A   1      39.715  34.343  37.045  1.00  0.00     0.058 A 
ATOM     84  C   UNL A   1      38.880  34.161  38.158  1.00  0.00     0.135 A 
ATOM     85  C   UNL A   1      40.455  35.534  36.967  1.00  0.00     0.135 A 
ATOM     86  F   UNL A   1      38.144  33.044  38.276  1.00  0.00    -0.206 F 
ATOM     87  C   UNL A   1      38.766  35.133  39.147  1.00  0.00     0.059 A 
ATOM     88  C   UNL A   1      40.376  36.508  37.958  1.00  0.00     0.059 A 
ATOM     89  F   UNL A   1      41.275  35.754  35.927  1.00  0.00    -0.206 F 
ATOM     90  C   UNL A   1      39.520  36.304  39.039  1.00  0.00     0.060 A 
BRANCH  90  91
ATOM     91  S   UNL A   1      39.392  37.542  40.346  1.00  0.00     0.124 S 
ATOM     92  O   UNL A   1      39.238  36.704  41.530  1.00  0.00    -0.237 OA
ATOM     93  O   UNL A   1      40.663  38.251  40.232  1.00  0.00    -0.237 OA
ATOM     94  O   UNL A   1      38.214  38.316  39.965  1.00  0.00    -0.744 OA
ENDBRANCH  90  91
ENDBRANCH  58  83
ENDBRANCH  32  33
ENDBRANCH  24  27
ENDBRANCH  22  23
ENDBRANCH   1  22
TORSDOF 16
ENDMDL
MODEL 2
REMARK VINA RESULT:     -11.6      4.132      6.615
REMARK SMILES C/C(C(=O)NCCCNC(=O)c1ccc(-c2c3nc(c(-c4c(F)cc(S(=O)(=O)[O-])cc4F)c4ccc([nH]4)c(-c4c(F)cc(S(=O)(=O)[O-])cc4F)c4nc(c(-c5c(F)cc(S(=O)(=O)[O-])cc5F)c5ccc2[nH]5)C=C4)C=C3)cc1)=C(\C)C(=O)NCc1cscc1C
REMARK SMILES IDX 7 1 6 2 5 3 3 4 4 5 2 7 1 8 78 9 79 10 80 11 81 12 82 13
REMARK SMILES IDX 83 15 84 16 85 17 88 18 86 19 87 20 89 21 8 22 9 23 10 24
REMARK SMILES IDX 11 26 12 27 13 28 77 29 14 30 76 31 15 32 16 33 17 34 70 35
REMARK SMILES IDX 18 36 75 37 69 38 71 39 19 40 74 41 68 42 67 43 20 45 54 46
REMARK SMILES IDX 33 47 53 48 34 49 37 50 52 51 72 52 35 53 36 54 51 56 73 57
REMARK SMILES IDX 38 58 21 59 22 60 31 61 23 62 24 63 30 64 32 65 25 66 26 67
REMARK SMILES IDX 27 68 28 69 29 70 55 71 56 72 65 73 57 74 58 75 64 76 66 77
REMARK SMILES IDX 59 78 60 79 61 80 62 81 63 82 39 83 40 84 49 85 41 86 42 87
REMARK SMILES IDX 48 88 50 89 43 90 44 91 45 92 46 93 47 94
REMARK H PARENT 5 6 82 14 9 25 71 44 37 55
REMARK Flexibility Score: inf
ROOT
ATOM      1  C   UNL A   1      40.976  20.068  26.346  1.00  0.00     0.042 C 
ENDROOT
BRANCH   1   2
ATOM      2  C   UNL A   1      42.510  20.075  26.303  1.00  0.00     0.118 C 
BRANCH   2   3
ATOM      3  N   UNL A   1      42.995  19.307  25.165  1.00  0.00    -0.352 N 
ATOM      4  C   UNL A   1      44.102  19.410  24.375  1.00  0.00     0.247 C 
ATOM      5  O   UNL A   1      44.082  18.845  23.281  1.00  0.00    -0.270 OA
ATOM      6  H   UNL A   1      42.403  18.561  24.915  1.00  0.00     0.163 HD
BRANCH   4   7
ATOM      7  C   UNL A   1      45.289  20.230  24.785  1.00  0.00     0.022 C 
ATOM      8  C   UNL A   1      46.395  19.521  25.513  1.00  0.00     0.051 C 
ATOM      9  C   UNL A   1      45.286  21.585  24.641  1.00  0.00     0.022 C 
ATOM     10  C   UNL A   1      46.467  22.405  25.071  1.00  0.00     0.051 C 
BRANCH   9  11
ATOM     11  C   UNL A   1      44.169  22.276  23.914  1.00  0.00     0.247 C 
ATOM     12  O   UNL A   1      44.167  22.332  22.684  1.00  0.00    -0.270 OA
ATOM     13  N   UNL A   1      43.169  22.940  24.554  1.00  0.00    -0.348 N 
ATOM     14  H   UNL A   1      42.373  23.069  23.988  1.00  0.00     0.164 HD
BRANCH  13  15
ATOM     15  C   UNL A   1      43.010  23.502  25.883  1.00  0.00     0.153 C 
BRANCH  15  16
ATOM     16  C   UNL A   1      43.830  24.776  25.984  1.00  0.00    -0.015 A 
ATOM     17  C   UNL A   1      43.709  25.862  25.127  1.00  0.00     0.070 A 
ATOM     18  C   UNL A   1      44.853  25.043  26.982  1.00  0.00    -0.035 A 
ATOM     19  S   UNL A   1      44.735  27.163  25.513  1.00  0.00    -0.152 S 
ATOM     20  C   UNL A   1      45.389  26.312  26.832  1.00  0.00     0.068 A 
ATOM     21  C   UNL A   1      45.296  24.115  28.067  1.00  0.00     0.045 C 
ENDBRANCH  15  16
ENDBRANCH  13  15
ENDBRANCH   9  11
ENDBRANCH   4   7
ENDBRANCH   2   3
ENDBRANCH   1   2
BRANCH   1  22
ATOM     22  C   UNL A   1      40.364  21.394  26.796  1.00  0.00     0.118 C 
BRANCH  22  23
ATOM     23  N   UNL A   1      39.360  21.877  25.861  1.00  0.00    -0.352 N 
ATOM     24  C   UNL A   1      38.696  23.080  25.825  1.00  0.00     0.251 C 
ATOM     25  H   UNL A   1      39.119  21.246  25.145  1.00  0.00     0.163 HD
ATOM     26  O   UNL A   1      37.716  23.200  25.095  1.00  0.00    -0.269 OA
BRANCH  24  27
ATOM     27  C   UNL A   1      39.142  24.223  26.656  1.00  0.00     0.039 A 
ATOM     28  C   UNL A   1      39.949  25.206  26.073  1.00  0.00     0.014 A 
ATOM     29  C   UNL A   1      38.823  24.305  28.014  1.00  0.00     0.014 A 
ATOM     30  C   UNL A   1      40.394  26.289  26.836  1.00  0.00     0.010 A 
ATOM     31  C   UNL A   1      39.212  25.419  28.758  1.00  0.00     0.010 A 
ATOM     32  C   UNL A   1      40.009  26.419  28.179  1.00  0.00    -0.014 A 
BRANCH  32  33
ATOM     33  C   UNL A   1      40.432  27.587  28.995  1.00  0.00     0.031 A 
ATOM     34  C   UNL A   1      41.760  27.575  29.706  1.00  0.00     0.074 A 
ATOM     35  C   UNL A   1      39.597  28.634  29.145  1.00  0.00     0.049 A 
ATOM     36  N   UNL A   1      42.274  28.468  30.512  1.00  0.00    -0.248 NA
ATOM     37  C   UNL A   1      42.608  26.392  29.501  1.00  0.00     0.031 C 
ATOM     38  C   UNL A   1      38.270  28.749  28.537  1.00  0.00     0.029 A 
ATOM     39  N   UNL A   1      39.737  29.796  29.861  1.00  0.00    -0.354 N 
ATOM     40  C   UNL A   1      43.498  27.949  30.922  1.00  0.00     0.074 A 
ATOM     41  C   UNL A   1      43.621  26.640  30.317  1.00  0.00     0.031 C 
ATOM     42  C   UNL A   1      37.730  29.928  28.883  1.00  0.00     0.029 A 
ATOM     43  C   UNL A   1      38.651  30.636  29.766  1.00  0.00     0.049 A 
ATOM     44  H   UNL A   1      40.538  30.010  30.392  1.00  0.00     0.167 HD
ATOM     45  C   UNL A   1      44.441  28.519  31.711  1.00  0.00     0.037 A 
ATOM     46  C   UNL A   1      38.423  31.839  30.328  1.00  0.00     0.037 A 
ATOM     47  C   UNL A   1      44.317  29.828  32.299  1.00  0.00     0.049 A 
ATOM     48  C   UNL A   1      39.476  32.447  31.213  1.00  0.00     0.074 A 
ATOM     49  C   UNL A   1      45.234  30.516  33.076  1.00  0.00     0.029 A 
ATOM     50  N   UNL A   1      43.203  30.648  32.178  1.00  0.00    -0.354 N 
ATOM     51  N   UNL A   1      40.649  31.964  31.551  1.00  0.00    -0.248 NA
ATOM     52  C   UNL A   1      39.177  33.763  31.792  1.00  0.00     0.031 C 
ATOM     53  C   UNL A   1      44.658  31.734  33.457  1.00  0.00     0.029 A 
ATOM     54  C   UNL A   1      43.401  31.826  32.880  1.00  0.00     0.049 A 
ATOM     55  H   UNL A   1      42.392  30.425  31.667  1.00  0.00     0.167 HD
ATOM     56  C   UNL A   1      41.238  32.929  32.359  1.00  0.00     0.074 A 
ATOM     57  C   UNL A   1      40.296  34.026  32.454  1.00  0.00     0.031 C 
ATOM     58  C   UNL A   1      42.452  32.909  32.964  1.00  0.00     0.037 A 
BRANCH  45  59
ATOM     59  C   UNL A   1      45.686  27.716  31.985  1.00  0.00     0.058 A 
ATOM     60  C   UNL A   1      45.768  26.832  33.074  1.00  0.00     0.135 A 
ATOM     61  C   UNL A   1      46.815  27.838  31.158  1.00  0.00     0.135 A 
ATOM     62  F   UNL A   1      44.722  26.683  33.903  1.00  0.00    -0.206 F 
ATOM     63  C   UNL A   1      46.939  26.139  33.365  1.00  0.00     0.059 A 
ATOM     64  C   UNL A   1      47.987  27.132  31.413  1.00  0.00     0.059 A 
ATOM     65  F   UNL A   1      46.792  28.662  30.099  1.00  0.00    -0.206 F 
ATOM     66  C   UNL A   1      48.047  26.305  32.534  1.00  0.00     0.060 A 
BRANCH  66  67
ATOM     67  S   UNL A   1      49.574  25.432  32.947  1.00  0.00     0.124 S 
ATOM     68  O   UNL A   1      50.406  26.524  33.440  1.00  0.00    -0.237 OA
ATOM     69  O   UNL A   1      49.127  24.474  33.951  1.00  0.00    -0.237 OA
ATOM     70  O   UNL A   1      49.989  24.853  31.672  1.00  0.00    -0.744 OA
ENDBRANCH  66  67
ENDBRANCH  45  59
BRANCH  46  71
ATOM     71  C   UNL A   1      37.160  32.561  30.029  1.00  0.00     0.058 A 
ATOM     72  C   UNL A   1      35.997  32.304  30.770  1.00  0.00     0.135 A 
ATOM     73  C   UNL A   1      37.098  33.552  29.037  1.00  0.00     0.135 A 
ATOM     74  F   UNL A   1      36.006  31.361  31.725  1.00  0.00    -0.206 F 
ATOM     75  C   UNL A   1      34.816  33.002  30.539  1.00  0.00     0.059 A 
ATOM     76  C   UNL A   1      35.934  34.279  28.803  1.00  0.00     0.059 A 
ATOM     77  F   UNL A   1      38.188  33.846  28.311  1.00  0.00    -0.206 F 
ATOM     78  C   UNL A   1      34.797  33.995  29.558  1.00  0.00     0.060 A 
BRANCH  78  79
ATOM     79  S   UNL A   1      33.282  34.949  29.324  1.00  0.00     0.124 S 
ATOM     80  O   UNL A   1      32.720  34.946  30.669  1.00  0.00    -0.237 OA
ATOM     81  O   UNL A   1      33.798  36.230  28.849  1.00  0.00    -0.237 OA
ATOM     82  O   UNL A   1      32.547  34.172  28.330  1.00  0.00    -0.744 OA
ENDBRANCH  78  79
ENDBRANCH  46  71
BRANCH  58  83
ATOM     83  C   UNL A   1      42.845  34.123  33.762  1.00  0.00     0.058 A 
ATOM     84  C   UNL A   1      42.622  34.200  35.145  1.00  0.00     0.135 A 
ATOM     85  C   UNL A   1      43.495  35.201  33.140  1.00  0.00     0.135 A 
ATOM     86  F   UNL A   1      41.996  33.201  35.787  1.00  0.00    -0.206 F 
ATOM     87  C   UNL A   1      43.011  35.315  35.881  1.00  0.00     0.059 A 
ATOM     88  C   UNL A   1      43.916  36.314  33.861  1.00  0.00     0.059 A 
ATOM     89  F   UNL A   1      43.739  35.172  31.820  1.00  0.00    -0.206 F 
ATOM     90  C   UNL A   1      43.659  36.367  35.230  1.00  0.00     0.060 A 
BRANCH  90  91
ATOM     91  S   UNL A   1      44.191  37.792  36.202  1.00  0.00     0.124 S 
ATOM     92  O   UNL A   1      43.260  37.747  37.324  1.00  0.00    -0.237 OA
ATOM     93  O   UNL A   1      45.577  37.458  36.515  1.00  0.00    -0.237 OA
ATOM     94  O   UNL A   1      44.016  38.913  35.283  1.00  0.00    -0.744 OA
ENDBRANCH  90  91
ENDBRANCH  58  83
ENDBRANCH  32  33
ENDBRANCH  24  27
ENDBRANCH  22  23
ENDBRANCH   1  22
TORSDOF 16
ENDMDL
MODEL 3
REMARK VINA RESULT:     -11.5      6.876     12.266
REMARK SMILES C/C(C(=O)NCCCNC(=O)c1ccc(-c2c3nc(c(-c4c(F)cc(S(=O)(=O)[O-])cc4F)c4ccc([nH]4)c(-c4c(F)cc(S(=O)(=O)[O-])cc4F)c4nc(c(-c5c(F)cc(S(=O)(=O)[O-])cc5F)c5ccc2[nH]5)C=C4)C=C3)cc1)=C(\C)C(=O)NCc1cscc1C
REMARK SMILES IDX 7 1 6 2 5 3 3 4 4 5 2 7 1 8 78 9 79 10 80 11 81 12 82 13
REMARK SMILES IDX 83 15 84 16 85 17 88 18 86 19 87 20 89 21 8 22 9 23 10 24
REMARK SMILES IDX 11 26 12 27 13 28 77 29 14 30 76 31 15 32 16 33 17 34 70 35
REMARK SMILES IDX 18 36 75 37 69 38 71 39 19 40 74 41 68 42 67 43 20 45 54 46
REMARK SMILES IDX 33 47 53 48 34 49 37 50 52 51 72 52 35 53 36 54 51 56 73 57
REMARK SMILES IDX 38 58 21 59 22 60 31 61 23 62 24 63 30 64 32 65 25 66 26 67
REMARK SMILES IDX 27 68 28 69 29 70 55 71 56 72 65 73 57 74 58 75 64 76 66 77
REMARK SMILES IDX 59 78 60 79 61 80 62 81 63 82 39 83 40 84 49 85 41 86 42 87
REMARK SMILES IDX 48 88 50 89 43 90 44 91 45 92 46 93 47 94
REMARK H PARENT 5 6 82 14 9 25 71 44 37 55
REMARK Flexibility Score: inf
ROOT
ATOM      1  C   UNL A   1      33.966  29.654  26.759  1.00  0.00     0.042 C 
ENDROOT
BRANCH   1   2
ATOM      2  C   UNL A   1      33.016  28.485  26.463  1.00  0.00     0.118 C 
BRANCH   2   3
ATOM      3  N   UNL A   1      31.815  28.958  25.791  1.00  0.00    -0.352 N 
ATOM      4  C   UNL A   1      31.349  28.827  24.516  1.00  0.00     0.247 C 
ATOM      5  O   UNL A   1      30.481  29.616  24.137  1.00  0.00    -0.270 OA
ATOM      6  H   UNL A   1      31.217  29.477  26.375  1.00  0.00     0.163 HD
BRANCH   4   7
ATOM      7  C   UNL A   1      31.905  27.802  23.574  1.00  0.00     0.022 C 
ATOM      8  C   UNL A   1      33.177  28.149  22.853  1.00  0.00     0.051 C 
ATOM      9  C   UNL A   1      31.200  26.676  23.269  1.00  0.00     0.022 C 
ATOM     10  C   UNL A   1      31.749  25.662  22.310  1.00  0.00     0.051 C 
BRANCH   9  11
ATOM     11  C   UNL A   1      29.928  26.349  23.997  1.00  0.00     0.247 C 
ATOM     12  O   UNL A   1      28.850  26.792  23.598  1.00  0.00    -0.270 OA
ATOM     13  N   UNL A   1      29.901  25.640  25.158  1.00  0.00    -0.348 N 
ATOM     14  H   UNL A   1      29.017  25.250  25.346  1.00  0.00     0.164 HD
BRANCH  13  15
ATOM     15  C   UNL A   1      30.882  25.330  26.182  1.00  0.00     0.153 C 
BRANCH  15  16
ATOM     16  C   UNL A   1      31.606  24.050  25.802  1.00  0.00    -0.015 A 
ATOM     17  C   UNL A   1      31.021  22.791  25.772  1.00  0.00     0.070 A 
ATOM     18  C   UNL A   1      33.005  23.956  25.417  1.00  0.00    -0.035 A 
ATOM     19  S   UNL A   1      32.074  21.552  25.269  1.00  0.00    -0.152 S 
ATOM     20  C   UNL A   1      33.354  22.656  25.088  1.00  0.00     0.068 A 
ATOM     21  C   UNL A   1      33.983  25.085  25.347  1.00  0.00     0.045 C 
ENDBRANCH  15  16
ENDBRANCH  13  15
ENDBRANCH   9  11
ENDBRANCH   4   7
ENDBRANCH   2   3
ENDBRANCH   1   2
BRANCH   1  22
ATOM     22  C   UNL A   1      35.110  29.295  27.707  1.00  0.00     0.118 C 
BRANCH  22  23
ATOM     23  N   UNL A   1      35.172  30.191  28.851  1.00  0.00    -0.352 N 
ATOM     24  C   UNL A   1      36.212  30.452  29.710  1.00  0.00     0.251 C 
ATOM     25  H   UNL A   1      34.342  30.685  29.039  1.00  0.00     0.163 HD
ATOM     26  O   UNL A   1      35.988  31.060  30.753  1.00  0.00    -0.269 OA
BRANCH  24  27
ATOM     27  C   UNL A   1      37.591  30.005  29.397  1.00  0.00     0.039 A 
ATOM     28  C   UNL A   1      38.009  29.994  28.062  1.00  0.00     0.014 A 
ATOM     29  C   UNL A   1      38.451  29.544  30.397  1.00  0.00     0.014 A 
ATOM     30  C   UNL A   1      39.299  29.566  27.737  1.00  0.00     0.010 A 
ATOM     31  C   UNL A   1      39.760  29.181  30.080  1.00  0.00     0.010 A 
ATOM     32  C   UNL A   1      40.196  29.180  28.746  1.00  0.00    -0.014 A 
BRANCH  32  33
ATOM     33  C   UNL A   1      41.587  28.766  28.426  1.00  0.00     0.031 A 
ATOM     34  C   UNL A   1      42.699  29.781  28.422  1.00  0.00     0.074 A 
ATOM     35  C   UNL A   1      41.840  27.488  28.082  1.00  0.00     0.049 A 
ATOM     36  N   UNL A   1      43.960  29.626  28.107  1.00  0.00    -0.248 NA
ATOM     37  C   UNL A   1      42.340  31.156  28.797  1.00  0.00     0.031 C 
ATOM     38  C   UNL A   1      40.842  26.418  28.015  1.00  0.00     0.029 A 
ATOM     39  N   UNL A   1      43.011  26.873  27.717  1.00  0.00    -0.354 N 
ATOM     40  C   UNL A   1      44.541  30.883  28.232  1.00  0.00     0.074 A 
ATOM     41  C   UNL A   1      43.481  31.799  28.598  1.00  0.00     0.031 C 
ATOM     42  C   UNL A   1      41.448  25.275  27.659  1.00  0.00     0.029 A 
ATOM     43  C   UNL A   1      42.867  25.534  27.436  1.00  0.00     0.049 A 
ATOM     44  H   UNL A   1      43.874  27.345  27.662  1.00  0.00     0.167 HD
ATOM     45  C   UNL A   1      45.839  31.239  28.077  1.00  0.00     0.037 A 
ATOM     46  C   UNL A   1      43.774  24.620  27.040  1.00  0.00     0.037 A 
ATOM     47  C   UNL A   1      46.891  30.320  27.725  1.00  0.00     0.049 A 
ATOM     48  C   UNL A   1      45.206  25.038  26.860  1.00  0.00     0.074 A 
ATOM     49  C   UNL A   1      48.246  30.569  27.588  1.00  0.00     0.029 A 
ATOM     50  N   UNL A   1      46.704  28.971  27.450  1.00  0.00    -0.354 N 
ATOM     51  N   UNL A   1      45.748  26.222  27.029  1.00  0.00    -0.248 NA
ATOM     52  C   UNL A   1      46.153  23.998  26.436  1.00  0.00     0.031 C 
ATOM     53  C   UNL A   1      48.871  29.381  27.192  1.00  0.00     0.029 A 
ATOM     54  C   UNL A   1      47.914  28.380  27.126  1.00  0.00     0.049 A 
ATOM     55  H   UNL A   1      45.839  28.504  27.481  1.00  0.00     0.167 HD
ATOM     56  C   UNL A   1      47.102  26.062  26.759  1.00  0.00     0.074 A 
ATOM     57  C   UNL A   1      47.299  24.667  26.422  1.00  0.00     0.031 C 
ATOM     58  C   UNL A   1      48.093  26.988  26.792  1.00  0.00     0.037 A 
BRANCH  45  59
ATOM     59  C   UNL A   1      46.184  32.691  28.282  1.00  0.00     0.058 A 
ATOM     60  C   UNL A   1      46.574  33.185  29.538  1.00  0.00     0.135 A 
ATOM     61  C   UNL A   1      46.113  33.603  27.216  1.00  0.00     0.135 A 
ATOM     62  F   UNL A   1      46.649  32.360  30.595  1.00  0.00    -0.206 F 
ATOM     63  C   UNL A   1      46.829  34.537  29.743  1.00  0.00     0.059 A 
ATOM     64  C   UNL A   1      46.393  34.955  27.391  1.00  0.00     0.059 A 
ATOM     65  F   UNL A   1      45.754  33.186  25.992  1.00  0.00    -0.206 F 
ATOM     66  C   UNL A   1      46.725  35.416  28.664  1.00  0.00     0.060 A 
BRANCH  66  67
ATOM     67  S   UNL A   1      47.018  37.176  28.953  1.00  0.00     0.124 S 
ATOM     68  O   UNL A   1      48.084  37.452  27.997  1.00  0.00    -0.237 OA
ATOM     69  O   UNL A   1      45.720  37.765  28.643  1.00  0.00    -0.237 OA
ATOM     70  O   UNL A   1      47.407  37.228  30.360  1.00  0.00    -0.744 OA
ENDBRANCH  66  67
ENDBRANCH  45  59
BRANCH  46  71
ATOM     71  C   UNL A   1      43.353  23.210  26.835  1.00  0.00     0.058 A 
ATOM     72  C   UNL A   1      43.290  22.664  25.544  1.00  0.00     0.135 A 
ATOM     73  C   UNL A   1      43.054  22.368  27.917  1.00  0.00     0.135 A 
ATOM     74  F   UNL A   1      43.562  23.432  24.478  1.00  0.00    -0.206 F 
ATOM     75  C   UNL A   1      42.945  21.334  25.331  1.00  0.00     0.059 A 
ATOM     76  C   UNL A   1      42.727  21.027  27.731  1.00  0.00     0.059 A 
ATOM     77  F   UNL A   1      43.114  22.838  29.172  1.00  0.00    -0.206 F 
ATOM     78  C   UNL A   1      42.673  20.520  26.433  1.00  0.00     0.060 A 
BRANCH  78  79
ATOM     79  S   UNL A   1      42.307  18.775  26.148  1.00  0.00     0.124 S 
ATOM     80  O   UNL A   1      43.234  18.450  25.072  1.00  0.00    -0.237 OA
ATOM     81  O   UNL A   1      42.604  18.184  27.449  1.00  0.00    -0.237 OA
ATOM     82  O   UNL A   1      40.893  18.785  25.784  1.00  0.00    -0.744 OA
ENDBRANCH  78  79
ENDBRANCH  46  71
BRANCH  58  83
ATOM     83  C   UNL A   1      49.487  26.517  26.482  1.00  0.00     0.058 A 
ATOM     84  C   UNL A   1      50.332  26.004  27.478  1.00  0.00     0.135 A 
ATOM     85  C   UNL A   1      49.966  26.535  25.162  1.00  0.00     0.135 A 
ATOM     86  F   UNL A   1      49.927  25.972  28.758  1.00  0.00    -0.206 F 
ATOM     87  C   UNL A   1      51.611  25.546  27.181  1.00  0.00     0.059 A 
ATOM     88  C   UNL A   1      51.232  26.058  24.837  1.00  0.00     0.059 A 
ATOM     89  F   UNL A   1      49.195  27.008  24.170  1.00  0.00    -0.206 F 
ATOM     90  C   UNL A   1      52.052  25.575  25.856  1.00  0.00     0.060 A 
BRANCH  90  91
ATOM     91  S   UNL A   1      53.701  24.945  25.476  1.00  0.00     0.124 S 
ATOM     92  O   UNL A   1      54.121  25.847  24.410  1.00  0.00    -0.237 OA
ATOM     93  O   UNL A   1      54.397  25.101  26.750  1.00  0.00    -0.237 OA
ATOM     94  O   UNL A   1      53.451  23.565  25.071  1.00  0.00    -0.744 OA
ENDBRANCH  90  91
ENDBRANCH  58  83
ENDBRANCH  32  33
ENDBRANCH  24  27
ENDBRANCH  22  23
ENDBRANCH   1  22
TORSDOF 16
ENDMDL
