MODEL 1
REMARK VINA RESULT:      -9.9      0.000      0.000
REMARK SMILES O=Cc1ccc(-c2ccc(C(=O)NCCCNC(=O)c3ccc(-c4c5nc(c(-c6c(F)cc(S(=O)(=O)[O-])cc6F)c6ccc([nH]6)c(-c6c(F)cc(S(=O)(=O)[O-])cc6F)c6nc(c(-c7c(F)cc(S(=O)(=O)[O-])cc7F)c7ccc4[nH]7)C=C6)C=C5)cc3)cn2)cc1
REMARK SMILES IDX 15 1 14 2 13 3 11 4 12 5 10 7 7 8 8 9 87 10 9 11 86 12 6 13
REMARK SMILES IDX 3 14 4 15 89 16 5 17 88 18 2 19 1 20 16 21 17 22 18 23 19 25
REMARK SMILES IDX 20 26 21 27 85 28 22 29 84 30 23 31 24 32 25 33 78 34 26 35
REMARK SMILES IDX 83 36 77 37 79 38 27 39 82 40 76 41 75 42 28 44 62 45 41 46
REMARK SMILES IDX 61 47 42 48 45 49 60 50 80 51 43 52 44 53 59 55 81 56 46 57
REMARK SMILES IDX 29 58 30 59 39 60 31 61 32 62 38 63 40 64 33 65 34 66 35 67
REMARK SMILES IDX 36 68 37 69 63 70 64 71 73 72 65 73 66 74 72 75 74 76 67 77
REMARK SMILES IDX 68 78 69 79 70 80 71 81 47 82 48 83 57 84 49 85 50 86 56 87
REMARK SMILES IDX 58 88 51 89 52 90 53 91 54 92 55 93
REMARK H PARENT 13 6 17 24 79 43 45 54
REMARK Flexibility Score: inf
ROOT
ATOM      1  C   UNL A   1      33.798  33.961  28.355  1.00  0.00     0.042 C 
ENDROOT
BRANCH   1   2
ATOM      2  C   UNL A   1      34.402  35.187  29.037  1.00  0.00     0.118 C 
BRANCH   2   3
ATOM      3  N   UNL A   1      33.716  35.496  30.280  1.00  0.00    -0.352 N 
ATOM      4  C   UNL A   1      33.919  35.087  31.572  1.00  0.00     0.252 C 
ATOM      5  O   UNL A   1      33.225  35.599  32.450  1.00  0.00    -0.269 OA
ATOM      6  H   UNL A   1      32.961  36.120  30.173  1.00  0.00     0.163 HD
BRANCH   4   7
ATOM      7  C   UNL A   1      34.955  34.104  31.967  1.00  0.00     0.058 A 
ATOM      8  C   UNL A   1      37.073  32.502  32.739  1.00  0.00     0.070 A 
ATOM      9  C   UNL A   1      35.894  31.908  32.300  1.00  0.00     0.030 A 
ATOM     10  N   UNL A   1      37.215  33.842  32.842  1.00  0.00    -0.255 NA
ATOM     11  C   UNL A   1      34.819  32.720  31.933  1.00  0.00     0.018 A 
ATOM     12  C   UNL A   1      36.158  34.606  32.457  1.00  0.00     0.125 A 
BRANCH   8  13
ATOM     13  C   UNL A   1      38.232  31.697  33.125  1.00  0.00     0.000 A 
ATOM     14  C   UNL A   1      40.492  30.166  33.779  1.00  0.00     0.014 A 
ATOM     15  C   UNL A   1      39.361  29.541  33.250  1.00  0.00     0.012 A 
ATOM     16  C   UNL A   1      40.500  31.545  34.000  1.00  0.00     0.012 A 
ATOM     17  C   UNL A   1      38.235  30.306  32.933  1.00  0.00     0.011 A 
ATOM     18  C   UNL A   1      39.376  32.305  33.670  1.00  0.00     0.011 A 
BRANCH  14  19
ATOM     19  C   UNL A   1      41.684  29.356  34.100  1.00  0.00     0.260 C 
ATOM     20  O   UNL A   1      42.376  28.839  33.232  1.00  0.00    -0.298 OA
ENDBRANCH  14  19
ENDBRANCH   8  13
ENDBRANCH   4   7
ENDBRANCH   2   3
ENDBRANCH   1   2
BRANCH   1  21
ATOM     21  C   UNL A   1      34.720  32.743  28.360  1.00  0.00     0.118 C 
BRANCH  21  22
ATOM     22  N   UNL A   1      33.991  31.509  28.104  1.00  0.00    -0.352 N 
ATOM     23  C   UNL A   1      34.452  30.229  27.925  1.00  0.00     0.251 C 
ATOM     24  H   UNL A   1      33.013  31.609  28.050  1.00  0.00     0.163 HD
ATOM     25  O   UNL A   1      33.685  29.376  27.486  1.00  0.00    -0.269 OA
BRANCH  23  26
ATOM     26  C   UNL A   1      35.852  29.868  28.247  1.00  0.00     0.039 A 
ATOM     27  C   UNL A   1      36.817  29.954  27.237  1.00  0.00     0.014 A 
ATOM     28  C   UNL A   1      36.210  29.389  29.511  1.00  0.00     0.014 A 
ATOM     29  C   UNL A   1      38.143  29.606  27.507  1.00  0.00     0.010 A 
ATOM     30  C   UNL A   1      37.545  29.103  29.796  1.00  0.00     0.010 A 
ATOM     31  C   UNL A   1      38.524  29.202  28.796  1.00  0.00    -0.014 A 
BRANCH  31  32
ATOM     32  C   UNL A   1      39.939  28.881  29.116  1.00  0.00     0.031 A 
ATOM     33  C   UNL A   1      40.836  29.928  29.724  1.00  0.00     0.074 A 
ATOM     34  C   UNL A   1      40.436  27.671  28.789  1.00  0.00     0.049 A 
ATOM     35  N   UNL A   1      42.115  29.863  29.994  1.00  0.00    -0.248 NA
ATOM     36  C   UNL A   1      40.223  31.227  30.045  1.00  0.00     0.031 C 
ATOM     37  C   UNL A   1      39.682  26.595  28.143  1.00  0.00     0.029 A 
ATOM     38  N   UNL A   1      41.697  27.149  28.934  1.00  0.00    -0.354 N 
ATOM     39  C   UNL A   1      42.464  31.115  30.487  1.00  0.00     0.074 A 
ATOM     40  C   UNL A   1      41.270  31.931  30.451  1.00  0.00     0.031 C 
ATOM     41  C   UNL A   1      40.493  25.542  27.951  1.00  0.00     0.029 A 
ATOM     42  C   UNL A   1      41.830  25.877  28.431  1.00  0.00     0.049 A 
ATOM     43  H   UNL A   1      42.437  27.641  29.361  1.00  0.00     0.167 HD
ATOM     44  C   UNL A   1      43.668  31.539  30.942  1.00  0.00     0.037 A 
ATOM     45  C   UNL A   1      42.910  25.074  28.350  1.00  0.00     0.037 A 
ATOM     46  C   UNL A   1      44.839  30.705  31.021  1.00  0.00     0.049 A 
ATOM     47  C   UNL A   1      44.223  25.557  28.902  1.00  0.00     0.074 A 
ATOM     48  C   UNL A   1      46.077  31.013  31.560  1.00  0.00     0.029 A 
ATOM     49  N   UNL A   1      44.919  29.403  30.551  1.00  0.00    -0.354 N 
ATOM     50  N   UNL A   1      44.512  26.715  29.445  1.00  0.00    -0.248 NA
ATOM     51  C   UNL A   1      45.356  24.622  28.838  1.00  0.00     0.031 C 
ATOM     52  C   UNL A   1      46.919  29.911  31.377  1.00  0.00     0.029 A 
ATOM     53  C   UNL A   1      46.193  28.902  30.765  1.00  0.00     0.049 A 
ATOM     54  H   UNL A   1      44.181  28.909  30.128  1.00  0.00     0.167 HD
ATOM     55  C   UNL A   1      45.852  26.639  29.811  1.00  0.00     0.074 A 
ATOM     56  C   UNL A   1      46.312  25.317  29.439  1.00  0.00     0.031 C 
ATOM     57  C   UNL A   1      46.631  27.579  30.399  1.00  0.00     0.037 A 
BRANCH  44  58
ATOM     58  C   UNL A   1      43.789  32.967  31.399  1.00  0.00     0.058 A 
ATOM     59  C   UNL A   1      43.972  34.021  30.490  1.00  0.00     0.135 A 
ATOM     60  C   UNL A   1      43.650  33.291  32.758  1.00  0.00     0.135 A 
ATOM     61  F   UNL A   1      44.125  33.767  29.181  1.00  0.00    -0.206 F 
ATOM     62  C   UNL A   1      44.027  35.345  30.914  1.00  0.00     0.059 A 
ATOM     63  C   UNL A   1      43.678  34.610  33.202  1.00  0.00     0.059 A 
ATOM     64  F   UNL A   1      43.475  32.321  33.669  1.00  0.00    -0.206 F 
ATOM     65  C   UNL A   1      43.876  35.630  32.272  1.00  0.00     0.060 A 
BRANCH  65  66
ATOM     66  S   UNL A   1      43.919  37.356  32.803  1.00  0.00     0.124 S 
ATOM     67  O   UNL A   1      42.841  37.383  33.787  1.00  0.00    -0.237 OA
ATOM     68  O   UNL A   1      45.270  37.484  33.340  1.00  0.00    -0.237 OA
ATOM     69  O   UNL A   1      43.664  38.097  31.572  1.00  0.00    -0.744 OA
ENDBRANCH  65  66
ENDBRANCH  44  58
BRANCH  45  70
ATOM     70  C   UNL A   1      42.795  23.729  27.727  1.00  0.00     0.058 A 
ATOM     71  C   UNL A   1      42.517  22.593  28.500  1.00  0.00     0.135 A 
ATOM     72  C   UNL A   1      42.968  23.554  26.345  1.00  0.00     0.135 A 
ATOM     73  F   UNL A   1      42.347  22.711  29.826  1.00  0.00    -0.206 F 
ATOM     74  C   UNL A   1      42.440  21.325  27.932  1.00  0.00     0.059 A 
ATOM     75  C   UNL A   1      42.872  22.300  25.749  1.00  0.00     0.059 A 
ATOM     76  F   UNL A   1      43.216  24.611  25.557  1.00  0.00    -0.206 F 
ATOM     77  C   UNL A   1      42.622  21.189  26.555  1.00  0.00     0.060 A 
BRANCH  77  78
ATOM     78  S   UNL A   1      42.492  19.545  25.818  1.00  0.00     0.124 S 
ATOM     79  O   UNL A   1      41.080  19.496  25.458  1.00  0.00    -0.237 OA
ATOM     80  O   UNL A   1      43.433  19.631  24.706  1.00  0.00    -0.237 OA
ATOM     81  O   UNL A   1      42.899  18.660  26.906  1.00  0.00    -0.744 OA
ENDBRANCH  77  78
ENDBRANCH  45  70
BRANCH  57  82
ATOM     82  C   UNL A   1      48.052  27.203  30.710  1.00  0.00     0.058 A 
ATOM     83  C   UNL A   1      48.404  26.586  31.920  1.00  0.00     0.135 A 
ATOM     84  C   UNL A   1      49.067  27.418  29.763  1.00  0.00     0.135 A 
ATOM     85  F   UNL A   1      47.473  26.365  32.861  1.00  0.00    -0.206 F 
ATOM     86  C   UNL A   1      49.717  26.216  32.191  1.00  0.00     0.059 A 
ATOM     87  C   UNL A   1      50.382  27.033  30.001  1.00  0.00     0.059 A 
ATOM     88  F   UNL A   1      48.781  27.995  28.585  1.00  0.00    -0.206 F 
ATOM     89  C   UNL A   1      50.700  26.443  31.224  1.00  0.00     0.060 A 
BRANCH  89  90
ATOM     90  S   UNL A   1      52.394  25.928  31.573  1.00  0.00     0.124 S 
ATOM     91  O   UNL A   1      52.197  24.549  32.007  1.00  0.00    -0.237 OA
ATOM     92  O   UNL A   1      53.048  26.098  30.280  1.00  0.00    -0.237 OA
ATOM     93  O   UNL A   1      52.823  26.859  32.612  1.00  0.00    -0.744 OA
ENDBRANCH  89  90
ENDBRANCH  57  82
ENDBRANCH  31  32
ENDBRANCH  23  26
ENDBRANCH  21  22
ENDBRANCH   1  21
TORSDOF 15
ENDMDL
MODEL 2
REMARK VINA RESULT:      -9.8      0.556      8.328
REMARK SMILES O=Cc1ccc(-c2ccc(C(=O)NCCCNC(=O)c3ccc(-c4c5nc(c(-c6c(F)cc(S(=O)(=O)[O-])cc6F)c6ccc([nH]6)c(-c6c(F)cc(S(=O)(=O)[O-])cc6F)c6nc(c(-c7c(F)cc(S(=O)(=O)[O-])cc7F)c7ccc4[nH]7)C=C6)C=C5)cc3)cn2)cc1
REMARK SMILES IDX 15 1 14 2 13 3 11 4 12 5 10 7 7 8 8 9 87 10 9 11 86 12 6 13
REMARK SMILES IDX 3 14 4 15 89 16 5 17 88 18 2 19 1 20 16 21 17 22 18 23 19 25
REMARK SMILES IDX 20 26 21 27 85 28 22 29 84 30 23 31 24 32 25 33 78 34 26 35
REMARK SMILES IDX 83 36 77 37 79 38 27 39 82 40 76 41 75 42 28 44 62 45 41 46
REMARK SMILES IDX 61 47 42 48 45 49 60 50 80 51 43 52 44 53 59 55 81 56 46 57
REMARK SMILES IDX 29 58 30 59 39 60 31 61 32 62 38 63 40 64 33 65 34 66 35 67
REMARK SMILES IDX 36 68 37 69 63 70 64 71 73 72 65 73 66 74 72 75 74 76 67 77
REMARK SMILES IDX 68 78 69 79 70 80 71 81 47 82 48 83 57 84 49 85 50 86 56 87
REMARK SMILES IDX 58 88 51 89 52 90 53 91 54 92 55 93
REMARK H PARENT 13 6 17 24 79 43 45 54
REMARK Flexibility Score: inf
ROOT
ATOM      1  C   UNL A   1      33.743  33.648  28.337  1.00  0.00     0.042 C 
ENDROOT
BRANCH   1   2
ATOM      2  C   UNL A   1      34.334  34.948  28.880  1.00  0.00     0.118 C 
BRANCH   2   3
ATOM      3  N   UNL A   1      33.706  35.337  30.131  1.00  0.00    -0.352 N 
ATOM      4  C   UNL A   1      33.950  34.986  31.433  1.00  0.00     0.252 C 
ATOM      5  O   UNL A   1      33.304  35.560  32.310  1.00  0.00    -0.269 OA
ATOM      6  H   UNL A   1      32.964  35.976  30.022  1.00  0.00     0.163 HD
BRANCH   4   7
ATOM      7  C   UNL A   1      34.975  33.995  31.836  1.00  0.00     0.058 A 
ATOM      8  C   UNL A   1      37.083  32.372  32.591  1.00  0.00     0.070 A 
ATOM      9  C   UNL A   1      35.853  31.796  32.288  1.00  0.00     0.030 A 
ATOM     10  N   UNL A   1      37.282  33.709  32.570  1.00  0.00    -0.255 NA
ATOM     11  C   UNL A   1      34.785  32.620  31.930  1.00  0.00     0.018 A 
ATOM     12  C   UNL A   1      36.228  34.483  32.196  1.00  0.00     0.125 A 
BRANCH   8  13
ATOM     13  C   UNL A   1      38.236  31.552  32.962  1.00  0.00     0.000 A 
ATOM     14  C   UNL A   1      40.486  29.996  33.588  1.00  0.00     0.014 A 
ATOM     15  C   UNL A   1      39.357  29.390  33.033  1.00  0.00     0.012 A 
ATOM     16  C   UNL A   1      40.498  31.367  33.848  1.00  0.00     0.012 A 
ATOM     17  C   UNL A   1      38.236  30.167  32.730  1.00  0.00     0.011 A 
ATOM     18  C   UNL A   1      39.378  32.141  33.532  1.00  0.00     0.011 A 
BRANCH  14  19
ATOM     19  C   UNL A   1      41.673  29.172  33.894  1.00  0.00     0.260 C 
ATOM     20  O   UNL A   1      42.370  28.678  33.016  1.00  0.00    -0.298 OA
ENDBRANCH  14  19
ENDBRANCH   8  13
ENDBRANCH   4   7
ENDBRANCH   2   3
ENDBRANCH   1   2
BRANCH   1  21
ATOM     21  C   UNL A   1      34.758  32.509  28.244  1.00  0.00     0.118 C 
BRANCH  21  22
ATOM     22  N   UNL A   1      34.108  31.215  28.098  1.00  0.00    -0.352 N 
ATOM     23  C   UNL A   1      34.651  29.964  27.939  1.00  0.00     0.251 C 
ATOM     24  H   UNL A   1      33.124  31.240  28.115  1.00  0.00     0.163 HD
ATOM     25  O   UNL A   1      33.922  29.038  27.598  1.00  0.00    -0.269 OA
BRANCH  23  26
ATOM     26  C   UNL A   1      36.095  29.723  28.168  1.00  0.00     0.039 A 
ATOM     27  C   UNL A   1      36.512  29.300  29.435  1.00  0.00     0.014 A 
ATOM     28  C   UNL A   1      37.042  29.969  27.170  1.00  0.00     0.014 A 
ATOM     29  C   UNL A   1      37.869  29.079  29.685  1.00  0.00     0.010 A 
ATOM     30  C   UNL A   1      38.389  29.687  27.403  1.00  0.00     0.010 A 
ATOM     31  C   UNL A   1      38.817  29.246  28.664  1.00  0.00    -0.014 A 
BRANCH  31  32
ATOM     32  C   UNL A   1      40.257  28.962  28.896  1.00  0.00     0.031 A 
ATOM     33  C   UNL A   1      40.838  27.625  28.516  1.00  0.00     0.074 A 
ATOM     34  C   UNL A   1      41.023  29.881  29.517  1.00  0.00     0.049 A 
ATOM     35  N   UNL A   1      42.046  27.163  28.716  1.00  0.00    -0.248 NA
ATOM     36  C   UNL A   1      39.937  26.671  27.849  1.00  0.00     0.031 C 
ATOM     37  C   UNL A   1      40.561  31.189  29.985  1.00  0.00     0.029 A 
ATOM     38  N   UNL A   1      42.346  29.849  29.881  1.00  0.00    -0.354 N 
ATOM     39  C   UNL A   1      42.041  25.861  28.229  1.00  0.00     0.074 A 
ATOM     40  C   UNL A   1      40.704  25.593  27.751  1.00  0.00     0.031 C 
ATOM     41  C   UNL A   1      41.582  31.835  30.570  1.00  0.00     0.029 A 
ATOM     42  C   UNL A   1      42.763  30.977  30.548  1.00  0.00     0.049 A 
ATOM     43  H   UNL A   1      42.941  29.089  29.683  1.00  0.00     0.167 HD
ATOM     44  C   UNL A   1      43.066  24.976  28.173  1.00  0.00     0.037 A 
ATOM     45  C   UNL A   1      43.957  31.282  31.093  1.00  0.00     0.037 A 
ATOM     46  C   UNL A   1      44.408  25.268  28.605  1.00  0.00     0.049 A 
ATOM     47  C   UNL A   1      45.088  30.296  30.978  1.00  0.00     0.074 A 
ATOM     48  C   UNL A   1      45.537  24.473  28.497  1.00  0.00     0.029 A 
ATOM     49  N   UNL A   1      44.804  26.442  29.226  1.00  0.00    -0.354 N 
ATOM     50  N   UNL A   1      45.087  29.102  30.435  1.00  0.00    -0.248 NA
ATOM     51  C   UNL A   1      46.383  30.699  31.542  1.00  0.00     0.031 C 
ATOM     52  C   UNL A   1      46.606  25.150  29.091  1.00  0.00     0.029 A 
ATOM     53  C   UNL A   1      46.155  26.384  29.528  1.00  0.00     0.049 A 
ATOM     54  H   UNL A   1      44.213  27.204  29.423  1.00  0.00     0.167 HD
ATOM     55  C   UNL A   1      46.386  28.623  30.569  1.00  0.00     0.074 A 
ATOM     56  C   UNL A   1      47.147  29.661  31.232  1.00  0.00     0.031 C 
ATOM     57  C   UNL A   1      46.901  27.432  30.179  1.00  0.00     0.037 A 
BRANCH  44  58
ATOM     58  C   UNL A   1      42.788  23.606  27.619  1.00  0.00     0.058 A 
ATOM     59  C   UNL A   1      42.905  23.325  26.249  1.00  0.00     0.135 A 
ATOM     60  C   UNL A   1      42.468  22.543  28.480  1.00  0.00     0.135 A 
ATOM     61  F   UNL A   1      43.195  24.305  25.379  1.00  0.00    -0.206 F 
ATOM     62  C   UNL A   1      42.702  22.042  25.750  1.00  0.00     0.059 A 
ATOM     63  C   UNL A   1      42.283  21.248  28.007  1.00  0.00     0.059 A 
ATOM     64  F   UNL A   1      42.342  22.758  29.800  1.00  0.00    -0.206 F 
ATOM     65  C   UNL A   1      42.394  21.009  26.637  1.00  0.00     0.060 A 
BRANCH  65  66
ATOM     66  S   UNL A   1      42.163  19.344  25.978  1.00  0.00     0.124 S 
ATOM     67  O   UNL A   1      42.979  19.395  24.768  1.00  0.00    -0.237 OA
ATOM     68  O   UNL A   1      42.680  18.506  27.055  1.00  0.00    -0.237 OA
ATOM     69  O   UNL A   1      40.723  19.261  25.759  1.00  0.00    -0.744 OA
ENDBRANCH  65  66
ENDBRANCH  44  58
BRANCH  45  70
ATOM     70  C   UNL A   1      44.148  32.579  31.795  1.00  0.00     0.058 A 
ATOM     71  C   UNL A   1      44.029  32.674  33.188  1.00  0.00     0.135 A 
ATOM     72  C   UNL A   1      44.448  33.751  31.082  1.00  0.00     0.135 A 
ATOM     73  F   UNL A   1      43.740  31.581  33.912  1.00  0.00    -0.206 F 
ATOM     74  C   UNL A   1      44.173  33.888  33.852  1.00  0.00     0.059 A 
ATOM     75  C   UNL A   1      44.622  34.973  31.725  1.00  0.00     0.059 A 
ATOM     76  F   UNL A   1      44.593  33.710  29.749  1.00  0.00    -0.206 F 
ATOM     77  C   UNL A   1      44.468  35.033  33.110  1.00  0.00     0.060 A 
BRANCH  77  78
ATOM     78  S   UNL A   1      44.683  36.602  33.979  1.00  0.00     0.124 S 
ATOM     79  O   UNL A   1      45.743  37.226  33.197  1.00  0.00    -0.237 OA
ATOM     80  O   UNL A   1      43.359  37.205  33.859  1.00  0.00    -0.237 OA
ATOM     81  O   UNL A   1      45.053  36.186  35.329  1.00  0.00    -0.744 OA
ENDBRANCH  77  78
ENDBRANCH  45  70
BRANCH  57  82
ATOM     82  C   UNL A   1      48.364  27.196  30.428  1.00  0.00     0.058 A 
ATOM     83  C   UNL A   1      48.825  26.627  31.625  1.00  0.00     0.135 A 
ATOM     84  C   UNL A   1      49.311  27.498  29.436  1.00  0.00     0.135 A 
ATOM     85  F   UNL A   1      47.961  26.327  32.607  1.00  0.00    -0.206 F 
ATOM     86  C   UNL A   1      50.178  26.385  31.839  1.00  0.00     0.059 A 
ATOM     87  C   UNL A   1      50.665  27.241  29.618  1.00  0.00     0.059 A 
ATOM     88  F   UNL A   1      48.919  28.034  28.269  1.00  0.00    -0.206 F 
ATOM     89  C   UNL A   1      51.091  26.696  30.828  1.00  0.00     0.060 A 
BRANCH  89  90
ATOM     90  S   UNL A   1      52.840  26.348  31.104  1.00  0.00     0.124 S 
ATOM     91  O   UNL A   1      53.343  26.269  29.736  1.00  0.00    -0.237 OA
ATOM     92  O   UNL A   1      53.275  27.509  31.873  1.00  0.00    -0.237 OA
ATOM     93  O   UNL A   1      52.822  25.087  31.841  1.00  0.00    -0.744 OA
ENDBRANCH  89  90
ENDBRANCH  57  82
ENDBRANCH  31  32
ENDBRANCH  23  26
ENDBRANCH  21  22
ENDBRANCH   1  21
TORSDOF 15
ENDMDL
MODEL 3
REMARK VINA RESULT:      -9.7      3.035     11.073
REMARK SMILES O=Cc1ccc(-c2ccc(C(=O)NCCCNC(=O)c3ccc(-c4c5nc(c(-c6c(F)cc(S(=O)(=O)[O-])cc6F)c6ccc([nH]6)c(-c6c(F)cc(S(=O)(=O)[O-])cc6F)c6nc(c(-c7c(F)cc(S(=O)(=O)[O-])cc7F)c7ccc4[nH]7)C=C6)C=C5)cc3)cn2)cc1
REMARK SMILES IDX 15 1 14 2 13 3 11 4 12 5 10 7 7 8 8 9 87 10 9 11 86 12 6 13
REMARK SMILES IDX 3 14 4 15 89 16 5 17 88 18 2 19 1 20 16 21 17 22 18 23 19 25
REMARK SMILES IDX 20 26 21 27 85 28 22 29 84 30 23 31 24 32 25 33 78 34 26 35
REMARK SMILES IDX 83 36 77 37 79 38 27 39 82 40 76 41 75 42 28 44 62 45 41 46
REMARK SMILES IDX 61 47 42 48 45 49 60 50 80 51 43 52 44 53 59 55 81 56 46 57
REMARK SMILES IDX 29 58 30 59 39 60 31 61 32 62 38 63 40 64 33 65 34 66 35 67
REMARK SMILES IDX 36 68 37 69 63 70 64 71 73 72 65 73 66 74 72 75 74 76 67 77
REMARK SMILES IDX 68 78 69 79 70 80 71 81 47 82 48 83 57 84 49 85 50 86 56 87
REMARK SMILES IDX 58 88 51 89 52 90 53 91 54 92 55 93
REMARK H PARENT 13 6 17 24 79 43 45 54
REMARK Flexibility Score: inf
ROOT
ATOM      1  C   UNL A   1      40.942  20.209  26.234  1.00  0.00     0.042 C 
ENDROOT
BRANCH   1   2
ATOM      2  C   UNL A   1      42.395  19.862  26.556  1.00  0.00     0.118 C 
BRANCH   2   3
ATOM      3  N   UNL A   1      43.206  19.796  25.352  1.00  0.00    -0.352 N 
ATOM      4  C   UNL A   1      44.058  20.694  24.764  1.00  0.00     0.252 C 
ATOM      5  O   UNL A   1      44.694  20.319  23.779  1.00  0.00    -0.269 OA
ATOM      6  H   UNL A   1      43.129  18.942  24.868  1.00  0.00     0.163 HD
BRANCH   4   7
ATOM      7  C   UNL A   1      44.286  22.065  25.279  1.00  0.00     0.058 A 
ATOM      8  C   UNL A   1      44.528  24.717  26.024  1.00  0.00     0.070 A 
ATOM      9  C   UNL A   1      45.314  23.757  26.655  1.00  0.00     0.030 A 
ATOM     10  N   UNL A   1      43.614  24.400  25.080  1.00  0.00    -0.255 NA
ATOM     11  C   UNL A   1      45.172  22.417  26.293  1.00  0.00     0.018 A 
ATOM     12  C   UNL A   1      43.515  23.088  24.734  1.00  0.00     0.125 A 
BRANCH   8  13
ATOM     13  C   UNL A   1      44.646  26.136  26.359  1.00  0.00     0.000 A 
ATOM     14  C   UNL A   1      44.828  28.841  27.083  1.00  0.00     0.014 A 
ATOM     15  C   UNL A   1      43.724  28.392  26.357  1.00  0.00     0.012 A 
ATOM     16  C   UNL A   1      45.849  27.958  27.439  1.00  0.00     0.012 A 
ATOM     17  C   UNL A   1      43.641  27.045  25.991  1.00  0.00     0.011 A 
ATOM     18  C   UNL A   1      45.755  26.611  27.081  1.00  0.00     0.011 A 
BRANCH  14  19
ATOM     19  C   UNL A   1      44.905  30.262  27.479  1.00  0.00     0.260 C 
ATOM     20  O   UNL A   1      44.904  30.615  28.652  1.00  0.00    -0.298 OA
ENDBRANCH  14  19
ENDBRANCH   8  13
ENDBRANCH   4   7
ENDBRANCH   2   3
ENDBRANCH   1   2
BRANCH   1  21
ATOM     21  C   UNL A   1      40.574  21.656  26.558  1.00  0.00     0.118 C 
BRANCH  21  22
ATOM     22  N   UNL A   1      39.372  22.081  25.855  1.00  0.00    -0.352 N 
ATOM     23  C   UNL A   1      38.619  23.219  25.997  1.00  0.00     0.251 C 
ATOM     24  H   UNL A   1      39.049  21.452  25.170  1.00  0.00     0.163 HD
ATOM     25  O   UNL A   1      37.511  23.269  25.470  1.00  0.00    -0.269 OA
BRANCH  23  26
ATOM     26  C   UNL A   1      39.119  24.375  26.777  1.00  0.00     0.039 A 
ATOM     27  C   UNL A   1      39.947  25.306  26.140  1.00  0.00     0.014 A 
ATOM     28  C   UNL A   1      38.834  24.515  28.138  1.00  0.00     0.014 A 
ATOM     29  C   UNL A   1      40.447  26.399  26.854  1.00  0.00     0.010 A 
ATOM     30  C   UNL A   1      39.281  25.639  28.832  1.00  0.00     0.010 A 
ATOM     31  C   UNL A   1      40.098  26.589  28.200  1.00  0.00    -0.014 A 
BRANCH  31  32
ATOM     32  C   UNL A   1      40.574  27.774  28.959  1.00  0.00     0.031 A 
ATOM     33  C   UNL A   1      41.919  27.750  29.638  1.00  0.00     0.074 A 
ATOM     34  C   UNL A   1      39.764  28.843  29.098  1.00  0.00     0.049 A 
ATOM     35  N   UNL A   1      42.468  28.651  30.412  1.00  0.00    -0.248 NA
ATOM     36  C   UNL A   1      42.742  26.545  29.447  1.00  0.00     0.031 C 
ATOM     37  C   UNL A   1      38.417  28.961  28.536  1.00  0.00     0.029 A 
ATOM     38  N   UNL A   1      39.945  30.024  29.772  1.00  0.00    -0.354 N 
ATOM     39  C   UNL A   1      43.682  28.112  30.822  1.00  0.00     0.074 A 
ATOM     40  C   UNL A   1      43.778  26.793  30.236  1.00  0.00     0.031 C 
ATOM     41  C   UNL A   1      37.896  30.148  28.885  1.00  0.00     0.029 A 
ATOM     42  C   UNL A   1      38.856  30.863  29.720  1.00  0.00     0.049 A 
ATOM     43  H   UNL A   1      40.777  30.251  30.248  1.00  0.00     0.167 HD
ATOM     44  C   UNL A   1      44.636  28.674  31.603  1.00  0.00     0.037 A 
ATOM     45  C   UNL A   1      38.647  32.065  30.293  1.00  0.00     0.037 A 
ATOM     46  C   UNL A   1      44.556  30.007  32.140  1.00  0.00     0.049 A 
ATOM     47  C   UNL A   1      39.741  32.682  31.120  1.00  0.00     0.074 A 
ATOM     48  C   UNL A   1      45.514  30.702  32.859  1.00  0.00     0.029 A 
ATOM     49  N   UNL A   1      43.459  30.846  32.020  1.00  0.00    -0.354 N 
ATOM     50  N   UNL A   1      40.920  32.192  31.423  1.00  0.00    -0.248 NA
ATOM     51  C   UNL A   1      39.483  34.018  31.677  1.00  0.00     0.031 C 
ATOM     52  C   UNL A   1      44.980  31.946  33.209  1.00  0.00     0.029 A 
ATOM     53  C   UNL A   1      43.707  32.043  32.672  1.00  0.00     0.049 A 
ATOM     54  H   UNL A   1      42.628  30.624  31.543  1.00  0.00     0.167 HD
ATOM     55  C   UNL A   1      41.552  33.170  32.184  1.00  0.00     0.074 A 
ATOM     56  C   UNL A   1      40.632  34.283  32.283  1.00  0.00     0.031 C 
ATOM     57  C   UNL A   1      42.783  33.147  32.750  1.00  0.00     0.037 A 
BRANCH  44  58
ATOM     58  C   UNL A   1      45.859  27.859  31.923  1.00  0.00     0.058 A 
ATOM     59  C   UNL A   1      45.845  26.864  32.914  1.00  0.00     0.135 A 
ATOM     60  C   UNL A   1      47.039  28.027  31.182  1.00  0.00     0.135 A 
ATOM     61  F   UNL A   1      44.748  26.670  33.663  1.00  0.00    -0.206 F 
ATOM     62  C   UNL A   1      46.963  26.075  33.168  1.00  0.00     0.059 A 
ATOM     63  C   UNL A   1      48.161  27.234  31.402  1.00  0.00     0.059 A 
ATOM     64  F   UNL A   1      47.106  28.966  30.224  1.00  0.00    -0.206 F 
ATOM     65  C   UNL A   1      48.116  26.266  32.404  1.00  0.00     0.060 A 
BRANCH  65  66
ATOM     66  S   UNL A   1      49.548  25.213  32.725  1.00  0.00     0.124 S 
ATOM     67  O   UNL A   1      49.899  24.784  31.374  1.00  0.00    -0.237 OA
ATOM     68  O   UNL A   1      50.481  26.139  33.358  1.00  0.00    -0.237 OA
ATOM     69  O   UNL A   1      49.015  24.170  33.595  1.00  0.00    -0.744 OA
ENDBRANCH  65  66
ENDBRANCH  44  58
BRANCH  45  70
ATOM     70  C   UNL A   1      37.351  32.768  30.101  1.00  0.00     0.058 A 
ATOM     71  C   UNL A   1      36.244  32.481  30.912  1.00  0.00     0.135 A 
ATOM     72  C   UNL A   1      37.194  33.737  29.098  1.00  0.00     0.135 A 
ATOM     73  F   UNL A   1      36.345  31.559  31.882  1.00  0.00    -0.206 F 
ATOM     74  C   UNL A   1      35.017  33.108  30.720  1.00  0.00     0.059 A 
ATOM     75  C   UNL A   1      35.984  34.396  28.902  1.00  0.00     0.059 A 
ATOM     76  F   UNL A   1      38.228  34.063  28.307  1.00  0.00    -0.206 F 
ATOM     77  C   UNL A   1      34.897  34.064  29.710  1.00  0.00     0.060 A 
BRANCH  77  78
ATOM     78  S   UNL A   1      33.310  34.897  29.485  1.00  0.00     0.124 S 
ATOM     79  O   UNL A   1      32.600  33.950  28.634  1.00  0.00    -0.237 OA
ATOM     80  O   UNL A   1      32.825  35.012  30.857  1.00  0.00    -0.237 OA
ATOM     81  O   UNL A   1      33.684  36.159  28.853  1.00  0.00    -0.744 OA
ENDBRANCH  77  78
ENDBRANCH  45  70
BRANCH  57  82
ATOM     82  C   UNL A   1      43.223  34.373  33.500  1.00  0.00     0.058 A 
ATOM     83  C   UNL A   1      43.791  35.475  32.842  1.00  0.00     0.135 A 
ATOM     84  C   UNL A   1      43.026  34.466  34.887  1.00  0.00     0.135 A 
ATOM     85  F   UNL A   1      44.006  35.433  31.519  1.00  0.00    -0.206 F 
ATOM     86  C   UNL A   1      44.170  36.618  33.538  1.00  0.00     0.059 A 
ATOM     87  C   UNL A   1      43.373  35.609  35.599  1.00  0.00     0.059 A 
ATOM     88  F   UNL A   1      42.476  33.443  35.562  1.00  0.00    -0.206 F 
ATOM     89  C   UNL A   1      43.957  36.675  34.917  1.00  0.00     0.060 A 
BRANCH  89  90
ATOM     90  S   UNL A   1      44.422  38.177  35.804  1.00  0.00     0.124 S 
ATOM     91  O   UNL A   1      45.874  38.041  35.867  1.00  0.00    -0.237 OA
ATOM     92  O   UNL A   1      43.922  39.229  34.926  1.00  0.00    -0.237 OA
ATOM     93  O   UNL A   1      43.724  38.048  37.079  1.00  0.00    -0.744 OA
ENDBRANCH  89  90
ENDBRANCH  57  82
ENDBRANCH  31  32
ENDBRANCH  23  26
ENDBRANCH  21  22
ENDBRANCH   1  21
TORSDOF 15
ENDMDL
