MODEL 1
REMARK VINA RESULT:     -11.6      0.000      0.000
REMARK SMILES CCc1c(C)nc(Nc2cc(Cl)ccc2C)nc1OCC(=O)NCCCNC(=O)c1ccc(-c2c3nc(c(-c4c(F)cc(S(=O)(=O)[O-])cc4F)c4ccc([nH]4)c(-c4c(F)cc(S(=O)(=O)[O-])cc4F)c4nc(c(-c5c(F)cc(S(=O)(=O)[O-])cc5F)c5ccc2[nH]5)C=C4)C=C3)cc1
REMARK SMILES IDX 24 1 23 2 21 3 22 4 20 6 19 7 18 8 3 9 4 10 5 11 6 12 17 13
REMARK SMILES IDX 7 14 2 15 1 16 8 17 9 19 10 20 15 21 11 22 14 23 16 24 12 25
REMARK SMILES IDX 13 26 25 27 26 28 27 29 28 30 29 32 30 33 31 34 95 35 32 36
REMARK SMILES IDX 94 37 33 38 34 39 35 40 88 41 36 42 93 43 87 44 89 45 37 46
REMARK SMILES IDX 92 47 86 48 85 49 38 51 72 52 51 53 71 54 52 55 55 56 70 57
REMARK SMILES IDX 90 58 53 59 54 60 69 62 91 63 56 64 39 65 40 66 49 67 41 68
REMARK SMILES IDX 42 69 48 70 50 71 43 72 44 73 45 74 46 75 47 76 73 77 74 78
REMARK SMILES IDX 83 79 75 80 76 81 82 82 84 83 77 84 78 85 79 86 80 87 81 88
REMARK SMILES IDX 57 89 58 90 67 91 59 92 60 93 66 94 68 95 61 96 62 97 63 98
REMARK SMILES IDX 64 99 65 100
REMARK H PARENT 23 5 8 18 27 31 89 50 55 61
REMARK Flexibility Score: inf
ROOT
ATOM      1  C   UNL A   1      33.433  31.085  27.284  1.00  0.00     0.117 C 
ENDROOT
BRANCH   1   2
ATOM      2  N   UNL A   1      34.137  29.876  26.904  1.00  0.00    -0.353 N 
ATOM      3  C   UNL A   1      33.635  28.630  26.683  1.00  0.00     0.258 C 
ATOM      4  O   UNL A   1      34.393  27.777  26.215  1.00  0.00    -0.271 OA
ATOM      5  H   UNL A   1      35.110  29.969  26.790  1.00  0.00     0.163 HD
BRANCH   3   6
ATOM      6  C   UNL A   1      32.154  28.335  26.959  1.00  0.00     0.331 C 
BRANCH   6   7
ATOM      7  O   UNL A   1      31.738  27.016  27.201  1.00  0.00    -0.467 OA
BRANCH   7   8
ATOM      8  C   UNL A   1      31.667  26.006  26.302  1.00  0.00     0.222 A 
ATOM      9  C   UNL A   1      30.879  25.860  25.159  1.00  0.00     0.035 A 
ATOM     10  C   UNL A   1      31.181  24.718  24.411  1.00  0.00     0.050 A 
ATOM     11  C   UNL A   1      30.585  24.389  23.074  1.00  0.00     0.067 C 
ATOM     12  N   UNL A   1      32.042  23.777  24.825  1.00  0.00    -0.218 NA
ATOM     13  N   UNL A   1      32.541  25.051  26.707  1.00  0.00    -0.177 NA
ATOM     14  C   UNL A   1      32.701  23.958  25.963  1.00  0.00     0.230 A 
BRANCH   9  15
ATOM     15  C   UNL A   1      29.817  26.807  24.667  1.00  0.00     0.040 C 
ATOM     16  C   UNL A   1      30.283  27.978  23.805  1.00  0.00     0.009 C 
ENDBRANCH   9  15
BRANCH  14  17
ATOM     17  N   UNL A   1      33.558  22.957  26.421  1.00  0.00    -0.324 N 
ATOM     18  H   UNL A   1      33.239  22.416  27.180  1.00  0.00     0.170 HD
BRANCH  17  19
ATOM     19  C   UNL A   1      34.829  22.639  25.913  1.00  0.00     0.045 A 
ATOM     20  C   UNL A   1      35.893  23.519  26.169  1.00  0.00     0.047 A 
ATOM     21  C   UNL A   1      35.102  21.414  25.262  1.00  0.00    -0.027 A 
ATOM     22  C   UNL A   1      37.203  23.165  25.839  1.00  0.00     0.043 A 
ATOM     23  C   UNL A   1      36.429  21.070  24.952  1.00  0.00     0.007 A 
ATOM     24  C   UNL A   1      34.006  20.457  24.871  1.00  0.00     0.046 C 
ATOM     25  Cl  UNL A   1      38.498  24.239  26.206  1.00  0.00    -0.084 Cl
ATOM     26  C   UNL A   1      37.478  21.939  25.245  1.00  0.00     0.021 A 
ENDBRANCH  17  19
ENDBRANCH  14  17
ENDBRANCH   7   8
ENDBRANCH   6   7
ENDBRANCH   3   6
ENDBRANCH   1   2
BRANCH   1  27
ATOM     27  C   UNL A   1      34.312  32.077  28.031  1.00  0.00     0.042 C 
BRANCH  27  28
ATOM     28  C   UNL A   1      35.650  31.522  28.514  1.00  0.00     0.118 C 
BRANCH  28  29
ATOM     29  N   UNL A   1      35.602  30.985  29.867  1.00  0.00    -0.352 N 
ATOM     30  C   UNL A   1      36.508  30.238  30.575  1.00  0.00     0.251 C 
ATOM     31  H   UNL A   1      34.775  31.196  30.360  1.00  0.00     0.163 HD
ATOM     32  O   UNL A   1      36.170  29.782  31.670  1.00  0.00    -0.269 OA
BRANCH  30  33
ATOM     33  C   UNL A   1      37.862  29.951  30.048  1.00  0.00     0.039 A 
ATOM     34  C   UNL A   1      38.925  29.876  30.953  1.00  0.00     0.014 A 
ATOM     35  C   UNL A   1      38.107  29.800  28.681  1.00  0.00     0.014 A 
ATOM     36  C   UNL A   1      40.213  29.589  30.495  1.00  0.00     0.010 A 
ATOM     37  C   UNL A   1      39.376  29.432  28.234  1.00  0.00     0.010 A 
ATOM     38  C   UNL A   1      40.446  29.329  29.135  1.00  0.00    -0.014 A 
BRANCH  38  39
ATOM     39  C   UNL A   1      41.802  28.948  28.655  1.00  0.00     0.031 A 
ATOM     40  C   UNL A   1      42.909  29.967  28.586  1.00  0.00     0.074 A 
ATOM     41  C   UNL A   1      42.027  27.682  28.250  1.00  0.00     0.049 A 
ATOM     42  N   UNL A   1      44.150  29.812  28.199  1.00  0.00    -0.248 NA
ATOM     43  C   UNL A   1      42.573  31.345  28.977  1.00  0.00     0.031 C 
ATOM     44  C   UNL A   1      41.022  26.615  28.208  1.00  0.00     0.029 A 
ATOM     45  N   UNL A   1      43.171  27.072  27.799  1.00  0.00    -0.354 N 
ATOM     46  C   UNL A   1      44.738  31.068  28.294  1.00  0.00     0.074 A 
ATOM     47  C   UNL A   1      43.704  31.986  28.718  1.00  0.00     0.031 C 
ATOM     48  C   UNL A   1      41.603  25.478  27.793  1.00  0.00     0.029 A 
ATOM     49  C   UNL A   1      43.011  25.737  27.511  1.00  0.00     0.049 A 
ATOM     50  H   UNL A   1      44.027  27.547  27.692  1.00  0.00     0.167 HD
ATOM     51  C   UNL A   1      46.029  31.421  28.076  1.00  0.00     0.037 A 
ATOM     52  C   UNL A   1      43.899  24.822  27.078  1.00  0.00     0.037 A 
ATOM     53  C   UNL A   1      47.062  30.500  27.677  1.00  0.00     0.049 A 
ATOM     54  C   UNL A   1      45.331  25.232  26.868  1.00  0.00     0.074 A 
ATOM     55  C   UNL A   1      48.409  30.749  27.477  1.00  0.00     0.029 A 
ATOM     56  N   UNL A   1      46.866  29.151  27.421  1.00  0.00    -0.354 N 
ATOM     57  N   UNL A   1      45.882  26.413  27.024  1.00  0.00    -0.248 NA
ATOM     58  C   UNL A   1      46.264  24.184  26.437  1.00  0.00     0.031 C 
ATOM     59  C   UNL A   1      49.020  29.558  27.067  1.00  0.00     0.029 A 
ATOM     60  C   UNL A   1      48.063  28.557  27.054  1.00  0.00     0.049 A 
ATOM     61  H   UNL A   1      46.001  28.683  27.488  1.00  0.00     0.167 HD
ATOM     62  C   UNL A   1      47.232  26.241  26.738  1.00  0.00     0.074 A 
ATOM     63  C   UNL A   1      47.415  24.841  26.416  1.00  0.00     0.031 C 
ATOM     64  C   UNL A   1      48.230  27.161  26.739  1.00  0.00     0.037 A 
BRANCH  51  65
ATOM     65  C   UNL A   1      46.400  32.866  28.281  1.00  0.00     0.058 A 
ATOM     66  C   UNL A   1      46.878  33.333  29.516  1.00  0.00     0.135 A 
ATOM     67  C   UNL A   1      46.312  33.787  27.224  1.00  0.00     0.135 A 
ATOM     68  F   UNL A   1      46.969  32.500  30.566  1.00  0.00    -0.206 F 
ATOM     69  C   UNL A   1      47.227  34.666  29.706  1.00  0.00     0.059 A 
ATOM     70  C   UNL A   1      46.683  35.120  27.383  1.00  0.00     0.059 A 
ATOM     71  F   UNL A   1      45.862  33.396  26.022  1.00  0.00    -0.206 F 
ATOM     72  C   UNL A   1      47.126  35.553  28.632  1.00  0.00     0.060 A 
BRANCH  72  73
ATOM     73  S   UNL A   1      47.589  37.278  28.893  1.00  0.00     0.124 S 
ATOM     74  O   UNL A   1      49.032  37.166  29.081  1.00  0.00    -0.237 OA
ATOM     75  O   UNL A   1      47.161  37.909  27.647  1.00  0.00    -0.237 OA
ATOM     76  O   UNL A   1      46.830  37.659  30.078  1.00  0.00    -0.744 OA
ENDBRANCH  72  73
ENDBRANCH  51  65
BRANCH  52  77
ATOM     77  C   UNL A   1      43.471  23.415  26.854  1.00  0.00     0.058 A 
ATOM     78  C   UNL A   1      43.246  22.551  27.936  1.00  0.00     0.135 A 
ATOM     79  C   UNL A   1      43.276  22.908  25.562  1.00  0.00     0.135 A 
ATOM     80  F   UNL A   1      43.423  22.988  29.193  1.00  0.00    -0.206 F 
ATOM     81  C   UNL A   1      42.866  21.226  27.745  1.00  0.00     0.059 A 
ATOM     82  C   UNL A   1      42.871  21.594  25.344  1.00  0.00     0.059 A 
ATOM     83  F   UNL A   1      43.459  23.700  24.494  1.00  0.00    -0.206 F 
ATOM     84  C   UNL A   1      42.682  20.757  26.444  1.00  0.00     0.060 A 
BRANCH  84  85
ATOM     85  S   UNL A   1      42.151  19.047  26.205  1.00  0.00     0.124 S 
ATOM     86  O   UNL A   1      43.013  18.623  25.108  1.00  0.00    -0.237 OA
ATOM     87  O   UNL A   1      42.436  18.452  27.508  1.00  0.00    -0.237 OA
ATOM     88  O   UNL A   1      40.734  19.178  25.883  1.00  0.00    -0.744 OA
ENDBRANCH  84  85
ENDBRANCH  52  77
BRANCH  64  89
ATOM     89  C   UNL A   1      49.614  26.667  26.419  1.00  0.00     0.058 A 
ATOM     90  C   UNL A   1      50.437  26.085  27.397  1.00  0.00     0.135 A 
ATOM     91  C   UNL A   1      50.120  26.768  25.114  1.00  0.00     0.135 A 
ATOM     92  F   UNL A   1      50.002  25.969  28.663  1.00  0.00    -0.206 F 
ATOM     93  C   UNL A   1      51.728  25.664  27.103  1.00  0.00     0.059 A 
ATOM     94  C   UNL A   1      51.399  26.325  24.790  1.00  0.00     0.059 A 
ATOM     95  F   UNL A   1      49.371  27.302  24.136  1.00  0.00    -0.206 F 
ATOM     96  C   UNL A   1      52.203  25.794  25.796  1.00  0.00     0.060 A 
BRANCH  96  97
ATOM     97  S   UNL A   1      53.884  25.248  25.424  1.00  0.00     0.124 S 
ATOM     98  O   UNL A   1      54.461  25.149  26.761  1.00  0.00    -0.237 OA
ATOM     99  O   UNL A   1      53.657  23.980  24.737  1.00  0.00    -0.237 OA
ATOM    100  O   UNL A   1      54.411  26.322  24.589  1.00  0.00    -0.744 OA
ENDBRANCH  96  97
ENDBRANCH  64  89
ENDBRANCH  38  39
ENDBRANCH  30  33
ENDBRANCH  28  29
ENDBRANCH  27  28
ENDBRANCH   1  27
TORSDOF 18
ENDMDL
MODEL 2
REMARK VINA RESULT:     -10.9      1.629      8.232
REMARK SMILES CCc1c(C)nc(Nc2cc(Cl)ccc2C)nc1OCC(=O)NCCCNC(=O)c1ccc(-c2c3nc(c(-c4c(F)cc(S(=O)(=O)[O-])cc4F)c4ccc([nH]4)c(-c4c(F)cc(S(=O)(=O)[O-])cc4F)c4nc(c(-c5c(F)cc(S(=O)(=O)[O-])cc5F)c5ccc2[nH]5)C=C4)C=C3)cc1
REMARK SMILES IDX 24 1 23 2 21 3 22 4 20 6 19 7 18 8 3 9 4 10 5 11 6 12 17 13
REMARK SMILES IDX 7 14 2 15 1 16 8 17 9 19 10 20 15 21 11 22 14 23 16 24 12 25
REMARK SMILES IDX 13 26 25 27 26 28 27 29 28 30 29 32 30 33 31 34 95 35 32 36
REMARK SMILES IDX 94 37 33 38 34 39 35 40 88 41 36 42 93 43 87 44 89 45 37 46
REMARK SMILES IDX 92 47 86 48 85 49 38 51 72 52 51 53 71 54 52 55 55 56 70 57
REMARK SMILES IDX 90 58 53 59 54 60 69 62 91 63 56 64 39 65 40 66 49 67 41 68
REMARK SMILES IDX 42 69 48 70 50 71 43 72 44 73 45 74 46 75 47 76 73 77 74 78
REMARK SMILES IDX 83 79 75 80 76 81 82 82 84 83 77 84 78 85 79 86 80 87 81 88
REMARK SMILES IDX 57 89 58 90 67 91 59 92 60 93 66 94 68 95 61 96 62 97 63 98
REMARK SMILES IDX 64 99 65 100
REMARK H PARENT 23 5 8 18 27 31 89 50 55 61
REMARK Flexibility Score: inf
ROOT
ATOM      1  C   UNL A   1      34.868  29.344  27.310  1.00  0.00     0.117 C 
ENDROOT
BRANCH   1   2
ATOM      2  N   UNL A   1      33.637  29.997  26.909  1.00  0.00    -0.353 N 
ATOM      3  C   UNL A   1      32.353  29.585  27.092  1.00  0.00     0.258 C 
ATOM      4  O   UNL A   1      31.448  30.371  26.808  1.00  0.00    -0.271 OA
ATOM      5  H   UNL A   1      33.745  30.856  26.441  1.00  0.00     0.163 HD
BRANCH   3   6
ATOM      6  C   UNL A   1      32.066  28.199  27.690  1.00  0.00     0.331 C 
BRANCH   6   7
ATOM      7  O   UNL A   1      31.048  27.401  27.145  1.00  0.00    -0.467 OA
BRANCH   7   8
ATOM      8  C   UNL A   1      31.162  26.519  26.124  1.00  0.00     0.222 A 
ATOM      9  C   UNL A   1      31.048  26.704  24.745  1.00  0.00     0.035 A 
ATOM     10  C   UNL A   1      31.356  25.563  23.998  1.00  0.00     0.050 A 
ATOM     11  C   UNL A   1      31.448  25.519  22.501  1.00  0.00     0.067 C 
ATOM     12  N   UNL A   1      31.596  24.366  24.554  1.00  0.00    -0.218 NA
ATOM     13  N   UNL A   1      31.413  25.305  26.675  1.00  0.00    -0.177 NA
ATOM     14  C   UNL A   1      31.615  24.259  25.877  1.00  0.00     0.230 A 
BRANCH   9  15
ATOM     15  C   UNL A   1      30.685  27.979  24.032  1.00  0.00     0.040 C 
ATOM     16  C   UNL A   1      31.840  28.861  23.563  1.00  0.00     0.009 C 
ENDBRANCH   9  15
BRANCH  14  17
ATOM     17  N   UNL A   1      31.813  23.004  26.456  1.00  0.00    -0.324 N 
ATOM     18  H   UNL A   1      31.287  22.804  27.264  1.00  0.00     0.170 HD
BRANCH  17  19
ATOM     19  C   UNL A   1      32.683  21.997  26.006  1.00  0.00     0.045 A 
ATOM     20  C   UNL A   1      32.159  20.957  25.222  1.00  0.00     0.047 A 
ATOM     21  C   UNL A   1      34.081  22.056  26.209  1.00  0.00    -0.027 A 
ATOM     22  C   UNL A   1      33.006  20.033  24.608  1.00  0.00     0.043 A 
ATOM     23  C   UNL A   1      34.919  21.126  25.569  1.00  0.00     0.007 A 
ATOM     24  C   UNL A   1      34.714  23.086  27.108  1.00  0.00     0.046 C 
ATOM     25  Cl  UNL A   1      32.344  18.794  23.611  1.00  0.00    -0.084 Cl
ATOM     26  C   UNL A   1      34.384  20.121  24.765  1.00  0.00     0.021 A 
ENDBRANCH  17  19
ENDBRANCH  14  17
ENDBRANCH   7   8
ENDBRANCH   6   7
ENDBRANCH   3   6
ENDBRANCH   1   2
BRANCH   1  27
ATOM     27  C   UNL A   1      35.706  30.183  28.263  1.00  0.00     0.042 C 
BRANCH  27  28
ATOM     28  C   UNL A   1      35.844  29.617  29.675  1.00  0.00     0.118 C 
BRANCH  28  29
ATOM     29  N   UNL A   1      36.031  30.639  30.695  1.00  0.00    -0.352 N 
ATOM     30  C   UNL A   1      37.168  31.121  31.292  1.00  0.00     0.251 C 
ATOM     31  H   UNL A   1      35.197  31.057  31.012  1.00  0.00     0.163 HD
ATOM     32  O   UNL A   1      37.051  31.899  32.242  1.00  0.00    -0.269 OA
BRANCH  30  33
ATOM     33  C   UNL A   1      38.518  30.715  30.839  1.00  0.00     0.039 A 
ATOM     34  C   UNL A   1      39.332  30.007  31.729  1.00  0.00     0.014 A 
ATOM     35  C   UNL A   1      39.008  31.055  29.577  1.00  0.00     0.014 A 
ATOM     36  C   UNL A   1      40.605  29.591  31.331  1.00  0.00     0.010 A 
ATOM     37  C   UNL A   1      40.245  30.569  29.152  1.00  0.00     0.010 A 
ATOM     38  C   UNL A   1      41.061  29.837  30.026  1.00  0.00    -0.014 A 
BRANCH  38  39
ATOM     39  C   UNL A   1      42.384  29.328  29.574  1.00  0.00     0.031 A 
ATOM     40  C   UNL A   1      42.523  27.936  29.016  1.00  0.00     0.074 A 
ATOM     41  C   UNL A   1      43.471  30.116  29.697  1.00  0.00     0.049 A 
ATOM     42  N   UNL A   1      43.594  27.329  28.570  1.00  0.00    -0.248 NA
ATOM     43  C   UNL A   1      41.308  27.108  28.978  1.00  0.00     0.031 C 
ATOM     44  C   UNL A   1      43.482  31.461  30.279  1.00  0.00     0.029 A 
ATOM     45  N   UNL A   1      44.779  29.904  29.337  1.00  0.00    -0.354 N 
ATOM     46  C   UNL A   1      43.184  26.051  28.206  1.00  0.00     0.074 A 
ATOM     47  C   UNL A   1      41.780  25.950  28.538  1.00  0.00     0.031 C 
ATOM     48  C   UNL A   1      44.722  31.966  30.202  1.00  0.00     0.029 A 
ATOM     49  C   UNL A   1      45.604  30.975  29.593  1.00  0.00     0.049 A 
ATOM     50  H   UNL A   1      45.097  29.065  28.931  1.00  0.00     0.167 HD
ATOM     51  C   UNL A   1      43.904  25.062  27.621  1.00  0.00     0.037 A 
ATOM     52  C   UNL A   1      46.919  31.143  29.358  1.00  0.00     0.037 A 
ATOM     53  C   UNL A   1      45.296  25.175  27.270  1.00  0.00     0.049 A 
ATOM     54  C   UNL A   1      47.690  30.040  28.685  1.00  0.00     0.074 A 
ATOM     55  C   UNL A   1      46.103  24.248  26.632  1.00  0.00     0.029 A 
ATOM     56  N   UNL A   1      46.090  26.284  27.524  1.00  0.00    -0.354 N 
ATOM     57  N   UNL A   1      47.269  28.862  28.290  1.00  0.00    -0.248 NA
ATOM     58  C   UNL A   1      49.110  30.295  28.413  1.00  0.00     0.031 C 
ATOM     59  C   UNL A   1      47.392  24.783  26.531  1.00  0.00     0.029 A 
ATOM     60  C   UNL A   1      47.378  26.061  27.065  1.00  0.00     0.049 A 
ATOM     61  H   UNL A   1      45.783  27.109  27.965  1.00  0.00     0.167 HD
ATOM     62  C   UNL A   1      48.367  28.247  27.698  1.00  0.00     0.074 A 
ATOM     63  C   UNL A   1      49.463  29.190  27.772  1.00  0.00     0.031 C 
ATOM     64  C   UNL A   1      48.459  27.011  27.144  1.00  0.00     0.037 A 
BRANCH  51  65
ATOM     65  C   UNL A   1      43.190  23.774  27.309  1.00  0.00     0.058 A 
ATOM     66  C   UNL A   1      43.012  22.777  28.282  1.00  0.00     0.135 A 
ATOM     67  C   UNL A   1      42.645  23.545  26.034  1.00  0.00     0.135 A 
ATOM     68  F   UNL A   1      43.525  22.935  29.513  1.00  0.00    -0.206 F 
ATOM     69  C   UNL A   1      42.347  21.589  27.997  1.00  0.00     0.059 A 
ATOM     70  C   UNL A   1      41.951  22.376  25.734  1.00  0.00     0.059 A 
ATOM     71  F   UNL A   1      42.784  24.464  25.065  1.00  0.00    -0.206 F 
ATOM     72  C   UNL A   1      41.820  21.398  26.719  1.00  0.00     0.060 A 
BRANCH  72  73
ATOM     73  S   UNL A   1      40.954  19.854  26.366  1.00  0.00     0.124 S 
ATOM     74  O   UNL A   1      40.836  19.275  27.701  1.00  0.00    -0.237 OA
ATOM     75  O   UNL A   1      39.707  20.323  25.769  1.00  0.00    -0.237 OA
ATOM     76  O   UNL A   1      41.857  19.157  25.458  1.00  0.00    -0.744 OA
ENDBRANCH  72  73
ENDBRANCH  51  65
BRANCH  52  77
ATOM     77  C   UNL A   1      47.584  32.423  29.721  1.00  0.00     0.058 A 
ATOM     78  C   UNL A   1      48.215  32.579  30.963  1.00  0.00     0.135 A 
ATOM     79  C   UNL A   1      47.604  33.511  28.837  1.00  0.00     0.135 A 
ATOM     80  F   UNL A   1      48.220  31.568  31.846  1.00  0.00    -0.206 F 
ATOM     81  C   UNL A   1      48.823  33.776  31.329  1.00  0.00     0.059 A 
ATOM     82  C   UNL A   1      48.227  34.711  29.166  1.00  0.00     0.059 A 
ATOM     83  F   UNL A   1      47.030  33.406  27.628  1.00  0.00    -0.206 F 
ATOM     84  C   UNL A   1      48.823  34.837  30.422  1.00  0.00     0.060 A 
BRANCH  84  85
ATOM     85  S   UNL A   1      49.647  36.376  30.887  1.00  0.00     0.124 S 
ATOM     86  O   UNL A   1      50.784  36.386  29.975  1.00  0.00    -0.237 OA
ATOM     87  O   UNL A   1      48.610  37.371  30.628  1.00  0.00    -0.237 OA
ATOM     88  O   UNL A   1      49.967  36.171  32.296  1.00  0.00    -0.744 OA
ENDBRANCH  84  85
ENDBRANCH  52  77
BRANCH  64  89
ATOM     89  C   UNL A   1      49.783  26.630  26.541  1.00  0.00     0.058 A 
ATOM     90  C   UNL A   1      50.124  26.979  25.224  1.00  0.00     0.135 A 
ATOM     91  C   UNL A   1      50.728  25.915  27.295  1.00  0.00     0.135 A 
ATOM     92  F   UNL A   1      49.255  27.659  24.459  1.00  0.00    -0.206 F 
ATOM     93  C   UNL A   1      51.336  26.592  24.661  1.00  0.00     0.059 A 
ATOM     94  C   UNL A   1      51.958  25.545  26.761  1.00  0.00     0.059 A 
ATOM     95  F   UNL A   1      50.460  25.570  28.564  1.00  0.00    -0.206 F 
ATOM     96  C   UNL A   1      52.244  25.869  25.437  1.00  0.00     0.060 A 
BRANCH  96  97
ATOM     97  S   UNL A   1      53.813  25.368  24.696  1.00  0.00     0.124 S 
ATOM     98  O   UNL A   1      53.732  23.915  24.798  1.00  0.00    -0.237 OA
ATOM     99  O   UNL A   1      53.712  25.915  23.346  1.00  0.00    -0.237 OA
ATOM    100  O   UNL A   1      54.810  26.005  25.551  1.00  0.00    -0.744 OA
ENDBRANCH  96  97
ENDBRANCH  64  89
ENDBRANCH  38  39
ENDBRANCH  30  33
ENDBRANCH  28  29
ENDBRANCH  27  28
ENDBRANCH   1  27
TORSDOF 18
ENDMDL
MODEL 3
REMARK VINA RESULT:     -10.6      9.551     16.350
REMARK SMILES CCc1c(C)nc(Nc2cc(Cl)ccc2C)nc1OCC(=O)NCCCNC(=O)c1ccc(-c2c3nc(c(-c4c(F)cc(S(=O)(=O)[O-])cc4F)c4ccc([nH]4)c(-c4c(F)cc(S(=O)(=O)[O-])cc4F)c4nc(c(-c5c(F)cc(S(=O)(=O)[O-])cc5F)c5ccc2[nH]5)C=C4)C=C3)cc1
REMARK SMILES IDX 24 1 23 2 21 3 22 4 20 6 19 7 18 8 3 9 4 10 5 11 6 12 17 13
REMARK SMILES IDX 7 14 2 15 1 16 8 17 9 19 10 20 15 21 11 22 14 23 16 24 12 25
REMARK SMILES IDX 13 26 25 27 26 28 27 29 28 30 29 32 30 33 31 34 95 35 32 36
REMARK SMILES IDX 94 37 33 38 34 39 35 40 88 41 36 42 93 43 87 44 89 45 37 46
REMARK SMILES IDX 92 47 86 48 85 49 38 51 72 52 51 53 71 54 52 55 55 56 70 57
REMARK SMILES IDX 90 58 53 59 54 60 69 62 91 63 56 64 39 65 40 66 49 67 41 68
REMARK SMILES IDX 42 69 48 70 50 71 43 72 44 73 45 74 46 75 47 76 73 77 74 78
REMARK SMILES IDX 83 79 75 80 76 81 82 82 84 83 77 84 78 85 79 86 80 87 81 88
REMARK SMILES IDX 57 89 58 90 67 91 59 92 60 93 66 94 68 95 61 96 62 97 63 98
REMARK SMILES IDX 64 99 65 100
REMARK H PARENT 23 5 8 18 27 31 89 50 55 61
REMARK Flexibility Score: inf
ROOT
ATOM      1  C   UNL A   1      46.007  23.209  37.368  1.00  0.00     0.117 C 
ENDROOT
BRANCH   1   2
ATOM      2  N   UNL A   1      45.706  21.942  36.731  1.00  0.00    -0.353 N 
ATOM      3  C   UNL A   1      46.092  20.690  37.097  1.00  0.00     0.258 C 
ATOM      4  O   UNL A   1      45.594  19.733  36.501  1.00  0.00    -0.271 OA
ATOM      5  H   UNL A   1      45.145  21.995  35.924  1.00  0.00     0.163 HD
BRANCH   3   6
ATOM      6  C   UNL A   1      47.077  20.495  38.260  1.00  0.00     0.331 C 
BRANCH   6   7
ATOM      7  O   UNL A   1      47.284  19.213  38.792  1.00  0.00    -0.467 OA
BRANCH   7   8
ATOM      8  C   UNL A   1      47.012  18.799  40.052  1.00  0.00     0.222 A 
ATOM      9  C   UNL A   1      47.843  18.668  41.166  1.00  0.00     0.035 A 
ATOM     10  C   UNL A   1      47.162  18.323  42.337  1.00  0.00     0.050 A 
ATOM     11  C   UNL A   1      47.786  18.250  43.700  1.00  0.00     0.067 C 
ATOM     12  N   UNL A   1      45.859  18.005  42.361  1.00  0.00    -0.218 NA
ATOM     13  N   UNL A   1      45.693  18.483  40.090  1.00  0.00    -0.177 NA
ATOM     14  C   UNL A   1      45.153  18.087  41.240  1.00  0.00     0.230 A 
BRANCH   9  15
ATOM     15  C   UNL A   1      49.330  18.901  41.216  1.00  0.00     0.040 C 
ATOM     16  C   UNL A   1      50.203  17.962  40.386  1.00  0.00     0.009 C 
ENDBRANCH   9  15
BRANCH  14  17
ATOM     17  N   UNL A   1      43.809  17.707  41.252  1.00  0.00    -0.324 N 
ATOM     18  H   UNL A   1      43.146  18.434  41.279  1.00  0.00     0.170 HD
BRANCH  17  19
ATOM     19  C   UNL A   1      43.305  16.395  41.229  1.00  0.00     0.045 A 
ATOM     20  C   UNL A   1      42.957  15.789  42.447  1.00  0.00     0.047 A 
ATOM     21  C   UNL A   1      43.022  15.712  40.024  1.00  0.00    -0.027 A 
ATOM     22  C   UNL A   1      42.292  14.561  42.464  1.00  0.00     0.043 A 
ATOM     23  C   UNL A   1      42.338  14.485  40.062  1.00  0.00     0.007 A 
ATOM     24  C   UNL A   1      43.445  16.253  38.682  1.00  0.00     0.046 C 
ATOM     25  Cl  UNL A   1      41.830  13.859  43.968  1.00  0.00    -0.084 Cl
ATOM     26  C   UNL A   1      41.968  13.913  41.278  1.00  0.00     0.021 A 
ENDBRANCH  17  19
ENDBRANCH  14  17
ENDBRANCH   7   8
ENDBRANCH   6   7
ENDBRANCH   3   6
ENDBRANCH   1   2
BRANCH   1  27
ATOM     27  C   UNL A   1      45.328  23.374  38.720  1.00  0.00     0.042 C 
BRANCH  27  28
ATOM     28  C   UNL A   1      45.277  24.806  39.248  1.00  0.00     0.118 C 
BRANCH  28  29
ATOM     29  N   UNL A   1      46.535  25.524  39.105  1.00  0.00    -0.352 N 
ATOM     30  C   UNL A   1      46.899  26.553  38.274  1.00  0.00     0.251 C 
ATOM     31  H   UNL A   1      47.250  25.218  39.710  1.00  0.00     0.163 HD
ATOM     32  O   UNL A   1      48.082  26.899  38.246  1.00  0.00    -0.269 OA
BRANCH  30  33
ATOM     33  C   UNL A   1      45.914  27.234  37.403  1.00  0.00     0.039 A 
ATOM     34  C   UNL A   1      44.569  26.866  37.505  1.00  0.00     0.014 A 
ATOM     35  C   UNL A   1      46.298  28.193  36.462  1.00  0.00     0.014 A 
ATOM     36  C   UNL A   1      43.609  27.500  36.713  1.00  0.00     0.010 A 
ATOM     37  C   UNL A   1      45.330  28.883  35.732  1.00  0.00     0.010 A 
ATOM     38  C   UNL A   1      43.974  28.540  35.843  1.00  0.00    -0.014 A 
BRANCH  38  39
ATOM     39  C   UNL A   1      42.945  29.270  35.055  1.00  0.00     0.031 A 
ATOM     40  C   UNL A   1      42.574  28.817  33.667  1.00  0.00     0.074 A 
ATOM     41  C   UNL A   1      42.363  30.366  35.583  1.00  0.00     0.049 A 
ATOM     42  N   UNL A   1      41.698  29.327  32.839  1.00  0.00    -0.248 NA
ATOM     43  C   UNL A   1      43.299  27.656  33.128  1.00  0.00     0.031 C 
ATOM     44  C   UNL A   1      42.679  30.945  36.892  1.00  0.00     0.029 A 
ATOM     45  N   UNL A   1      41.383  31.189  35.088  1.00  0.00    -0.354 N 
ATOM     46  C   UNL A   1      41.771  28.557  31.684  1.00  0.00     0.074 A 
ATOM     47  C   UNL A   1      42.819  27.582  31.895  1.00  0.00     0.031 C 
ATOM     48  C   UNL A   1      41.883  32.003  37.110  1.00  0.00     0.029 A 
ATOM     49  C   UNL A   1      41.021  32.198  35.949  1.00  0.00     0.049 A 
ATOM     50  H   UNL A   1      40.975  31.067  34.200  1.00  0.00     0.167 HD
ATOM     51  C   UNL A   1      41.016  28.635  30.561  1.00  0.00     0.037 A 
ATOM     52  C   UNL A   1      40.093  33.166  35.823  1.00  0.00     0.037 A 
ATOM     53  C   UNL A   1      39.957  29.592  30.364  1.00  0.00     0.049 A 
ATOM     54  C   UNL A   1      39.251  33.216  34.578  1.00  0.00     0.074 A 
ATOM     55  C   UNL A   1      39.103  29.722  29.282  1.00  0.00     0.029 A 
ATOM     56  N   UNL A   1      39.605  30.581  31.269  1.00  0.00    -0.354 N 
ATOM     57  N   UNL A   1      39.292  32.439  33.522  1.00  0.00    -0.248 NA
ATOM     58  C   UNL A   1      38.226  34.266  34.513  1.00  0.00     0.031 C 
ATOM     59  C   UNL A   1      38.257  30.811  29.520  1.00  0.00     0.029 A 
ATOM     60  C   UNL A   1      38.553  31.332  30.768  1.00  0.00     0.049 A 
ATOM     61  H   UNL A   1      40.038  30.729  32.142  1.00  0.00     0.167 HD
ATOM     62  C   UNL A   1      38.281  32.888  32.681  1.00  0.00     0.074 A 
ATOM     63  C   UNL A   1      37.635  33.993  33.359  1.00  0.00     0.031 C 
ATOM     64  C   UNL A   1      37.920  32.428  31.456  1.00  0.00     0.037 A 
BRANCH  51  65
ATOM     65  C   UNL A   1      41.298  27.645  29.462  1.00  0.00     0.058 A 
ATOM     66  C   UNL A   1      42.419  27.773  28.627  1.00  0.00     0.135 A 
ATOM     67  C   UNL A   1      40.460  26.534  29.263  1.00  0.00     0.135 A 
ATOM     68  F   UNL A   1      43.247  28.823  28.762  1.00  0.00    -0.206 F 
ATOM     69  C   UNL A   1      42.685  26.855  27.616  1.00  0.00     0.059 A 
ATOM     70  C   UNL A   1      40.722  25.588  28.276  1.00  0.00     0.059 A 
ATOM     71  F   UNL A   1      39.374  26.361  30.033  1.00  0.00    -0.206 F 
ATOM     72  C   UNL A   1      41.829  25.765  27.448  1.00  0.00     0.060 A 
BRANCH  72  73
ATOM     73  S   UNL A   1      42.192  24.580  26.136  1.00  0.00     0.124 S 
ATOM     74  O   UNL A   1      41.047  23.679  26.234  1.00  0.00    -0.237 OA
ATOM     75  O   UNL A   1      42.228  25.428  24.948  1.00  0.00    -0.237 OA
ATOM     76  O   UNL A   1      43.473  24.011  26.536  1.00  0.00    -0.744 OA
ENDBRANCH  72  73
ENDBRANCH  51  65
BRANCH  52  77
ATOM     77  C   UNL A   1      39.881  34.143  36.925  1.00  0.00     0.058 A 
ATOM     78  C   UNL A   1      40.611  35.340  36.977  1.00  0.00     0.135 A 
ATOM     79  C   UNL A   1      38.946  33.904  37.942  1.00  0.00     0.135 A 
ATOM     80  F   UNL A   1      41.520  35.613  36.028  1.00  0.00    -0.206 F 
ATOM     81  C   UNL A   1      40.441  36.255  38.011  1.00  0.00     0.059 A 
ATOM     82  C   UNL A   1      38.738  34.814  38.974  1.00  0.00     0.059 A 
ATOM     83  F   UNL A   1      38.208  32.783  37.927  1.00  0.00    -0.206 F 
ATOM     84  C   UNL A   1      39.501  35.982  39.006  1.00  0.00     0.060 A 
BRANCH  84  85
ATOM     85  S   UNL A   1      39.258  37.192  40.325  1.00  0.00     0.124 S 
ATOM     86  O   UNL A   1      40.634  37.504  40.692  1.00  0.00    -0.237 OA
ATOM     87  O   UNL A   1      38.524  38.252  39.639  1.00  0.00    -0.237 OA
ATOM     88  O   UNL A   1      38.488  36.453  41.320  1.00  0.00    -0.744 OA
ENDBRANCH  84  85
ENDBRANCH  52  77
BRANCH  64  89
ATOM     89  C   UNL A   1      36.749  33.100  30.792  1.00  0.00     0.058 A 
ATOM     90  C   UNL A   1      36.911  33.934  29.674  1.00  0.00     0.135 A 
ATOM     91  C   UNL A   1      35.446  32.898  31.275  1.00  0.00     0.135 A 
ATOM     92  F   UNL A   1      38.137  34.163  29.175  1.00  0.00    -0.206 F 
ATOM     93  C   UNL A   1      35.829  34.580  29.087  1.00  0.00     0.059 A 
ATOM     94  C   UNL A   1      34.346  33.511  30.685  1.00  0.00     0.059 A 
ATOM     95  F   UNL A   1      35.232  32.099  32.332  1.00  0.00    -0.206 F 
ATOM     96  C   UNL A   1      34.549  34.367  29.604  1.00  0.00     0.060 A 
BRANCH  96  97
ATOM     97  S   UNL A   1      33.151  35.214  28.838  1.00  0.00     0.124 S 
ATOM     98  O   UNL A   1      32.679  34.204  27.896  1.00  0.00    -0.237 OA
ATOM     99  O   UNL A   1      32.278  35.474  29.979  1.00  0.00    -0.237 OA
ATOM    100  O   UNL A   1      33.759  36.398  28.239  1.00  0.00    -0.744 OA
ENDBRANCH  96  97
ENDBRANCH  64  89
ENDBRANCH  38  39
ENDBRANCH  30  33
ENDBRANCH  28  29
ENDBRANCH  27  28
ENDBRANCH   1  27
TORSDOF 18
ENDMDL
