MODEL 1
REMARK VINA RESULT:     -11.6      0.000      0.000
REMARK SMILES CCOc1ccccc1Nc1ccc(C(=O)NCCCNC(=O)c2ccc(-c3c4nc(c(-c5c(F)cc(S(=O)(=O)[O-])cc5F)c5ccc([nH]5)c(-c5c(F)cc(S(=O)(=O)[O-])cc5F)c5nc(c(-c6c(F)cc(S(=O)(=O)[O-])cc6F)c6ccc3[nH]6)C=C5)C=C4)cc2)cc1N
REMARK SMILES IDX 18 1 17 2 15 3 16 4 14 6 11 7 12 8 91 9 13 10 90 11 10 12
REMARK SMILES IDX 9 14 4 15 5 16 6 17 8 18 7 19 3 20 2 21 1 22 92 23 19 26
REMARK SMILES IDX 20 27 21 28 22 29 23 31 24 32 25 33 89 34 26 35 88 36 27 37
REMARK SMILES IDX 28 38 29 39 82 40 30 41 87 42 81 43 83 44 31 45 86 46 80 47
REMARK SMILES IDX 79 48 32 50 66 51 45 52 65 53 46 54 49 55 64 56 84 57 47 58
REMARK SMILES IDX 48 59 63 61 85 62 50 63 33 64 34 65 43 66 35 67 36 68 42 69
REMARK SMILES IDX 44 70 37 71 38 72 39 73 40 74 41 75 67 76 68 77 77 78 69 79
REMARK SMILES IDX 70 80 76 81 78 82 71 83 72 84 73 85 74 86 75 87 51 88 52 89
REMARK SMILES IDX 61 90 53 91 54 92 60 93 62 94 55 95 56 96 57 97 58 98 59 99
REMARK H PARENT 17 5 10 13 92 24 92 25 21 30 83 49 49 60
REMARK Flexibility Score: inf
ROOT
ATOM      1  C   UNL A   1      33.441  30.004  27.223  1.00  0.00     0.118 C 
ENDROOT
BRANCH   1   2
ATOM      2  N   UNL A   1      32.359  30.225  26.279  1.00  0.00    -0.352 N 
ATOM      3  C   UNL A   1      31.762  29.395  25.365  1.00  0.00     0.251 C 
ATOM      4  O   UNL A   1      30.812  29.829  24.715  1.00  0.00    -0.269 OA
ATOM      5  H   UNL A   1      31.987  31.136  26.299  1.00  0.00     0.163 HD
BRANCH   3   6
ATOM      6  C   UNL A   1      32.167  27.977  25.198  1.00  0.00     0.041 A 
ATOM      7  C   UNL A   1      32.892  25.310  24.668  1.00  0.00     0.062 A 
ATOM      8  C   UNL A   1      33.388  26.358  23.880  1.00  0.00     0.029 A 
ATOM      9  C   UNL A   1      32.062  25.612  25.771  1.00  0.00     0.056 A 
ATOM     10  C   UNL A   1      33.019  27.678  24.133  1.00  0.00     0.016 A 
ATOM     11  C   UNL A   1      31.762  26.951  26.053  1.00  0.00     0.041 A 
BRANCH   7  12
ATOM     12  N   UNL A   1      33.233  23.999  24.292  1.00  0.00    -0.351 N 
ATOM     13  H   UNL A   1      32.477  23.472  23.945  1.00  0.00     0.167 HD
BRANCH  12  14
ATOM     14  C   UNL A   1      34.452  23.303  24.321  1.00  0.00     0.081 A 
ATOM     15  C   UNL A   1      34.663  22.331  25.313  1.00  0.00     0.142 A 
ATOM     16  C   UNL A   1      35.856  21.612  25.381  1.00  0.00     0.048 A 
ATOM     17  C   UNL A   1      36.844  21.828  24.420  1.00  0.00     0.004 A 
ATOM     18  C   UNL A   1      35.443  23.488  23.352  1.00  0.00     0.030 A 
ATOM     19  C   UNL A   1      36.636  22.761  23.404  1.00  0.00     0.002 A 
BRANCH  15  20
ATOM     20  O   UNL A   1      33.700  22.128  26.270  1.00  0.00    -0.492 OA
BRANCH  20  21
ATOM     21  C   UNL A   1      33.256  20.761  26.288  1.00  0.00     0.226 C 
ATOM     22  C   UNL A   1      32.400  20.468  25.065  1.00  0.00     0.049 C 
ENDBRANCH  20  21
ENDBRANCH  15  20
ENDBRANCH  12  14
ENDBRANCH   7  12
BRANCH   9  23
ATOM     23  N   UNL A   1      31.677  24.642  26.697  1.00  0.00    -0.397 N 
ATOM     24  H   UNL A   1      32.188  23.805  26.773  1.00  0.00     0.156 HD
ATOM     25  H   UNL A   1      30.894  24.795  27.274  1.00  0.00     0.156 HD
ENDBRANCH   9  23
ENDBRANCH   3   6
ENDBRANCH   1   2
BRANCH   1  26
ATOM     26  C   UNL A   1      34.129  31.319  27.585  1.00  0.00     0.042 C 
BRANCH  26  27
ATOM     27  C   UNL A   1      35.523  31.125  28.173  1.00  0.00     0.118 C 
BRANCH  27  28
ATOM     28  N   UNL A   1      35.478  30.951  29.617  1.00  0.00    -0.352 N 
ATOM     29  C   UNL A   1      36.352  30.307  30.453  1.00  0.00     0.251 C 
ATOM     30  H   UNL A   1      34.699  31.357  30.061  1.00  0.00     0.163 HD
ATOM     31  O   UNL A   1      36.008  30.076  31.609  1.00  0.00    -0.269 OA
BRANCH  29  32
ATOM     32  C   UNL A   1      37.692  29.887  29.981  1.00  0.00     0.039 A 
ATOM     33  C   UNL A   1      38.645  29.514  30.933  1.00  0.00     0.014 A 
ATOM     34  C   UNL A   1      38.039  29.924  28.627  1.00  0.00     0.014 A 
ATOM     35  C   UNL A   1      39.931  29.153  30.527  1.00  0.00     0.010 A 
ATOM     36  C   UNL A   1      39.304  29.505  28.217  1.00  0.00     0.010 A 
ATOM     37  C   UNL A   1      40.267  29.130  29.165  1.00  0.00    -0.014 A 
BRANCH  37  38
ATOM     38  C   UNL A   1      41.633  28.748  28.724  1.00  0.00     0.031 A 
ATOM     39  C   UNL A   1      42.730  29.780  28.687  1.00  0.00     0.074 A 
ATOM     40  C   UNL A   1      41.880  27.480  28.340  1.00  0.00     0.049 A 
ATOM     41  N   UNL A   1      43.970  29.652  28.292  1.00  0.00    -0.248 NA
ATOM     42  C   UNL A   1      42.382  31.139  29.137  1.00  0.00     0.031 C 
ATOM     43  C   UNL A   1      40.891  26.400  28.305  1.00  0.00     0.029 A 
ATOM     44  N   UNL A   1      43.036  26.885  27.903  1.00  0.00    -0.354 N 
ATOM     45  C   UNL A   1      44.549  30.907  28.445  1.00  0.00     0.074 A 
ATOM     46  C   UNL A   1      43.510  31.797  28.915  1.00  0.00     0.031 C 
ATOM     47  C   UNL A   1      41.489  25.269  27.891  1.00  0.00     0.029 A 
ATOM     48  C   UNL A   1      42.891  25.551  27.602  1.00  0.00     0.049 A 
ATOM     49  H   UNL A   1      43.889  27.368  27.813  1.00  0.00     0.167 HD
ATOM     50  C   UNL A   1      45.836  31.277  28.240  1.00  0.00     0.037 A 
ATOM     51  C   UNL A   1      43.788  24.658  27.141  1.00  0.00     0.037 A 
ATOM     52  C   UNL A   1      46.872  30.383  27.791  1.00  0.00     0.049 A 
ATOM     53  C   UNL A   1      45.207  25.102  26.905  1.00  0.00     0.074 A 
ATOM     54  C   UNL A   1      48.209  30.658  27.564  1.00  0.00     0.029 A 
ATOM     55  N   UNL A   1      46.688  29.038  27.511  1.00  0.00    -0.354 N 
ATOM     56  N   UNL A   1      45.742  26.286  27.084  1.00  0.00    -0.248 NA
ATOM     57  C   UNL A   1      46.148  24.085  26.412  1.00  0.00     0.031 C 
ATOM     58  C   UNL A   1      48.829  29.484  27.125  1.00  0.00     0.029 A 
ATOM     59  C   UNL A   1      47.886  28.470  27.113  1.00  0.00     0.049 A 
ATOM     60  H   UNL A   1      45.832  28.557  27.586  1.00  0.00     0.167 HD
ATOM     61  C   UNL A   1      47.086  26.149  26.755  1.00  0.00     0.074 A 
ATOM     62  C   UNL A   1      47.285  24.765  26.378  1.00  0.00     0.031 C 
ATOM     63  C   UNL A   1      48.067  27.084  26.763  1.00  0.00     0.037 A 
BRANCH  50  64
ATOM     64  C   UNL A   1      46.205  32.706  28.525  1.00  0.00     0.058 A 
ATOM     65  C   UNL A   1      46.123  33.692  27.528  1.00  0.00     0.135 A 
ATOM     66  C   UNL A   1      46.594  33.110  29.812  1.00  0.00     0.135 A 
ATOM     67  F   UNL A   1      45.772  33.358  26.275  1.00  0.00    -0.206 F 
ATOM     68  C   UNL A   1      46.429  35.022  27.790  1.00  0.00     0.059 A 
ATOM     69  C   UNL A   1      46.882  34.441  30.105  1.00  0.00     0.059 A 
ATOM     70  F   UNL A   1      46.691  32.209  30.803  1.00  0.00    -0.206 F 
ATOM     71  C   UNL A   1      46.807  35.387  29.084  1.00  0.00     0.060 A 
BRANCH  71  72
ATOM     72  S   UNL A   1      47.180  37.123  29.413  1.00  0.00     0.124 S 
ATOM     73  O   UNL A   1      48.572  37.044  29.845  1.00  0.00    -0.237 OA
ATOM     74  O   UNL A   1      46.955  37.744  28.112  1.00  0.00    -0.237 OA
ATOM     75  O   UNL A   1      46.221  37.486  30.451  1.00  0.00    -0.744 OA
ENDBRANCH  71  72
ENDBRANCH  50  64
BRANCH  51  76
ATOM     76  C   UNL A   1      43.385  23.250  26.885  1.00  0.00     0.058 A 
ATOM     77  C   UNL A   1      43.151  22.362  27.945  1.00  0.00     0.135 A 
ATOM     78  C   UNL A   1      43.254  22.755  25.577  1.00  0.00     0.135 A 
ATOM     79  F   UNL A   1      43.267  22.788  29.212  1.00  0.00    -0.206 F 
ATOM     80  C   UNL A   1      42.837  21.026  27.722  1.00  0.00     0.059 A 
ATOM     81  C   UNL A   1      42.917  21.430  25.329  1.00  0.00     0.059 A 
ATOM     82  F   UNL A   1      43.447  23.569  24.528  1.00  0.00    -0.206 F 
ATOM     83  C   UNL A   1      42.730  20.567  26.408  1.00  0.00     0.060 A 
BRANCH  83  84
ATOM     84  S   UNL A   1      42.317  18.831  26.124  1.00  0.00     0.124 S 
ATOM     85  O   UNL A   1      42.564  18.254  27.440  1.00  0.00    -0.237 OA
ATOM     86  O   UNL A   1      40.920  18.909  25.711  1.00  0.00    -0.237 OA
ATOM     87  O   UNL A   1      43.251  18.436  25.073  1.00  0.00    -0.744 OA
ENDBRANCH  83  84
ENDBRANCH  51  76
BRANCH  63  88
ATOM     88  C   UNL A   1      49.452  26.632  26.397  1.00  0.00     0.058 A 
ATOM     89  C   UNL A   1      50.283  25.983  27.321  1.00  0.00     0.135 A 
ATOM     90  C   UNL A   1      49.935  26.813  25.091  1.00  0.00     0.135 A 
ATOM     91  F   UNL A   1      49.870  25.793  28.586  1.00  0.00    -0.206 F 
ATOM     92  C   UNL A   1      51.557  25.546  26.971  1.00  0.00     0.059 A 
ATOM     93  C   UNL A   1      51.195  26.363  24.711  1.00  0.00     0.059 A 
ATOM     94  F   UNL A   1      49.174  27.420  24.167  1.00  0.00    -0.206 F 
ATOM     95  C   UNL A   1      52.003  25.741  25.662  1.00  0.00     0.060 A 
BRANCH  95  96
ATOM     96  S   UNL A   1      53.644  25.140  25.208  1.00  0.00     0.124 S 
ATOM     97  O   UNL A   1      54.488  25.830  26.178  1.00  0.00    -0.237 OA
ATOM     98  O   UNL A   1      53.514  23.699  25.394  1.00  0.00    -0.237 OA
ATOM     99  O   UNL A   1      53.793  25.576  23.823  1.00  0.00    -0.744 OA
ENDBRANCH  95  96
ENDBRANCH  63  88
ENDBRANCH  37  38
ENDBRANCH  29  32
ENDBRANCH  27  28
ENDBRANCH  26  27
ENDBRANCH   1  26
TORSDOF 18
ENDMDL
MODEL 2
REMARK VINA RESULT:     -11.5      6.447     12.152
REMARK SMILES CCOc1ccccc1Nc1ccc(C(=O)NCCCNC(=O)c2ccc(-c3c4nc(c(-c5c(F)cc(S(=O)(=O)[O-])cc5F)c5ccc([nH]5)c(-c5c(F)cc(S(=O)(=O)[O-])cc5F)c5nc(c(-c6c(F)cc(S(=O)(=O)[O-])cc6F)c6ccc3[nH]6)C=C5)C=C4)cc2)cc1N
REMARK SMILES IDX 18 1 17 2 15 3 16 4 14 6 11 7 12 8 91 9 13 10 90 11 10 12
REMARK SMILES IDX 9 14 4 15 5 16 6 17 8 18 7 19 3 20 2 21 1 22 92 23 19 26
REMARK SMILES IDX 20 27 21 28 22 29 23 31 24 32 25 33 89 34 26 35 88 36 27 37
REMARK SMILES IDX 28 38 29 39 82 40 30 41 87 42 81 43 83 44 31 45 86 46 80 47
REMARK SMILES IDX 79 48 32 50 66 51 45 52 65 53 46 54 49 55 64 56 84 57 47 58
REMARK SMILES IDX 48 59 63 61 85 62 50 63 33 64 34 65 43 66 35 67 36 68 42 69
REMARK SMILES IDX 44 70 37 71 38 72 39 73 40 74 41 75 67 76 68 77 77 78 69 79
REMARK SMILES IDX 70 80 76 81 78 82 71 83 72 84 73 85 74 86 75 87 51 88 52 89
REMARK SMILES IDX 61 90 53 91 54 92 60 93 62 94 55 95 56 96 57 97 58 98 59 99
REMARK H PARENT 17 5 10 13 92 24 92 25 21 30 83 49 49 60
REMARK Flexibility Score: inf
ROOT
ATOM      1  C   UNL A   1      39.471  22.533  26.597  1.00  0.00     0.118 C 
ENDROOT
BRANCH   1   2
ATOM      2  N   UNL A   1      39.021  21.403  25.804  1.00  0.00    -0.352 N 
ATOM      3  C   UNL A   1      37.795  21.092  25.272  1.00  0.00     0.251 C 
ATOM      4  O   UNL A   1      37.698  20.078  24.581  1.00  0.00    -0.269 OA
ATOM      5  H   UNL A   1      39.722  20.740  25.612  1.00  0.00     0.163 HD
BRANCH   3   6
ATOM      6  C   UNL A   1      36.615  21.977  25.431  1.00  0.00     0.041 A 
ATOM      7  C   UNL A   1      34.516  23.827  25.742  1.00  0.00     0.062 A 
ATOM      8  C   UNL A   1      35.530  24.044  24.797  1.00  0.00     0.029 A 
ATOM      9  C   UNL A   1      34.530  22.637  26.504  1.00  0.00     0.056 A 
ATOM     10  C   UNL A   1      36.576  23.136  24.652  1.00  0.00     0.016 A 
ATOM     11  C   UNL A   1      35.551  21.702  26.291  1.00  0.00     0.041 A 
BRANCH   7  12
ATOM     12  N   UNL A   1      33.548  24.834  25.897  1.00  0.00    -0.351 N 
ATOM     13  H   UNL A   1      33.789  25.525  26.555  1.00  0.00     0.167 HD
BRANCH  12  14
ATOM     14  C   UNL A   1      32.300  25.035  25.287  1.00  0.00     0.081 A 
ATOM     15  C   UNL A   1      31.420  25.990  25.824  1.00  0.00     0.142 A 
ATOM     16  C   UNL A   1      30.170  26.226  25.252  1.00  0.00     0.048 A 
ATOM     17  C   UNL A   1      29.801  25.536  24.097  1.00  0.00     0.004 A 
ATOM     18  C   UNL A   1      31.923  24.370  24.116  1.00  0.00     0.030 A 
ATOM     19  C   UNL A   1      30.677  24.613  23.527  1.00  0.00     0.002 A 
BRANCH  15  20
ATOM     20  O   UNL A   1      31.773  26.659  26.969  1.00  0.00    -0.492 OA
BRANCH  20  21
ATOM     21  C   UNL A   1      32.033  28.049  26.708  1.00  0.00     0.226 C 
ATOM     22  C   UNL A   1      33.467  28.395  27.081  1.00  0.00     0.049 C 
ENDBRANCH  20  21
ENDBRANCH  15  20
ENDBRANCH  12  14
ENDBRANCH   7  12
BRANCH   9  23
ATOM     23  N   UNL A   1      33.466  22.274  27.331  1.00  0.00    -0.397 N 
ATOM     24  H   UNL A   1      33.371  21.342  27.629  1.00  0.00     0.156 HD
ATOM     25  H   UNL A   1      32.812  22.953  27.617  1.00  0.00     0.156 HD
ENDBRANCH   9  23
ENDBRANCH   3   6
ENDBRANCH   1   2
BRANCH   1  26
ATOM     26  C   UNL A   1      40.586  22.118  27.556  1.00  0.00     0.042 C 
BRANCH  26  27
ATOM     27  C   UNL A   1      41.799  23.043  27.503  1.00  0.00     0.118 C 
BRANCH  27  28
ATOM     28  N   UNL A   1      41.811  23.843  26.288  1.00  0.00    -0.352 N 
ATOM     29  C   UNL A   1      41.513  25.168  26.104  1.00  0.00     0.251 C 
ATOM     30  H   UNL A   1      42.073  23.358  25.473  1.00  0.00     0.163 HD
ATOM     31  O   UNL A   1      41.361  25.590  24.961  1.00  0.00    -0.269 OA
BRANCH  29  32
ATOM     32  C   UNL A   1      41.367  26.086  27.257  1.00  0.00     0.039 A 
ATOM     33  C   UNL A   1      40.254  25.936  28.089  1.00  0.00     0.014 A 
ATOM     34  C   UNL A   1      42.270  27.130  27.483  1.00  0.00     0.014 A 
ATOM     35  C   UNL A   1      40.063  26.811  29.161  1.00  0.00     0.010 A 
ATOM     36  C   UNL A   1      42.112  27.964  28.590  1.00  0.00     0.010 A 
ATOM     37  C   UNL A   1      40.998  27.822  29.430  1.00  0.00    -0.014 A 
BRANCH  37  38
ATOM     38  C   UNL A   1      40.802  28.757  30.567  1.00  0.00     0.031 A 
ATOM     39  C   UNL A   1      41.670  28.646  31.793  1.00  0.00     0.074 A 
ATOM     40  C   UNL A   1      39.831  29.689  30.505  1.00  0.00     0.049 A 
ATOM     41  N   UNL A   1      41.624  29.337  32.903  1.00  0.00    -0.248 NA
ATOM     42  C   UNL A   1      42.717  27.609  31.776  1.00  0.00     0.031 C 
ATOM     43  C   UNL A   1      38.908  29.875  29.383  1.00  0.00     0.029 A 
ATOM     44  N   UNL A   1      39.457  30.655  31.404  1.00  0.00    -0.354 N 
ATOM     45  C   UNL A   1      42.630  28.823  33.713  1.00  0.00     0.074 A 
ATOM     46  C   UNL A   1      43.234  27.724  32.991  1.00  0.00     0.031 C 
ATOM     47  C   UNL A   1      38.089  30.906  29.652  1.00  0.00     0.029 A 
ATOM     48  C   UNL A   1      38.407  31.433  30.975  1.00  0.00     0.049 A 
ATOM     49  H   UNL A   1      39.899  30.780  32.275  1.00  0.00     0.167 HD
ATOM     50  C   UNL A   1      43.034  29.246  34.935  1.00  0.00     0.037 A 
ATOM     51  C   UNL A   1      37.771  32.453  31.583  1.00  0.00     0.037 A 
ATOM     52  C   UNL A   1      42.443  30.353  35.642  1.00  0.00     0.049 A 
ATOM     53  C   UNL A   1      38.229  32.890  32.949  1.00  0.00     0.074 A 
ATOM     54  C   UNL A   1      42.787  30.868  36.880  1.00  0.00     0.029 A 
ATOM     55  N   UNL A   1      41.392  31.123  35.167  1.00  0.00    -0.354 N 
ATOM     56  N   UNL A   1      39.202  32.410  33.686  1.00  0.00    -0.248 NA
ATOM     57  C   UNL A   1      37.507  34.015  33.563  1.00  0.00     0.031 C 
ATOM     58  C   UNL A   1      41.929  31.935  37.164  1.00  0.00     0.029 A 
ATOM     59  C   UNL A   1      41.075  32.107  36.087  1.00  0.00     0.049 A 
ATOM     60  H   UNL A   1      40.940  30.990  34.303  1.00  0.00     0.167 HD
ATOM     61  C   UNL A   1      39.229  33.192  34.835  1.00  0.00     0.074 A 
ATOM     62  C   UNL A   1      38.182  34.184  34.691  1.00  0.00     0.031 C 
ATOM     63  C   UNL A   1      40.044  33.099  35.914  1.00  0.00     0.037 A 
BRANCH  50  64
ATOM     64  C   UNL A   1      44.187  28.527  35.577  1.00  0.00     0.058 A 
ATOM     65  C   UNL A   1      45.513  28.928  35.351  1.00  0.00     0.135 A 
ATOM     66  C   UNL A   1      43.969  27.461  36.466  1.00  0.00     0.135 A 
ATOM     67  F   UNL A   1      45.779  29.930  34.497  1.00  0.00    -0.206 F 
ATOM     68  C   UNL A   1      46.584  28.290  35.968  1.00  0.00     0.059 A 
ATOM     69  C   UNL A   1      45.023  26.823  37.114  1.00  0.00     0.059 A 
ATOM     70  F   UNL A   1      42.721  27.036  36.718  1.00  0.00    -0.206 F 
ATOM     71  C   UNL A   1      46.328  27.239  36.850  1.00  0.00     0.060 A 
BRANCH  71  72
ATOM     72  S   UNL A   1      47.728  26.436  37.660  1.00  0.00     0.124 S 
ATOM     73  O   UNL A   1      47.140  25.161  38.060  1.00  0.00    -0.237 OA
ATOM     74  O   UNL A   1      48.714  26.370  36.586  1.00  0.00    -0.237 OA
ATOM     75  O   UNL A   1      48.056  27.345  38.752  1.00  0.00    -0.744 OA
ENDBRANCH  71  72
ENDBRANCH  50  64
BRANCH  51  76
ATOM     76  C   UNL A   1      36.642  33.146  30.907  1.00  0.00     0.058 A 
ATOM     77  C   UNL A   1      36.873  34.031  29.843  1.00  0.00     0.135 A 
ATOM     78  C   UNL A   1      35.316  32.963  31.329  1.00  0.00     0.135 A 
ATOM     79  F   UNL A   1      38.125  34.240  29.406  1.00  0.00    -0.206 F 
ATOM     80  C   UNL A   1      35.836  34.736  29.243  1.00  0.00     0.059 A 
ATOM     81  C   UNL A   1      34.260  33.638  30.729  1.00  0.00     0.059 A 
ATOM     82  F   UNL A   1      35.040  32.113  32.330  1.00  0.00    -0.206 F 
ATOM     83  C   UNL A   1      34.532  34.539  29.699  1.00  0.00     0.060 A 
BRANCH  83  84
ATOM     84  S   UNL A   1      33.187  35.455  28.914  1.00  0.00     0.124 S 
ATOM     85  O   UNL A   1      33.925  36.427  28.115  1.00  0.00    -0.237 OA
ATOM     86  O   UNL A   1      32.494  34.409  28.169  1.00  0.00    -0.237 OA
ATOM     87  O   UNL A   1      32.448  35.999  30.049  1.00  0.00    -0.744 OA
ENDBRANCH  83  84
ENDBRANCH  51  76
BRANCH  63  88
ATOM     88  C   UNL A   1      39.869  34.121  37.000  1.00  0.00     0.058 A 
ATOM     89  C   UNL A   1      40.430  35.403  36.903  1.00  0.00     0.135 A 
ATOM     90  C   UNL A   1      39.092  33.827  38.133  1.00  0.00     0.135 A 
ATOM     91  F   UNL A   1      41.187  35.731  35.843  1.00  0.00    -0.206 F 
ATOM     92  C   UNL A   1      40.246  36.353  37.902  1.00  0.00     0.059 A 
ATOM     93  C   UNL A   1      38.874  34.769  39.132  1.00  0.00     0.059 A 
ATOM     94  F   UNL A   1      38.527  32.617  38.268  1.00  0.00    -0.206 F 
ATOM     95  C   UNL A   1      39.465  36.026  39.013  1.00  0.00     0.060 A 
BRANCH  95  96
ATOM     96  S   UNL A   1      39.205  37.278  40.288  1.00  0.00     0.124 S 
ATOM     97  O   UNL A   1      38.349  38.233  39.592  1.00  0.00    -0.237 OA
ATOM     98  O   UNL A   1      38.566  36.513  41.353  1.00  0.00    -0.237 OA
ATOM     99  O   UNL A   1      40.556  37.745  40.585  1.00  0.00    -0.744 OA
ENDBRANCH  95  96
ENDBRANCH  63  88
ENDBRANCH  37  38
ENDBRANCH  29  32
ENDBRANCH  27  28
ENDBRANCH  26  27
ENDBRANCH   1  26
TORSDOF 18
ENDMDL
MODEL 3
REMARK VINA RESULT:     -11.5      2.328      8.964
REMARK SMILES CCOc1ccccc1Nc1ccc(C(=O)NCCCNC(=O)c2ccc(-c3c4nc(c(-c5c(F)cc(S(=O)(=O)[O-])cc5F)c5ccc([nH]5)c(-c5c(F)cc(S(=O)(=O)[O-])cc5F)c5nc(c(-c6c(F)cc(S(=O)(=O)[O-])cc6F)c6ccc3[nH]6)C=C5)C=C4)cc2)cc1N
REMARK SMILES IDX 18 1 17 2 15 3 16 4 14 6 11 7 12 8 91 9 13 10 90 11 10 12
REMARK SMILES IDX 9 14 4 15 5 16 6 17 8 18 7 19 3 20 2 21 1 22 92 23 19 26
REMARK SMILES IDX 20 27 21 28 22 29 23 31 24 32 25 33 89 34 26 35 88 36 27 37
REMARK SMILES IDX 28 38 29 39 82 40 30 41 87 42 81 43 83 44 31 45 86 46 80 47
REMARK SMILES IDX 79 48 32 50 66 51 45 52 65 53 46 54 49 55 64 56 84 57 47 58
REMARK SMILES IDX 48 59 63 61 85 62 50 63 33 64 34 65 43 66 35 67 36 68 42 69
REMARK SMILES IDX 44 70 37 71 38 72 39 73 40 74 41 75 67 76 68 77 77 78 69 79
REMARK SMILES IDX 70 80 76 81 78 82 71 83 72 84 73 85 74 86 75 87 51 88 52 89
REMARK SMILES IDX 61 90 53 91 54 92 60 93 62 94 55 95 56 96 57 97 58 98 59 99
REMARK H PARENT 17 5 10 13 92 24 92 25 21 30 83 49 49 60
REMARK Flexibility Score: inf
ROOT
ATOM      1  C   UNL A   1      36.750  20.419  25.010  1.00  0.00     0.118 C 
ENDROOT
BRANCH   1   2
ATOM      2  N   UNL A   1      35.699  19.418  24.946  1.00  0.00    -0.352 N 
ATOM      3  C   UNL A   1      34.335  19.531  24.855  1.00  0.00     0.251 C 
ATOM      4  O   UNL A   1      33.668  18.502  24.762  1.00  0.00    -0.269 OA
ATOM      5  H   UNL A   1      36.024  18.490  24.973  1.00  0.00     0.163 HD
BRANCH   3   6
ATOM      6  C   UNL A   1      33.653  20.847  24.780  1.00  0.00     0.041 A 
ATOM      7  C   UNL A   1      32.489  23.391  24.467  1.00  0.00     0.062 A 
ATOM      8  C   UNL A   1      32.662  22.540  23.366  1.00  0.00     0.029 A 
ATOM      9  C   UNL A   1      32.860  22.935  25.753  1.00  0.00     0.056 A 
ATOM     10  C   UNL A   1      33.249  21.286  23.517  1.00  0.00     0.016 A 
ATOM     11  C   UNL A   1      33.381  21.643  25.894  1.00  0.00     0.041 A 
BRANCH   7  12
ATOM     12  N   UNL A   1      31.978  24.677  24.220  1.00  0.00    -0.351 N 
ATOM     13  H   UNL A   1      31.001  24.746  24.318  1.00  0.00     0.167 HD
BRANCH  12  14
ATOM     14  C   UNL A   1      32.605  25.879  23.856  1.00  0.00     0.081 A 
ATOM     15  C   UNL A   1      32.939  26.808  24.856  1.00  0.00     0.142 A 
ATOM     16  C   UNL A   1      33.565  28.015  24.545  1.00  0.00     0.048 A 
ATOM     17  C   UNL A   1      33.908  28.289  23.221  1.00  0.00     0.004 A 
ATOM     18  C   UNL A   1      32.978  26.161  22.538  1.00  0.00     0.030 A 
ATOM     19  C   UNL A   1      33.619  27.362  22.220  1.00  0.00     0.002 A 
BRANCH  15  20
ATOM     20  O   UNL A   1      32.589  26.548  26.158  1.00  0.00    -0.492 OA
BRANCH  20  21
ATOM     21  C   UNL A   1      31.366  27.212  26.517  1.00  0.00     0.226 C 
ATOM     22  C   UNL A   1      31.625  28.245  27.603  1.00  0.00     0.049 C 
ENDBRANCH  20  21
ENDBRANCH  15  20
ENDBRANCH  12  14
ENDBRANCH   7  12
BRANCH   9  23
ATOM     23  N   UNL A   1      32.557  23.654  26.910  1.00  0.00    -0.397 N 
ATOM     24  H   UNL A   1      31.620  23.774  27.184  1.00  0.00     0.156 HD
ATOM     25  H   UNL A   1      33.282  24.041  27.452  1.00  0.00     0.156 HD
ENDBRANCH   9  23
ENDBRANCH   3   6
ENDBRANCH   1   2
BRANCH   1  26
ATOM     26  C   UNL A   1      38.124  19.783  24.806  1.00  0.00     0.042 C 
BRANCH  26  27
ATOM     27  C   UNL A   1      39.172  20.289  25.793  1.00  0.00     0.118 C 
BRANCH  27  28
ATOM     28  N   UNL A   1      40.244  19.324  25.981  1.00  0.00    -0.352 N 
ATOM     29  C   UNL A   1      41.592  19.525  26.129  1.00  0.00     0.251 C 
ATOM     30  H   UNL A   1      39.958  18.383  26.004  1.00  0.00     0.163 HD
ATOM     31  O   UNL A   1      42.349  18.561  26.041  1.00  0.00    -0.269 OA
BRANCH  29  32
ATOM     32  C   UNL A   1      42.140  20.876  26.385  1.00  0.00     0.039 A 
ATOM     33  C   UNL A   1      42.359  21.265  27.709  1.00  0.00     0.014 A 
ATOM     34  C   UNL A   1      42.371  21.784  25.346  1.00  0.00     0.014 A 
ATOM     35  C   UNL A   1      42.835  22.547  27.990  1.00  0.00     0.010 A 
ATOM     36  C   UNL A   1      42.904  23.042  25.623  1.00  0.00     0.010 A 
ATOM     37  C   UNL A   1      43.126  23.442  26.949  1.00  0.00    -0.014 A 
BRANCH  37  38
ATOM     38  C   UNL A   1      43.632  24.808  27.239  1.00  0.00     0.031 A 
ATOM     39  C   UNL A   1      45.093  25.126  27.053  1.00  0.00     0.074 A 
ATOM     40  C   UNL A   1      42.783  25.752  27.687  1.00  0.00     0.049 A 
ATOM     41  N   UNL A   1      45.732  26.241  27.294  1.00  0.00    -0.248 NA
ATOM     42  C   UNL A   1      45.952  24.042  26.546  1.00  0.00     0.031 C 
ATOM     43  C   UNL A   1      41.353  25.555  27.934  1.00  0.00     0.029 A 
ATOM     44  N   UNL A   1      42.998  27.066  28.017  1.00  0.00    -0.354 N 
ATOM     45  C   UNL A   1      47.061  25.996  26.969  1.00  0.00     0.074 A 
ATOM     46  C   UNL A   1      47.149  24.609  26.568  1.00  0.00     0.031 C 
ATOM     47  C   UNL A   1      40.815  26.712  28.355  1.00  0.00     0.029 A 
ATOM     48  C   UNL A   1      41.865  27.722  28.438  1.00  0.00     0.049 A 
ATOM     49  H   UNL A   1      43.880  27.499  27.958  1.00  0.00     0.167 HD
ATOM     50  C   UNL A   1      48.108  26.856  26.977  1.00  0.00     0.037 A 
ATOM     51  C   UNL A   1      41.694  28.994  28.849  1.00  0.00     0.037 A 
ATOM     52  C   UNL A   1      48.013  28.241  27.359  1.00  0.00     0.049 A 
ATOM     53  C   UNL A   1      42.879  29.922  28.865  1.00  0.00     0.074 A 
ATOM     54  C   UNL A   1      49.013  29.198  27.389  1.00  0.00     0.029 A 
ATOM     55  N   UNL A   1      46.846  28.870  27.765  1.00  0.00    -0.354 N 
ATOM     56  N   UNL A   1      44.123  29.679  28.526  1.00  0.00    -0.248 NA
ATOM     57  C   UNL A   1      42.636  31.302  29.312  1.00  0.00     0.031 C 
ATOM     58  C   UNL A   1      48.455  30.400  27.836  1.00  0.00     0.029 A 
ATOM     59  C   UNL A   1      47.100  30.201  28.049  1.00  0.00     0.049 A 
ATOM     60  H   UNL A   1      45.966  28.435  27.839  1.00  0.00     0.167 HD
ATOM     61  C   UNL A   1      44.803  30.881  28.689  1.00  0.00     0.074 A 
ATOM     62  C   UNL A   1      43.830  31.853  29.146  1.00  0.00     0.031 C 
ATOM     63  C   UNL A   1      46.113  31.157  28.481  1.00  0.00     0.037 A 
BRANCH  50  64
ATOM     64  C   UNL A   1      49.446  26.331  26.535  1.00  0.00     0.058 A 
ATOM     65  C   UNL A   1      49.887  26.484  25.212  1.00  0.00     0.135 A 
ATOM     66  C   UNL A   1      50.318  25.716  27.448  1.00  0.00     0.135 A 
ATOM     67  F   UNL A   1      49.086  27.049  24.293  1.00  0.00    -0.206 F 
ATOM     68  C   UNL A   1      51.137  26.032  24.802  1.00  0.00     0.059 A 
ATOM     69  C   UNL A   1      51.584  25.278  27.067  1.00  0.00     0.059 A 
ATOM     70  F   UNL A   1      49.947  25.543  28.727  1.00  0.00    -0.206 F 
ATOM     71  C   UNL A   1      51.980  25.432  25.740  1.00  0.00     0.060 A 
BRANCH  71  72
ATOM     72  S   UNL A   1      53.608  24.871  25.197  1.00  0.00     0.124 S 
ATOM     73  O   UNL A   1      54.447  25.288  26.316  1.00  0.00    -0.237 OA
ATOM     74  O   UNL A   1      53.412  23.432  25.055  1.00  0.00    -0.237 OA
ATOM     75  O   UNL A   1      53.819  25.598  23.950  1.00  0.00    -0.744 OA
ENDBRANCH  71  72
ENDBRANCH  50  64
BRANCH  51  76
ATOM     76  C   UNL A   1      40.351  29.477  29.266  1.00  0.00     0.058 A 
ATOM     77  C   UNL A   1      39.367  29.782  28.314  1.00  0.00     0.135 A 
ATOM     78  C   UNL A   1      40.034  29.672  30.620  1.00  0.00     0.135 A 
ATOM     79  F   UNL A   1      39.625  29.614  27.008  1.00  0.00    -0.206 F 
ATOM     80  C   UNL A   1      38.129  30.296  28.684  1.00  0.00     0.059 A 
ATOM     81  C   UNL A   1      38.794  30.161  31.016  1.00  0.00     0.059 A 
ATOM     82  F   UNL A   1      40.933  29.376  31.571  1.00  0.00    -0.206 F 
ATOM     83  C   UNL A   1      37.855  30.490  30.039  1.00  0.00     0.060 A 
BRANCH  83  84
ATOM     84  S   UNL A   1      36.243  31.153  30.514  1.00  0.00     0.124 S 
ATOM     85  O   UNL A   1      35.889  30.285  31.632  1.00  0.00    -0.237 OA
ATOM     86  O   UNL A   1      36.565  32.535  30.854  1.00  0.00    -0.237 OA
ATOM     87  O   UNL A   1      35.445  30.984  29.303  1.00  0.00    -0.744 OA
ENDBRANCH  83  84
ENDBRANCH  51  76
BRANCH  63  88
ATOM     88  C   UNL A   1      46.562  32.573  28.701  1.00  0.00     0.058 A 
ATOM     89  C   UNL A   1      47.045  33.009  29.943  1.00  0.00     0.135 A 
ATOM     90  C   UNL A   1      46.551  33.493  27.640  1.00  0.00     0.135 A 
ATOM     91  F   UNL A   1      47.069  32.169  30.991  1.00  0.00    -0.206 F 
ATOM     92  C   UNL A   1      47.481  34.316  30.135  1.00  0.00     0.059 A 
ATOM     93  C   UNL A   1      47.005  34.798  27.801  1.00  0.00     0.059 A 
ATOM     94  F   UNL A   1      46.106  33.123  26.428  1.00  0.00    -0.206 F 
ATOM     95  C   UNL A   1      47.457  35.203  29.057  1.00  0.00     0.060 A 
BRANCH  95  96
ATOM     96  S   UNL A   1      48.057  36.887  29.307  1.00  0.00     0.124 S 
ATOM     97  O   UNL A   1      46.968  37.674  28.738  1.00  0.00    -0.237 OA
ATOM     98  O   UNL A   1      48.198  36.958  30.758  1.00  0.00    -0.237 OA
ATOM     99  O   UNL A   1      49.310  36.916  28.561  1.00  0.00    -0.744 OA
ENDBRANCH  95  96
ENDBRANCH  63  88
ENDBRANCH  37  38
ENDBRANCH  29  32
ENDBRANCH  27  28
ENDBRANCH  26  27
ENDBRANCH   1  26
TORSDOF 18
ENDMDL
