MODEL 1
REMARK VINA RESULT:     -11.5      0.000      0.000
REMARK SMILES CCCc1cc(OCC(=O)NCCCNC(=O)c2ccc(-c3c4nc(c(-c5c(F)cc(S(=O)(=O)[O-])cc5F)c5ccc([nH]5)c(-c5c(F)cc(S(=O)(=O)[O-])cc5F)c5nc(c(-c6c(F)cc(S(=O)(=O)[O-])cc6F)c6ccc3[nH]6)C=C5)C=C4)cc2)nc(Nc2ccc(C#N)cc2)n1
REMARK SMILES IDX 12 1 11 2 9 3 10 4 8 6 7 7 6 8 4 9 5 10 95 11 85 12 84 13
REMARK SMILES IDX 3 14 2 15 1 16 86 17 87 19 88 20 94 21 89 22 93 23 90 24
REMARK SMILES IDX 91 25 92 26 13 27 14 28 15 29 16 30 17 32 18 33 19 34 83 35
REMARK SMILES IDX 20 36 82 37 21 38 22 39 23 40 76 41 24 42 81 43 75 44 77 45
REMARK SMILES IDX 25 46 80 47 74 48 73 49 26 51 60 52 39 53 59 54 40 55 43 56
REMARK SMILES IDX 58 57 78 58 41 59 42 60 57 62 79 63 44 64 27 65 28 66 37 67
REMARK SMILES IDX 29 68 30 69 36 70 38 71 31 72 32 73 33 74 34 75 35 76 61 77
REMARK SMILES IDX 62 78 71 79 63 80 64 81 70 82 72 83 65 84 66 85 67 86 68 87
REMARK SMILES IDX 69 88 45 89 46 90 55 91 47 92 48 93 54 94 56 95 49 96 50 97
REMARK SMILES IDX 51 98 52 99 53 100
REMARK H PARENT 11 5 86 18 15 31 77 50 43 61
REMARK Flexibility Score: inf
ROOT
ATOM      1  C   UNL A   1      39.150  22.516  26.689  1.00  0.00     0.117 C 
ENDROOT
BRANCH   1   2
ATOM      2  N   UNL A   1      38.632  22.399  25.339  1.00  0.00    -0.353 N 
ATOM      3  C   UNL A   1      37.383  22.026  24.946  1.00  0.00     0.258 C 
ATOM      4  O   UNL A   1      37.109  22.032  23.743  1.00  0.00    -0.271 OA
ATOM      5  H   UNL A   1      39.264  22.620  24.615  1.00  0.00     0.163 HD
BRANCH   3   6
ATOM      6  C   UNL A   1      36.339  21.626  25.998  1.00  0.00     0.331 C 
BRANCH   6   7
ATOM      7  O   UNL A   1      35.051  22.206  25.888  1.00  0.00    -0.467 OA
BRANCH   7   8
ATOM      8  C   UNL A   1      34.161  21.638  25.017  1.00  0.00     0.218 A 
ATOM      9  C   UNL A   1      32.815  19.938  24.140  1.00  0.00     0.050 A 
ATOM     10  C   UNL A   1      33.809  20.307  25.012  1.00  0.00     0.092 A 
ATOM     11  N   UNL A   1      32.273  20.822  23.296  1.00  0.00    -0.218 NA
ATOM     12  C   UNL A   1      32.705  22.092  23.306  1.00  0.00     0.230 A 
ATOM     13  N   UNL A   1      33.645  22.532  24.150  1.00  0.00    -0.177 NA
BRANCH   9  14
ATOM     14  C   UNL A   1      32.357  18.502  24.058  1.00  0.00     0.056 C 
BRANCH  14  15
ATOM     15  C   UNL A   1      32.891  17.713  22.856  1.00  0.00     0.003 C 
ATOM     16  C   UNL A   1      34.116  16.864  23.168  1.00  0.00     0.004 C 
ENDBRANCH  14  15
ENDBRANCH   9  14
BRANCH  12  17
ATOM     17  N   UNL A   1      32.206  22.970  22.343  1.00  0.00    -0.324 N 
ATOM     18  H   UNL A   1      32.184  22.647  21.414  1.00  0.00     0.170 HD
BRANCH  17  19
ATOM     19  C   UNL A   1      31.734  24.268  22.575  1.00  0.00     0.041 A 
ATOM     20  C   UNL A   1      30.763  24.509  23.552  1.00  0.00     0.027 A 
ATOM     21  C   UNL A   1      32.338  25.368  21.948  1.00  0.00     0.027 A 
ATOM     22  C   UNL A   1      30.450  25.820  23.937  1.00  0.00     0.021 A 
ATOM     23  C   UNL A   1      32.016  26.678  22.312  1.00  0.00     0.021 A 
ATOM     24  C   UNL A   1      31.091  26.907  23.330  1.00  0.00     0.052 A 
BRANCH  24  25
ATOM     25  C   UNL A   1      30.845  28.242  23.789  1.00  0.00     0.099 C 
ATOM     26  N   UNL A   1      30.607  29.324  24.141  1.00  0.00    -0.192 NA
ENDBRANCH  24  25
ENDBRANCH  17  19
ENDBRANCH  12  17
ENDBRANCH   7   8
ENDBRANCH   6   7
ENDBRANCH   3   6
ENDBRANCH   1   2
BRANCH   1  27
ATOM     27  C   UNL A   1      40.564  21.965  26.824  1.00  0.00     0.042 C 
BRANCH  27  28
ATOM     28  C   UNL A   1      41.624  23.019  27.129  1.00  0.00     0.118 C 
BRANCH  28  29
ATOM     29  N   UNL A   1      41.858  23.932  26.016  1.00  0.00    -0.352 N 
ATOM     30  C   UNL A   1      41.812  25.304  25.965  1.00  0.00     0.251 C 
ATOM     31  H   UNL A   1      42.085  23.494  25.164  1.00  0.00     0.163 HD
ATOM     32  O   UNL A   1      41.866  25.866  24.874  1.00  0.00    -0.269 OA
BRANCH  30  33
ATOM     33  C   UNL A   1      41.678  26.100  27.205  1.00  0.00     0.039 A 
ATOM     34  C   UNL A   1      42.665  27.040  27.513  1.00  0.00     0.014 A 
ATOM     35  C   UNL A   1      40.596  25.918  28.070  1.00  0.00     0.014 A 
ATOM     36  C   UNL A   1      42.527  27.845  28.645  1.00  0.00     0.010 A 
ATOM     37  C   UNL A   1      40.414  26.780  29.148  1.00  0.00     0.010 A 
ATOM     38  C   UNL A   1      41.376  27.757  29.448  1.00  0.00    -0.014 A 
BRANCH  38  39
ATOM     39  C   UNL A   1      41.156  28.690  30.584  1.00  0.00     0.031 A 
ATOM     40  C   UNL A   1      41.977  28.571  31.841  1.00  0.00     0.074 A 
ATOM     41  C   UNL A   1      40.173  29.609  30.506  1.00  0.00     0.049 A 
ATOM     42  N   UNL A   1      41.889  29.256  32.952  1.00  0.00    -0.248 NA
ATOM     43  C   UNL A   1      43.020  27.532  31.862  1.00  0.00     0.031 C 
ATOM     44  C   UNL A   1      39.280  29.796  29.361  1.00  0.00     0.029 A 
ATOM     45  N   UNL A   1      39.750  30.556  31.408  1.00  0.00    -0.354 N 
ATOM     46  C   UNL A   1      42.854  28.729  33.803  1.00  0.00     0.074 A 
ATOM     47  C   UNL A   1      43.478  27.630  33.102  1.00  0.00     0.031 C 
ATOM     48  C   UNL A   1      38.437  30.808  29.616  1.00  0.00     0.029 A 
ATOM     49  C   UNL A   1      38.690  31.311  30.962  1.00  0.00     0.049 A 
ATOM     50  H   UNL A   1      40.169  30.683  32.290  1.00  0.00     0.167 HD
ATOM     51  C   UNL A   1      43.200  29.139  35.048  1.00  0.00     0.037 A 
ATOM     52  C   UNL A   1      37.986  32.285  31.573  1.00  0.00     0.037 A 
ATOM     53  C   UNL A   1      42.576  30.241  35.735  1.00  0.00     0.049 A 
ATOM     54  C   UNL A   1      38.370  32.699  32.969  1.00  0.00     0.074 A 
ATOM     55  C   UNL A   1      42.891  30.765  36.978  1.00  0.00     0.029 A 
ATOM     56  N   UNL A   1      41.507  30.980  35.250  1.00  0.00    -0.354 N 
ATOM     57  N   UNL A   1      39.332  32.233  33.732  1.00  0.00    -0.248 NA
ATOM     58  C   UNL A   1      37.581  33.773  33.586  1.00  0.00     0.031 C 
ATOM     59  C   UNL A   1      41.968  31.772  37.274  1.00  0.00     0.029 A 
ATOM     60  C   UNL A   1      41.130  31.933  36.183  1.00  0.00     0.049 A 
ATOM     61  H   UNL A   1      41.080  30.848  34.373  1.00  0.00     0.167 HD
ATOM     62  C   UNL A   1      39.284  32.983  34.903  1.00  0.00     0.074 A 
ATOM     63  C   UNL A   1      38.209  33.939  34.741  1.00  0.00     0.031 C 
ATOM     64  C   UNL A   1      40.062  32.890  36.009  1.00  0.00     0.037 A 
BRANCH  51  65
ATOM     65  C   UNL A   1      44.301  28.393  35.755  1.00  0.00     0.058 A 
ATOM     66  C   UNL A   1      45.654  28.731  35.585  1.00  0.00     0.135 A 
ATOM     67  C   UNL A   1      43.996  27.365  36.663  1.00  0.00     0.135 A 
ATOM     68  F   UNL A   1      46.009  29.694  34.720  1.00  0.00    -0.206 F 
ATOM     69  C   UNL A   1      46.664  28.061  36.271  1.00  0.00     0.059 A 
ATOM     70  C   UNL A   1      44.987  26.706  37.385  1.00  0.00     0.059 A 
ATOM     71  F   UNL A   1      42.721  26.998  36.865  1.00  0.00    -0.206 F 
ATOM     72  C   UNL A   1      46.319  27.054  37.173  1.00  0.00     0.060 A 
BRANCH  72  73
ATOM     73  S   UNL A   1      47.642  26.213  38.068  1.00  0.00     0.124 S 
ATOM     74  O   UNL A   1      48.669  27.249  38.112  1.00  0.00    -0.237 OA
ATOM     75  O   UNL A   1      47.003  25.901  39.342  1.00  0.00    -0.237 OA
ATOM     76  O   UNL A   1      47.948  25.063  37.224  1.00  0.00    -0.744 OA
ENDBRANCH  72  73
ENDBRANCH  51  65
BRANCH  52  77
ATOM     77  C   UNL A   1      36.848  32.940  30.869  1.00  0.00     0.058 A 
ATOM     78  C   UNL A   1      37.067  33.859  29.832  1.00  0.00     0.135 A 
ATOM     79  C   UNL A   1      35.518  32.663  31.224  1.00  0.00     0.135 A 
ATOM     80  F   UNL A   1      38.320  34.164  29.459  1.00  0.00    -0.206 F 
ATOM     81  C   UNL A   1      36.012  34.499  29.189  1.00  0.00     0.059 A 
ATOM     82  C   UNL A   1      34.445  33.265  30.572  1.00  0.00     0.059 A 
ATOM     83  F   UNL A   1      35.249  31.780  32.198  1.00  0.00    -0.206 F 
ATOM     84  C   UNL A   1      34.703  34.192  29.564  1.00  0.00     0.060 A 
BRANCH  84  85
ATOM     85  S   UNL A   1      33.342  35.001  28.698  1.00  0.00     0.124 S 
ATOM     86  O   UNL A   1      32.529  35.481  29.808  1.00  0.00    -0.237 OA
ATOM     87  O   UNL A   1      34.039  36.024  27.925  1.00  0.00    -0.237 OA
ATOM     88  O   UNL A   1      32.757  33.921  27.908  1.00  0.00    -0.744 OA
ENDBRANCH  84  85
ENDBRANCH  52  77
BRANCH  64  89
ATOM     89  C   UNL A   1      39.823  33.880  37.119  1.00  0.00     0.058 A 
ATOM     90  C   UNL A   1      39.016  33.578  38.228  1.00  0.00     0.135 A 
ATOM     91  C   UNL A   1      40.459  35.133  37.096  1.00  0.00     0.135 A 
ATOM     92  F   UNL A   1      38.379  32.399  38.301  1.00  0.00    -0.206 F 
ATOM     93  C   UNL A   1      38.826  34.494  39.259  1.00  0.00     0.059 A 
ATOM     94  C   UNL A   1      40.314  36.047  38.134  1.00  0.00     0.059 A 
ATOM     95  F   UNL A   1      41.249  35.472  36.066  1.00  0.00    -0.206 F 
ATOM     96  C   UNL A   1      39.485  35.723  39.206  1.00  0.00     0.060 A 
BRANCH  96  97
ATOM     97  S   UNL A   1      39.258  36.884  40.570  1.00  0.00     0.124 S 
ATOM     98  O   UNL A   1      38.708  38.047  39.880  1.00  0.00    -0.237 OA
ATOM     99  O   UNL A   1      38.333  36.164  41.438  1.00  0.00    -0.237 OA
ATOM    100  O   UNL A   1      40.609  37.053  41.101  1.00  0.00    -0.744 OA
ENDBRANCH  96  97
ENDBRANCH  64  89
ENDBRANCH  38  39
ENDBRANCH  30  33
ENDBRANCH  28  29
ENDBRANCH  27  28
ENDBRANCH   1  27
TORSDOF 20
ENDMDL
MODEL 2
REMARK VINA RESULT:     -11.2      3.229      8.906
REMARK SMILES CCCc1cc(OCC(=O)NCCCNC(=O)c2ccc(-c3c4nc(c(-c5c(F)cc(S(=O)(=O)[O-])cc5F)c5ccc([nH]5)c(-c5c(F)cc(S(=O)(=O)[O-])cc5F)c5nc(c(-c6c(F)cc(S(=O)(=O)[O-])cc6F)c6ccc3[nH]6)C=C5)C=C4)cc2)nc(Nc2ccc(C#N)cc2)n1
REMARK SMILES IDX 12 1 11 2 9 3 10 4 8 6 7 7 6 8 4 9 5 10 95 11 85 12 84 13
REMARK SMILES IDX 3 14 2 15 1 16 86 17 87 19 88 20 94 21 89 22 93 23 90 24
REMARK SMILES IDX 91 25 92 26 13 27 14 28 15 29 16 30 17 32 18 33 19 34 83 35
REMARK SMILES IDX 20 36 82 37 21 38 22 39 23 40 76 41 24 42 81 43 75 44 77 45
REMARK SMILES IDX 25 46 80 47 74 48 73 49 26 51 60 52 39 53 59 54 40 55 43 56
REMARK SMILES IDX 58 57 78 58 41 59 42 60 57 62 79 63 44 64 27 65 28 66 37 67
REMARK SMILES IDX 29 68 30 69 36 70 38 71 31 72 32 73 33 74 34 75 35 76 61 77
REMARK SMILES IDX 62 78 71 79 63 80 64 81 70 82 72 83 65 84 66 85 67 86 68 87
REMARK SMILES IDX 69 88 45 89 46 90 55 91 47 92 48 93 54 94 56 95 49 96 50 97
REMARK SMILES IDX 51 98 52 99 53 100
REMARK H PARENT 11 5 86 18 15 31 77 50 43 61
REMARK Flexibility Score: inf
ROOT
ATOM      1  C   UNL A   1      33.668  26.042  25.613  1.00  0.00     0.117 C 
ENDROOT
BRANCH   1   2
ATOM      2  N   UNL A   1      34.003  25.464  24.326  1.00  0.00    -0.353 N 
ATOM      3  C   UNL A   1      34.872  24.451  24.059  1.00  0.00     0.258 C 
ATOM      4  O   UNL A   1      34.992  24.058  22.896  1.00  0.00    -0.271 OA
ATOM      5  H   UNL A   1      33.542  25.853  23.546  1.00  0.00     0.163 HD
BRANCH   3   6
ATOM      6  C   UNL A   1      35.668  23.806  25.203  1.00  0.00     0.331 C 
BRANCH   6   7
ATOM      7  O   UNL A   1      35.747  22.391  25.222  1.00  0.00    -0.467 OA
BRANCH   7   8
ATOM      8  C   UNL A   1      34.581  21.679  25.144  1.00  0.00     0.218 A 
ATOM      9  C   UNL A   1      33.246  19.799  24.751  1.00  0.00     0.050 A 
ATOM     10  C   UNL A   1      34.476  20.400  24.646  1.00  0.00     0.092 A 
ATOM     11  N   UNL A   1      32.196  20.459  25.252  1.00  0.00    -0.218 NA
ATOM     12  C   UNL A   1      32.349  21.726  25.662  1.00  0.00     0.230 A 
ATOM     13  N   UNL A   1      33.524  22.365  25.622  1.00  0.00    -0.177 NA
BRANCH   9  14
ATOM     14  C   UNL A   1      33.026  18.399  24.234  1.00  0.00     0.056 C 
BRANCH  14  15
ATOM     15  C   UNL A   1      34.273  17.506  24.213  1.00  0.00     0.003 C 
ATOM     16  C   UNL A   1      34.196  16.359  23.214  1.00  0.00     0.004 C 
ENDBRANCH  14  15
ENDBRANCH   9  14
BRANCH  12  17
ATOM     17  N   UNL A   1      31.218  22.430  26.077  1.00  0.00    -0.324 N 
ATOM     18  H   UNL A   1      30.727  22.071  26.850  1.00  0.00     0.170 HD
BRANCH  17  19
ATOM     19  C   UNL A   1      30.715  23.601  25.495  1.00  0.00     0.041 A 
ATOM     20  C   UNL A   1      30.307  24.674  26.294  1.00  0.00     0.027 A 
ATOM     21  C   UNL A   1      30.761  23.783  24.105  1.00  0.00     0.027 A 
ATOM     22  C   UNL A   1      30.012  25.918  25.718  1.00  0.00     0.021 A 
ATOM     23  C   UNL A   1      30.448  25.014  23.523  1.00  0.00     0.021 A 
ATOM     24  C   UNL A   1      30.101  26.095  24.333  1.00  0.00     0.052 A 
BRANCH  24  25
ATOM     25  C   UNL A   1      29.896  27.390  23.753  1.00  0.00     0.099 C 
ATOM     26  N   UNL A   1      29.754  28.456  23.314  1.00  0.00    -0.192 NA
ENDBRANCH  24  25
ENDBRANCH  17  19
ENDBRANCH  12  17
ENDBRANCH   7   8
ENDBRANCH   6   7
ENDBRANCH   3   6
ENDBRANCH   1   2
BRANCH   1  27
ATOM     27  C   UNL A   1      33.615  27.565  25.576  1.00  0.00     0.042 C 
BRANCH  27  28
ATOM     28  C   UNL A   1      33.461  28.223  26.944  1.00  0.00     0.118 C 
BRANCH  28  29
ATOM     29  N   UNL A   1      33.500  29.679  26.884  1.00  0.00    -0.352 N 
ATOM     30  C   UNL A   1      34.399  30.569  27.421  1.00  0.00     0.251 C 
ATOM     31  H   UNL A   1      32.762  30.091  26.378  1.00  0.00     0.163 HD
ATOM     32  O   UNL A   1      34.140  31.769  27.401  1.00  0.00    -0.269 OA
BRANCH  30  33
ATOM     33  C   UNL A   1      35.657  30.091  28.035  1.00  0.00     0.039 A 
ATOM     34  C   UNL A   1      36.832  30.125  27.280  1.00  0.00     0.014 A 
ATOM     35  C   UNL A   1      35.683  29.597  29.342  1.00  0.00     0.014 A 
ATOM     36  C   UNL A   1      38.041  29.737  27.861  1.00  0.00     0.010 A 
ATOM     37  C   UNL A   1      36.900  29.295  29.947  1.00  0.00     0.010 A 
ATOM     38  C   UNL A   1      38.095  29.364  29.215  1.00  0.00    -0.014 A 
BRANCH  38  39
ATOM     39  C   UNL A   1      39.391  29.067  29.881  1.00  0.00     0.031 A 
ATOM     40  C   UNL A   1      39.861  29.898  31.046  1.00  0.00     0.074 A 
ATOM     41  C   UNL A   1      40.176  28.084  29.395  1.00  0.00     0.049 A 
ATOM     42  N   UNL A   1      40.984  29.823  31.713  1.00  0.00    -0.248 NA
ATOM     43  C   UNL A   1      38.961  30.967  31.510  1.00  0.00     0.031 C 
ATOM     44  C   UNL A   1      39.853  27.237  28.244  1.00  0.00     0.029 A 
ATOM     45  N   UNL A   1      41.408  27.631  29.799  1.00  0.00    -0.354 N 
ATOM     46  C   UNL A   1      40.930  30.835  32.665  1.00  0.00     0.074 A 
ATOM     47  C   UNL A   1      39.688  31.546  32.454  1.00  0.00     0.031 C 
ATOM     48  C   UNL A   1      40.845  26.354  28.052  1.00  0.00     0.029 A 
ATOM     49  C   UNL A   1      41.900  26.602  29.029  1.00  0.00     0.049 A 
ATOM     50  H   UNL A   1      41.893  28.009  30.568  1.00  0.00     0.167 HD
ATOM     51  C   UNL A   1      41.824  31.129  33.640  1.00  0.00     0.037 A 
ATOM     52  C   UNL A   1      43.075  25.944  29.089  1.00  0.00     0.037 A 
ATOM     53  C   UNL A   1      43.055  30.409  33.846  1.00  0.00     0.049 A 
ATOM     54  C   UNL A   1      44.067  26.313  30.160  1.00  0.00     0.074 A 
ATOM     55  C   UNL A   1      44.004  30.599  34.837  1.00  0.00     0.029 A 
ATOM     56  N   UNL A   1      43.517  29.373  33.047  1.00  0.00    -0.354 N 
ATOM     57  N   UNL A   1      43.967  27.229  31.096  1.00  0.00    -0.248 NA
ATOM     58  C   UNL A   1      45.326  25.558  30.191  1.00  0.00     0.031 C 
ATOM     59  C   UNL A   1      45.069  29.728  34.595  1.00  0.00     0.029 A 
ATOM     60  C   UNL A   1      44.751  28.938  33.503  1.00  0.00     0.049 A 
ATOM     61  H   UNL A   1      43.039  29.002  32.271  1.00  0.00     0.167 HD
ATOM     62  C   UNL A   1      45.134  27.133  31.847  1.00  0.00     0.074 A 
ATOM     63  C   UNL A   1      45.917  26.064  31.264  1.00  0.00     0.031 C 
ATOM     64  C   UNL A   1      45.520  27.863  32.922  1.00  0.00     0.037 A 
BRANCH  51  65
ATOM     65  C   UNL A   1      41.514  32.282  34.558  1.00  0.00     0.058 A 
ATOM     66  C   UNL A   1      41.958  33.587  34.286  1.00  0.00     0.135 A 
ATOM     67  C   UNL A   1      40.710  32.092  35.694  1.00  0.00     0.135 A 
ATOM     68  F   UNL A   1      42.743  33.828  33.223  1.00  0.00    -0.206 F 
ATOM     69  C   UNL A   1      41.636  34.655  35.119  1.00  0.00     0.059 A 
ATOM     70  C   UNL A   1      40.346  33.150  36.521  1.00  0.00     0.059 A 
ATOM     71  F   UNL A   1      40.257  30.867  36.004  1.00  0.00    -0.206 F 
ATOM     72  C   UNL A   1      40.824  34.427  36.232  1.00  0.00     0.060 A 
BRANCH  72  73
ATOM     73  S   UNL A   1      40.400  35.828  37.286  1.00  0.00     0.124 S 
ATOM     74  O   UNL A   1      39.777  36.737  36.329  1.00  0.00    -0.237 OA
ATOM     75  O   UNL A   1      39.500  35.221  38.261  1.00  0.00    -0.237 OA
ATOM     76  O   UNL A   1      41.690  36.262  37.813  1.00  0.00    -0.744 OA
ENDBRANCH  72  73
ENDBRANCH  51  65
BRANCH  52  77
ATOM     77  C   UNL A   1      43.379  24.866  28.107  1.00  0.00     0.058 A 
ATOM     78  C   UNL A   1      44.089  25.136  26.927  1.00  0.00     0.135 A 
ATOM     79  C   UNL A   1      42.962  23.543  28.327  1.00  0.00     0.135 A 
ATOM     80  F   UNL A   1      44.505  26.385  26.665  1.00  0.00    -0.206 F 
ATOM     81  C   UNL A   1      44.352  24.142  25.989  1.00  0.00     0.059 A 
ATOM     82  C   UNL A   1      43.242  22.526  27.420  1.00  0.00     0.059 A 
ATOM     83  F   UNL A   1      42.293  23.224  29.446  1.00  0.00    -0.206 F 
ATOM     84  C   UNL A   1      43.927  22.838  26.247  1.00  0.00     0.060 A 
BRANCH  84  85
ATOM     85  S   UNL A   1      44.306  21.550  25.041  1.00  0.00     0.124 S 
ATOM     86  O   UNL A   1      45.688  21.229  25.375  1.00  0.00    -0.237 OA
ATOM     87  O   UNL A   1      43.316  20.528  25.367  1.00  0.00    -0.237 OA
ATOM     88  O   UNL A   1      44.106  22.219  23.759  1.00  0.00    -0.744 OA
ENDBRANCH  84  85
ENDBRANCH  52  77
BRANCH  64  89
ATOM     89  C   UNL A   1      46.826  27.501  33.581  1.00  0.00     0.058 A 
ATOM     90  C   UNL A   1      48.038  28.114  33.224  1.00  0.00     0.135 A 
ATOM     91  C   UNL A   1      46.851  26.564  34.628  1.00  0.00     0.135 A 
ATOM     92  F   UNL A   1      48.075  29.011  32.227  1.00  0.00    -0.206 F 
ATOM     93  C   UNL A   1      49.232  27.788  33.862  1.00  0.00     0.059 A 
ATOM     94  C   UNL A   1      48.026  26.253  35.304  1.00  0.00     0.059 A 
ATOM     95  F   UNL A   1      45.721  25.954  35.019  1.00  0.00    -0.206 F 
ATOM     96  C   UNL A   1      49.214  26.861  34.905  1.00  0.00     0.060 A 
BRANCH  96  97
ATOM     97  S   UNL A   1      50.765  26.479  35.747  1.00  0.00     0.124 S 
ATOM     98  O   UNL A   1      51.570  27.655  35.431  1.00  0.00    -0.237 OA
ATOM     99  O   UNL A   1      50.340  26.355  37.137  1.00  0.00    -0.237 OA
ATOM    100  O   UNL A   1      51.197  25.235  35.115  1.00  0.00    -0.744 OA
ENDBRANCH  96  97
ENDBRANCH  64  89
ENDBRANCH  38  39
ENDBRANCH  30  33
ENDBRANCH  28  29
ENDBRANCH  27  28
ENDBRANCH   1  27
TORSDOF 20
ENDMDL
MODEL 3
REMARK VINA RESULT:     -11.2      3.125      8.102
REMARK SMILES CCCc1cc(OCC(=O)NCCCNC(=O)c2ccc(-c3c4nc(c(-c5c(F)cc(S(=O)(=O)[O-])cc5F)c5ccc([nH]5)c(-c5c(F)cc(S(=O)(=O)[O-])cc5F)c5nc(c(-c6c(F)cc(S(=O)(=O)[O-])cc6F)c6ccc3[nH]6)C=C5)C=C4)cc2)nc(Nc2ccc(C#N)cc2)n1
REMARK SMILES IDX 12 1 11 2 9 3 10 4 8 6 7 7 6 8 4 9 5 10 95 11 85 12 84 13
REMARK SMILES IDX 3 14 2 15 1 16 86 17 87 19 88 20 94 21 89 22 93 23 90 24
REMARK SMILES IDX 91 25 92 26 13 27 14 28 15 29 16 30 17 32 18 33 19 34 83 35
REMARK SMILES IDX 20 36 82 37 21 38 22 39 23 40 76 41 24 42 81 43 75 44 77 45
REMARK SMILES IDX 25 46 80 47 74 48 73 49 26 51 60 52 39 53 59 54 40 55 43 56
REMARK SMILES IDX 58 57 78 58 41 59 42 60 57 62 79 63 44 64 27 65 28 66 37 67
REMARK SMILES IDX 29 68 30 69 36 70 38 71 31 72 32 73 33 74 34 75 35 76 61 77
REMARK SMILES IDX 62 78 71 79 63 80 64 81 70 82 72 83 65 84 66 85 67 86 68 87
REMARK SMILES IDX 69 88 45 89 46 90 55 91 47 92 48 93 54 94 56 95 49 96 50 97
REMARK SMILES IDX 51 98 52 99 53 100
REMARK H PARENT 11 5 86 18 15 31 77 50 43 61
REMARK Flexibility Score: inf
ROOT
ATOM      1  C   UNL A   1      33.860  25.898  25.893  1.00  0.00     0.117 C 
ENDROOT
BRANCH   1   2
ATOM      2  N   UNL A   1      33.948  25.500  24.502  1.00  0.00    -0.353 N 
ATOM      3  C   UNL A   1      34.652  24.465  23.965  1.00  0.00     0.258 C 
ATOM      4  O   UNL A   1      34.567  24.249  22.754  1.00  0.00    -0.271 OA
ATOM      5  H   UNL A   1      33.433  26.047  23.864  1.00  0.00     0.163 HD
BRANCH   3   6
ATOM      6  C   UNL A   1      35.517  23.579  24.873  1.00  0.00     0.331 C 
BRANCH   6   7
ATOM      7  O   UNL A   1      35.532  22.188  24.600  1.00  0.00    -0.467 OA
BRANCH   7   8
ATOM      8  C   UNL A   1      34.376  21.481  24.793  1.00  0.00     0.218 A 
ATOM      9  C   UNL A   1      33.028  19.572  24.890  1.00  0.00     0.050 A 
ATOM     10  C   UNL A   1      34.225  20.139  24.526  1.00  0.00     0.092 A 
ATOM     11  N   UNL A   1      32.045  20.311  25.413  1.00  0.00    -0.218 NA
ATOM     12  C   UNL A   1      32.232  21.627  25.588  1.00  0.00     0.230 A 
ATOM     13  N   UNL A   1      33.381  22.243  25.290  1.00  0.00    -0.177 NA
BRANCH   9  14
ATOM     14  C   UNL A   1      32.763  18.108  24.639  1.00  0.00     0.056 C 
BRANCH  14  15
ATOM     15  C   UNL A   1      33.040  17.628  23.209  1.00  0.00     0.003 C 
ATOM     16  C   UNL A   1      34.193  16.639  23.100  1.00  0.00     0.004 C 
ENDBRANCH  14  15
ENDBRANCH   9  14
BRANCH  12  17
ATOM     17  N   UNL A   1      31.156  22.397  26.030  1.00  0.00    -0.324 N 
ATOM     18  H   UNL A   1      30.690  22.089  26.841  1.00  0.00     0.170 HD
BRANCH  17  19
ATOM     19  C   UNL A   1      30.675  23.567  25.429  1.00  0.00     0.041 A 
ATOM     20  C   UNL A   1      30.252  24.647  26.211  1.00  0.00     0.027 A 
ATOM     21  C   UNL A   1      30.760  23.741  24.040  1.00  0.00     0.027 A 
ATOM     22  C   UNL A   1      29.980  25.890  25.621  1.00  0.00     0.021 A 
ATOM     23  C   UNL A   1      30.470  24.971  23.442  1.00  0.00     0.021 A 
ATOM     24  C   UNL A   1      30.107  26.058  24.237  1.00  0.00     0.052 A 
BRANCH  24  25
ATOM     25  C   UNL A   1      29.926  27.350  23.644  1.00  0.00     0.099 C 
ATOM     26  N   UNL A   1      29.736  28.396  23.174  1.00  0.00    -0.192 NA
ENDBRANCH  24  25
ENDBRANCH  17  19
ENDBRANCH  12  17
ENDBRANCH   7   8
ENDBRANCH   6   7
ENDBRANCH   3   6
ENDBRANCH   1   2
BRANCH   1  27
ATOM     27  C   UNL A   1      33.258  27.287  26.068  1.00  0.00     0.042 C 
BRANCH  27  28
ATOM     28  C   UNL A   1      34.166  28.428  25.620  1.00  0.00     0.118 C 
BRANCH  28  29
ATOM     29  N   UNL A   1      33.769  29.722  26.163  1.00  0.00    -0.352 N 
ATOM     30  C   UNL A   1      34.300  30.454  27.197  1.00  0.00     0.251 C 
ATOM     31  H   UNL A   1      32.994  30.135  25.719  1.00  0.00     0.163 HD
ATOM     32  O   UNL A   1      33.693  31.440  27.607  1.00  0.00    -0.269 OA
BRANCH  30  33
ATOM     33  C   UNL A   1      35.578  30.055  27.825  1.00  0.00     0.039 A 
ATOM     34  C   UNL A   1      36.776  30.360  27.172  1.00  0.00     0.014 A 
ATOM     35  C   UNL A   1      35.604  29.371  29.042  1.00  0.00     0.014 A 
ATOM     36  C   UNL A   1      37.995  30.047  27.777  1.00  0.00     0.010 A 
ATOM     37  C   UNL A   1      36.818  29.139  29.685  1.00  0.00     0.010 A 
ATOM     38  C   UNL A   1      38.028  29.477  29.062  1.00  0.00    -0.014 A 
BRANCH  38  39
ATOM     39  C   UNL A   1      39.316  29.251  29.770  1.00  0.00     0.031 A 
ATOM     40  C   UNL A   1      40.263  28.173  29.311  1.00  0.00     0.074 A 
ATOM     41  C   UNL A   1      39.606  29.979  30.868  1.00  0.00     0.049 A 
ATOM     42  N   UNL A   1      41.400  27.795  29.837  1.00  0.00    -0.248 NA
ATOM     43  C   UNL A   1      39.873  27.406  28.117  1.00  0.00     0.031 C 
ATOM     44  C   UNL A   1      38.751  31.022  31.439  1.00  0.00     0.029 A 
ATOM     45  N   UNL A   1      40.694  29.952  31.706  1.00  0.00    -0.354 N 
ATOM     46  C   UNL A   1      41.854  26.745  29.047  1.00  0.00     0.074 A 
ATOM     47  C   UNL A   1      40.844  26.508  28.039  1.00  0.00     0.031 C 
ATOM     48  C   UNL A   1      39.355  31.551  32.513  1.00  0.00     0.029 A 
ATOM     49  C   UNL A   1      40.616  30.854  32.743  1.00  0.00     0.049 A 
ATOM     50  H   UNL A   1      41.457  29.344  31.576  1.00  0.00     0.167 HD
ATOM     51  C   UNL A   1      43.018  26.056  29.141  1.00  0.00     0.037 A 
ATOM     52  C   UNL A   1      41.454  31.081  33.774  1.00  0.00     0.037 A 
ATOM     53  C   UNL A   1      44.021  26.306  30.145  1.00  0.00     0.049 A 
ATOM     54  C   UNL A   1      42.724  30.279  33.875  1.00  0.00     0.074 A 
ATOM     55  C   UNL A   1      45.255  25.695  30.293  1.00  0.00     0.029 A 
ATOM     56  N   UNL A   1      43.906  27.227  31.176  1.00  0.00    -0.354 N 
ATOM     57  N   UNL A   1      43.170  29.336  33.078  1.00  0.00    -0.248 NA
ATOM     58  C   UNL A   1      43.610  30.574  35.009  1.00  0.00     0.031 C 
ATOM     59  C   UNL A   1      45.854  26.196  31.452  1.00  0.00     0.029 A 
ATOM     60  C   UNL A   1      45.033  27.177  31.982  1.00  0.00     0.049 A 
ATOM     61  H   UNL A   1      43.139  27.827  31.314  1.00  0.00     0.167 HD
ATOM     62  C   UNL A   1      44.403  28.952  33.594  1.00  0.00     0.074 A 
ATOM     63  C   UNL A   1      44.637  29.773  34.764  1.00  0.00     0.031 C 
ATOM     64  C   UNL A   1      45.263  28.008  33.140  1.00  0.00     0.037 A 
BRANCH  51  65
ATOM     65  C   UNL A   1      43.273  24.961  28.139  1.00  0.00     0.058 A 
ATOM     66  C   UNL A   1      43.865  25.221  26.891  1.00  0.00     0.135 A 
ATOM     67  C   UNL A   1      42.977  23.624  28.453  1.00  0.00     0.135 A 
ATOM     68  F   UNL A   1      44.155  26.480  26.528  1.00  0.00    -0.206 F 
ATOM     69  C   UNL A   1      44.131  24.199  25.985  1.00  0.00     0.059 A 
ATOM     70  C   UNL A   1      43.268  22.583  27.577  1.00  0.00     0.059 A 
ATOM     71  F   UNL A   1      42.410  23.316  29.631  1.00  0.00    -0.206 F 
ATOM     72  C   UNL A   1      43.835  22.882  26.340  1.00  0.00     0.060 A 
BRANCH  72  73
ATOM     73  S   UNL A   1      44.209  21.570  25.159  1.00  0.00     0.124 S 
ATOM     74  O   UNL A   1      43.138  20.616  25.432  1.00  0.00    -0.237 OA
ATOM     75  O   UNL A   1      44.121  22.270  23.881  1.00  0.00    -0.237 OA
ATOM     76  O   UNL A   1      45.548  21.136  25.542  1.00  0.00    -0.744 OA
ENDBRANCH  72  73
ENDBRANCH  51  65
BRANCH  52  77
ATOM     77  C   UNL A   1      41.123  32.116  34.793  1.00  0.00     0.058 A 
ATOM     78  C   UNL A   1      41.593  33.433  34.672  1.00  0.00     0.135 A 
ATOM     79  C   UNL A   1      40.333  31.808  35.912  1.00  0.00     0.135 A 
ATOM     80  F   UNL A   1      42.357  33.778  33.624  1.00  0.00    -0.206 F 
ATOM     81  C   UNL A   1      41.314  34.399  35.633  1.00  0.00     0.059 A 
ATOM     82  C   UNL A   1      40.012  32.766  36.869  1.00  0.00     0.059 A 
ATOM     83  F   UNL A   1      39.843  30.569  36.071  1.00  0.00    -0.206 F 
ATOM     84  C   UNL A   1      40.519  34.057  36.728  1.00  0.00     0.060 A 
BRANCH  84  85
ATOM     85  S   UNL A   1      40.134  35.328  37.949  1.00  0.00     0.124 S 
ATOM     86  O   UNL A   1      41.371  35.383  38.719  1.00  0.00    -0.237 OA
ATOM     87  O   UNL A   1      39.854  36.485  37.106  1.00  0.00    -0.237 OA
ATOM     88  O   UNL A   1      38.978  34.780  38.652  1.00  0.00    -0.744 OA
ENDBRANCH  84  85
ENDBRANCH  52  77
BRANCH  64  89
ATOM     89  C   UNL A   1      46.569  27.840  33.872  1.00  0.00     0.058 A 
ATOM     90  C   UNL A   1      47.707  28.598  33.552  1.00  0.00     0.135 A 
ATOM     91  C   UNL A   1      46.663  26.944  34.951  1.00  0.00     0.135 A 
ATOM     92  F   UNL A   1      47.677  29.465  32.528  1.00  0.00    -0.206 F 
ATOM     93  C   UNL A   1      48.899  28.452  34.257  1.00  0.00     0.059 A 
ATOM     94  C   UNL A   1      47.832  26.810  35.692  1.00  0.00     0.059 A 
ATOM     95  F   UNL A   1      45.604  26.201  35.308  1.00  0.00    -0.206 F 
ATOM     96  C   UNL A   1      48.949  27.560  35.329  1.00  0.00     0.060 A 
BRANCH  96  97
ATOM     97  S   UNL A   1      50.491  27.410  36.256  1.00  0.00     0.124 S 
ATOM     98  O   UNL A   1      50.894  26.043  35.941  1.00  0.00    -0.237 OA
ATOM     99  O   UNL A   1      51.309  28.465  35.667  1.00  0.00    -0.237 OA
ATOM    100  O   UNL A   1      50.081  27.640  37.639  1.00  0.00    -0.744 OA
ENDBRANCH  96  97
ENDBRANCH  64  89
ENDBRANCH  38  39
ENDBRANCH  30  33
ENDBRANCH  28  29
ENDBRANCH  27  28
ENDBRANCH   1  27
TORSDOF 20
ENDMDL
