MODEL 1
REMARK VINA RESULT:     -11.9      0.000      0.000
REMARK SMILES Cc1ccc(S(=O)(=O)n2cc(C(=O)C(=O)NCC(=O)N[C@H](Cc3c[nH]c4ccccc34)C(=O)NCCCNC(=O)c3ccc(-c4c5nc(c(-c6c(F)cc(S(=O)(=O)[O-])cc6F)c6ccc([nH]6)c(-c6c(F)cc(S(=O)(=O)[O-])cc6F)c6nc(c(-c7c(F)cc(S(=O)(=O)[O-])cc7F)c7ccc4[nH]7)C=C6)C=C5)cc3)c3ccccc32)cc1
REMARK SMILES IDX 32 1 33 2 34 3 21 5 20 6 18 7 19 8 17 10 16 11 14 12 15 13
REMARK SMILES IDX 12 15 13 16 11 17 9 18 10 19 112 20 107 21 111 22 108 23
REMARK SMILES IDX 110 24 109 25 6 26 7 27 8 28 5 29 1 30 2 31 3 32 114 33 4 34
REMARK SMILES IDX 113 35 22 36 23 37 24 38 31 39 25 40 26 41 30 42 27 44 29 45
REMARK SMILES IDX 28 46 35 47 36 48 37 49 38 50 39 51 40 53 41 54 42 55 106 56
REMARK SMILES IDX 43 57 105 58 44 59 45 60 46 61 99 62 47 63 104 64 98 65
REMARK SMILES IDX 100 66 48 67 103 68 97 69 96 70 49 72 83 73 62 74 82 75
REMARK SMILES IDX 63 76 66 77 81 78 101 79 64 80 65 81 80 83 102 84 67 85
REMARK SMILES IDX 50 86 51 87 60 88 52 89 53 90 59 91 61 92 54 93 55 94 56 95
REMARK SMILES IDX 57 96 58 97 84 98 85 99 94 100 86 101 87 102 93 103 95 104
REMARK SMILES IDX 88 105 89 106 90 107 91 108 92 109 68 110 69 111 78 112
REMARK SMILES IDX 70 113 71 114 77 115 79 116 72 117 73 118 74 119 75 120
REMARK SMILES IDX 76 121
REMARK H PARENT 34 4 20 9 16 14 25 43 38 52 100 71 66 82
REMARK Flexibility Score: inf
ROOT
ATOM      1  C   UNL A   1      41.527  25.349  26.237  1.00  0.00     0.242 C 
ATOM      2  O   UNL A   1      41.832  25.610  25.066  1.00  0.00    -0.273 OA
ATOM      3  N   UNL A   1      41.980  26.216  27.179  1.00  0.00    -0.354 N 
ATOM      4  H   UNL A   1      42.496  26.962  26.796  1.00  0.00     0.163 HD
ENDROOT
BRANCH   1   5
ATOM      5  C   UNL A   1      40.748  24.055  26.527  1.00  0.00     0.175 C 
BRANCH   5   6
ATOM      6  N   UNL A   1      39.343  24.401  26.762  1.00  0.00    -0.342 N 
ATOM      7  C   UNL A   1      38.227  23.732  26.342  1.00  0.00     0.240 C 
ATOM      8  O   UNL A   1      37.135  24.258  26.583  1.00  0.00    -0.273 OA
ATOM      9  H   UNL A   1      39.182  25.217  27.288  1.00  0.00     0.164 HD
BRANCH   7  10
ATOM     10  C   UNL A   1      38.299  22.287  25.787  1.00  0.00     0.216 C 
BRANCH  10  11
ATOM     11  N   UNL A   1      37.115  21.432  25.875  1.00  0.00    -0.340 N 
ATOM     12  C   UNL A   1      36.027  21.348  25.015  1.00  0.00     0.292 C 
ATOM     13  O   UNL A   1      35.157  20.496  25.143  1.00  0.00    -0.265 OA
ATOM     14  H   UNL A   1      37.085  20.832  26.655  1.00  0.00     0.164 HD
BRANCH  12  15
ATOM     15  C   UNL A   1      35.934  22.308  23.833  1.00  0.00     0.252 C 
ATOM     16  O   UNL A   1      36.989  22.502  23.224  1.00  0.00    -0.283 OA
BRANCH  15  17
ATOM     17  C   UNL A   1      34.719  23.089  23.538  1.00  0.00     0.054 A 
ATOM     18  N   UNL A   1      32.999  24.262  22.626  1.00  0.00    -0.240 N 
ATOM     19  C   UNL A   1      34.228  23.651  22.349  1.00  0.00     0.117 A 
ATOM     20  C   UNL A   1      32.631  23.860  23.927  1.00  0.00     0.065 A 
ATOM     21  C   UNL A   1      33.820  23.515  24.561  1.00  0.00     0.012 A 
ATOM     22  C   UNL A   1      31.452  24.098  24.662  1.00  0.00     0.028 A 
ATOM     23  C   UNL A   1      33.889  23.608  25.967  1.00  0.00     0.011 A 
ATOM     24  C   UNL A   1      31.573  24.287  26.039  1.00  0.00     0.002 A 
ATOM     25  C   UNL A   1      32.786  24.084  26.680  1.00  0.00     0.001 A 
BRANCH  18  26
ATOM     26  S   UNL A   1      32.593  25.955  22.390  1.00  0.00     0.268 S 
ATOM     27  O   UNL A   1      31.323  25.885  21.684  1.00  0.00    -0.201 OA
ATOM     28  O   UNL A   1      33.789  26.449  21.714  1.00  0.00    -0.201 OA
BRANCH  26  29
ATOM     29  C   UNL A   1      32.370  27.229  23.576  1.00  0.00     0.088 A 
ATOM     30  C   UNL A   1      32.611  29.726  27.103  1.00  0.00     0.044 C 
ATOM     31  C   UNL A   1      32.518  28.919  25.839  1.00  0.00    -0.051 A 
ATOM     32  C   UNL A   1      33.582  28.080  25.546  1.00  0.00     0.005 A 
ATOM     33  C   UNL A   1      31.396  28.923  24.977  1.00  0.00     0.005 A 
ATOM     34  C   UNL A   1      33.506  27.270  24.430  1.00  0.00     0.022 A 
ATOM     35  C   UNL A   1      31.308  28.073  23.838  1.00  0.00     0.022 A 
ENDBRANCH  26  29
ENDBRANCH  18  26
ENDBRANCH  15  17
ENDBRANCH  12  15
ENDBRANCH  10  11
ENDBRANCH   7  10
ENDBRANCH   5   6
BRANCH   5  36
ATOM     36  C   UNL A   1      41.323  23.075  27.587  1.00  0.00     0.072 C 
BRANCH  36  37
ATOM     37  C   UNL A   1      41.661  21.641  27.241  1.00  0.00    -0.020 A 
ATOM     38  C   UNL A   1      41.012  20.478  27.601  1.00  0.00     0.087 A 
ATOM     39  C   UNL A   1      42.772  21.204  26.415  1.00  0.00     0.003 A 
ATOM     40  N   UNL A   1      41.537  19.431  26.907  1.00  0.00    -0.361 N 
ATOM     41  C   UNL A   1      42.591  19.845  26.149  1.00  0.00     0.046 A 
ATOM     42  C   UNL A   1      43.904  21.826  25.845  1.00  0.00     0.010 A 
ATOM     43  H   UNL A   1      41.203  18.506  26.947  1.00  0.00     0.166 HD
ATOM     44  C   UNL A   1      43.393  19.102  25.281  1.00  0.00     0.026 A 
ATOM     45  C   UNL A   1      44.771  21.075  25.033  1.00  0.00     0.001 A 
ATOM     46  C   UNL A   1      44.500  19.741  24.732  1.00  0.00     0.002 A 
ENDBRANCH  36  37
ENDBRANCH   5  36
ENDBRANCH   1   5
BRANCH   3  47
ATOM     47  C   UNL A   1      41.874  26.290  28.631  1.00  0.00     0.117 C 
BRANCH  47  48
ATOM     48  C   UNL A   1      40.720  27.146  29.141  1.00  0.00     0.042 C 
BRANCH  48  49
ATOM     49  C   UNL A   1      40.825  28.624  28.758  1.00  0.00     0.118 C 
BRANCH  49  50
ATOM     50  N   UNL A   1      39.679  29.057  27.966  1.00  0.00    -0.352 N 
ATOM     51  C   UNL A   1      38.493  29.624  28.397  1.00  0.00     0.251 C 
ATOM     52  H   UNL A   1      39.761  28.930  26.992  1.00  0.00     0.163 HD
ATOM     53  O   UNL A   1      37.465  29.622  27.750  1.00  0.00    -0.269 OA
BRANCH  51  54
ATOM     54  C   UNL A   1      38.574  30.387  29.655  1.00  0.00     0.039 A 
ATOM     55  C   UNL A   1      38.881  31.749  29.550  1.00  0.00     0.014 A 
ATOM     56  C   UNL A   1      38.642  29.709  30.866  1.00  0.00     0.014 A 
ATOM     57  C   UNL A   1      39.457  32.398  30.633  1.00  0.00     0.010 A 
ATOM     58  C   UNL A   1      39.274  30.336  31.918  1.00  0.00     0.010 A 
ATOM     59  C   UNL A   1      39.735  31.650  31.773  1.00  0.00    -0.014 A 
BRANCH  59  60
ATOM     60  C   UNL A   1      40.559  32.137  32.865  1.00  0.00     0.031 A 
ATOM     61  C   UNL A   1      39.912  32.855  33.977  1.00  0.00     0.074 A 
ATOM     62  C   UNL A   1      41.873  31.823  32.881  1.00  0.00     0.049 A 
ATOM     63  N   UNL A   1      40.521  33.663  34.769  1.00  0.00    -0.248 NA
ATOM     64  C   UNL A   1      38.486  32.735  34.261  1.00  0.00     0.031 C 
ATOM     65  C   UNL A   1      42.813  31.972  33.987  1.00  0.00     0.029 A 
ATOM     66  N   UNL A   1      42.674  31.470  31.786  1.00  0.00    -0.354 N 
ATOM     67  C   UNL A   1      39.663  33.961  35.805  1.00  0.00     0.074 A 
ATOM     68  C   UNL A   1      38.389  33.408  35.411  1.00  0.00     0.031 C 
ATOM     69  C   UNL A   1      44.061  31.999  33.490  1.00  0.00     0.029 A 
ATOM     70  C   UNL A   1      43.947  32.020  32.041  1.00  0.00     0.049 A 
ATOM     71  H   UNL A   1      42.403  30.944  31.000  1.00  0.00     0.167 HD
ATOM     72  C   UNL A   1      40.170  34.520  36.940  1.00  0.00     0.037 A 
ATOM     73  C   UNL A   1      44.449  33.007  31.243  1.00  0.00     0.037 A 
ATOM     74  C   UNL A   1      41.598  34.784  36.780  1.00  0.00     0.049 A 
ATOM     75  C   UNL A   1      44.675  34.308  31.979  1.00  0.00     0.074 A 
ATOM     76  C   UNL A   1      42.718  34.038  37.111  1.00  0.00     0.029 A 
ATOM     77  N   UNL A   1      42.021  35.752  35.876  1.00  0.00    -0.354 N 
ATOM     78  N   UNL A   1      44.057  34.646  33.079  1.00  0.00    -0.248 NA
ATOM     79  C   UNL A   1      45.645  35.311  31.554  1.00  0.00     0.031 C 
ATOM     80  C   UNL A   1      43.807  34.518  36.343  1.00  0.00     0.029 A 
ATOM     81  C   UNL A   1      43.357  35.572  35.567  1.00  0.00     0.049 A 
ATOM     82  H   UNL A   1      41.450  36.464  35.507  1.00  0.00     0.167 HD
ATOM     83  C   UNL A   1      44.518  35.866  33.511  1.00  0.00     0.074 A 
ATOM     84  C   UNL A   1      45.523  36.229  32.527  1.00  0.00     0.031 C 
ATOM     85  C   UNL A   1      44.046  36.468  34.647  1.00  0.00     0.037 A 
BRANCH  72  86
ATOM     86  C   UNL A   1      39.445  34.520  38.269  1.00  0.00     0.058 A 
ATOM     87  C   UNL A   1      39.292  35.717  39.002  1.00  0.00     0.135 A 
ATOM     88  C   UNL A   1      38.929  33.371  38.902  1.00  0.00     0.135 A 
ATOM     89  F   UNL A   1      39.665  36.902  38.499  1.00  0.00    -0.206 F 
ATOM     90  C   UNL A   1      38.765  35.758  40.293  1.00  0.00     0.059 A 
ATOM     91  C   UNL A   1      38.444  33.378  40.216  1.00  0.00     0.059 A 
ATOM     92  F   UNL A   1      38.842  32.202  38.253  1.00  0.00    -0.206 F 
ATOM     93  C   UNL A   1      38.371  34.579  40.908  1.00  0.00     0.060 A 
BRANCH  93  94
ATOM     94  S   UNL A   1      37.759  34.652  42.602  1.00  0.00     0.124 S 
ATOM     95  O   UNL A   1      38.381  33.477  43.206  1.00  0.00    -0.237 OA
ATOM     96  O   UNL A   1      38.270  35.942  43.052  1.00  0.00    -0.237 OA
ATOM     97  O   UNL A   1      36.310  34.571  42.445  1.00  0.00    -0.744 OA
ENDBRANCH  93  94
ENDBRANCH  72  86
BRANCH  73  98
ATOM     98  C   UNL A   1      44.063  32.862  29.810  1.00  0.00     0.058 A 
ATOM     99  C   UNL A   1      43.193  33.827  29.260  1.00  0.00     0.135 A 
ATOM    100  C   UNL A   1      44.818  32.095  28.912  1.00  0.00     0.135 A 
ATOM    101  F   UNL A   1      42.439  34.588  30.071  1.00  0.00    -0.206 F 
ATOM    102  C   UNL A   1      43.172  34.114  27.897  1.00  0.00     0.059 A 
ATOM    103  C   UNL A   1      44.810  32.365  27.538  1.00  0.00     0.059 A 
ATOM    104  F   UNL A   1      45.668  31.165  29.368  1.00  0.00    -0.206 F 
ATOM    105  C   UNL A   1      44.027  33.413  27.050  1.00  0.00     0.060 A 
BRANCH 105 106
ATOM    106  S   UNL A   1      44.217  34.005  25.350  1.00  0.00     0.124 S 
ATOM    107  O   UNL A   1      45.630  34.363  25.312  1.00  0.00    -0.237 OA
ATOM    108  O   UNL A   1      43.844  32.828  24.563  1.00  0.00    -0.237 OA
ATOM    109  O   UNL A   1      43.276  35.114  25.274  1.00  0.00    -0.744 OA
ENDBRANCH 105 106
ENDBRANCH  73  98
BRANCH  85 110
ATOM    110  C   UNL A   1      44.277  37.906  35.079  1.00  0.00     0.058 A 
ATOM    111  C   UNL A   1      45.078  38.291  36.167  1.00  0.00     0.135 A 
ATOM    112  C   UNL A   1      43.785  38.981  34.291  1.00  0.00     0.135 A 
ATOM    113  F   UNL A   1      45.716  37.391  36.925  1.00  0.00    -0.206 F 
ATOM    114  C   UNL A   1      45.306  39.630  36.498  1.00  0.00     0.059 A 
ATOM    115  C   UNL A   1      44.058  40.320  34.561  1.00  0.00     0.059 A 
ATOM    116  F   UNL A   1      43.028  38.774  33.203  1.00  0.00    -0.206 F 
ATOM    117  C   UNL A   1      44.793  40.638  35.689  1.00  0.00     0.060 A 
BRANCH 117 118
ATOM    118  S   UNL A   1      45.141  42.360  36.082  1.00  0.00     0.124 S 
ATOM    119  O   UNL A   1      44.856  43.011  34.808  1.00  0.00    -0.237 OA
ATOM    120  O   UNL A   1      44.194  42.639  37.159  1.00  0.00    -0.237 OA
ATOM    121  O   UNL A   1      46.544  42.338  36.483  1.00  0.00    -0.744 OA
ENDBRANCH 117 118
ENDBRANCH  85 110
ENDBRANCH  59  60
ENDBRANCH  51  54
ENDBRANCH  49  50
ENDBRANCH  48  49
ENDBRANCH  47  48
ENDBRANCH   3  47
TORSDOF 22
ENDMDL
MODEL 2
REMARK VINA RESULT:     -11.8      3.552      6.586
REMARK SMILES Cc1ccc(S(=O)(=O)n2cc(C(=O)C(=O)NCC(=O)N[C@H](Cc3c[nH]c4ccccc34)C(=O)NCCCNC(=O)c3ccc(-c4c5nc(c(-c6c(F)cc(S(=O)(=O)[O-])cc6F)c6ccc([nH]6)c(-c6c(F)cc(S(=O)(=O)[O-])cc6F)c6nc(c(-c7c(F)cc(S(=O)(=O)[O-])cc7F)c7ccc4[nH]7)C=C6)C=C5)cc3)c3ccccc32)cc1
REMARK SMILES IDX 32 1 33 2 34 3 21 5 20 6 18 7 19 8 17 10 16 11 14 12 15 13
REMARK SMILES IDX 12 15 13 16 11 17 9 18 10 19 112 20 107 21 111 22 108 23
REMARK SMILES IDX 110 24 109 25 6 26 7 27 8 28 5 29 1 30 2 31 3 32 114 33 4 34
REMARK SMILES IDX 113 35 22 36 23 37 24 38 31 39 25 40 26 41 30 42 27 44 29 45
REMARK SMILES IDX 28 46 35 47 36 48 37 49 38 50 39 51 40 53 41 54 42 55 106 56
REMARK SMILES IDX 43 57 105 58 44 59 45 60 46 61 99 62 47 63 104 64 98 65
REMARK SMILES IDX 100 66 48 67 103 68 97 69 96 70 49 72 83 73 62 74 82 75
REMARK SMILES IDX 63 76 66 77 81 78 101 79 64 80 65 81 80 83 102 84 67 85
REMARK SMILES IDX 50 86 51 87 60 88 52 89 53 90 59 91 61 92 54 93 55 94 56 95
REMARK SMILES IDX 57 96 58 97 84 98 85 99 94 100 86 101 87 102 93 103 95 104
REMARK SMILES IDX 88 105 89 106 90 107 91 108 92 109 68 110 69 111 78 112
REMARK SMILES IDX 70 113 71 114 77 115 79 116 72 117 73 118 74 119 75 120
REMARK SMILES IDX 76 121
REMARK H PARENT 34 4 20 9 16 14 25 43 38 52 100 71 66 82
REMARK Flexibility Score: inf
ROOT
ATOM      1  C   UNL A   1      37.213  31.927  30.203  1.00  0.00     0.242 C 
ATOM      2  O   UNL A   1      37.990  32.891  30.189  1.00  0.00    -0.273 OA
ATOM      3  N   UNL A   1      37.768  30.709  29.969  1.00  0.00    -0.354 N 
ATOM      4  H   UNL A   1      38.741  30.753  29.827  1.00  0.00     0.163 HD
ENDROOT
BRANCH   1   5
ATOM      5  C   UNL A   1      35.710  32.190  30.398  1.00  0.00     0.175 C 
BRANCH   5   6
ATOM      6  N   UNL A   1      35.362  33.435  29.707  1.00  0.00    -0.342 N 
ATOM      7  C   UNL A   1      34.751  33.584  28.492  1.00  0.00     0.240 C 
ATOM      8  O   UNL A   1      34.636  34.736  28.062  1.00  0.00    -0.273 OA
ATOM      9  H   UNL A   1      35.598  34.268  30.174  1.00  0.00     0.164 HD
BRANCH   7  10
ATOM     10  C   UNL A   1      34.041  32.404  27.783  1.00  0.00     0.216 C 
BRANCH  10  11
ATOM     11  N   UNL A   1      34.698  31.097  27.748  1.00  0.00    -0.340 N 
ATOM     12  C   UNL A   1      34.223  29.888  27.255  1.00  0.00     0.292 C 
ATOM     13  O   UNL A   1      34.930  28.891  27.176  1.00  0.00    -0.265 OA
ATOM     14  H   UNL A   1      35.606  31.070  28.130  1.00  0.00     0.164 HD
BRANCH  12  15
ATOM     15  C   UNL A   1      32.791  29.806  26.735  1.00  0.00     0.252 C 
ATOM     16  O   UNL A   1      32.100  30.809  26.925  1.00  0.00    -0.283 OA
BRANCH  15  17
ATOM     17  C   UNL A   1      32.211  28.560  26.200  1.00  0.00     0.054 A 
ATOM     18  N   UNL A   1      31.109  26.611  25.811  1.00  0.00    -0.240 N 
ATOM     19  C   UNL A   1      31.414  27.566  26.789  1.00  0.00     0.117 A 
ATOM     20  C   UNL A   1      31.519  27.154  24.574  1.00  0.00     0.065 A 
ATOM     21  C   UNL A   1      32.499  28.090  24.884  1.00  0.00     0.012 A 
ATOM     22  C   UNL A   1      31.362  26.664  23.262  1.00  0.00     0.028 A 
ATOM     23  C   UNL A   1      33.474  28.395  23.912  1.00  0.00     0.011 A 
ATOM     24  C   UNL A   1      32.396  26.898  22.355  1.00  0.00     0.002 A 
ATOM     25  C   UNL A   1      33.461  27.721  22.689  1.00  0.00     0.001 A 
BRANCH  18  26
ATOM     26  S   UNL A   1      31.491  24.898  25.864  1.00  0.00     0.268 S 
ATOM     27  O   UNL A   1      30.301  24.285  25.292  1.00  0.00    -0.201 OA
ATOM     28  O   UNL A   1      31.812  24.715  27.276  1.00  0.00    -0.201 OA
BRANCH  26  29
ATOM     29  C   UNL A   1      32.829  24.025  25.137  1.00  0.00     0.088 A 
ATOM     30  C   UNL A   1      36.634  22.943  23.381  1.00  0.00     0.044 C 
ATOM     31  C   UNL A   1      35.310  23.253  24.022  1.00  0.00    -0.051 A 
ATOM     32  C   UNL A   1      35.247  24.382  24.823  1.00  0.00     0.005 A 
ATOM     33  C   UNL A   1      34.131  22.503  23.807  1.00  0.00     0.005 A 
ATOM     34  C   UNL A   1      34.033  24.742  25.376  1.00  0.00     0.022 A 
ATOM     35  C   UNL A   1      32.875  22.884  24.358  1.00  0.00     0.022 A 
ENDBRANCH  26  29
ENDBRANCH  18  26
ENDBRANCH  15  17
ENDBRANCH  12  15
ENDBRANCH  10  11
ENDBRANCH   7  10
ENDBRANCH   5   6
BRANCH   5  36
ATOM     36  C   UNL A   1      35.132  32.109  31.839  1.00  0.00     0.072 C 
BRANCH  36  37
ATOM     37  C   UNL A   1      35.895  32.646  33.031  1.00  0.00    -0.020 A 
ATOM     38  C   UNL A   1      35.746  33.846  33.696  1.00  0.00     0.087 A 
ATOM     39  C   UNL A   1      36.962  31.961  33.739  1.00  0.00     0.003 A 
ATOM     40  N   UNL A   1      36.498  33.833  34.831  1.00  0.00    -0.361 N 
ATOM     41  C   UNL A   1      37.227  32.684  34.903  1.00  0.00     0.046 A 
ATOM     42  C   UNL A   1      37.716  30.788  33.523  1.00  0.00     0.010 A 
ATOM     43  H   UNL A   1      36.514  34.552  35.503  1.00  0.00     0.166 HD
ATOM     44  C   UNL A   1      38.108  32.265  35.902  1.00  0.00     0.026 A 
ATOM     45  C   UNL A   1      38.668  30.392  34.479  1.00  0.00     0.001 A 
ATOM     46  C   UNL A   1      38.837  31.105  35.665  1.00  0.00     0.002 A 
ENDBRANCH  36  37
ENDBRANCH   5  36
ENDBRANCH   1   5
BRANCH   3  47
ATOM     47  C   UNL A   1      37.247  29.351  29.884  1.00  0.00     0.117 C 
BRANCH  47  48
ATOM     48  C   UNL A   1      38.299  28.256  30.015  1.00  0.00     0.042 C 
BRANCH  48  49
ATOM     49  C   UNL A   1      39.270  28.463  31.179  1.00  0.00     0.118 C 
BRANCH  49  50
ATOM     50  N   UNL A   1      40.648  28.186  30.786  1.00  0.00    -0.352 N 
ATOM     51  C   UNL A   1      41.742  29.033  30.809  1.00  0.00     0.251 C 
ATOM     52  H   UNL A   1      40.823  27.272  30.462  1.00  0.00     0.163 HD
ATOM     53  O   UNL A   1      42.745  28.863  30.146  1.00  0.00    -0.269 OA
BRANCH  51  54
ATOM     54  C   UNL A   1      41.695  30.104  31.819  1.00  0.00     0.039 A 
ATOM     55  C   UNL A   1      41.275  31.367  31.383  1.00  0.00     0.014 A 
ATOM     56  C   UNL A   1      42.326  29.922  33.044  1.00  0.00     0.014 A 
ATOM     57  C   UNL A   1      41.670  32.493  32.091  1.00  0.00     0.010 A 
ATOM     58  C   UNL A   1      42.773  31.043  33.709  1.00  0.00     0.010 A 
ATOM     59  C   UNL A   1      42.499  32.316  33.194  1.00  0.00    -0.014 A 
BRANCH  59  60
ATOM     60  C   UNL A   1      43.186  33.409  33.860  1.00  0.00     0.031 A 
ATOM     61  C   UNL A   1      42.477  34.154  34.915  1.00  0.00     0.074 A 
ATOM     62  C   UNL A   1      44.484  33.638  33.568  1.00  0.00     0.049 A 
ATOM     63  N   UNL A   1      42.782  35.346  35.290  1.00  0.00    -0.248 NA
ATOM     64  C   UNL A   1      41.321  33.607  35.618  1.00  0.00     0.031 C 
ATOM     65  C   UNL A   1      45.425  34.487  34.291  1.00  0.00     0.029 A 
ATOM     66  N   UNL A   1      45.169  33.272  32.401  1.00  0.00    -0.354 N 
ATOM     67  C   UNL A   1      42.062  35.623  36.432  1.00  0.00     0.074 A 
ATOM     68  C   UNL A   1      41.123  34.533  36.560  1.00  0.00     0.031 C 
ATOM     69  C   UNL A   1      46.431  34.817  33.463  1.00  0.00     0.029 A 
ATOM     70  C   UNL A   1      46.085  34.312  32.144  1.00  0.00     0.049 A 
ATOM     71  H   UNL A   1      45.037  32.455  31.869  1.00  0.00     0.167 HD
ATOM     72  C   UNL A   1      42.444  36.673  37.212  1.00  0.00     0.037 A 
ATOM     73  C   UNL A   1      45.957  35.091  31.030  1.00  0.00     0.037 A 
ATOM     74  C   UNL A   1      43.557  37.386  36.591  1.00  0.00     0.049 A 
ATOM     75  C   UNL A   1      45.697  36.546  31.351  1.00  0.00     0.074 A 
ATOM     76  C   UNL A   1      44.930  37.273  36.748  1.00  0.00     0.029 A 
ATOM     77  N   UNL A   1      43.351  38.083  35.406  1.00  0.00    -0.354 N 
ATOM     78  N   UNL A   1      45.181  36.970  32.474  1.00  0.00    -0.248 NA
ATOM     79  C   UNL A   1      46.034  37.638  30.446  1.00  0.00     0.031 C 
ATOM     80  C   UNL A   1      45.549  37.844  35.609  1.00  0.00     0.029 A 
ATOM     81  C   UNL A   1      44.557  38.330  34.775  1.00  0.00     0.049 A 
ATOM     82  H   UNL A   1      42.471  38.363  35.064  1.00  0.00     0.167 HD
ATOM     83  C   UNL A   1      45.113  38.342  32.461  1.00  0.00     0.074 A 
ATOM     84  C   UNL A   1      45.676  38.709  31.174  1.00  0.00     0.031 C 
ATOM     85  C   UNL A   1      44.614  39.060  33.515  1.00  0.00     0.037 A 
BRANCH  72  86
ATOM     86  C   UNL A   1      42.022  36.839  38.656  1.00  0.00     0.058 A 
ATOM     87  C   UNL A   1      40.686  37.159  38.981  1.00  0.00     0.135 A 
ATOM     88  C   UNL A   1      42.893  36.753  39.762  1.00  0.00     0.135 A 
ATOM     89  F   UNL A   1      39.727  37.204  38.046  1.00  0.00    -0.206 F 
ATOM     90  C   UNL A   1      40.269  37.467  40.276  1.00  0.00     0.059 A 
ATOM     91  C   UNL A   1      42.511  37.107  41.062  1.00  0.00     0.059 A 
ATOM     92  F   UNL A   1      44.141  36.284  39.627  1.00  0.00    -0.206 F 
ATOM     93  C   UNL A   1      41.194  37.470  41.309  1.00  0.00     0.060 A 
BRANCH  93  94
ATOM     94  S   UNL A   1      40.642  37.940  42.960  1.00  0.00     0.124 S 
ATOM     95  O   UNL A   1      40.237  36.656  43.527  1.00  0.00    -0.237 OA
ATOM     96  O   UNL A   1      41.850  38.530  43.525  1.00  0.00    -0.237 OA
ATOM     97  O   UNL A   1      39.549  38.872  42.701  1.00  0.00    -0.744 OA
ENDBRANCH  93  94
ENDBRANCH  72  86
BRANCH  73  98
ATOM     98  C   UNL A   1      45.449  34.347  29.843  1.00  0.00     0.058 A 
ATOM     99  C   UNL A   1      44.118  34.578  29.439  1.00  0.00     0.135 A 
ATOM    100  C   UNL A   1      46.313  33.775  28.899  1.00  0.00     0.135 A 
ATOM    101  F   UNL A   1      43.240  35.118  30.303  1.00  0.00    -0.206 F 
ATOM    102  C   UNL A   1      43.697  34.382  28.126  1.00  0.00     0.059 A 
ATOM    103  C   UNL A   1      45.911  33.567  27.575  1.00  0.00     0.059 A 
ATOM    104  F   UNL A   1      47.593  33.534  29.216  1.00  0.00    -0.206 F 
ATOM    105  C   UNL A   1      44.619  33.927  27.187  1.00  0.00     0.060 A 
BRANCH 105 106
ATOM    106  S   UNL A   1      44.150  33.976  25.439  1.00  0.00     0.124 S 
ATOM    107  O   UNL A   1      45.368  34.479  24.815  1.00  0.00    -0.237 OA
ATOM    108  O   UNL A   1      43.831  32.575  25.159  1.00  0.00    -0.237 OA
ATOM    109  O   UNL A   1      43.007  34.878  25.424  1.00  0.00    -0.744 OA
ENDBRANCH 105 106
ENDBRANCH  73  98
BRANCH  85 110
ATOM    110  C   UNL A   1      44.247  40.534  33.520  1.00  0.00     0.058 A 
ATOM    111  C   UNL A   1      44.891  41.513  34.294  1.00  0.00     0.135 A 
ATOM    112  C   UNL A   1      43.286  41.038  32.602  1.00  0.00     0.135 A 
ATOM    113  F   UNL A   1      45.908  41.207  35.111  1.00  0.00    -0.206 F 
ATOM    114  C   UNL A   1      44.556  42.868  34.229  1.00  0.00     0.059 A 
ATOM    115  C   UNL A   1      42.986  42.391  32.470  1.00  0.00     0.059 A 
ATOM    116  F   UNL A   1      42.606  40.232  31.774  1.00  0.00    -0.206 F 
ATOM    117  C   UNL A   1      43.602  43.299  33.313  1.00  0.00     0.060 A 
BRANCH 117 118
ATOM    118  S   UNL A   1      43.217  45.053  33.186  1.00  0.00     0.124 S 
ATOM    119  O   UNL A   1      44.217  45.634  34.075  1.00  0.00    -0.237 OA
ATOM    120  O   UNL A   1      43.405  45.320  31.763  1.00  0.00    -0.237 OA
ATOM    121  O   UNL A   1      41.836  45.128  33.652  1.00  0.00    -0.744 OA
ENDBRANCH 117 118
ENDBRANCH  85 110
ENDBRANCH  59  60
ENDBRANCH  51  54
ENDBRANCH  49  50
ENDBRANCH  48  49
ENDBRANCH  47  48
ENDBRANCH   3  47
TORSDOF 22
ENDMDL
MODEL 3
REMARK VINA RESULT:     -11.7      5.885     12.157
REMARK SMILES Cc1ccc(S(=O)(=O)n2cc(C(=O)C(=O)NCC(=O)N[C@H](Cc3c[nH]c4ccccc34)C(=O)NCCCNC(=O)c3ccc(-c4c5nc(c(-c6c(F)cc(S(=O)(=O)[O-])cc6F)c6ccc([nH]6)c(-c6c(F)cc(S(=O)(=O)[O-])cc6F)c6nc(c(-c7c(F)cc(S(=O)(=O)[O-])cc7F)c7ccc4[nH]7)C=C6)C=C5)cc3)c3ccccc32)cc1
REMARK SMILES IDX 32 1 33 2 34 3 21 5 20 6 18 7 19 8 17 10 16 11 14 12 15 13
REMARK SMILES IDX 12 15 13 16 11 17 9 18 10 19 112 20 107 21 111 22 108 23
REMARK SMILES IDX 110 24 109 25 6 26 7 27 8 28 5 29 1 30 2 31 3 32 114 33 4 34
REMARK SMILES IDX 113 35 22 36 23 37 24 38 31 39 25 40 26 41 30 42 27 44 29 45
REMARK SMILES IDX 28 46 35 47 36 48 37 49 38 50 39 51 40 53 41 54 42 55 106 56
REMARK SMILES IDX 43 57 105 58 44 59 45 60 46 61 99 62 47 63 104 64 98 65
REMARK SMILES IDX 100 66 48 67 103 68 97 69 96 70 49 72 83 73 62 74 82 75
REMARK SMILES IDX 63 76 66 77 81 78 101 79 64 80 65 81 80 83 102 84 67 85
REMARK SMILES IDX 50 86 51 87 60 88 52 89 53 90 59 91 61 92 54 93 55 94 56 95
REMARK SMILES IDX 57 96 58 97 84 98 85 99 94 100 86 101 87 102 93 103 95 104
REMARK SMILES IDX 88 105 89 106 90 107 91 108 92 109 68 110 69 111 78 112
REMARK SMILES IDX 70 113 71 114 77 115 79 116 72 117 73 118 74 119 75 120
REMARK SMILES IDX 76 121
REMARK H PARENT 34 4 20 9 16 14 25 43 38 52 100 71 66 82
REMARK Flexibility Score: inf
ROOT
ATOM      1  C   UNL A   1      37.321  33.008  30.884  1.00  0.00     0.242 C 
ATOM      2  O   UNL A   1      37.948  33.967  30.413  1.00  0.00    -0.273 OA
ATOM      3  N   UNL A   1      37.995  32.233  31.773  1.00  0.00    -0.354 N 
ATOM      4  H   UNL A   1      38.913  32.549  31.938  1.00  0.00     0.163 HD
ENDROOT
BRANCH   1   5
ATOM      5  C   UNL A   1      35.896  32.735  30.374  1.00  0.00     0.175 C 
BRANCH   5   6
ATOM      6  N   UNL A   1      35.594  33.688  29.302  1.00  0.00    -0.342 N 
ATOM      7  C   UNL A   1      34.911  33.462  28.140  1.00  0.00     0.240 C 
ATOM      8  O   UNL A   1      34.852  34.397  27.334  1.00  0.00    -0.273 OA
ATOM      9  H   UNL A   1      35.926  34.605  29.435  1.00  0.00     0.164 HD
BRANCH   7  10
ATOM     10  C   UNL A   1      34.064  32.183  27.923  1.00  0.00     0.216 C 
BRANCH  10  11
ATOM     11  N   UNL A   1      34.742  30.890  27.828  1.00  0.00    -0.340 N 
ATOM     12  C   UNL A   1      34.283  29.696  27.286  1.00  0.00     0.292 C 
ATOM     13  O   UNL A   1      35.006  28.715  27.160  1.00  0.00    -0.265 OA
ATOM     14  H   UNL A   1      35.653  30.863  28.201  1.00  0.00     0.164 HD
BRANCH  12  15
ATOM     15  C   UNL A   1      32.849  29.612  26.775  1.00  0.00     0.252 C 
ATOM     16  O   UNL A   1      32.145  30.598  27.004  1.00  0.00    -0.283 OA
BRANCH  15  17
ATOM     17  C   UNL A   1      32.282  28.378  26.201  1.00  0.00     0.054 A 
ATOM     18  N   UNL A   1      31.191  26.436  25.747  1.00  0.00    -0.240 N 
ATOM     19  C   UNL A   1      31.474  27.370  26.751  1.00  0.00     0.117 A 
ATOM     20  C   UNL A   1      31.625  27.006  24.531  1.00  0.00     0.065 A 
ATOM     21  C   UNL A   1      32.597  27.936  24.881  1.00  0.00     0.012 A 
ATOM     22  C   UNL A   1      31.496  26.545  23.205  1.00  0.00     0.028 A 
ATOM     23  C   UNL A   1      33.591  28.264  23.936  1.00  0.00     0.011 A 
ATOM     24  C   UNL A   1      32.548  26.799  22.325  1.00  0.00     0.002 A 
ATOM     25  C   UNL A   1      33.605  27.616  22.698  1.00  0.00     0.001 A 
BRANCH  18  26
ATOM     26  S   UNL A   1      31.574  24.722  25.770  1.00  0.00     0.268 S 
ATOM     27  O   UNL A   1      30.573  24.157  24.879  1.00  0.00    -0.201 OA
ATOM     28  O   UNL A   1      31.537  24.436  27.201  1.00  0.00    -0.201 OA
BRANCH  26  29
ATOM     29  C   UNL A   1      33.064  23.901  25.338  1.00  0.00     0.088 A 
ATOM     30  C   UNL A   1      36.470  21.233  25.230  1.00  0.00     0.044 C 
ATOM     31  C   UNL A   1      35.288  22.161  25.195  1.00  0.00    -0.051 A 
ATOM     32  C   UNL A   1      34.143  21.747  25.857  1.00  0.00     0.005 A 
ATOM     33  C   UNL A   1      35.300  23.437  24.585  1.00  0.00     0.005 A 
ATOM     34  C   UNL A   1      33.056  22.598  25.908  1.00  0.00     0.022 A 
ATOM     35  C   UNL A   1      34.188  24.324  24.655  1.00  0.00     0.022 A 
ENDBRANCH  26  29
ENDBRANCH  18  26
ENDBRANCH  15  17
ENDBRANCH  12  15
ENDBRANCH  10  11
ENDBRANCH   7  10
ENDBRANCH   5   6
BRANCH   5  36
ATOM     36  C   UNL A   1      34.754  32.610  31.421  1.00  0.00     0.072 C 
BRANCH  36  37
ATOM     37  C   UNL A   1      34.524  33.672  32.475  1.00  0.00    -0.020 A 
ATOM     38  C   UNL A   1      34.714  33.605  33.840  1.00  0.00     0.087 A 
ATOM     39  C   UNL A   1      34.056  35.025  32.233  1.00  0.00     0.003 A 
ATOM     40  N   UNL A   1      34.578  34.848  34.380  1.00  0.00    -0.361 N 
ATOM     41  C   UNL A   1      34.208  35.742  33.421  1.00  0.00     0.046 A 
ATOM     42  C   UNL A   1      33.538  35.723  31.122  1.00  0.00     0.010 A 
ATOM     43  H   UNL A   1      34.724  35.068  35.328  1.00  0.00     0.166 HD
ATOM     44  C   UNL A   1      33.980  37.114  33.543  1.00  0.00     0.026 A 
ATOM     45  C   UNL A   1      33.224  37.087  31.246  1.00  0.00     0.001 A 
ATOM     46  C   UNL A   1      33.471  37.778  32.431  1.00  0.00     0.002 A 
ENDBRANCH  36  37
ENDBRANCH   5  36
ENDBRANCH   1   5
BRANCH   3  47
ATOM     47  C   UNL A   1      37.664  31.037  32.538  1.00  0.00     0.117 C 
BRANCH  47  48
ATOM     48  C   UNL A   1      38.009  29.724  31.846  1.00  0.00     0.042 C 
BRANCH  48  49
ATOM     49  C   UNL A   1      37.965  29.795  30.318  1.00  0.00     0.118 C 
BRANCH  49  50
ATOM     50  N   UNL A   1      38.172  28.485  29.712  1.00  0.00    -0.352 N 
ATOM     51  C   UNL A   1      39.065  28.122  28.719  1.00  0.00     0.251 C 
ATOM     52  H   UNL A   1      37.601  27.760  30.057  1.00  0.00     0.163 HD
ATOM     53  O   UNL A   1      38.939  27.136  28.021  1.00  0.00    -0.269 OA
BRANCH  51  54
ATOM     54  C   UNL A   1      40.294  28.930  28.642  1.00  0.00     0.039 A 
ATOM     55  C   UNL A   1      40.991  28.907  27.427  1.00  0.00     0.014 A 
ATOM     56  C   UNL A   1      40.865  29.425  29.808  1.00  0.00     0.014 A 
ATOM     57  C   UNL A   1      42.348  29.199  27.421  1.00  0.00     0.010 A 
ATOM     58  C   UNL A   1      42.224  29.650  29.812  1.00  0.00     0.010 A 
ATOM     59  C   UNL A   1      42.966  29.471  28.637  1.00  0.00    -0.014 A 
BRANCH  59  60
ATOM     60  C   UNL A   1      44.407  29.537  28.803  1.00  0.00     0.031 A 
ATOM     61  C   UNL A   1      45.137  30.678  28.223  1.00  0.00     0.074 A 
ATOM     62  C   UNL A   1      45.017  28.612  29.574  1.00  0.00     0.049 A 
ATOM     63  N   UNL A   1      46.391  30.668  27.942  1.00  0.00    -0.248 NA
ATOM     64  C   UNL A   1      44.478  31.933  27.876  1.00  0.00     0.031 C 
ATOM     65  C   UNL A   1      46.383  28.638  30.087  1.00  0.00     0.029 A 
ATOM     66  N   UNL A   1      44.548  27.330  29.892  1.00  0.00    -0.354 N 
ATOM     67  C   UNL A   1      46.762  31.959  27.637  1.00  0.00     0.074 A 
ATOM     68  C   UNL A   1      45.525  32.698  27.550  1.00  0.00     0.031 C 
ATOM     69  C   UNL A   1      46.751  27.382  30.394  1.00  0.00     0.029 A 
ATOM     70  C   UNL A   1      45.686  26.500  29.944  1.00  0.00     0.049 A 
ATOM     71  H   UNL A   1      43.614  27.063  30.048  1.00  0.00     0.167 HD
ATOM     72  C   UNL A   1      48.087  32.280  27.632  1.00  0.00     0.037 A 
ATOM     73  C   UNL A   1      45.852  25.491  29.039  1.00  0.00     0.037 A 
ATOM     74  C   UNL A   1      48.897  31.091  27.885  1.00  0.00     0.049 A 
ATOM     75  C   UNL A   1      47.072  25.674  28.164  1.00  0.00     0.074 A 
ATOM     76  C   UNL A   1      49.426  30.564  29.053  1.00  0.00     0.029 A 
ATOM     77  N   UNL A   1      48.935  30.072  26.939  1.00  0.00    -0.354 N 
ATOM     78  N   UNL A   1      47.641  26.826  27.929  1.00  0.00    -0.248 NA
ATOM     79  C   UNL A   1      47.768  24.567  27.519  1.00  0.00     0.031 C 
ATOM     80  C   UNL A   1      49.716  29.197  28.825  1.00  0.00     0.029 A 
ATOM     81  C   UNL A   1      49.392  28.899  27.513  1.00  0.00     0.049 A 
ATOM     82  H   UNL A   1      48.674  30.171  25.996  1.00  0.00     0.167 HD
ATOM     83  C   UNL A   1      48.744  26.641  27.131  1.00  0.00     0.074 A 
ATOM     84  C   UNL A   1      48.786  25.205  26.918  1.00  0.00     0.031 C 
ATOM     85  C   UNL A   1      49.538  27.681  26.726  1.00  0.00     0.037 A 
BRANCH  72  86
ATOM     86  C   UNL A   1      48.605  33.699  27.719  1.00  0.00     0.058 A 
ATOM     87  C   UNL A   1      48.847  34.298  28.975  1.00  0.00     0.135 A 
ATOM     88  C   UNL A   1      48.830  34.542  26.612  1.00  0.00     0.135 A 
ATOM     89  F   UNL A   1      48.748  33.603  30.116  1.00  0.00    -0.206 F 
ATOM     90  C   UNL A   1      49.184  35.644  29.125  1.00  0.00     0.059 A 
ATOM     91  C   UNL A   1      49.118  35.907  26.738  1.00  0.00     0.059 A 
ATOM     92  F   UNL A   1      48.816  34.061  25.361  1.00  0.00    -0.206 F 
ATOM     93  C   UNL A   1      49.287  36.452  28.003  1.00  0.00     0.060 A 
BRANCH  93  94
ATOM     94  S   UNL A   1      49.655  38.203  28.231  1.00  0.00     0.124 S 
ATOM     95  O   UNL A   1      48.695  38.588  29.262  1.00  0.00    -0.237 OA
ATOM     96  O   UNL A   1      51.052  38.166  28.647  1.00  0.00    -0.237 OA
ATOM     97  O   UNL A   1      49.408  38.776  26.912  1.00  0.00    -0.744 OA
ENDBRANCH  93  94
ENDBRANCH  72  86
BRANCH  73  98
ATOM     98  C   UNL A   1      44.573  24.838  28.640  1.00  0.00     0.058 A 
ATOM     99  C   UNL A   1      44.016  25.185  27.392  1.00  0.00     0.135 A 
ATOM    100  C   UNL A   1      44.136  23.642  29.226  1.00  0.00     0.135 A 
ATOM    101  F   UNL A   1      44.391  26.323  26.784  1.00  0.00    -0.206 F 
ATOM    102  C   UNL A   1      43.174  24.324  26.693  1.00  0.00     0.059 A 
ATOM    103  C   UNL A   1      43.288  22.763  28.541  1.00  0.00     0.059 A 
ATOM    104  F   UNL A   1      44.630  23.250  30.409  1.00  0.00    -0.206 F 
ATOM    105  C   UNL A   1      42.859  23.089  27.254  1.00  0.00     0.060 A 
BRANCH 105 106
ATOM    106  S   UNL A   1      42.030  21.865  26.209  1.00  0.00     0.124 S 
ATOM    107  O   UNL A   1      42.377  20.616  26.877  1.00  0.00    -0.237 OA
ATOM    108  O   UNL A   1      40.625  22.265  26.310  1.00  0.00    -0.237 OA
ATOM    109  O   UNL A   1      42.633  22.077  24.901  1.00  0.00    -0.744 OA
ENDBRANCH 105 106
ENDBRANCH  73  98
BRANCH  85 110
ATOM    110  C   UNL A   1      50.609  27.643  25.649  1.00  0.00     0.058 A 
ATOM    111  C   UNL A   1      50.350  27.625  24.269  1.00  0.00     0.135 A 
ATOM    112  C   UNL A   1      51.982  27.765  25.997  1.00  0.00     0.135 A 
ATOM    113  F   UNL A   1      49.101  27.643  23.786  1.00  0.00    -0.206 F 
ATOM    114  C   UNL A   1      51.367  27.643  23.311  1.00  0.00     0.059 A 
ATOM    115  C   UNL A   1      53.006  27.856  25.058  1.00  0.00     0.059 A 
ATOM    116  F   UNL A   1      52.387  27.822  27.274  1.00  0.00    -0.206 F 
ATOM    117  C   UNL A   1      52.693  27.760  23.714  1.00  0.00     0.060 A 
BRANCH 117 118
ATOM    118  S   UNL A   1      53.998  27.846  22.476  1.00  0.00     0.124 S 
ATOM    119  O   UNL A   1      53.973  26.491  21.935  1.00  0.00    -0.237 OA
ATOM    120  O   UNL A   1      53.519  28.894  21.579  1.00  0.00    -0.237 OA
ATOM    121  O   UNL A   1      55.181  28.194  23.257  1.00  0.00    -0.744 OA
ENDBRANCH 117 118
ENDBRANCH  85 110
ENDBRANCH  59  60
ENDBRANCH  51  54
ENDBRANCH  49  50
ENDBRANCH  48  49
ENDBRANCH  47  48
ENDBRANCH   3  47
TORSDOF 22
ENDMDL
