MODEL 1
REMARK VINA RESULT:     -12.2      0.000      0.000
REMARK SMILES C=Cc1cccc(-c2ccc([C@@H](C)C(=O)NCCCNC(=O)c3ccc(-c4c5nc(c(-c6c(F)cc(S(=O)(=O)[O-])cc6F)c6ccc([nH]6)c(-c6c(F)cc(S(=O)(=O)[O-])cc6F)c6nc(c(-c7c(F)cc(S(=O)(=O)[O-])cc7F)c7ccc4[nH]7)C=C6)C=C5)cc3)cc2)c1
REMARK SMILES IDX 18 1 17 2 16 3 14 4 15 5 12 7 13 8 11 9 8 10 9 11 90 12
REMARK SMILES IDX 10 13 89 14 7 15 3 16 4 17 91 18 5 19 6 20 2 21 1 22 19 23
REMARK SMILES IDX 20 24 21 25 22 27 23 28 24 29 88 30 25 31 87 32 26 33 27 34
REMARK SMILES IDX 28 35 81 36 29 37 86 38 80 39 82 40 30 41 85 42 79 43 78 44
REMARK SMILES IDX 31 46 65 47 44 48 64 49 45 50 48 51 63 52 83 53 46 54 47 55
REMARK SMILES IDX 62 57 84 58 49 59 32 60 33 61 42 62 34 63 35 64 41 65 43 66
REMARK SMILES IDX 36 67 37 68 38 69 39 70 40 71 66 72 67 73 76 74 68 75 69 76
REMARK SMILES IDX 75 77 77 78 70 79 71 80 72 81 73 82 74 83 50 84 51 85 60 86
REMARK SMILES IDX 52 87 53 88 59 89 61 90 54 91 55 92 56 93 57 94 58 95
REMARK H PARENT 16 6 20 26 82 45 48 56
REMARK Flexibility Score: inf
ROOT
ATOM      1  C   UNL A   1      33.654  29.266  27.405  1.00  0.00     0.042 C 
ENDROOT
BRANCH   1   2
ATOM      2  C   UNL A   1      32.923  30.245  26.489  1.00  0.00     0.117 C 
BRANCH   2   3
ATOM      3  N   UNL A   1      31.952  29.590  25.634  1.00  0.00    -0.356 N 
ATOM      4  C   UNL A   1      32.092  28.770  24.557  1.00  0.00     0.227 C 
ATOM      5  O   UNL A   1      31.042  28.399  24.016  1.00  0.00    -0.274 OA
ATOM      6  H   UNL A   1      31.017  29.773  25.879  1.00  0.00     0.163 HD
BRANCH   4   7
ATOM      7  C   UNL A   1      33.443  28.283  24.013  1.00  0.00     0.105 C 
ATOM      8  C   UNL A   1      33.857  28.925  22.688  1.00  0.00     0.023 C 
BRANCH   7   9
ATOM      9  C   UNL A   1      33.633  26.778  24.108  1.00  0.00    -0.036 A 
ATOM     10  C   UNL A   1      33.824  23.934  24.379  1.00  0.00    -0.018 A 
ATOM     11  C   UNL A   1      33.727  24.554  23.123  1.00  0.00     0.009 A 
ATOM     12  C   UNL A   1      33.860  24.780  25.498  1.00  0.00     0.009 A 
ATOM     13  C   UNL A   1      33.669  25.947  22.987  1.00  0.00     0.005 A 
ATOM     14  C   UNL A   1      33.747  26.172  25.368  1.00  0.00     0.005 A 
BRANCH  10  15
ATOM     15  C   UNL A   1      33.875  22.457  24.502  1.00  0.00    -0.018 A 
ATOM     16  C   UNL A   1      35.147  20.369  24.785  1.00  0.00    -0.026 A 
ATOM     17  C   UNL A   1      33.953  19.642  24.782  1.00  0.00     0.008 A 
ATOM     18  C   UNL A   1      35.096  21.767  24.643  1.00  0.00     0.016 A 
ATOM     19  C   UNL A   1      32.733  20.297  24.649  1.00  0.00     0.001 A 
ATOM     20  C   UNL A   1      32.698  21.686  24.502  1.00  0.00     0.009 A 
BRANCH  16  21
ATOM     21  C   UNL A   1      36.414  19.634  24.886  1.00  0.00     0.000 C 
ATOM     22  C   UNL A   1      37.621  20.212  24.910  1.00  0.00     0.009 C 
ENDBRANCH  16  21
ENDBRANCH  10  15
ENDBRANCH   7   9
ENDBRANCH   4   7
ENDBRANCH   2   3
ENDBRANCH   1   2
BRANCH   1  23
ATOM     23  C   UNL A   1      35.100  29.650  27.695  1.00  0.00     0.118 C 
BRANCH  23  24
ATOM     24  N   UNL A   1      35.227  30.450  28.907  1.00  0.00    -0.352 N 
ATOM     25  C   UNL A   1      36.269  30.576  29.794  1.00  0.00     0.251 C 
ATOM     26  H   UNL A   1      34.433  30.989  29.128  1.00  0.00     0.163 HD
ATOM     27  O   UNL A   1      36.070  31.138  30.869  1.00  0.00    -0.269 OA
BRANCH  25  28
ATOM     28  C   UNL A   1      37.614  30.038  29.483  1.00  0.00     0.039 A 
ATOM     29  C   UNL A   1      38.037  30.009  28.150  1.00  0.00     0.014 A 
ATOM     30  C   UNL A   1      38.441  29.520  30.482  1.00  0.00     0.014 A 
ATOM     31  C   UNL A   1      39.312  29.529  27.831  1.00  0.00     0.010 A 
ATOM     32  C   UNL A   1      39.739  29.115  30.175  1.00  0.00     0.010 A 
ATOM     33  C   UNL A   1      40.189  29.115  28.846  1.00  0.00    -0.014 A 
BRANCH  33  34
ATOM     34  C   UNL A   1      41.584  28.700  28.546  1.00  0.00     0.031 A 
ATOM     35  C   UNL A   1      42.699  29.712  28.551  1.00  0.00     0.074 A 
ATOM     36  C   UNL A   1      41.833  27.425  28.190  1.00  0.00     0.049 A 
ATOM     37  N   UNL A   1      43.960  29.553  28.239  1.00  0.00    -0.248 NA
ATOM     38  C   UNL A   1      42.343  31.088  28.931  1.00  0.00     0.031 C 
ATOM     39  C   UNL A   1      40.831  26.360  28.108  1.00  0.00     0.029 A 
ATOM     40  N   UNL A   1      43.001  26.808  27.820  1.00  0.00    -0.354 N 
ATOM     41  C   UNL A   1      44.541  30.810  28.361  1.00  0.00     0.074 A 
ATOM     42  C   UNL A   1      43.487  31.727  28.734  1.00  0.00     0.031 C 
ATOM     43  C   UNL A   1      41.432  25.217  27.742  1.00  0.00     0.029 A 
ATOM     44  C   UNL A   1      42.851  25.475  27.518  1.00  0.00     0.049 A 
ATOM     45  H   UNL A   1      43.867  27.276  27.773  1.00  0.00     0.167 HD
ATOM     46  C   UNL A   1      45.839  31.163  28.191  1.00  0.00     0.037 A 
ATOM     47  C   UNL A   1      43.751  24.564  27.101  1.00  0.00     0.037 A 
ATOM     48  C   UNL A   1      46.887  30.238  27.843  1.00  0.00     0.049 A 
ATOM     49  C   UNL A   1      45.180  24.981  26.901  1.00  0.00     0.074 A 
ATOM     50  C   UNL A   1      48.246  30.478  27.731  1.00  0.00     0.029 A 
ATOM     51  N   UNL A   1      46.693  28.898  27.537  1.00  0.00    -0.354 N 
ATOM     52  N   UNL A   1      45.729  26.157  27.094  1.00  0.00    -0.248 NA
ATOM     53  C   UNL A   1      46.113  23.952  26.421  1.00  0.00     0.031 C 
ATOM     54  C   UNL A   1      48.865  29.297  27.307  1.00  0.00     0.029 A 
ATOM     55  C   UNL A   1      47.900  28.308  27.201  1.00  0.00     0.049 A 
ATOM     56  H   UNL A   1      45.824  28.435  27.555  1.00  0.00     0.167 HD
ATOM     57  C   UNL A   1      47.076  26.005  26.781  1.00  0.00     0.074 A 
ATOM     58  C   UNL A   1      47.259  24.620  26.395  1.00  0.00     0.031 C 
ATOM     59  C   UNL A   1      48.068  26.928  26.814  1.00  0.00     0.037 A 
BRANCH  46  60
ATOM     60  C   UNL A   1      46.191  32.616  28.365  1.00  0.00     0.058 A 
ATOM     61  C   UNL A   1      46.107  33.533  27.304  1.00  0.00     0.135 A 
ATOM     62  C   UNL A   1      46.615  33.101  29.613  1.00  0.00     0.135 A 
ATOM     63  F   UNL A   1      45.717  33.124  26.086  1.00  0.00    -0.206 F 
ATOM     64  C   UNL A   1      46.477  34.865  27.461  1.00  0.00     0.059 A 
ATOM     65  C   UNL A   1      46.961  34.436  29.801  1.00  0.00     0.059 A 
ATOM     66  F   UNL A   1      46.709  32.271  30.664  1.00  0.00    -0.206 F 
ATOM     67  C   UNL A   1      46.910  35.306  28.712  1.00  0.00     0.060 A 
BRANCH  67  68
ATOM     68  S   UNL A   1      47.419  37.028  28.893  1.00  0.00     0.124 S 
ATOM     69  O   UNL A   1      46.624  37.676  27.855  1.00  0.00    -0.237 OA
ATOM     70  O   UNL A   1      47.029  37.328  30.267  1.00  0.00    -0.237 OA
ATOM     71  O   UNL A   1      48.856  36.987  28.648  1.00  0.00    -0.744 OA
ENDBRANCH  67  68
ENDBRANCH  46  60
BRANCH  47  72
ATOM     72  C   UNL A   1      43.325  23.157  26.878  1.00  0.00     0.058 A 
ATOM     73  C   UNL A   1      43.227  22.639  25.579  1.00  0.00     0.135 A 
ATOM     74  C   UNL A   1      43.055  22.292  27.950  1.00  0.00     0.135 A 
ATOM     75  F   UNL A   1      43.467  23.430  24.522  1.00  0.00    -0.206 F 
ATOM     76  C   UNL A   1      42.880  21.312  25.347  1.00  0.00     0.059 A 
ATOM     77  C   UNL A   1      42.728  20.955  27.745  1.00  0.00     0.059 A 
ATOM     78  F   UNL A   1      43.147  22.736  29.213  1.00  0.00    -0.206 F 
ATOM     79  C   UNL A   1      42.640  20.475  26.438  1.00  0.00     0.060 A 
BRANCH  79  80
ATOM     80  S   UNL A   1      42.272  18.735  26.130  1.00  0.00     0.124 S 
ATOM     81  O   UNL A   1      43.223  18.415  25.072  1.00  0.00    -0.237 OA
ATOM     82  O   UNL A   1      42.537  18.130  27.432  1.00  0.00    -0.237 OA
ATOM     83  O   UNL A   1      40.867  18.754  25.732  1.00  0.00    -0.744 OA
ENDBRANCH  79  80
ENDBRANCH  47  72
BRANCH  59  84
ATOM     84  C   UNL A   1      49.451  26.470  26.438  1.00  0.00     0.058 A 
ATOM     85  C   UNL A   1      49.966  26.667  25.147  1.00  0.00     0.135 A 
ATOM     86  C   UNL A   1      50.290  25.881  27.397  1.00  0.00     0.135 A 
ATOM     87  F   UNL A   1      49.200  27.216  24.191  1.00  0.00    -0.206 F 
ATOM     88  C   UNL A   1      51.260  26.282  24.816  1.00  0.00     0.059 A 
ATOM     89  C   UNL A   1      51.597  25.513  27.094  1.00  0.00     0.059 A 
ATOM     90  F   UNL A   1      49.850  25.678  28.648  1.00  0.00    -0.206 F 
ATOM     91  C   UNL A   1      52.071  25.709  25.798  1.00  0.00     0.060 A 
BRANCH  91  92
ATOM     92  S   UNL A   1      53.764  25.257  25.367  1.00  0.00     0.124 S 
ATOM     93  O   UNL A   1      53.714  23.802  25.461  1.00  0.00    -0.237 OA
ATOM     94  O   UNL A   1      53.900  25.801  24.019  1.00  0.00    -0.237 OA
ATOM     95  O   UNL A   1      54.566  25.927  26.388  1.00  0.00    -0.744 OA
ENDBRANCH  91  92
ENDBRANCH  59  84
ENDBRANCH  33  34
ENDBRANCH  25  28
ENDBRANCH  23  24
ENDBRANCH   1  23
TORSDOF 16
ENDMDL
MODEL 2
REMARK VINA RESULT:     -12.2      4.064     10.973
REMARK SMILES C=Cc1cccc(-c2ccc([C@@H](C)C(=O)NCCCNC(=O)c3ccc(-c4c5nc(c(-c6c(F)cc(S(=O)(=O)[O-])cc6F)c6ccc([nH]6)c(-c6c(F)cc(S(=O)(=O)[O-])cc6F)c6nc(c(-c7c(F)cc(S(=O)(=O)[O-])cc7F)c7ccc4[nH]7)C=C6)C=C5)cc3)cc2)c1
REMARK SMILES IDX 18 1 17 2 16 3 14 4 15 5 12 7 13 8 11 9 8 10 9 11 90 12
REMARK SMILES IDX 10 13 89 14 7 15 3 16 4 17 91 18 5 19 6 20 2 21 1 22 19 23
REMARK SMILES IDX 20 24 21 25 22 27 23 28 24 29 88 30 25 31 87 32 26 33 27 34
REMARK SMILES IDX 28 35 81 36 29 37 86 38 80 39 82 40 30 41 85 42 79 43 78 44
REMARK SMILES IDX 31 46 65 47 44 48 64 49 45 50 48 51 63 52 83 53 46 54 47 55
REMARK SMILES IDX 62 57 84 58 49 59 32 60 33 61 42 62 34 63 35 64 41 65 43 66
REMARK SMILES IDX 36 67 37 68 38 69 39 70 40 71 66 72 67 73 76 74 68 75 69 76
REMARK SMILES IDX 75 77 77 78 70 79 71 80 72 81 73 82 74 83 50 84 51 85 60 86
REMARK SMILES IDX 52 87 53 88 59 89 61 90 54 91 55 92 56 93 57 94 58 95
REMARK H PARENT 16 6 20 26 82 45 48 56
REMARK Flexibility Score: inf
ROOT
ATOM      1  C   UNL A   1      40.866  20.231  26.111  1.00  0.00     0.042 C 
ENDROOT
BRANCH   1   2
ATOM      2  C   UNL A   1      42.181  19.760  26.728  1.00  0.00     0.117 C 
BRANCH   2   3
ATOM      3  N   UNL A   1      43.325  20.029  25.878  1.00  0.00    -0.356 N 
ATOM      4  C   UNL A   1      43.858  21.190  25.408  1.00  0.00     0.227 C 
ATOM      5  O   UNL A   1      44.837  21.075  24.660  1.00  0.00    -0.274 OA
ATOM      6  H   UNL A   1      43.805  19.221  25.586  1.00  0.00     0.163 HD
BRANCH   4   7
ATOM      7  C   UNL A   1      43.334  22.588  25.767  1.00  0.00     0.105 C 
ATOM      8  C   UNL A   1      43.626  23.660  24.716  1.00  0.00     0.023 C 
BRANCH   7   9
ATOM      9  C   UNL A   1      43.597  22.987  27.210  1.00  0.00    -0.036 A 
ATOM     10  C   UNL A   1      44.153  23.907  29.864  1.00  0.00    -0.018 A 
ATOM     11  C   UNL A   1      42.850  23.591  29.447  1.00  0.00     0.009 A 
ATOM     12  C   UNL A   1      45.179  23.715  28.925  1.00  0.00     0.009 A 
ATOM     13  C   UNL A   1      42.582  23.107  28.160  1.00  0.00     0.005 A 
ATOM     14  C   UNL A   1      44.906  23.284  27.619  1.00  0.00     0.005 A 
BRANCH  10  15
ATOM     15  C   UNL A   1      44.415  24.427  31.227  1.00  0.00    -0.018 A 
ATOM     16  C   UNL A   1      44.964  26.282  32.749  1.00  0.00    -0.026 A 
ATOM     17  C   UNL A   1      44.866  25.416  33.840  1.00  0.00     0.008 A 
ATOM     18  C   UNL A   1      44.740  25.780  31.455  1.00  0.00     0.016 A 
ATOM     19  C   UNL A   1      44.542  24.076  33.647  1.00  0.00     0.001 A 
ATOM     20  C   UNL A   1      44.329  23.590  32.355  1.00  0.00     0.009 A 
BRANCH  16  21
ATOM     21  C   UNL A   1      45.350  27.677  32.994  1.00  0.00     0.000 C 
ATOM     22  C   UNL A   1      44.949  28.714  32.248  1.00  0.00     0.009 C 
ENDBRANCH  16  21
ENDBRANCH  10  15
ENDBRANCH   7   9
ENDBRANCH   4   7
ENDBRANCH   2   3
ENDBRANCH   1   2
BRANCH   1  23
ATOM     23  C   UNL A   1      40.114  21.251  26.957  1.00  0.00     0.118 C 
BRANCH  23  24
ATOM     24  N   UNL A   1      38.943  21.783  26.271  1.00  0.00    -0.352 N 
ATOM     25  C   UNL A   1      38.426  23.055  26.233  1.00  0.00     0.251 C 
ATOM     26  H   UNL A   1      38.438  21.119  25.748  1.00  0.00     0.163 HD
ATOM     27  O   UNL A   1      37.301  23.226  25.768  1.00  0.00    -0.269 OA
BRANCH  25  28
ATOM     28  C   UNL A   1      39.192  24.213  26.751  1.00  0.00     0.039 A 
ATOM     29  C   UNL A   1      40.014  24.926  25.873  1.00  0.00     0.014 A 
ATOM     30  C   UNL A   1      39.144  24.574  28.100  1.00  0.00     0.014 A 
ATOM     31  C   UNL A   1      40.729  26.038  26.331  1.00  0.00     0.010 A 
ATOM     32  C   UNL A   1      39.793  25.727  28.538  1.00  0.00     0.010 A 
ATOM     33  C   UNL A   1      40.592  26.471  27.658  1.00  0.00    -0.014 A 
BRANCH  33  34
ATOM     34  C   UNL A   1      41.256  27.710  28.143  1.00  0.00     0.031 A 
ATOM     35  C   UNL A   1      42.755  27.840  28.100  1.00  0.00     0.074 A 
ATOM     36  C   UNL A   1      40.511  28.686  28.698  1.00  0.00     0.049 A 
ATOM     37  N   UNL A   1      43.513  28.808  28.548  1.00  0.00    -0.248 NA
ATOM     38  C   UNL A   1      43.499  26.724  27.497  1.00  0.00     0.031 C 
ATOM     39  C   UNL A   1      39.053  28.660  28.836  1.00  0.00     0.029 A 
ATOM     40  N   UNL A   1      40.874  29.884  29.260  1.00  0.00    -0.354 N 
ATOM     41  C   UNL A   1      44.822  28.407  28.305  1.00  0.00     0.074 A 
ATOM     42  C   UNL A   1      44.755  27.091  27.708  1.00  0.00     0.031 C 
ATOM     43  C   UNL A   1      38.645  29.801  29.414  1.00  0.00     0.029 A 
ATOM     44  C   UNL A   1      39.811  30.618  29.731  1.00  0.00     0.049 A 
ATOM     45  H   UNL A   1      41.808  30.189  29.321  1.00  0.00     0.167 HD
ATOM     46  C   UNL A   1      45.973  29.082  28.544  1.00  0.00     0.037 A 
ATOM     47  C   UNL A   1      39.779  31.811  30.356  1.00  0.00     0.037 A 
ATOM     48  C   UNL A   1      46.029  30.403  29.116  1.00  0.00     0.049 A 
ATOM     49  C   UNL A   1      41.068  32.533  30.628  1.00  0.00     0.074 A 
ATOM     50  C   UNL A   1      47.137  31.207  29.319  1.00  0.00     0.029 A 
ATOM     51  N   UNL A   1      44.932  31.110  29.589  1.00  0.00    -0.354 N 
ATOM     52  N   UNL A   1      42.293  32.174  30.323  1.00  0.00    -0.248 NA
ATOM     53  C   UNL A   1      40.975  33.819  31.334  1.00  0.00     0.031 C 
ATOM     54  C   UNL A   1      46.716  32.377  29.962  1.00  0.00     0.029 A 
ATOM     55  C   UNL A   1      45.340  32.324  30.116  1.00  0.00     0.049 A 
ATOM     56  H   UNL A   1      44.000  30.794  29.555  1.00  0.00     0.167 HD
ATOM     57  C   UNL A   1      43.115  33.200  30.779  1.00  0.00     0.074 A 
ATOM     58  C   UNL A   1      42.246  34.196  31.373  1.00  0.00     0.031 C 
ATOM     59  C   UNL A   1      44.465  33.305  30.709  1.00  0.00     0.037 A 
BRANCH  46  60
ATOM     60  C   UNL A   1      47.266  28.393  28.200  1.00  0.00     0.058 A 
ATOM     61  C   UNL A   1      47.853  28.508  26.928  1.00  0.00     0.135 A 
ATOM     62  C   UNL A   1      47.931  27.609  29.156  1.00  0.00     0.135 A 
ATOM     63  F   UNL A   1      47.257  29.236  25.971  1.00  0.00    -0.206 F 
ATOM     64  C   UNL A   1      49.025  27.831  26.603  1.00  0.00     0.059 A 
ATOM     65  C   UNL A   1      49.121  26.947  28.862  1.00  0.00     0.059 A 
ATOM     66  F   UNL A   1      47.420  27.467  30.389  1.00  0.00    -0.206 F 
ATOM     67  C   UNL A   1      49.647  27.046  27.575  1.00  0.00     0.060 A 
BRANCH  67  68
ATOM     68  S   UNL A   1      51.148  26.148  27.129  1.00  0.00     0.124 S 
ATOM     69  O   UNL A   1      52.093  26.653  28.120  1.00  0.00    -0.237 OA
ATOM     70  O   UNL A   1      50.742  24.756  27.295  1.00  0.00    -0.237 OA
ATOM     71  O   UNL A   1      51.399  26.565  25.754  1.00  0.00    -0.744 OA
ENDBRANCH  67  68
ENDBRANCH  46  60
BRANCH  47  72
ATOM     72  C   UNL A   1      38.471  32.408  30.735  1.00  0.00     0.058 A 
ATOM     73  C   UNL A   1      37.760  33.202  29.822  1.00  0.00     0.135 A 
ATOM     74  C   UNL A   1      37.884  32.162  31.985  1.00  0.00     0.135 A 
ATOM     75  F   UNL A   1      38.285  33.472  28.618  1.00  0.00    -0.206 F 
ATOM     76  C   UNL A   1      36.511  33.729  30.134  1.00  0.00     0.059 A 
ATOM     77  C   UNL A   1      36.626  32.659  32.312  1.00  0.00     0.059 A 
ATOM     78  F   UNL A   1      38.519  31.398  32.888  1.00  0.00    -0.206 F 
ATOM     79  C   UNL A   1      35.949  33.445  31.380  1.00  0.00     0.060 A 
BRANCH  79  80
ATOM     80  S   UNL A   1      34.292  34.065  31.743  1.00  0.00     0.124 S 
ATOM     81  O   UNL A   1      33.728  32.963  32.514  1.00  0.00    -0.237 OA
ATOM     82  O   UNL A   1      34.578  35.286  32.490  1.00  0.00    -0.237 OA
ATOM     83  O   UNL A   1      33.713  34.272  30.419  1.00  0.00    -0.744 OA
ENDBRANCH  79  80
ENDBRANCH  47  72
BRANCH  59  84
ATOM     84  C   UNL A   1      45.090  34.551  31.273  1.00  0.00     0.058 A 
ATOM     85  C   UNL A   1      45.250  35.710  30.498  1.00  0.00     0.135 A 
ATOM     86  C   UNL A   1      45.481  34.604  32.621  1.00  0.00     0.135 A 
ATOM     87  F   UNL A   1      44.903  35.708  29.201  1.00  0.00    -0.206 F 
ATOM     88  C   UNL A   1      45.788  36.874  31.036  1.00  0.00     0.059 A 
ATOM     89  C   UNL A   1      45.997  35.766  33.186  1.00  0.00     0.059 A 
ATOM     90  F   UNL A   1      45.343  33.525  33.408  1.00  0.00    -0.206 F 
ATOM     91  C   UNL A   1      46.156  36.894  32.383  1.00  0.00     0.060 A 
BRANCH  91  92
ATOM     92  S   UNL A   1      46.810  38.425  33.079  1.00  0.00     0.124 S 
ATOM     93  O   UNL A   1      45.953  38.610  34.245  1.00  0.00    -0.237 OA
ATOM     94  O   UNL A   1      48.198  38.072  33.362  1.00  0.00    -0.237 OA
ATOM     95  O   UNL A   1      46.625  39.395  32.002  1.00  0.00    -0.744 OA
ENDBRANCH  91  92
ENDBRANCH  59  84
ENDBRANCH  33  34
ENDBRANCH  25  28
ENDBRANCH  23  24
ENDBRANCH   1  23
TORSDOF 16
ENDMDL
MODEL 3
REMARK VINA RESULT:     -12.2      4.887     11.746
REMARK SMILES C=Cc1cccc(-c2ccc([C@@H](C)C(=O)NCCCNC(=O)c3ccc(-c4c5nc(c(-c6c(F)cc(S(=O)(=O)[O-])cc6F)c6ccc([nH]6)c(-c6c(F)cc(S(=O)(=O)[O-])cc6F)c6nc(c(-c7c(F)cc(S(=O)(=O)[O-])cc7F)c7ccc4[nH]7)C=C6)C=C5)cc3)cc2)c1
REMARK SMILES IDX 18 1 17 2 16 3 14 4 15 5 12 7 13 8 11 9 8 10 9 11 90 12
REMARK SMILES IDX 10 13 89 14 7 15 3 16 4 17 91 18 5 19 6 20 2 21 1 22 19 23
REMARK SMILES IDX 20 24 21 25 22 27 23 28 24 29 88 30 25 31 87 32 26 33 27 34
REMARK SMILES IDX 28 35 81 36 29 37 86 38 80 39 82 40 30 41 85 42 79 43 78 44
REMARK SMILES IDX 31 46 65 47 44 48 64 49 45 50 48 51 63 52 83 53 46 54 47 55
REMARK SMILES IDX 62 57 84 58 49 59 32 60 33 61 42 62 34 63 35 64 41 65 43 66
REMARK SMILES IDX 36 67 37 68 38 69 39 70 40 71 66 72 67 73 76 74 68 75 69 76
REMARK SMILES IDX 75 77 77 78 70 79 71 80 72 81 73 82 74 83 50 84 51 85 60 86
REMARK SMILES IDX 52 87 53 88 59 89 61 90 54 91 55 92 56 93 57 94 58 95
REMARK H PARENT 16 6 20 26 82 45 48 56
REMARK Flexibility Score: inf
ROOT
ATOM      1  C   UNL A   1      41.176  20.179  27.248  1.00  0.00     0.042 C 
ENDROOT
BRANCH   1   2
ATOM      2  C   UNL A   1      41.529  19.368  26.003  1.00  0.00     0.117 C 
BRANCH   2   3
ATOM      3  N   UNL A   1      42.792  18.669  26.133  1.00  0.00    -0.356 N 
ATOM      4  C   UNL A   1      43.976  18.793  25.471  1.00  0.00     0.227 C 
ATOM      5  O   UNL A   1      44.870  18.005  25.804  1.00  0.00    -0.274 OA
ATOM      6  H   UNL A   1      42.795  17.974  26.830  1.00  0.00     0.163 HD
BRANCH   4   7
ATOM      7  C   UNL A   1      44.251  19.844  24.385  1.00  0.00     0.105 C 
ATOM      8  C   UNL A   1      45.289  19.418  23.346  1.00  0.00     0.023 C 
BRANCH   7   9
ATOM      9  C   UNL A   1      44.394  21.257  24.924  1.00  0.00    -0.036 A 
ATOM     10  C   UNL A   1      44.828  23.933  25.844  1.00  0.00    -0.018 A 
ATOM     11  C   UNL A   1      43.735  23.598  25.029  1.00  0.00     0.009 A 
ATOM     12  C   UNL A   1      45.681  22.883  26.218  1.00  0.00     0.009 A 
ATOM     13  C   UNL A   1      43.502  22.283  24.607  1.00  0.00     0.005 A 
ATOM     14  C   UNL A   1      45.480  21.575  25.752  1.00  0.00     0.005 A 
BRANCH  10  15
ATOM     15  C   UNL A   1      45.063  25.334  26.272  1.00  0.00    -0.018 A 
ATOM     16  C   UNL A   1      44.283  27.652  26.553  1.00  0.00    -0.026 A 
ATOM     17  C   UNL A   1      45.506  27.992  27.136  1.00  0.00     0.008 A 
ATOM     18  C   UNL A   1      44.075  26.329  26.125  1.00  0.00     0.016 A 
ATOM     19  C   UNL A   1      46.499  27.029  27.298  1.00  0.00     0.001 A 
ATOM     20  C   UNL A   1      46.280  25.721  26.863  1.00  0.00     0.009 A 
BRANCH  16  21
ATOM     21  C   UNL A   1      43.280  28.707  26.363  1.00  0.00     0.000 C 
ATOM     22  C   UNL A   1      43.375  29.939  26.877  1.00  0.00     0.009 C 
ENDBRANCH  16  21
ENDBRANCH  10  15
ENDBRANCH   7   9
ENDBRANCH   4   7
ENDBRANCH   2   3
ENDBRANCH   1   2
BRANCH   1  23
ATOM     23  C   UNL A   1      41.011  21.672  26.989  1.00  0.00     0.118 C 
BRANCH  23  24
ATOM     24  N   UNL A   1      39.824  21.967  26.195  1.00  0.00    -0.352 N 
ATOM     25  C   UNL A   1      39.004  23.070  26.182  1.00  0.00     0.251 C 
ATOM     26  H   UNL A   1      39.567  21.258  25.562  1.00  0.00     0.163 HD
ATOM     27  O   UNL A   1      37.931  23.006  25.587  1.00  0.00    -0.269 OA
BRANCH  25  28
ATOM     28  C   UNL A   1      39.385  24.320  26.881  1.00  0.00     0.039 A 
ATOM     29  C   UNL A   1      38.934  24.525  28.190  1.00  0.00     0.014 A 
ATOM     30  C   UNL A   1      40.139  25.310  26.247  1.00  0.00     0.014 A 
ATOM     31  C   UNL A   1      39.299  25.685  28.882  1.00  0.00     0.010 A 
ATOM     32  C   UNL A   1      40.567  26.427  26.962  1.00  0.00     0.010 A 
ATOM     33  C   UNL A   1      40.152  26.627  28.286  1.00  0.00    -0.014 A 
BRANCH  33  34
ATOM     34  C   UNL A   1      40.641  27.814  29.035  1.00  0.00     0.031 A 
ATOM     35  C   UNL A   1      42.005  27.808  29.670  1.00  0.00     0.074 A 
ATOM     36  C   UNL A   1      39.821  28.869  29.210  1.00  0.00     0.049 A 
ATOM     37  N   UNL A   1      42.570  28.716  30.424  1.00  0.00    -0.248 NA
ATOM     38  C   UNL A   1      42.833  26.612  29.450  1.00  0.00     0.031 C 
ATOM     39  C   UNL A   1      38.461  28.979  28.679  1.00  0.00     0.029 A 
ATOM     40  N   UNL A   1      40.004  30.045  29.892  1.00  0.00    -0.354 N 
ATOM     41  C   UNL A   1      43.805  28.192  30.788  1.00  0.00     0.074 A 
ATOM     42  C   UNL A   1      43.889  26.871  30.206  1.00  0.00     0.031 C 
ATOM     43  C   UNL A   1      37.945  30.168  29.030  1.00  0.00     0.029 A 
ATOM     44  C   UNL A   1      38.917  30.885  29.848  1.00  0.00     0.049 A 
ATOM     45  H   UNL A   1      40.837  30.267  30.370  1.00  0.00     0.167 HD
ATOM     46  C   UNL A   1      44.785  28.768  31.528  1.00  0.00     0.037 A 
ATOM     47  C   UNL A   1      38.720  32.095  30.409  1.00  0.00     0.037 A 
ATOM     48  C   UNL A   1      44.701  30.095  32.083  1.00  0.00     0.049 A 
ATOM     49  C   UNL A   1      39.812  32.705  31.240  1.00  0.00     0.074 A 
ATOM     50  C   UNL A   1      45.671  30.802  32.773  1.00  0.00     0.029 A 
ATOM     51  N   UNL A   1      43.580  30.911  32.024  1.00  0.00    -0.354 N 
ATOM     52  N   UNL A   1      41.004  32.229  31.511  1.00  0.00    -0.248 NA
ATOM     53  C   UNL A   1      39.533  34.014  31.847  1.00  0.00     0.031 C 
ATOM     54  C   UNL A   1      45.119  32.023  33.175  1.00  0.00     0.029 A 
ATOM     55  C   UNL A   1      43.821  32.098  32.695  1.00  0.00     0.049 A 
ATOM     56  H   UNL A   1      42.737  30.679  31.571  1.00  0.00     0.167 HD
ATOM     57  C   UNL A   1      41.627  33.190  32.302  1.00  0.00     0.074 A 
ATOM     58  C   UNL A   1      40.682  34.277  32.457  1.00  0.00     0.031 C 
ATOM     59  C   UNL A   1      42.869  33.171  32.846  1.00  0.00     0.037 A 
BRANCH  46  60
ATOM     60  C   UNL A   1      46.024  27.955  31.790  1.00  0.00     0.058 A 
ATOM     61  C   UNL A   1      47.167  28.061  30.979  1.00  0.00     0.135 A 
ATOM     62  C   UNL A   1      46.073  27.061  32.872  1.00  0.00     0.135 A 
ATOM     63  F   UNL A   1      47.173  28.892  29.925  1.00  0.00    -0.206 F 
ATOM     64  C   UNL A   1      48.292  27.273  31.200  1.00  0.00     0.059 A 
ATOM     65  C   UNL A   1      47.200  26.285  33.130  1.00  0.00     0.059 A 
ATOM     66  F   UNL A   1      45.013  26.923  33.684  1.00  0.00    -0.206 F 
ATOM     67  C   UNL A   1      48.297  26.382  32.274  1.00  0.00     0.060 A 
BRANCH  67  68
ATOM     68  S   UNL A   1      49.750  25.343  32.530  1.00  0.00     0.124 S 
ATOM     69  O   UNL A   1      50.085  24.971  31.159  1.00  0.00    -0.237 OA
ATOM     70  O   UNL A   1      50.681  26.260  33.181  1.00  0.00    -0.237 OA
ATOM     71  O   UNL A   1      49.252  24.260  33.370  1.00  0.00    -0.744 OA
ENDBRANCH  67  68
ENDBRANCH  46  60
BRANCH  47  72
ATOM     72  C   UNL A   1      37.443  32.818  30.168  1.00  0.00     0.058 A 
ATOM     73  C   UNL A   1      37.327  33.723  29.104  1.00  0.00     0.135 A 
ATOM     74  C   UNL A   1      36.307  32.587  30.959  1.00  0.00     0.135 A 
ATOM     75  F   UNL A   1      38.389  33.983  28.326  1.00  0.00    -0.206 F 
ATOM     76  C   UNL A   1      36.129  34.373  28.828  1.00  0.00     0.059 A 
ATOM     77  C   UNL A   1      35.091  33.207  30.689  1.00  0.00     0.059 A 
ATOM     78  F   UNL A   1      36.364  31.720  31.981  1.00  0.00    -0.206 F 
ATOM     79  C   UNL A   1      35.013  34.102  29.622  1.00  0.00     0.060 A 
BRANCH  79  80
ATOM     80  S   UNL A   1      33.442  34.887  29.204  1.00  0.00     0.124 S 
ATOM     81  O   UNL A   1      32.884  33.938  28.248  1.00  0.00    -0.237 OA
ATOM     82  O   UNL A   1      32.777  34.952  30.502  1.00  0.00    -0.237 OA
ATOM     83  O   UNL A   1      33.847  36.177  28.652  1.00  0.00    -0.744 OA
ENDBRANCH  79  80
ENDBRANCH  47  72
BRANCH  59  84
ATOM     84  C   UNL A   1      43.289  34.371  33.649  1.00  0.00     0.058 A 
ATOM     85  C   UNL A   1      44.054  35.404  33.083  1.00  0.00     0.135 A 
ATOM     86  C   UNL A   1      42.873  34.518  34.982  1.00  0.00     0.135 A 
ATOM     87  F   UNL A   1      44.486  35.307  31.816  1.00  0.00    -0.206 F 
ATOM     88  C   UNL A   1      44.403  36.533  33.815  1.00  0.00     0.059 A 
ATOM     89  C   UNL A   1      43.189  35.652  35.724  1.00  0.00     0.059 A 
ATOM     90  F   UNL A   1      42.133  33.564  35.568  1.00  0.00    -0.206 F 
ATOM     91  C   UNL A   1      43.962  36.651  35.135  1.00  0.00     0.060 A 
BRANCH  91  92
ATOM     92  S   UNL A   1      44.384  38.143  36.059  1.00  0.00     0.124 S 
ATOM     93  O   UNL A   1      45.841  38.077  36.077  1.00  0.00    -0.237 OA
ATOM     94  O   UNL A   1      43.806  39.197  35.231  1.00  0.00    -0.237 OA
ATOM     95  O   UNL A   1      43.729  37.940  37.349  1.00  0.00    -0.744 OA
ENDBRANCH  91  92
ENDBRANCH  59  84
ENDBRANCH  33  34
ENDBRANCH  25  28
ENDBRANCH  23  24
ENDBRANCH   1  23
TORSDOF 16
ENDMDL
