MODEL 1
REMARK VINA RESULT:     -13.4      0.000      0.000
REMARK SMILES Cc1cc2cc(-c3ccc([C@@H](C)C(=O)NCCCNC(=O)c4ccc(-c5c6nc(c(-c7c(F)cc(S(=O)(=O)[O-])cc7F)c7ccc([nH]7)c(-c7c(F)cc(S(=O)(=O)[O-])cc7F)c7nc(c(-c8c(F)cc(S(=O)(=O)[O-])cc8F)c8ccc5[nH]8)C=C7)C=C6)cc4)cc3)ccc2[nH]1
REMARK SMILES IDX 17 1 16 2 15 3 13 4 14 5 11 7 12 8 10 9 7 10 8 11 89 12 9 13
REMARK SMILES IDX 88 14 6 15 1 16 2 17 3 18 93 19 4 20 92 21 5 23 91 24 90 25
REMARK SMILES IDX 18 26 19 27 20 28 21 30 22 31 23 32 87 33 24 34 86 35 25 36
REMARK SMILES IDX 26 37 27 38 80 39 28 40 85 41 79 42 81 43 29 44 84 45 78 46
REMARK SMILES IDX 77 47 30 49 64 50 43 51 63 52 44 53 47 54 62 55 82 56 45 57
REMARK SMILES IDX 46 58 61 60 83 61 48 62 31 63 32 64 41 65 33 66 34 67 40 68
REMARK SMILES IDX 42 69 35 70 36 71 37 72 38 73 39 74 65 75 66 76 75 77 67 78
REMARK SMILES IDX 68 79 74 80 76 81 69 82 70 83 71 84 72 85 73 86 49 87 50 88
REMARK SMILES IDX 59 89 51 90 52 91 58 92 60 93 53 94 54 95 55 96 56 97 57 98
REMARK H PARENT 15 6 93 22 19 29 81 48 47 59
REMARK Flexibility Score: inf
ROOT
ATOM      1  C   UNL A   1      37.685  23.279  25.408  1.00  0.00     0.042 C 
ENDROOT
BRANCH   1   2
ATOM      2  C   UNL A   1      37.456  21.780  25.592  1.00  0.00     0.117 C 
BRANCH   2   3
ATOM      3  N   UNL A   1      36.196  21.329  25.032  1.00  0.00    -0.356 N 
ATOM      4  C   UNL A   1      34.901  21.559  25.384  1.00  0.00     0.227 C 
ATOM      5  O   UNL A   1      34.040  21.000  24.690  1.00  0.00    -0.274 OA
ATOM      6  H   UNL A   1      36.295  20.745  24.246  1.00  0.00     0.163 HD
BRANCH   4   7
ATOM      7  C   UNL A   1      34.465  22.461  26.550  1.00  0.00     0.105 C 
ATOM      8  C   UNL A   1      33.823  21.714  27.720  1.00  0.00     0.023 C 
BRANCH   7   9
ATOM      9  C   UNL A   1      33.742  23.718  26.098  1.00  0.00    -0.036 A 
ATOM     10  C   UNL A   1      32.395  26.141  25.431  1.00  0.00    -0.018 A 
ATOM     11  C   UNL A   1      33.720  25.899  25.038  1.00  0.00     0.009 A 
ATOM     12  C   UNL A   1      31.745  25.128  26.149  1.00  0.00     0.009 A 
ATOM     13  C   UNL A   1      34.366  24.698  25.328  1.00  0.00     0.005 A 
ATOM     14  C   UNL A   1      32.414  23.943  26.493  1.00  0.00     0.005 A 
BRANCH  10  15
ATOM     15  C   UNL A   1      31.736  27.413  25.069  1.00  0.00    -0.018 A 
ATOM     16  C   UNL A   1      27.999  31.130  21.954  1.00  0.00     0.064 C 
ATOM     17  C   UNL A   1      28.947  30.290  22.725  1.00  0.00     0.013 A 
ATOM     18  C   UNL A   1      29.173  28.933  22.672  1.00  0.00     0.031 A 
ATOM     19  N   UNL A   1      29.799  30.815  23.665  1.00  0.00    -0.359 N 
ATOM     20  C   UNL A   1      30.148  28.621  23.648  1.00  0.00     0.000 A 
ATOM     21  C   UNL A   1      30.528  29.809  24.262  1.00  0.00     0.046 A 
ATOM     22  H   UNL A   1      29.878  31.772  23.881  1.00  0.00     0.166 HD
ATOM     23  C   UNL A   1      30.748  27.422  24.064  1.00  0.00     0.019 A 
ATOM     24  C   UNL A   1      31.488  29.852  25.278  1.00  0.00     0.027 A 
ATOM     25  C   UNL A   1      32.082  28.638  25.664  1.00  0.00     0.011 A 
ENDBRANCH  10  15
ENDBRANCH   7   9
ENDBRANCH   4   7
ENDBRANCH   2   3
ENDBRANCH   1   2
BRANCH   1  26
ATOM     26  C   UNL A   1      38.541  23.921  26.493  1.00  0.00     0.118 C 
BRANCH  26  27
ATOM     27  N   UNL A   1      39.967  23.790  26.225  1.00  0.00    -0.352 N 
ATOM     28  C   UNL A   1      41.030  24.579  26.596  1.00  0.00     0.251 C 
ATOM     29  H   UNL A   1      40.211  23.004  25.684  1.00  0.00     0.163 HD
ATOM     30  O   UNL A   1      42.121  24.384  26.067  1.00  0.00    -0.269 OA
BRANCH  28  31
ATOM     31  C   UNL A   1      40.883  25.657  27.603  1.00  0.00     0.039 A 
ATOM     32  C   UNL A   1      39.780  25.623  28.465  1.00  0.00     0.014 A 
ATOM     33  C   UNL A   1      41.777  26.728  27.673  1.00  0.00     0.014 A 
ATOM     34  C   UNL A   1      39.616  26.620  29.433  1.00  0.00     0.010 A 
ATOM     35  C   UNL A   1      41.655  27.679  28.686  1.00  0.00     0.010 A 
ATOM     36  C   UNL A   1      40.572  27.636  29.577  1.00  0.00    -0.014 A 
BRANCH  36  37
ATOM     37  C   UNL A   1      40.467  28.648  30.662  1.00  0.00     0.031 A 
ATOM     38  C   UNL A   1      41.358  28.566  31.874  1.00  0.00     0.074 A 
ATOM     39  C   UNL A   1      39.521  29.606  30.584  1.00  0.00     0.049 A 
ATOM     40  N   UNL A   1      41.362  29.315  32.948  1.00  0.00    -0.248 NA
ATOM     41  C   UNL A   1      42.361  27.490  31.892  1.00  0.00     0.031 C 
ATOM     42  C   UNL A   1      38.569  29.767  29.481  1.00  0.00     0.029 A 
ATOM     43  N   UNL A   1      39.196  30.621  31.449  1.00  0.00    -0.354 N 
ATOM     44  C   UNL A   1      42.351  28.792  33.774  1.00  0.00     0.074 A 
ATOM     45  C   UNL A   1      42.898  27.637  33.095  1.00  0.00     0.031 C 
ATOM     46  C   UNL A   1      37.791  30.835  29.723  1.00  0.00     0.029 A 
ATOM     47  C   UNL A   1      38.155  31.407  31.014  1.00  0.00     0.049 A 
ATOM     48  H   UNL A   1      39.665  30.772  32.302  1.00  0.00     0.167 HD
ATOM     49  C   UNL A   1      42.777  29.246  34.977  1.00  0.00     0.037 A 
ATOM     50  C   UNL A   1      37.556  32.465  31.594  1.00  0.00     0.037 A 
ATOM     51  C   UNL A   1      42.250  30.415  35.633  1.00  0.00     0.049 A 
ATOM     52  C   UNL A   1      38.038  32.937  32.939  1.00  0.00     0.074 A 
ATOM     53  C   UNL A   1      42.664  30.995  36.821  1.00  0.00     0.029 A 
ATOM     54  N   UNL A   1      41.197  31.183  35.161  1.00  0.00    -0.354 N 
ATOM     55  N   UNL A   1      39.017  32.468  33.675  1.00  0.00    -0.248 NA
ATOM     56  C   UNL A   1      37.333  34.081  33.534  1.00  0.00     0.031 C 
ATOM     57  C   UNL A   1      41.830  32.086  37.090  1.00  0.00     0.029 A 
ATOM     58  C   UNL A   1      40.928  32.215  36.046  1.00  0.00     0.049 A 
ATOM     59  H   UNL A   1      40.710  31.019  34.321  1.00  0.00     0.167 HD
ATOM     60  C   UNL A   1      39.064  33.277  34.805  1.00  0.00     0.074 A 
ATOM     61  C   UNL A   1      38.023  34.272  34.649  1.00  0.00     0.031 C 
ATOM     62  C   UNL A   1      39.893  33.203  35.875  1.00  0.00     0.037 A 
BRANCH  49  63
ATOM     63  C   UNL A   1      43.875  28.483  35.668  1.00  0.00     0.058 A 
ATOM     64  C   UNL A   1      45.229  28.774  35.444  1.00  0.00     0.135 A 
ATOM     65  C   UNL A   1      43.567  27.489  36.612  1.00  0.00     0.135 A 
ATOM     66  F   UNL A   1      45.580  29.706  34.542  1.00  0.00    -0.206 F 
ATOM     67  C   UNL A   1      46.241  28.094  36.113  1.00  0.00     0.059 A 
ATOM     68  C   UNL A   1      44.563  26.813  37.314  1.00  0.00     0.059 A 
ATOM     69  F   UNL A   1      42.289  27.170  36.866  1.00  0.00    -0.206 F 
ATOM     70  C   UNL A   1      45.898  27.116  37.048  1.00  0.00     0.060 A 
BRANCH  70  71
ATOM     71  S   UNL A   1      47.223  26.258  37.925  1.00  0.00     0.124 S 
ATOM     72  O   UNL A   1      48.058  25.805  36.817  1.00  0.00    -0.237 OA
ATOM     73  O   UNL A   1      47.790  27.320  38.752  1.00  0.00    -0.237 OA
ATOM     74  O   UNL A   1      46.524  25.206  38.654  1.00  0.00    -0.744 OA
ENDBRANCH  70  71
ENDBRANCH  49  63
BRANCH  50  75
ATOM     75  C   UNL A   1      36.448  33.175  30.898  1.00  0.00     0.058 A 
ATOM     76  C   UNL A   1      36.709  33.985  29.782  1.00  0.00     0.135 A 
ATOM     77  C   UNL A   1      35.120  33.080  31.339  1.00  0.00     0.135 A 
ATOM     78  F   UNL A   1      37.964  34.113  29.326  1.00  0.00    -0.206 F 
ATOM     79  C   UNL A   1      35.701  34.701  29.149  1.00  0.00     0.059 A 
ATOM     80  C   UNL A   1      34.088  33.762  30.700  1.00  0.00     0.059 A 
ATOM     81  F   UNL A   1      34.814  32.309  32.394  1.00  0.00    -0.206 F 
ATOM     82  C   UNL A   1      34.392  34.587  29.619  1.00  0.00     0.060 A 
BRANCH  82  83
ATOM     83  S   UNL A   1      33.102  35.540  28.787  1.00  0.00     0.124 S 
ATOM     84  O   UNL A   1      33.889  36.540  28.075  1.00  0.00    -0.237 OA
ATOM     85  O   UNL A   1      32.456  34.525  27.963  1.00  0.00    -0.237 OA
ATOM     86  O   UNL A   1      32.294  36.050  29.889  1.00  0.00    -0.744 OA
ENDBRANCH  82  83
ENDBRANCH  50  75
BRANCH  62  87
ATOM     87  C   UNL A   1      39.730  34.242  36.948  1.00  0.00     0.058 A 
ATOM     88  C   UNL A   1      39.023  33.976  38.131  1.00  0.00     0.135 A 
ATOM     89  C   UNL A   1      40.326  35.506  36.810  1.00  0.00     0.135 A 
ATOM     90  F   UNL A   1      38.426  32.787  38.307  1.00  0.00    -0.206 F 
ATOM     91  C   UNL A   1      38.894  34.934  39.131  1.00  0.00     0.059 A 
ATOM     92  C   UNL A   1      40.233  36.470  37.810  1.00  0.00     0.059 A 
ATOM     93  F   UNL A   1      41.022  35.809  35.703  1.00  0.00    -0.206 F 
ATOM     94  C   UNL A   1      39.505  36.179  38.962  1.00  0.00     0.060 A 
BRANCH  94  95
ATOM     95  S   UNL A   1      39.358  37.400  40.282  1.00  0.00     0.124 S 
ATOM     96  O   UNL A   1      38.667  36.636  41.315  1.00  0.00    -0.237 OA
ATOM     97  O   UNL A   1      40.752  37.728  40.563  1.00  0.00    -0.237 OA
ATOM     98  O   UNL A   1      38.580  38.472  39.668  1.00  0.00    -0.744 OA
ENDBRANCH  94  95
ENDBRANCH  62  87
ENDBRANCH  36  37
ENDBRANCH  28  31
ENDBRANCH  26  27
ENDBRANCH   1  26
TORSDOF 15
ENDMDL
MODEL 2
REMARK VINA RESULT:     -13.3      6.650     12.418
REMARK SMILES Cc1cc2cc(-c3ccc([C@@H](C)C(=O)NCCCNC(=O)c4ccc(-c5c6nc(c(-c7c(F)cc(S(=O)(=O)[O-])cc7F)c7ccc([nH]7)c(-c7c(F)cc(S(=O)(=O)[O-])cc7F)c7nc(c(-c8c(F)cc(S(=O)(=O)[O-])cc8F)c8ccc5[nH]8)C=C7)C=C6)cc4)cc3)ccc2[nH]1
REMARK SMILES IDX 17 1 16 2 15 3 13 4 14 5 11 7 12 8 10 9 7 10 8 11 89 12 9 13
REMARK SMILES IDX 88 14 6 15 1 16 2 17 3 18 93 19 4 20 92 21 5 23 91 24 90 25
REMARK SMILES IDX 18 26 19 27 20 28 21 30 22 31 23 32 87 33 24 34 86 35 25 36
REMARK SMILES IDX 26 37 27 38 80 39 28 40 85 41 79 42 81 43 29 44 84 45 78 46
REMARK SMILES IDX 77 47 30 49 64 50 43 51 63 52 44 53 47 54 62 55 82 56 45 57
REMARK SMILES IDX 46 58 61 60 83 61 48 62 31 63 32 64 41 65 33 66 34 67 40 68
REMARK SMILES IDX 42 69 35 70 36 71 37 72 38 73 39 74 65 75 66 76 75 77 67 78
REMARK SMILES IDX 68 79 74 80 76 81 69 82 70 83 71 84 72 85 73 86 49 87 50 88
REMARK SMILES IDX 59 89 51 90 52 91 58 92 60 93 53 94 54 95 55 96 56 97 57 98
REMARK H PARENT 15 6 93 22 19 29 81 48 47 59
REMARK Flexibility Score: inf
ROOT
ATOM      1  C   UNL A   1      33.749  29.094  27.329  1.00  0.00     0.042 C 
ENDROOT
BRANCH   1   2
ATOM      2  C   UNL A   1      33.014  29.958  26.305  1.00  0.00     0.117 C 
BRANCH   2   3
ATOM      3  N   UNL A   1      31.995  29.225  25.578  1.00  0.00    -0.356 N 
ATOM      4  C   UNL A   1      32.055  28.390  24.504  1.00  0.00     0.227 C 
ATOM      5  O   UNL A   1      30.975  27.929  24.111  1.00  0.00    -0.274 OA
ATOM      6  H   UNL A   1      31.084  29.355  25.928  1.00  0.00     0.163 HD
BRANCH   4   7
ATOM      7  C   UNL A   1      33.354  27.990  23.788  1.00  0.00     0.105 C 
ATOM      8  C   UNL A   1      33.500  28.562  22.377  1.00  0.00     0.023 C 
BRANCH   7   9
ATOM      9  C   UNL A   1      33.691  26.517  23.935  1.00  0.00    -0.036 A 
ATOM     10  C   UNL A   1      34.156  23.727  24.303  1.00  0.00    -0.018 A 
ATOM     11  C   UNL A   1      33.838  24.264  23.047  1.00  0.00     0.009 A 
ATOM     12  C   UNL A   1      34.260  24.624  25.375  1.00  0.00     0.009 A 
ATOM     13  C   UNL A   1      33.652  25.634  22.858  1.00  0.00     0.005 A 
ATOM     14  C   UNL A   1      34.014  25.994  25.197  1.00  0.00     0.005 A 
BRANCH  10  15
ATOM     15  C   UNL A   1      34.383  22.274  24.450  1.00  0.00    -0.018 A 
ATOM     16  C   UNL A   1      32.901  16.337  24.646  1.00  0.00     0.064 C 
ATOM     17  C   UNL A   1      33.320  17.759  24.642  1.00  0.00     0.013 A 
ATOM     18  C   UNL A   1      32.592  18.896  24.369  1.00  0.00     0.031 A 
ATOM     19  N   UNL A   1      34.600  18.151  24.950  1.00  0.00    -0.359 N 
ATOM     20  C   UNL A   1      33.472  20.002  24.457  1.00  0.00     0.000 A 
ATOM     21  C   UNL A   1      34.724  19.518  24.819  1.00  0.00     0.046 A 
ATOM     22  H   UNL A   1      35.323  17.544  25.224  1.00  0.00     0.166 HD
ATOM     23  C   UNL A   1      33.309  21.382  24.262  1.00  0.00     0.019 A 
ATOM     24  C   UNL A   1      35.827  20.359  24.997  1.00  0.00     0.027 A 
ATOM     25  C   UNL A   1      35.631  21.738  24.810  1.00  0.00     0.011 A 
ENDBRANCH  10  15
ENDBRANCH   7   9
ENDBRANCH   4   7
ENDBRANCH   2   3
ENDBRANCH   1   2
BRANCH   1  26
ATOM     26  C   UNL A   1      35.147  29.592  27.679  1.00  0.00     0.118 C 
BRANCH  26  27
ATOM     27  N   UNL A   1      35.195  30.235  28.986  1.00  0.00    -0.352 N 
ATOM     28  C   UNL A   1      36.227  30.375  29.883  1.00  0.00     0.251 C 
ATOM     29  H   UNL A   1      34.344  30.637  29.275  1.00  0.00     0.163 HD
ATOM     30  O   UNL A   1      35.970  30.771  31.018  1.00  0.00    -0.269 OA
BRANCH  28  31
ATOM     31  C   UNL A   1      37.626  30.051  29.516  1.00  0.00     0.039 A 
ATOM     32  C   UNL A   1      38.536  29.758  30.538  1.00  0.00     0.014 A 
ATOM     33  C   UNL A   1      38.068  30.087  28.191  1.00  0.00     0.014 A 
ATOM     34  C   UNL A   1      39.862  29.438  30.226  1.00  0.00     0.010 A 
ATOM     35  C   UNL A   1      39.368  29.695  27.875  1.00  0.00     0.010 A 
ATOM     36  C   UNL A   1      40.281  29.366  28.889  1.00  0.00    -0.014 A 
BRANCH  36  37
ATOM     37  C   UNL A   1      41.659  28.934  28.532  1.00  0.00     0.031 A 
ATOM     38  C   UNL A   1      42.789  29.929  28.498  1.00  0.00     0.074 A 
ATOM     39  C   UNL A   1      41.878  27.652  28.176  1.00  0.00     0.049 A 
ATOM     40  N   UNL A   1      44.036  29.750  28.144  1.00  0.00    -0.248 NA
ATOM     41  C   UNL A   1      42.472  31.311  28.892  1.00  0.00     0.031 C 
ATOM     42  C   UNL A   1      40.858  26.600  28.129  1.00  0.00     0.029 A 
ATOM     43  N   UNL A   1      43.026  27.013  27.778  1.00  0.00    -0.354 N 
ATOM     44  C   UNL A   1      44.647  30.994  28.255  1.00  0.00     0.074 A 
ATOM     45  C   UNL A   1      43.624  31.929  28.670  1.00  0.00     0.031 C 
ATOM     46  C   UNL A   1      41.433  25.445  27.756  1.00  0.00     0.029 A 
ATOM     47  C   UNL A   1      42.847  25.679  27.494  1.00  0.00     0.049 A 
ATOM     48  H   UNL A   1      43.896  27.469  27.702  1.00  0.00     0.167 HD
ATOM     49  C   UNL A   1      45.945  31.322  28.050  1.00  0.00     0.037 A 
ATOM     50  C   UNL A   1      43.724  24.752  27.063  1.00  0.00     0.037 A 
ATOM     51  C   UNL A   1      46.966  30.380  27.667  1.00  0.00     0.049 A 
ATOM     52  C   UNL A   1      45.157  25.148  26.826  1.00  0.00     0.074 A 
ATOM     53  C   UNL A   1      48.323  30.603  27.503  1.00  0.00     0.029 A 
ATOM     54  N   UNL A   1      46.746  29.041  27.388  1.00  0.00    -0.354 N 
ATOM     55  N   UNL A   1      45.728  26.316  26.998  1.00  0.00    -0.248 NA
ATOM     56  C   UNL A   1      46.064  24.101  26.335  1.00  0.00     0.031 C 
ATOM     57  C   UNL A   1      48.915  29.408  27.080  1.00  0.00     0.029 A 
ATOM     58  C   UNL A   1      47.936  28.429  27.027  1.00  0.00     0.049 A 
ATOM     59  H   UNL A   1      45.872  28.589  27.438  1.00  0.00     0.167 HD
ATOM     60  C   UNL A   1      47.067  26.137  26.664  1.00  0.00     0.074 A 
ATOM     61  C   UNL A   1      47.221  24.745  26.293  1.00  0.00     0.031 C 
ATOM     62  C   UNL A   1      48.076  27.041  26.666  1.00  0.00     0.037 A 
BRANCH  49  63
ATOM     63  C   UNL A   1      46.347  32.760  28.240  1.00  0.00     0.058 A 
ATOM     64  C   UNL A   1      46.236  33.699  27.204  1.00  0.00     0.135 A 
ATOM     65  C   UNL A   1      46.792  33.217  29.492  1.00  0.00     0.135 A 
ATOM     66  F   UNL A   1      45.829  33.314  25.983  1.00  0.00    -0.206 F 
ATOM     67  C   UNL A   1      46.571  35.036  27.393  1.00  0.00     0.059 A 
ATOM     68  C   UNL A   1      47.108  34.555  29.712  1.00  0.00     0.059 A 
ATOM     69  F   UNL A   1      46.916  32.361  30.519  1.00  0.00    -0.206 F 
ATOM     70  C   UNL A   1      47.004  35.455  28.653  1.00  0.00     0.060 A 
BRANCH  70  71
ATOM     71  S   UNL A   1      47.414  37.197  28.887  1.00  0.00     0.124 S 
ATOM     72  O   UNL A   1      47.059  37.758  27.587  1.00  0.00    -0.237 OA
ATOM     73  O   UNL A   1      46.546  37.576  29.998  1.00  0.00    -0.237 OA
ATOM     74  O   UNL A   1      48.841  37.174  29.192  1.00  0.00    -0.744 OA
ENDBRANCH  70  71
ENDBRANCH  49  63
BRANCH  50  75
ATOM     75  C   UNL A   1      43.286  23.346  26.850  1.00  0.00     0.058 A 
ATOM     76  C   UNL A   1      43.049  22.499  27.944  1.00  0.00     0.135 A 
ATOM     77  C   UNL A   1      43.114  22.814  25.563  1.00  0.00     0.135 A 
ATOM     78  F   UNL A   1      43.204  22.960  29.194  1.00  0.00    -0.206 F 
ATOM     79  C   UNL A   1      42.692  21.167  27.770  1.00  0.00     0.059 A 
ATOM     80  C   UNL A   1      42.725  21.492  25.366  1.00  0.00     0.059 A 
ATOM     81  F   UNL A   1      43.316  23.585  24.483  1.00  0.00    -0.206 F 
ATOM     82  C   UNL A   1      42.537  20.671  26.476  1.00  0.00     0.060 A 
BRANCH  82  83
ATOM     83  S   UNL A   1      42.087  18.933  26.278  1.00  0.00     0.124 S 
ATOM     84  O   UNL A   1      42.250  18.431  27.637  1.00  0.00    -0.237 OA
ATOM     85  O   UNL A   1      40.716  19.026  25.789  1.00  0.00    -0.237 OA
ATOM     86  O   UNL A   1      43.058  18.439  25.309  1.00  0.00    -0.744 OA
ENDBRANCH  82  83
ENDBRANCH  50  75
BRANCH  62  87
ATOM     87  C   UNL A   1      49.444  26.551  26.281  1.00  0.00     0.058 A 
ATOM     88  C   UNL A   1      49.970  26.767  24.998  1.00  0.00     0.135 A 
ATOM     89  C   UNL A   1      50.254  25.895  27.222  1.00  0.00     0.135 A 
ATOM     90  F   UNL A   1      49.231  27.379  24.060  1.00  0.00    -0.206 F 
ATOM     91  C   UNL A   1      51.245  26.329  24.654  1.00  0.00     0.059 A 
ATOM     92  C   UNL A   1      51.544  25.474  26.907  1.00  0.00     0.059 A 
ATOM     93  F   UNL A   1      49.803  25.672  28.466  1.00  0.00    -0.206 F 
ATOM     94  C   UNL A   1      52.025  25.686  25.616  1.00  0.00     0.060 A 
BRANCH  94  95
ATOM     95  S   UNL A   1      53.691  25.155  25.166  1.00  0.00     0.124 S 
ATOM     96  O   UNL A   1      53.768  25.580  23.773  1.00  0.00    -0.237 OA
ATOM     97  O   UNL A   1      54.522  25.904  26.103  1.00  0.00    -0.237 OA
ATOM     98  O   UNL A   1      53.657  23.712  25.382  1.00  0.00    -0.744 OA
ENDBRANCH  94  95
ENDBRANCH  62  87
ENDBRANCH  36  37
ENDBRANCH  28  31
ENDBRANCH  26  27
ENDBRANCH   1  26
TORSDOF 15
ENDMDL
MODEL 3
REMARK VINA RESULT:     -13.1      6.778     12.109
REMARK SMILES Cc1cc2cc(-c3ccc([C@@H](C)C(=O)NCCCNC(=O)c4ccc(-c5c6nc(c(-c7c(F)cc(S(=O)(=O)[O-])cc7F)c7ccc([nH]7)c(-c7c(F)cc(S(=O)(=O)[O-])cc7F)c7nc(c(-c8c(F)cc(S(=O)(=O)[O-])cc8F)c8ccc5[nH]8)C=C7)C=C6)cc4)cc3)ccc2[nH]1
REMARK SMILES IDX 17 1 16 2 15 3 13 4 14 5 11 7 12 8 10 9 7 10 8 11 89 12 9 13
REMARK SMILES IDX 88 14 6 15 1 16 2 17 3 18 93 19 4 20 92 21 5 23 91 24 90 25
REMARK SMILES IDX 18 26 19 27 20 28 21 30 22 31 23 32 87 33 24 34 86 35 25 36
REMARK SMILES IDX 26 37 27 38 80 39 28 40 85 41 79 42 81 43 29 44 84 45 78 46
REMARK SMILES IDX 77 47 30 49 64 50 43 51 63 52 44 53 47 54 62 55 82 56 45 57
REMARK SMILES IDX 46 58 61 60 83 61 48 62 31 63 32 64 41 65 33 66 34 67 40 68
REMARK SMILES IDX 42 69 35 70 36 71 37 72 38 73 39 74 65 75 66 76 75 77 67 78
REMARK SMILES IDX 68 79 74 80 76 81 69 82 70 83 71 84 72 85 73 86 49 87 50 88
REMARK SMILES IDX 59 89 51 90 52 91 58 92 60 93 53 94 54 95 55 96 56 97 57 98
REMARK H PARENT 15 6 93 22 19 29 81 48 47 59
REMARK Flexibility Score: inf
ROOT
ATOM      1  C   UNL A   1      34.006  29.208  27.389  1.00  0.00     0.042 C 
ENDROOT
BRANCH   1   2
ATOM      2  C   UNL A   1      33.271  30.191  26.479  1.00  0.00     0.117 C 
BRANCH   2   3
ATOM      3  N   UNL A   1      32.221  29.562  25.701  1.00  0.00    -0.356 N 
ATOM      4  C   UNL A   1      32.251  28.707  24.641  1.00  0.00     0.227 C 
ATOM      5  O   UNL A   1      31.150  28.361  24.190  1.00  0.00    -0.274 OA
ATOM      6  H   UNL A   1      31.312  29.797  25.995  1.00  0.00     0.163 HD
BRANCH   4   7
ATOM      7  C   UNL A   1      33.537  28.156  24.006  1.00  0.00     0.105 C 
ATOM      8  C   UNL A   1      33.845  28.714  22.616  1.00  0.00     0.023 C 
BRANCH   7   9
ATOM      9  C   UNL A   1      33.681  26.651  24.155  1.00  0.00    -0.036 A 
ATOM     10  C   UNL A   1      34.120  23.840  24.341  1.00  0.00    -0.018 A 
ATOM     11  C   UNL A   1      34.232  24.681  25.458  1.00  0.00     0.009 A 
ATOM     12  C   UNL A   1      33.758  24.434  23.125  1.00  0.00     0.009 A 
ATOM     13  C   UNL A   1      33.977  26.050  25.377  1.00  0.00     0.005 A 
ATOM     14  C   UNL A   1      33.560  25.820  23.030  1.00  0.00     0.005 A 
BRANCH  10  15
ATOM     15  C   UNL A   1      34.362  22.388  24.482  1.00  0.00    -0.018 A 
ATOM     16  C   UNL A   1      32.935  16.438  24.690  1.00  0.00     0.064 C 
ATOM     17  C   UNL A   1      33.341  17.864  24.683  1.00  0.00     0.013 A 
ATOM     18  C   UNL A   1      32.599  18.995  24.424  1.00  0.00     0.031 A 
ATOM     19  N   UNL A   1      34.623  18.267  24.969  1.00  0.00    -0.359 N 
ATOM     20  C   UNL A   1      33.470  20.108  24.499  1.00  0.00     0.000 A 
ATOM     21  C   UNL A   1      34.733  19.634  24.840  1.00  0.00     0.046 A 
ATOM     22  H   UNL A   1      35.356  17.665  25.230  1.00  0.00     0.166 HD
ATOM     23  C   UNL A   1      33.292  21.487  24.310  1.00  0.00     0.019 A 
ATOM     24  C   UNL A   1      35.831  20.485  25.001  1.00  0.00     0.027 A 
ATOM     25  C   UNL A   1      35.620  21.863  24.820  1.00  0.00     0.011 A 
ENDBRANCH  10  15
ENDBRANCH   7   9
ENDBRANCH   4   7
ENDBRANCH   2   3
ENDBRANCH   1   2
BRANCH   1  26
ATOM     26  C   UNL A   1      35.387  29.676  27.832  1.00  0.00     0.118 C 
BRANCH  26  27
ATOM     27  N   UNL A   1      35.465  29.890  29.271  1.00  0.00    -0.352 N 
ATOM     28  C   UNL A   1      36.512  29.740  30.149  1.00  0.00     0.251 C 
ATOM     29  H   UNL A   1      34.625  30.194  29.685  1.00  0.00     0.163 HD
ATOM     30  O   UNL A   1      36.278  29.773  31.355  1.00  0.00    -0.269 OA
BRANCH  28  31
ATOM     31  C   UNL A   1      37.900  29.527  29.674  1.00  0.00     0.039 A 
ATOM     32  C   UNL A   1      38.883  29.184  30.609  1.00  0.00     0.014 A 
ATOM     33  C   UNL A   1      38.259  29.718  28.337  1.00  0.00     0.014 A 
ATOM     34  C   UNL A   1      40.202  28.967  30.193  1.00  0.00     0.010 A 
ATOM     35  C   UNL A   1      39.555  29.428  27.911  1.00  0.00     0.010 A 
ATOM     36  C   UNL A   1      40.542  29.050  28.835  1.00  0.00    -0.014 A 
BRANCH  36  37
ATOM     37  C   UNL A   1      41.915  28.728  28.360  1.00  0.00     0.031 A 
ATOM     38  C   UNL A   1      42.270  27.325  27.941  1.00  0.00     0.074 A 
ATOM     39  C   UNL A   1      42.860  29.689  28.369  1.00  0.00     0.049 A 
ATOM     40  N   UNL A   1      43.428  26.844  27.567  1.00  0.00    -0.248 NA
ATOM     41  C   UNL A   1      41.188  26.329  27.964  1.00  0.00     0.031 C 
ATOM     42  C   UNL A   1      42.652  31.077  28.793  1.00  0.00     0.029 A 
ATOM     43  N   UNL A   1      44.187  29.648  28.021  1.00  0.00    -0.354 N 
ATOM     44  C   UNL A   1      43.220  25.490  27.328  1.00  0.00     0.074 A 
ATOM     45  C   UNL A   1      41.833  25.217  27.639  1.00  0.00     0.031 C 
ATOM     46  C   UNL A   1      43.801  31.759  28.650  1.00  0.00     0.029 A 
ATOM     47  C   UNL A   1      44.836  30.852  28.169  1.00  0.00     0.049 A 
ATOM     48  H   UNL A   1      44.633  28.832  27.696  1.00  0.00     0.167 HD
ATOM     49  C   UNL A   1      44.098  24.565  26.873  1.00  0.00     0.037 A 
ATOM     50  C   UNL A   1      46.123  31.185  27.949  1.00  0.00     0.037 A 
ATOM     51  C   UNL A   1      45.470  24.850  26.535  1.00  0.00     0.049 A 
ATOM     52  C   UNL A   1      47.081  30.133  27.459  1.00  0.00     0.074 A 
ATOM     53  C   UNL A   1      46.419  23.995  26.000  1.00  0.00     0.029 A 
ATOM     54  N   UNL A   1      46.088  26.079  26.699  1.00  0.00    -0.354 N 
ATOM     55  N   UNL A   1      46.849  28.873  27.179  1.00  0.00    -0.248 NA
ATOM     56  C   UNL A   1      48.477  30.546  27.258  1.00  0.00     0.031 C 
ATOM     57  C   UNL A   1      47.624  24.696  25.884  1.00  0.00     0.029 A 
ATOM     58  C   UNL A   1      47.414  26.000  26.302  1.00  0.00     0.049 A 
ATOM     59  H   UNL A   1      45.652  26.890  27.048  1.00  0.00     0.167 HD
ATOM     60  C   UNL A   1      48.062  28.352  26.741  1.00  0.00     0.074 A 
ATOM     61  C   UNL A   1      49.021  29.436  26.782  1.00  0.00     0.031 C 
ATOM     62  C   UNL A   1      48.356  27.090  26.342  1.00  0.00     0.037 A 
BRANCH  49  63
ATOM     63  C   UNL A   1      43.608  23.153  26.703  1.00  0.00     0.058 A 
ATOM     64  C   UNL A   1      43.385  22.598  25.434  1.00  0.00     0.135 A 
ATOM     65  C   UNL A   1      43.416  22.324  27.822  1.00  0.00     0.135 A 
ATOM     66  F   UNL A   1      43.540  23.348  24.331  1.00  0.00    -0.206 F 
ATOM     67  C   UNL A   1      42.970  21.279  25.278  1.00  0.00     0.059 A 
ATOM     68  C   UNL A   1      43.026  20.994  27.689  1.00  0.00     0.059 A 
ATOM     69  F   UNL A   1      43.616  22.804  29.060  1.00  0.00    -0.206 F 
ATOM     70  C   UNL A   1      42.795  20.484  26.412  1.00  0.00     0.060 A 
BRANCH  70  71
ATOM     71  S   UNL A   1      42.276  18.769  26.192  1.00  0.00     0.124 S 
ATOM     72  O   UNL A   1      42.458  18.235  27.538  1.00  0.00    -0.237 OA
ATOM     73  O   UNL A   1      40.892  18.915  25.751  1.00  0.00    -0.237 OA
ATOM     74  O   UNL A   1      43.200  18.260  25.184  1.00  0.00    -0.744 OA
ENDBRANCH  70  71
ENDBRANCH  49  63
BRANCH  50  75
ATOM     75  C   UNL A   1      46.582  32.584  28.161  1.00  0.00     0.058 A 
ATOM     76  C   UNL A   1      47.140  32.974  29.388  1.00  0.00     0.135 A 
ATOM     77  C   UNL A   1      46.458  33.560  27.161  1.00  0.00     0.135 A 
ATOM     78  F   UNL A   1      47.274  32.078  30.377  1.00  0.00    -0.206 F 
ATOM     79  C   UNL A   1      47.526  34.286  29.630  1.00  0.00     0.059 A 
ATOM     80  C   UNL A   1      46.869  34.875  27.369  1.00  0.00     0.059 A 
ATOM     81  F   UNL A   1      45.943  33.238  25.964  1.00  0.00    -0.206 F 
ATOM     82  C   UNL A   1      47.382  35.232  28.614  1.00  0.00     0.060 A 
BRANCH  82  83
ATOM     83  S   UNL A   1      47.878  36.934  28.959  1.00  0.00     0.124 S 
ATOM     84  O   UNL A   1      46.919  37.687  28.160  1.00  0.00    -0.237 OA
ATOM     85  O   UNL A   1      47.712  37.015  30.405  1.00  0.00    -0.237 OA
ATOM     86  O   UNL A   1      49.258  36.986  28.490  1.00  0.00    -0.744 OA
ENDBRANCH  82  83
ENDBRANCH  50  75
BRANCH  62  87
ATOM     87  C   UNL A   1      49.763  26.819  25.888  1.00  0.00     0.058 A 
ATOM     88  C   UNL A   1      50.169  27.058  24.566  1.00  0.00     0.135 A 
ATOM     89  C   UNL A   1      50.726  26.355  26.798  1.00  0.00     0.135 A 
ATOM     90  F   UNL A   1      49.284  27.491  23.655  1.00  0.00    -0.206 F 
ATOM     91  C   UNL A   1      51.478  26.825  24.157  1.00  0.00     0.059 A 
ATOM     92  C   UNL A   1      52.048  26.142  26.416  1.00  0.00     0.059 A 
ATOM     93  F   UNL A   1      50.392  26.120  28.077  1.00  0.00    -0.206 F 
ATOM     94  C   UNL A   1      52.411  26.369  25.090  1.00  0.00     0.060 A 
BRANCH  94  95
ATOM     95  S   UNL A   1      54.114  26.105  24.553  1.00  0.00     0.124 S 
ATOM     96  O   UNL A   1      54.005  26.317  23.114  1.00  0.00    -0.237 OA
ATOM     97  O   UNL A   1      54.839  27.134  25.292  1.00  0.00    -0.237 OA
ATOM     98  O   UNL A   1      54.392  24.733  24.967  1.00  0.00    -0.744 OA
ENDBRANCH  94  95
ENDBRANCH  62  87
ENDBRANCH  36  37
ENDBRANCH  28  31
ENDBRANCH  26  27
ENDBRANCH   1  26
TORSDOF 15
ENDMDL
