MODEL 1
REMARK VINA RESULT:     -12.0      0.000      0.000
REMARK SMILES CC1=C(C)C[C@@H](C(=O)NCc2cccnc2)[C@H](C(=O)NCCCNC(=O)c2ccc(-c3c4nc(c(-c5c(F)cc(S(=O)(=O)[O-])cc5F)c5ccc([nH]5)c(-c5c(F)cc(S(=O)(=O)[O-])cc5F)c5nc(c(-c6c(F)cc(S(=O)(=O)[O-])cc6F)c6ccc3[nH]6)C=C5)C=C4)cc2)C1
REMARK SMILES IDX 22 1 21 2 20 3 18 4 19 5 17 7 1 8 2 9 3 10 93 11 4 12 5 13
REMARK SMILES IDX 6 14 7 15 8 16 9 17 10 19 11 20 12 21 16 22 13 23 15 24
REMARK SMILES IDX 14 25 23 26 24 27 25 28 26 30 27 31 28 32 92 33 29 34 91 35
REMARK SMILES IDX 30 36 31 37 32 38 85 39 33 40 90 41 84 42 86 43 34 44 89 45
REMARK SMILES IDX 83 46 82 47 35 49 69 50 48 51 68 52 49 53 52 54 67 55 87 56
REMARK SMILES IDX 50 57 51 58 66 60 88 61 53 62 36 63 37 64 46 65 38 66 39 67
REMARK SMILES IDX 45 68 47 69 40 70 41 71 42 72 43 73 44 74 70 75 71 76 80 77
REMARK SMILES IDX 72 78 73 79 79 80 81 81 74 82 75 83 76 84 77 85 78 86 54 87
REMARK SMILES IDX 55 88 64 89 56 90 57 91 63 92 65 93 58 94 59 95 60 96 61 97
REMARK SMILES IDX 62 98
REMARK H PARENT 20 6 9 18 24 29 86 48 52 59
REMARK Flexibility Score: inf
ROOT
ATOM      1  C   UNL A   1      33.294  27.439  26.401  1.00  0.00     0.042 C 
ENDROOT
BRANCH   1   2
ATOM      2  C   UNL A   1      32.381  26.676  25.461  1.00  0.00     0.117 C 
BRANCH   2   3
ATOM      3  N   UNL A   1      33.058  26.206  24.274  1.00  0.00    -0.356 N 
ATOM      4  C   UNL A   1      33.783  25.076  24.059  1.00  0.00     0.224 C 
ATOM      5  O   UNL A   1      34.172  24.872  22.905  1.00  0.00    -0.275 OA
ATOM      6  H   UNL A   1      32.983  26.802  23.494  1.00  0.00     0.163 HD
BRANCH   4   7
ATOM      7  C   UNL A   1      34.137  24.090  25.177  1.00  0.00     0.095 C 
ATOM      8  C   UNL A   1      37.891  23.936  26.333  1.00  0.00     0.039 C 
ATOM      9  C   UNL A   1      36.604  23.432  25.728  1.00  0.00    -0.074 C 
ATOM     10  C   UNL A   1      36.476  22.252  25.083  1.00  0.00    -0.074 C 
ATOM     11  C   UNL A   1      35.467  24.425  25.859  1.00  0.00     0.045 C 
ATOM     12  C   UNL A   1      37.605  21.284  24.818  1.00  0.00     0.039 C 
ATOM     13  C   UNL A   1      35.166  21.780  24.491  1.00  0.00     0.045 C 
ATOM     14  C   UNL A   1      33.923  22.642  24.726  1.00  0.00     0.095 C 
BRANCH  14  15
ATOM     15  C   UNL A   1      32.879  21.931  25.588  1.00  0.00     0.224 C 
ATOM     16  O   UNL A   1      32.597  22.377  26.705  1.00  0.00    -0.275 OA
ATOM     17  N   UNL A   1      32.233  20.800  25.214  1.00  0.00    -0.352 N 
ATOM     18  H   UNL A   1      31.601  20.463  25.889  1.00  0.00     0.163 HD
BRANCH  17  19
ATOM     19  C   UNL A   1      32.292  19.993  24.015  1.00  0.00     0.153 C 
BRANCH  19  20
ATOM     20  C   UNL A   1      32.776  18.588  24.235  1.00  0.00    -0.010 A 
ATOM     21  C   UNL A   1      33.413  17.817  23.258  1.00  0.00     0.009 A 
ATOM     22  C   UNL A   1      32.618  18.006  25.493  1.00  0.00     0.116 A 
ATOM     23  C   UNL A   1      33.855  16.532  23.567  1.00  0.00     0.020 A 
ATOM     24  N   UNL A   1      33.037  16.762  25.822  1.00  0.00    -0.264 NA
ATOM     25  C   UNL A   1      33.649  16.055  24.849  1.00  0.00     0.111 A 
ENDBRANCH  19  20
ENDBRANCH  17  19
ENDBRANCH  14  15
ENDBRANCH   4   7
ENDBRANCH   2   3
ENDBRANCH   1   2
BRANCH   1  26
ATOM     26  C   UNL A   1      34.087  28.519  25.689  1.00  0.00     0.118 C 
BRANCH  26  27
ATOM     27  N   UNL A   1      33.771  29.852  26.194  1.00  0.00    -0.352 N 
ATOM     28  C   UNL A   1      34.323  30.558  27.231  1.00  0.00     0.251 C 
ATOM     29  H   UNL A   1      33.047  30.318  25.714  1.00  0.00     0.163 HD
ATOM     30  O   UNL A   1      33.759  31.569  27.646  1.00  0.00    -0.269 OA
BRANCH  28  31
ATOM     31  C   UNL A   1      35.581  30.096  27.848  1.00  0.00     0.039 A 
ATOM     32  C   UNL A   1      36.796  30.393  27.226  1.00  0.00     0.014 A 
ATOM     33  C   UNL A   1      35.560  29.370  29.041  1.00  0.00     0.014 A 
ATOM     34  C   UNL A   1      37.990  30.018  27.840  1.00  0.00     0.010 A 
ATOM     35  C   UNL A   1      36.747  29.101  29.706  1.00  0.00     0.010 A 
ATOM     36  C   UNL A   1      37.975  29.405  29.104  1.00  0.00    -0.014 A 
BRANCH  36  37
ATOM     37  C   UNL A   1      39.231  29.054  29.811  1.00  0.00     0.031 A 
ATOM     38  C   UNL A   1      39.647  29.833  31.030  1.00  0.00     0.074 A 
ATOM     39  C   UNL A   1      40.023  28.083  29.315  1.00  0.00     0.049 A 
ATOM     40  N   UNL A   1      40.740  29.731  31.740  1.00  0.00    -0.248 NA
ATOM     41  C   UNL A   1      38.729  30.888  31.493  1.00  0.00     0.031 C 
ATOM     42  C   UNL A   1      39.751  27.304  28.104  1.00  0.00     0.029 A 
ATOM     43  N   UNL A   1      41.224  27.593  29.759  1.00  0.00    -0.354 N 
ATOM     44  C   UNL A   1      40.645  30.712  32.721  1.00  0.00     0.074 A 
ATOM     45  C   UNL A   1      39.425  31.445  32.472  1.00  0.00     0.031 C 
ATOM     46  C   UNL A   1      40.740  26.416  27.919  1.00  0.00     0.029 A 
ATOM     47  C   UNL A   1      41.738  26.593  28.969  1.00  0.00     0.049 A 
ATOM     48  H   UNL A   1      41.676  27.926  30.568  1.00  0.00     0.167 HD
ATOM     49  C   UNL A   1      41.484  30.959  33.754  1.00  0.00     0.037 A 
ATOM     50  C   UNL A   1      42.891  25.903  29.074  1.00  0.00     0.037 A 
ATOM     51  C   UNL A   1      42.686  30.206  34.003  1.00  0.00     0.049 A 
ATOM     52  C   UNL A   1      43.810  26.195  30.228  1.00  0.00     0.074 A 
ATOM     53  C   UNL A   1      43.582  30.338  35.049  1.00  0.00     0.029 A 
ATOM     54  N   UNL A   1      43.161  29.183  33.196  1.00  0.00    -0.354 N 
ATOM     55  N   UNL A   1      43.671  27.082  31.187  1.00  0.00    -0.248 NA
ATOM     56  C   UNL A   1      45.034  25.391  30.324  1.00  0.00     0.031 C 
ATOM     57  C   UNL A   1      44.623  29.428  34.847  1.00  0.00     0.029 A 
ATOM     58  C   UNL A   1      44.347  28.688  33.708  1.00  0.00     0.049 A 
ATOM     59  H   UNL A   1      42.719  28.856  32.378  1.00  0.00     0.167 HD
ATOM     60  C   UNL A   1      44.779  26.925  32.012  1.00  0.00     0.074 A 
ATOM     61  C   UNL A   1      45.566  25.846  31.450  1.00  0.00     0.031 C 
ATOM     62  C   UNL A   1      45.113  27.608  33.135  1.00  0.00     0.037 A 
BRANCH  49  63
ATOM     63  C   UNL A   1      41.123  32.075  34.696  1.00  0.00     0.058 A 
ATOM     64  C   UNL A   1      40.328  31.854  35.832  1.00  0.00     0.135 A 
ATOM     65  C   UNL A   1      41.604  33.377  34.480  1.00  0.00     0.135 A 
ATOM     66  F   UNL A   1      39.826  30.634  36.080  1.00  0.00    -0.206 F 
ATOM     67  C   UNL A   1      39.998  32.887  36.704  1.00  0.00     0.059 A 
ATOM     68  C   UNL A   1      41.313  34.419  35.356  1.00  0.00     0.059 A 
ATOM     69  F   UNL A   1      42.366  33.648  33.408  1.00  0.00    -0.206 F 
ATOM     70  C   UNL A   1      40.498  34.166  36.459  1.00  0.00     0.060 A 
BRANCH  70  71
ATOM     71  S   UNL A   1      40.070  35.490  37.608  1.00  0.00     0.124 S 
ATOM     72  O   UNL A   1      38.836  34.977  38.197  1.00  0.00    -0.237 OA
ATOM     73  O   UNL A   1      41.229  35.520  38.494  1.00  0.00    -0.237 OA
ATOM     74  O   UNL A   1      39.914  36.655  36.743  1.00  0.00    -0.744 OA
ENDBRANCH  70  71
ENDBRANCH  49  63
BRANCH  50  75
ATOM     75  C   UNL A   1      43.227  24.859  28.067  1.00  0.00     0.058 A 
ATOM     76  C   UNL A   1      43.889  25.188  26.876  1.00  0.00     0.135 A 
ATOM     77  C   UNL A   1      42.907  23.509  28.285  1.00  0.00     0.135 A 
ATOM     78  F   UNL A   1      44.215  26.465  26.620  1.00  0.00    -0.206 F 
ATOM     79  C   UNL A   1      44.205  24.223  25.925  1.00  0.00     0.059 A 
ATOM     80  C   UNL A   1      43.239  22.521  27.363  1.00  0.00     0.059 A 
ATOM     81  F   UNL A   1      42.291  23.137  29.418  1.00  0.00    -0.206 F 
ATOM     82  C   UNL A   1      43.878  22.890  26.180  1.00  0.00     0.060 A 
BRANCH  82  83
ATOM     83  S   UNL A   1      44.335  21.638  24.961  1.00  0.00     0.124 S 
ATOM     84  O   UNL A   1      44.155  22.366  23.710  1.00  0.00    -0.237 OA
ATOM     85  O   UNL A   1      45.713  21.336  25.334  1.00  0.00    -0.237 OA
ATOM     86  O   UNL A   1      43.377  20.563  25.209  1.00  0.00    -0.744 OA
ENDBRANCH  82  83
ENDBRANCH  50  75
BRANCH  62  87
ATOM     87  C   UNL A   1      46.368  27.189  33.852  1.00  0.00     0.058 A 
ATOM     88  C   UNL A   1      47.608  27.790  33.588  1.00  0.00     0.135 A 
ATOM     89  C   UNL A   1      46.315  26.208  34.856  1.00  0.00     0.135 A 
ATOM     90  F   UNL A   1      47.715  28.728  32.634  1.00  0.00    -0.206 F 
ATOM     91  C   UNL A   1      48.756  27.416  34.276  1.00  0.00     0.059 A 
ATOM     92  C   UNL A   1      47.444  25.842  35.579  1.00  0.00     0.059 A 
ATOM     93  F   UNL A   1      45.151  25.609  35.157  1.00  0.00    -0.206 F 
ATOM     94  C   UNL A   1      48.665  26.442  35.273  1.00  0.00     0.060 A 
BRANCH  94  95
ATOM     95  S   UNL A   1      50.157  25.990  36.181  1.00  0.00     0.124 S 
ATOM     96  O   UNL A   1      50.993  25.443  35.117  1.00  0.00    -0.237 OA
ATOM     97  O   UNL A   1      50.587  27.273  36.730  1.00  0.00    -0.237 OA
ATOM     98  O   UNL A   1      49.679  25.022  37.163  1.00  0.00    -0.744 OA
ENDBRANCH  94  95
ENDBRANCH  62  87
ENDBRANCH  36  37
ENDBRANCH  28  31
ENDBRANCH  26  27
ENDBRANCH   1  26
TORSDOF 16
ENDMDL
MODEL 2
REMARK VINA RESULT:     -11.9      4.609     10.359
REMARK SMILES CC1=C(C)C[C@@H](C(=O)NCc2cccnc2)[C@H](C(=O)NCCCNC(=O)c2ccc(-c3c4nc(c(-c5c(F)cc(S(=O)(=O)[O-])cc5F)c5ccc([nH]5)c(-c5c(F)cc(S(=O)(=O)[O-])cc5F)c5nc(c(-c6c(F)cc(S(=O)(=O)[O-])cc6F)c6ccc3[nH]6)C=C5)C=C4)cc2)C1
REMARK SMILES IDX 22 1 21 2 20 3 18 4 19 5 17 7 1 8 2 9 3 10 93 11 4 12 5 13
REMARK SMILES IDX 6 14 7 15 8 16 9 17 10 19 11 20 12 21 16 22 13 23 15 24
REMARK SMILES IDX 14 25 23 26 24 27 25 28 26 30 27 31 28 32 92 33 29 34 91 35
REMARK SMILES IDX 30 36 31 37 32 38 85 39 33 40 90 41 84 42 86 43 34 44 89 45
REMARK SMILES IDX 83 46 82 47 35 49 69 50 48 51 68 52 49 53 52 54 67 55 87 56
REMARK SMILES IDX 50 57 51 58 66 60 88 61 53 62 36 63 37 64 46 65 38 66 39 67
REMARK SMILES IDX 45 68 47 69 40 70 41 71 42 72 43 73 44 74 70 75 71 76 80 77
REMARK SMILES IDX 72 78 73 79 79 80 81 81 74 82 75 83 76 84 77 85 78 86 54 87
REMARK SMILES IDX 55 88 64 89 56 90 57 91 63 92 65 93 58 94 59 95 60 96 61 97
REMARK SMILES IDX 62 98
REMARK H PARENT 20 6 9 18 24 29 86 48 52 59
REMARK Flexibility Score: inf
ROOT
ATOM      1  C   UNL A   1      34.923  23.116  25.975  1.00  0.00     0.042 C 
ENDROOT
BRANCH   1   2
ATOM      2  C   UNL A   1      33.884  23.883  25.182  1.00  0.00     0.117 C 
BRANCH   2   3
ATOM      3  N   UNL A   1      32.801  24.379  26.000  1.00  0.00    -0.356 N 
ATOM      4  C   UNL A   1      32.248  25.619  26.077  1.00  0.00     0.224 C 
ATOM      5  O   UNL A   1      31.255  25.745  26.800  1.00  0.00    -0.275 OA
ATOM      6  H   UNL A   1      32.400  23.712  26.602  1.00  0.00     0.163 HD
BRANCH   4   7
ATOM      7  C   UNL A   1      32.816  26.831  25.331  1.00  0.00     0.095 C 
ATOM      8  C   UNL A   1      34.906  29.425  27.418  1.00  0.00     0.039 C 
ATOM      9  C   UNL A   1      33.756  28.924  26.580  1.00  0.00    -0.074 C 
ATOM     10  C   UNL A   1      32.630  29.627  26.333  1.00  0.00    -0.074 C 
ATOM     11  C   UNL A   1      33.964  27.505  26.090  1.00  0.00     0.045 C 
ATOM     12  C   UNL A   1      32.322  30.993  26.900  1.00  0.00     0.039 C 
ATOM     13  C   UNL A   1      31.498  29.090  25.484  1.00  0.00     0.045 C 
ATOM     14  C   UNL A   1      31.695  27.733  24.806  1.00  0.00     0.095 C 
BRANCH  14  15
ATOM     15  C   UNL A   1      31.731  27.847  23.281  1.00  0.00     0.224 C 
ATOM     16  O   UNL A   1      32.784  27.632  22.673  1.00  0.00    -0.275 OA
ATOM     17  N   UNL A   1      30.662  28.195  22.524  1.00  0.00    -0.352 N 
ATOM     18  H   UNL A   1      30.855  28.235  21.560  1.00  0.00     0.163 HD
BRANCH  17  19
ATOM     19  C   UNL A   1      29.292  28.521  22.858  1.00  0.00     0.153 C 
BRANCH  19  20
ATOM     20  C   UNL A   1      28.913  29.952  22.604  1.00  0.00    -0.010 A 
ATOM     21  C   UNL A   1      29.043  30.976  23.546  1.00  0.00     0.009 A 
ATOM     22  C   UNL A   1      28.428  30.310  21.345  1.00  0.00     0.116 A 
ATOM     23  C   UNL A   1      28.693  32.281  23.205  1.00  0.00     0.020 A 
ATOM     24  N   UNL A   1      28.081  31.568  20.986  1.00  0.00    -0.264 NA
ATOM     25  C   UNL A   1      28.225  32.525  21.926  1.00  0.00     0.111 A 
ENDBRANCH  19  20
ENDBRANCH  17  19
ENDBRANCH  14  15
ENDBRANCH   4   7
ENDBRANCH   2   3
ENDBRANCH   1   2
BRANCH   1  26
ATOM     26  C   UNL A   1      36.331  23.630  25.736  1.00  0.00     0.118 C 
BRANCH  26  27
ATOM     27  N   UNL A   1      37.337  22.599  25.972  1.00  0.00    -0.352 N 
ATOM     28  C   UNL A   1      38.661  22.717  26.310  1.00  0.00     0.251 C 
ATOM     29  H   UNL A   1      37.016  21.673  25.872  1.00  0.00     0.163 HD
ATOM     30  O   UNL A   1      39.398  21.736  26.232  1.00  0.00    -0.269 OA
BRANCH  28  31
ATOM     31  C   UNL A   1      39.193  24.020  26.753  1.00  0.00     0.039 A 
ATOM     32  C   UNL A   1      39.099  24.372  28.101  1.00  0.00     0.014 A 
ATOM     33  C   UNL A   1      39.785  24.892  25.837  1.00  0.00     0.014 A 
ATOM     34  C   UNL A   1      39.661  25.572  28.537  1.00  0.00     0.010 A 
ATOM     35  C   UNL A   1      40.443  26.026  26.290  1.00  0.00     0.010 A 
ATOM     36  C   UNL A   1      40.373  26.388  27.641  1.00  0.00    -0.014 A 
BRANCH  36  37
ATOM     37  C   UNL A   1      41.037  27.637  28.089  1.00  0.00     0.031 A 
ATOM     38  C   UNL A   1      42.535  27.756  28.012  1.00  0.00     0.074 A 
ATOM     39  C   UNL A   1      40.297  28.627  28.624  1.00  0.00     0.049 A 
ATOM     40  N   UNL A   1      43.307  28.729  28.421  1.00  0.00    -0.248 NA
ATOM     41  C   UNL A   1      43.267  26.618  27.428  1.00  0.00     0.031 C 
ATOM     42  C   UNL A   1      38.843  28.595  28.805  1.00  0.00     0.029 A 
ATOM     43  N   UNL A   1      40.665  29.849  29.125  1.00  0.00    -0.354 N 
ATOM     44  C   UNL A   1      44.607  28.316  28.155  1.00  0.00     0.074 A 
ATOM     45  C   UNL A   1      44.527  26.977  27.618  1.00  0.00     0.031 C 
ATOM     46  C   UNL A   1      38.441  29.754  29.350  1.00  0.00     0.029 A 
ATOM     47  C   UNL A   1      39.609  30.592  29.598  1.00  0.00     0.049 A 
ATOM     48  H   UNL A   1      41.597  30.166  29.143  1.00  0.00     0.167 HD
ATOM     49  C   UNL A   1      45.762  29.004  28.316  1.00  0.00     0.037 A 
ATOM     50  C   UNL A   1      39.589  31.809  30.177  1.00  0.00     0.037 A 
ATOM     51  C   UNL A   1      45.826  30.346  28.832  1.00  0.00     0.049 A 
ATOM     52  C   UNL A   1      40.884  32.553  30.349  1.00  0.00     0.074 A 
ATOM     53  C   UNL A   1      46.938  31.154  28.989  1.00  0.00     0.029 A 
ATOM     54  N   UNL A   1      44.734  31.076  29.277  1.00  0.00    -0.354 N 
ATOM     55  N   UNL A   1      42.100  32.175  30.030  1.00  0.00    -0.248 NA
ATOM     56  C   UNL A   1      40.808  33.891  30.948  1.00  0.00     0.031 C 
ATOM     57  C   UNL A   1      46.524  32.354  29.575  1.00  0.00     0.029 A 
ATOM     58  C   UNL A   1      45.147  32.318  29.728  1.00  0.00     0.049 A 
ATOM     59  H   UNL A   1      43.802  30.758  29.273  1.00  0.00     0.167 HD
ATOM     60  C   UNL A   1      42.930  33.238  30.367  1.00  0.00     0.074 A 
ATOM     61  C   UNL A   1      42.074  34.280  30.897  1.00  0.00     0.031 C 
ATOM     62  C   UNL A   1      44.277  33.345  30.247  1.00  0.00     0.037 A 
BRANCH  49  63
ATOM     63  C   UNL A   1      47.043  28.322  27.917  1.00  0.00     0.058 A 
ATOM     64  C   UNL A   1      47.762  27.519  28.818  1.00  0.00     0.135 A 
ATOM     65  C   UNL A   1      47.542  28.444  26.611  1.00  0.00     0.135 A 
ATOM     66  F   UNL A   1      47.342  27.379  30.085  1.00  0.00    -0.206 F 
ATOM     67  C   UNL A   1      48.944  26.886  28.447  1.00  0.00     0.059 A 
ATOM     68  C   UNL A   1      48.706  27.794  26.208  1.00  0.00     0.059 A 
ATOM     69  F   UNL A   1      46.899  29.201  25.708  1.00  0.00    -0.206 F 
ATOM     70  C   UNL A   1      49.407  27.028  27.138  1.00  0.00     0.060 A 
BRANCH  70  71
ATOM     71  S   UNL A   1      50.935  26.189  26.672  1.00  0.00     0.124 S 
ATOM     72  O   UNL A   1      50.824  26.169  25.216  1.00  0.00    -0.237 OA
ATOM     73  O   UNL A   1      51.957  27.075  27.217  1.00  0.00    -0.237 OA
ATOM     74  O   UNL A   1      50.823  24.889  27.326  1.00  0.00    -0.744 OA
ENDBRANCH  70  71
ENDBRANCH  49  63
BRANCH  50  75
ATOM     75  C   UNL A   1      38.296  32.400  30.619  1.00  0.00     0.058 A 
ATOM     76  C   UNL A   1      37.807  32.188  31.916  1.00  0.00     0.135 A 
ATOM     77  C   UNL A   1      37.532  33.202  29.756  1.00  0.00     0.135 A 
ATOM     78  F   UNL A   1      38.500  31.426  32.778  1.00  0.00    -0.206 F 
ATOM     79  C   UNL A   1      36.599  32.732  32.339  1.00  0.00     0.059 A 
ATOM     80  C   UNL A   1      36.334  33.782  30.165  1.00  0.00     0.059 A 
ATOM     81  F   UNL A   1      37.964  33.454  28.511  1.00  0.00    -0.206 F 
ATOM     82  C   UNL A   1      35.870  33.531  31.456  1.00  0.00     0.060 A 
BRANCH  82  83
ATOM     83  S   UNL A   1      34.326  34.270  32.030  1.00  0.00     0.124 S 
ATOM     84  O   UNL A   1      34.810  35.455  32.729  1.00  0.00    -0.237 OA
ATOM     85  O   UNL A   1      33.617  34.511  30.777  1.00  0.00    -0.237 OA
ATOM     86  O   UNL A   1      33.750  33.228  32.877  1.00  0.00    -0.744 OA
ENDBRANCH  82  83
ENDBRANCH  50  75
BRANCH  62  87
ATOM     87  C   UNL A   1      44.908  34.645  30.664  1.00  0.00     0.058 A 
ATOM     88  C   UNL A   1      45.390  34.850  31.966  1.00  0.00     0.135 A 
ATOM     89  C   UNL A   1      45.079  35.680  29.730  1.00  0.00     0.135 A 
ATOM     90  F   UNL A   1      45.245  33.896  32.899  1.00  0.00    -0.206 F 
ATOM     91  C   UNL A   1      45.997  36.045  32.335  1.00  0.00     0.059 A 
ATOM     92  C   UNL A   1      45.713  36.871  30.068  1.00  0.00     0.059 A 
ATOM     93  F   UNL A   1      44.646  35.531  28.468  1.00  0.00    -0.206 F 
ATOM     94  C   UNL A   1      46.157  37.050  31.377  1.00  0.00     0.060 A 
BRANCH  94  95
ATOM     95  S   UNL A   1      46.978  38.583  31.861  1.00  0.00     0.124 S 
ATOM     96  O   UNL A   1      47.607  38.194  33.118  1.00  0.00    -0.237 OA
ATOM     97  O   UNL A   1      47.886  38.815  30.742  1.00  0.00    -0.237 OA
ATOM     98  O   UNL A   1      45.878  39.535  31.977  1.00  0.00    -0.744 OA
ENDBRANCH  94  95
ENDBRANCH  62  87
ENDBRANCH  36  37
ENDBRANCH  28  31
ENDBRANCH  26  27
ENDBRANCH   1  26
TORSDOF 16
ENDMDL
MODEL 3
REMARK VINA RESULT:     -11.9      3.151      9.138
REMARK SMILES CC1=C(C)C[C@@H](C(=O)NCc2cccnc2)[C@H](C(=O)NCCCNC(=O)c2ccc(-c3c4nc(c(-c5c(F)cc(S(=O)(=O)[O-])cc5F)c5ccc([nH]5)c(-c5c(F)cc(S(=O)(=O)[O-])cc5F)c5nc(c(-c6c(F)cc(S(=O)(=O)[O-])cc6F)c6ccc3[nH]6)C=C5)C=C4)cc2)C1
REMARK SMILES IDX 22 1 21 2 20 3 18 4 19 5 17 7 1 8 2 9 3 10 93 11 4 12 5 13
REMARK SMILES IDX 6 14 7 15 8 16 9 17 10 19 11 20 12 21 16 22 13 23 15 24
REMARK SMILES IDX 14 25 23 26 24 27 25 28 26 30 27 31 28 32 92 33 29 34 91 35
REMARK SMILES IDX 30 36 31 37 32 38 85 39 33 40 90 41 84 42 86 43 34 44 89 45
REMARK SMILES IDX 83 46 82 47 35 49 69 50 48 51 68 52 49 53 52 54 67 55 87 56
REMARK SMILES IDX 50 57 51 58 66 60 88 61 53 62 36 63 37 64 46 65 38 66 39 67
REMARK SMILES IDX 45 68 47 69 40 70 41 71 42 72 43 73 44 74 70 75 71 76 80 77
REMARK SMILES IDX 72 78 73 79 79 80 81 81 74 82 75 83 76 84 77 85 78 86 54 87
REMARK SMILES IDX 55 88 64 89 56 90 57 91 63 92 65 93 58 94 59 95 60 96 61 97
REMARK SMILES IDX 62 98
REMARK H PARENT 20 6 9 18 24 29 86 48 52 59
REMARK Flexibility Score: inf
ROOT
ATOM      1  C   UNL A   1      38.396  22.582  26.149  1.00  0.00     0.042 C 
ENDROOT
BRANCH   1   2
ATOM      2  C   UNL A   1      36.975  22.752  25.647  1.00  0.00     0.117 C 
BRANCH   2   3
ATOM      3  N   UNL A   1      35.990  22.674  26.702  1.00  0.00    -0.356 N 
ATOM      4  C   UNL A   1      34.684  23.050  26.720  1.00  0.00     0.224 C 
ATOM      5  O   UNL A   1      34.037  22.776  27.735  1.00  0.00    -0.275 OA
ATOM      6  H   UNL A   1      36.318  22.286  27.545  1.00  0.00     0.163 HD
BRANCH   4   7
ATOM      7  C   UNL A   1      34.018  23.802  25.562  1.00  0.00     0.095 C 
ATOM      8  C   UNL A   1      33.753  27.713  25.855  1.00  0.00     0.039 C 
ATOM      9  C   UNL A   1      33.255  26.291  25.768  1.00  0.00    -0.074 C 
ATOM     10  C   UNL A   1      31.965  25.925  25.929  1.00  0.00    -0.074 C 
ATOM     11  C   UNL A   1      34.372  25.292  25.546  1.00  0.00     0.045 C 
ATOM     12  C   UNL A   1      30.835  26.865  26.275  1.00  0.00     0.039 C 
ATOM     13  C   UNL A   1      31.504  24.486  25.832  1.00  0.00     0.045 C 
ATOM     14  C   UNL A   1      32.537  23.429  25.439  1.00  0.00     0.095 C 
BRANCH  14  15
ATOM     15  C   UNL A   1      32.227  22.790  24.085  1.00  0.00     0.224 C 
ATOM     16  O   UNL A   1      32.041  23.506  23.095  1.00  0.00    -0.275 OA
ATOM     17  N   UNL A   1      32.121  21.454  23.886  1.00  0.00    -0.352 N 
ATOM     18  H   UNL A   1      31.904  21.208  22.958  1.00  0.00     0.163 HD
BRANCH  17  19
ATOM     19  C   UNL A   1      32.263  20.320  24.773  1.00  0.00     0.153 C 
BRANCH  19  20
ATOM     20  C   UNL A   1      32.942  19.130  24.157  1.00  0.00    -0.010 A 
ATOM     21  C   UNL A   1      34.105  18.543  24.664  1.00  0.00     0.009 A 
ATOM     22  C   UNL A   1      32.379  18.540  23.026  1.00  0.00     0.116 A 
ATOM     23  C   UNL A   1      34.645  17.420  24.040  1.00  0.00     0.020 A 
ATOM     24  N   UNL A   1      32.880  17.449  22.399  1.00  0.00    -0.264 NA
ATOM     25  C   UNL A   1      34.002  16.914  22.924  1.00  0.00     0.111 A 
ENDBRANCH  19  20
ENDBRANCH  17  19
ENDBRANCH  14  15
ENDBRANCH   4   7
ENDBRANCH   2   3
ENDBRANCH   1   2
BRANCH   1  26
ATOM     26  C   UNL A   1      39.045  23.905  26.510  1.00  0.00     0.118 C 
BRANCH  26  27
ATOM     27  N   UNL A   1      40.463  23.931  26.164  1.00  0.00    -0.352 N 
ATOM     28  C   UNL A   1      41.431  24.852  26.473  1.00  0.00     0.251 C 
ATOM     29  H   UNL A   1      40.773  23.169  25.623  1.00  0.00     0.163 HD
ATOM     30  O   UNL A   1      42.512  24.816  25.890  1.00  0.00    -0.269 OA
BRANCH  28  31
ATOM     31  C   UNL A   1      41.165  25.884  27.494  1.00  0.00     0.039 A 
ATOM     32  C   UNL A   1      40.185  25.651  28.460  1.00  0.00     0.014 A 
ATOM     33  C   UNL A   1      41.885  27.081  27.495  1.00  0.00     0.014 A 
ATOM     34  C   UNL A   1      39.977  26.594  29.467  1.00  0.00     0.010 A 
ATOM     35  C   UNL A   1      41.759  27.961  28.560  1.00  0.00     0.010 A 
ATOM     36  C   UNL A   1      40.791  27.736  29.547  1.00  0.00    -0.014 A 
BRANCH  36  37
ATOM     37  C   UNL A   1      40.636  28.723  30.644  1.00  0.00     0.031 A 
ATOM     38  C   UNL A   1      41.483  28.604  31.882  1.00  0.00     0.074 A 
ATOM     39  C   UNL A   1      39.691  29.678  30.550  1.00  0.00     0.049 A 
ATOM     40  N   UNL A   1      41.448  29.316  32.978  1.00  0.00    -0.248 NA
ATOM     41  C   UNL A   1      42.481  27.519  31.907  1.00  0.00     0.031 C 
ATOM     42  C   UNL A   1      38.770  29.850  29.422  1.00  0.00     0.029 A 
ATOM     43  N   UNL A   1      39.338  30.677  31.420  1.00  0.00    -0.354 N 
ATOM     44  C   UNL A   1      42.404  28.761  33.820  1.00  0.00     0.074 A 
ATOM     45  C   UNL A   1      42.953  27.610  33.141  1.00  0.00     0.031 C 
ATOM     46  C   UNL A   1      37.979  30.908  29.658  1.00  0.00     0.029 A 
ATOM     47  C   UNL A   1      38.303  31.461  30.969  1.00  0.00     0.049 A 
ATOM     48  H   UNL A   1      39.784  30.820  32.286  1.00  0.00     0.167 HD
ATOM     49  C   UNL A   1      42.810  29.191  35.038  1.00  0.00     0.037 A 
ATOM     50  C   UNL A   1      37.678  32.502  31.553  1.00  0.00     0.037 A 
ATOM     51  C   UNL A   1      42.270  30.354  35.694  1.00  0.00     0.049 A 
ATOM     52  C   UNL A   1      38.144  32.961  32.908  1.00  0.00     0.074 A 
ATOM     53  C   UNL A   1      42.644  30.908  36.906  1.00  0.00     0.029 A 
ATOM     54  N   UNL A   1      41.241  31.138  35.195  1.00  0.00    -0.354 N 
ATOM     55  N   UNL A   1      39.096  32.465  33.663  1.00  0.00    -0.248 NA
ATOM     56  C   UNL A   1      37.460  34.124  33.487  1.00  0.00     0.031 C 
ATOM     57  C   UNL A   1      41.807  31.998  37.162  1.00  0.00     0.029 A 
ATOM     58  C   UNL A   1      40.951  32.159  36.083  1.00  0.00     0.049 A 
ATOM     59  H   UNL A   1      40.783  30.990  34.336  1.00  0.00     0.167 HD
ATOM     60  C   UNL A   1      39.142  33.272  34.795  1.00  0.00     0.074 A 
ATOM     61  C   UNL A   1      38.134  34.296  34.615  1.00  0.00     0.031 C 
ATOM     62  C   UNL A   1      39.946  33.175  35.883  1.00  0.00     0.037 A 
BRANCH  49  63
ATOM     63  C   UNL A   1      43.896  28.411  35.729  1.00  0.00     0.058 A 
ATOM     64  C   UNL A   1      43.603  27.321  36.564  1.00  0.00     0.135 A 
ATOM     65  C   UNL A   1      45.247  28.735  35.529  1.00  0.00     0.135 A 
ATOM     66  F   UNL A   1      42.328  26.976  36.806  1.00  0.00    -0.206 F 
ATOM     67  C   UNL A   1      44.608  26.598  37.199  1.00  0.00     0.059 A 
ATOM     68  C   UNL A   1      46.271  28.006  36.129  1.00  0.00     0.059 A 
ATOM     69  F   UNL A   1      45.587  29.769  34.743  1.00  0.00    -0.206 F 
ATOM     70  C   UNL A   1      45.940  26.947  36.974  1.00  0.00     0.060 A 
BRANCH  70  71
ATOM     71  S   UNL A   1      47.229  25.990  37.795  1.00  0.00     0.124 S 
ATOM     72  O   UNL A   1      46.877  24.628  37.401  1.00  0.00    -0.237 OA
ATOM     73  O   UNL A   1      48.446  26.527  37.197  1.00  0.00    -0.237 OA
ATOM     74  O   UNL A   1      47.037  26.302  39.208  1.00  0.00    -0.744 OA
ENDBRANCH  70  71
ENDBRANCH  49  63
BRANCH  50  75
ATOM     75  C   UNL A   1      36.560  33.188  30.850  1.00  0.00     0.058 A 
ATOM     76  C   UNL A   1      35.230  33.016  31.262  1.00  0.00     0.135 A 
ATOM     77  C   UNL A   1      36.800  34.042  29.761  1.00  0.00     0.135 A 
ATOM     78  F   UNL A   1      34.948  32.208  32.296  1.00  0.00    -0.206 F 
ATOM     79  C   UNL A   1      34.176  33.648  30.610  1.00  0.00     0.059 A 
ATOM     80  C   UNL A   1      35.766  34.708  29.111  1.00  0.00     0.059 A 
ATOM     81  F   UNL A   1      38.056  34.257  29.339  1.00  0.00    -0.206 F 
ATOM     82  C   UNL A   1      34.455  34.496  29.536  1.00  0.00     0.060 A 
BRANCH  82  83
ATOM     83  S   UNL A   1      33.084  35.348  28.728  1.00  0.00     0.124 S 
ATOM     84  O   UNL A   1      32.335  35.852  29.873  1.00  0.00    -0.237 OA
ATOM     85  O   UNL A   1      33.777  36.350  27.924  1.00  0.00    -0.237 OA
ATOM     86  O   UNL A   1      32.432  34.286  27.965  1.00  0.00    -0.744 OA
ENDBRANCH  82  83
ENDBRANCH  50  75
BRANCH  62  87
ATOM     87  C   UNL A   1      39.795  34.224  36.950  1.00  0.00     0.058 A 
ATOM     88  C   UNL A   1      38.934  34.047  38.045  1.00  0.00     0.135 A 
ATOM     89  C   UNL A   1      40.565  35.398  36.903  1.00  0.00     0.135 A 
ATOM     90  F   UNL A   1      38.172  32.947  38.135  1.00  0.00    -0.206 F 
ATOM     91  C   UNL A   1      38.822  35.010  39.041  1.00  0.00     0.059 A 
ATOM     92  C   UNL A   1      40.493  36.359  37.906  1.00  0.00     0.059 A 
ATOM     93  F   UNL A   1      41.413  35.611  35.884  1.00  0.00    -0.206 F 
ATOM     94  C   UNL A   1      39.609  36.162  38.965  1.00  0.00     0.060 A 
BRANCH  94  95
ATOM     95  S   UNL A   1      39.478  37.388  40.283  1.00  0.00     0.124 S 
ATOM     96  O   UNL A   1      38.684  38.428  39.638  1.00  0.00    -0.237 OA
ATOM     97  O   UNL A   1      38.802  36.638  41.338  1.00  0.00    -0.237 OA
ATOM     98  O   UNL A   1      40.867  37.739  40.561  1.00  0.00    -0.744 OA
ENDBRANCH  94  95
ENDBRANCH  62  87
ENDBRANCH  36  37
ENDBRANCH  28  31
ENDBRANCH  26  27
ENDBRANCH   1  26
TORSDOF 16
ENDMDL
