MODEL 1
REMARK VINA RESULT:     -11.5      0.000      0.000
REMARK SMILES CN1C(=O)[C@H](CC(=O)NCCCNC(=O)c2ccc(-c3c4nc(c(-c5c(F)cc(S(=O)(=O)[O-])cc5F)c5ccc([nH]5)c(-c5c(F)cc(S(=O)(=O)[O-])cc5F)c5nc(c(-c6c(F)cc(S(=O)(=O)[O-])cc6F)c6ccc3[nH]6)C=C5)C=C4)cc2)S/C1=[NH+]\N=C\c1ccc(O)cc1O
REMARK SMILES IDX 10 1 9 2 7 3 8 4 6 6 5 7 1 8 2 9 3 10 83 11 4 12 82 13 84 14
REMARK SMILES IDX 85 16 86 17 87 18 88 19 93 20 89 21 92 22 90 23 94 24 91 26
REMARK SMILES IDX 11 28 12 29 13 30 14 31 15 33 16 34 17 35 81 36 18 37 80 38
REMARK SMILES IDX 19 39 20 40 21 41 74 42 22 43 79 44 73 45 75 46 23 47 78 48
REMARK SMILES IDX 72 49 71 50 24 52 58 53 37 54 57 55 38 56 41 57 56 58 76 59
REMARK SMILES IDX 39 60 40 61 55 63 77 64 42 65 25 66 26 67 35 68 27 69 28 70
REMARK SMILES IDX 34 71 36 72 29 73 30 74 31 75 32 76 33 77 59 78 60 79 69 80
REMARK SMILES IDX 61 81 62 82 68 83 70 84 63 85 64 86 65 87 66 88 67 89 43 90
REMARK SMILES IDX 44 91 53 92 45 93 46 94 52 95 54 96 47 97 48 98 49 99 50 100
REMARK SMILES IDX 51 101
REMARK H PARENT 9 5 84 15 94 25 91 27 13 32 75 51 41 62
REMARK Flexibility Score: inf
ROOT
ATOM      1  C   UNL A   1      31.540  28.087  26.026  1.00  0.00     0.117 C 
ENDROOT
BRANCH   1   2
ATOM      2  N   UNL A   1      31.274  26.697  26.361  1.00  0.00    -0.356 N 
ATOM      3  C   UNL A   1      30.354  25.834  25.852  1.00  0.00     0.221 C 
ATOM      4  O   UNL A   1      30.275  24.697  26.318  1.00  0.00    -0.275 OA
ATOM      5  H   UNL A   1      31.851  26.322  27.066  1.00  0.00     0.163 HD
BRANCH   3   6
ATOM      6  C   UNL A   1      29.466  26.264  24.713  1.00  0.00     0.127 C 
BRANCH   6   7
ATOM      7  C   UNL A   1      29.951  25.953  23.293  1.00  0.00     0.183 C 
ATOM      8  C   UNL A   1      32.668  28.386  22.387  1.00  0.00     0.301 C 
ATOM      9  N   UNL A   1      31.905  27.201  22.696  1.00  0.00    -0.191 N 
ATOM     10  C   UNL A   1      30.528  27.225  22.707  1.00  0.00     0.324 C 
ATOM     11  C   UNL A   1      32.502  25.987  22.903  1.00  0.00     0.339 C 
ATOM     12  O   UNL A   1      29.827  28.167  22.351  1.00  0.00    -0.245 OA
ATOM     13  S   UNL A   1      31.285  24.749  23.087  1.00  0.00    -0.020 SA
ATOM     14  N   UNL A   1      33.787  25.803  22.936  1.00  0.00    -0.142 N 
ATOM     15  H   UNL A   1      34.442  26.533  22.854  1.00  0.00     0.343 HD
BRANCH  14  16
ATOM     16  N   UNL A   1      34.139  24.465  23.100  1.00  0.00    -0.093 NA
ATOM     17  C   UNL A   1      34.986  24.266  24.060  1.00  0.00     0.170 C 
BRANCH  17  18
ATOM     18  C   UNL A   1      35.458  22.898  24.366  1.00  0.00     0.039 A 
ATOM     19  C   UNL A   1      36.834  22.647  24.311  1.00  0.00     0.017 A 
ATOM     20  C   UNL A   1      34.575  21.860  24.705  1.00  0.00     0.128 A 
ATOM     21  C   UNL A   1      37.313  21.364  24.590  1.00  0.00     0.047 A 
ATOM     22  C   UNL A   1      35.054  20.576  24.962  1.00  0.00     0.093 A 
ATOM     23  C   UNL A   1      36.422  20.340  24.901  1.00  0.00     0.119 A 
BRANCH  20  24
ATOM     24  O   UNL A   1      33.221  22.030  24.811  1.00  0.00    -0.507 OA
ATOM     25  H   UNL A   1      32.840  22.872  24.650  1.00  0.00     0.293 HD
ENDBRANCH  20  24
BRANCH  23  26
ATOM     26  O   UNL A   1      36.945  19.105  25.146  1.00  0.00    -0.508 OA
ATOM     27  H   UNL A   1      36.636  18.362  24.665  1.00  0.00     0.293 HD
ENDBRANCH  23  26
ENDBRANCH  17  18
ENDBRANCH  14  16
ENDBRANCH   6   7
ENDBRANCH   3   6
ENDBRANCH   1   2
BRANCH   1  28
ATOM     28  C   UNL A   1      33.029  28.414  25.969  1.00  0.00     0.042 C 
BRANCH  28  29
ATOM     29  C   UNL A   1      33.678  28.632  27.329  1.00  0.00     0.118 C 
BRANCH  29  30
ATOM     30  N   UNL A   1      33.641  30.033  27.727  1.00  0.00    -0.352 N 
ATOM     31  C   UNL A   1      34.582  30.764  28.409  1.00  0.00     0.251 C 
ATOM     32  H   UNL A   1      32.827  30.525  27.470  1.00  0.00     0.163 HD
ATOM     33  O   UNL A   1      34.277  31.858  28.882  1.00  0.00    -0.269 OA
BRANCH  31  34
ATOM     34  C   UNL A   1      35.949  30.230  28.593  1.00  0.00     0.039 A 
ATOM     35  C   UNL A   1      36.789  30.110  27.482  1.00  0.00     0.014 A 
ATOM     36  C   UNL A   1      36.404  29.847  29.859  1.00  0.00     0.014 A 
ATOM     37  C   UNL A   1      38.108  29.681  27.654  1.00  0.00     0.010 A 
ATOM     38  C   UNL A   1      37.738  29.490  30.037  1.00  0.00     0.010 A 
ATOM     39  C   UNL A   1      38.607  29.411  28.939  1.00  0.00    -0.014 A 
BRANCH  39  40
ATOM     40  C   UNL A   1      40.037  29.072  29.161  1.00  0.00     0.031 A 
ATOM     41  C   UNL A   1      40.993  30.112  29.677  1.00  0.00     0.074 A 
ATOM     42  C   UNL A   1      40.488  27.847  28.826  1.00  0.00     0.049 A 
ATOM     43  N   UNL A   1      42.289  30.035  29.835  1.00  0.00    -0.248 NA
ATOM     44  C   UNL A   1      40.420  31.418  30.039  1.00  0.00     0.031 C 
ATOM     45  C   UNL A   1      39.666  26.763  28.285  1.00  0.00     0.029 A 
ATOM     46  N   UNL A   1      41.751  27.310  28.875  1.00  0.00    -0.354 N 
ATOM     47  C   UNL A   1      42.688  31.278  30.312  1.00  0.00     0.074 A 
ATOM     48  C   UNL A   1      41.504  32.108  30.362  1.00  0.00     0.031 C 
ATOM     49  C   UNL A   1      40.441  25.687  28.071  1.00  0.00     0.029 A 
ATOM     50  C   UNL A   1      41.822  26.018  28.409  1.00  0.00     0.049 A 
ATOM     51  H   UNL A   1      42.534  27.804  29.212  1.00  0.00     0.167 HD
ATOM     52  C   UNL A   1      43.924  31.681  30.694  1.00  0.00     0.037 A 
ATOM     53  C   UNL A   1      42.879  25.197  28.251  1.00  0.00     0.037 A 
ATOM     54  C   UNL A   1      45.095  30.843  30.653  1.00  0.00     0.049 A 
ATOM     55  C   UNL A   1      44.251  25.687  28.630  1.00  0.00     0.074 A 
ATOM     56  C   UNL A   1      46.382  31.144  31.063  1.00  0.00     0.029 A 
ATOM     57  N   UNL A   1      45.127  29.544  30.166  1.00  0.00    -0.354 N 
ATOM     58  N   UNL A   1      44.601  26.846  29.135  1.00  0.00    -0.248 NA
ATOM     59  C   UNL A   1      45.371  24.762  28.412  1.00  0.00     0.031 C 
ATOM     60  C   UNL A   1      47.203  30.050  30.771  1.00  0.00     0.029 A 
ATOM     61  C   UNL A   1      46.418  29.045  30.230  1.00  0.00     0.049 A 
ATOM     62  H   UNL A   1      44.347  29.050  29.825  1.00  0.00     0.167 HD
ATOM     63  C   UNL A   1      45.979  26.782  29.313  1.00  0.00     0.074 A 
ATOM     64  C   UNL A   1      46.396  25.466  28.876  1.00  0.00     0.031 C 
ATOM     65  C   UNL A   1      46.821  27.730  29.793  1.00  0.00     0.037 A 
BRANCH  52  66
ATOM     66  C   UNL A   1      44.074  33.096  31.187  1.00  0.00     0.058 A 
ATOM     67  C   UNL A   1      43.932  33.424  32.545  1.00  0.00     0.135 A 
ATOM     68  C   UNL A   1      44.393  34.133  30.295  1.00  0.00     0.135 A 
ATOM     69  F   UNL A   1      43.616  32.476  33.440  1.00  0.00    -0.206 F 
ATOM     70  C   UNL A   1      44.064  34.734  32.994  1.00  0.00     0.059 A 
ATOM     71  C   UNL A   1      44.561  35.445  30.728  1.00  0.00     0.059 A 
ATOM     72  F   UNL A   1      44.543  33.876  28.985  1.00  0.00    -0.206 F 
ATOM     73  C   UNL A   1      44.377  35.738  32.078  1.00  0.00     0.060 A 
BRANCH  73  74
ATOM     74  S   UNL A   1      44.536  37.433  32.679  1.00  0.00     0.124 S 
ATOM     75  O   UNL A   1      44.383  38.195  31.443  1.00  0.00    -0.237 OA
ATOM     76  O   UNL A   1      43.429  37.533  33.625  1.00  0.00    -0.237 OA
ATOM     77  O   UNL A   1      45.869  37.461  33.272  1.00  0.00    -0.744 OA
ENDBRANCH  73  74
ENDBRANCH  52  66
BRANCH  53  78
ATOM     78  C   UNL A   1      42.679  23.824  27.713  1.00  0.00     0.058 A 
ATOM     79  C   UNL A   1      42.530  22.727  28.574  1.00  0.00     0.135 A 
ATOM     80  C   UNL A   1      42.615  23.582  26.331  1.00  0.00     0.135 A 
ATOM     81  F   UNL A   1      42.593  22.906  29.903  1.00  0.00    -0.206 F 
ATOM     82  C   UNL A   1      42.333  21.439  28.088  1.00  0.00     0.059 A 
ATOM     83  C   UNL A   1      42.393  22.306  25.821  1.00  0.00     0.059 A 
ATOM     84  F   UNL A   1      42.742  24.598  25.464  1.00  0.00    -0.206 F 
ATOM     85  C   UNL A   1      42.260  21.240  26.708  1.00  0.00     0.060 A 
BRANCH  85  86
ATOM     86  S   UNL A   1      41.948  19.571  26.093  1.00  0.00     0.124 S 
ATOM     87  O   UNL A   1      42.279  18.760  27.259  1.00  0.00    -0.237 OA
ATOM     88  O   UNL A   1      40.533  19.635  25.740  1.00  0.00    -0.237 OA
ATOM     89  O   UNL A   1      42.864  19.453  24.962  1.00  0.00    -0.744 OA
ENDBRANCH  85  86
ENDBRANCH  53  78
BRANCH  65  90
ATOM     90  C   UNL A   1      48.282  27.382  29.887  1.00  0.00     0.058 A 
ATOM     91  C   UNL A   1      49.166  27.632  28.827  1.00  0.00     0.135 A 
ATOM     92  C   UNL A   1      48.816  26.867  31.080  1.00  0.00     0.135 A 
ATOM     93  F   UNL A   1      48.706  28.113  27.661  1.00  0.00    -0.206 F 
ATOM     94  C   UNL A   1      50.529  27.377  28.942  1.00  0.00     0.059 A 
ATOM     95  C   UNL A   1      50.180  26.631  31.227  1.00  0.00     0.059 A 
ATOM     96  F   UNL A   1      48.014  26.615  32.127  1.00  0.00    -0.206 F 
ATOM     97  C   UNL A   1      51.028  26.885  30.151  1.00  0.00     0.060 A 
BRANCH  97  98
ATOM     98  S   UNL A   1      52.807  26.623  30.306  1.00  0.00     0.124 S 
ATOM     99  O   UNL A   1      53.184  26.328  28.928  1.00  0.00    -0.237 OA
ATOM    100  O   UNL A   1      53.266  27.907  30.828  1.00  0.00    -0.237 OA
ATOM    101  O   UNL A   1      52.907  25.504  31.238  1.00  0.00    -0.744 OA
ENDBRANCH  97  98
ENDBRANCH  65  90
ENDBRANCH  39  40
ENDBRANCH  31  34
ENDBRANCH  29  30
ENDBRANCH  28  29
ENDBRANCH   1  28
TORSDOF 18
ENDMDL
MODEL 2
REMARK VINA RESULT:     -11.5      5.045     10.503
REMARK SMILES CN1C(=O)[C@H](CC(=O)NCCCNC(=O)c2ccc(-c3c4nc(c(-c5c(F)cc(S(=O)(=O)[O-])cc5F)c5ccc([nH]5)c(-c5c(F)cc(S(=O)(=O)[O-])cc5F)c5nc(c(-c6c(F)cc(S(=O)(=O)[O-])cc6F)c6ccc3[nH]6)C=C5)C=C4)cc2)S/C1=[NH+]\N=C\c1ccc(O)cc1O
REMARK SMILES IDX 10 1 9 2 7 3 8 4 6 6 5 7 1 8 2 9 3 10 83 11 4 12 82 13 84 14
REMARK SMILES IDX 85 16 86 17 87 18 88 19 93 20 89 21 92 22 90 23 94 24 91 26
REMARK SMILES IDX 11 28 12 29 13 30 14 31 15 33 16 34 17 35 81 36 18 37 80 38
REMARK SMILES IDX 19 39 20 40 21 41 74 42 22 43 79 44 73 45 75 46 23 47 78 48
REMARK SMILES IDX 72 49 71 50 24 52 58 53 37 54 57 55 38 56 41 57 56 58 76 59
REMARK SMILES IDX 39 60 40 61 55 63 77 64 42 65 25 66 26 67 35 68 27 69 28 70
REMARK SMILES IDX 34 71 36 72 29 73 30 74 31 75 32 76 33 77 59 78 60 79 69 80
REMARK SMILES IDX 61 81 62 82 68 83 70 84 63 85 64 86 65 87 66 88 67 89 43 90
REMARK SMILES IDX 44 91 53 92 45 93 46 94 52 95 54 96 47 97 48 98 49 99 50 100
REMARK SMILES IDX 51 101
REMARK H PARENT 9 5 84 15 94 25 91 27 13 32 75 51 41 62
REMARK Flexibility Score: inf
ROOT
ATOM      1  C   UNL A   1      32.235  30.505  26.810  1.00  0.00     0.117 C 
ENDROOT
BRANCH   1   2
ATOM      2  N   UNL A   1      33.638  30.192  27.030  1.00  0.00    -0.356 N 
ATOM      3  C   UNL A   1      34.273  28.990  27.054  1.00  0.00     0.221 C 
ATOM      4  O   UNL A   1      35.479  28.952  27.302  1.00  0.00    -0.275 OA
ATOM      5  H   UNL A   1      34.219  30.973  27.184  1.00  0.00     0.163 HD
BRANCH   3   6
ATOM      6  C   UNL A   1      33.508  27.726  26.752  1.00  0.00     0.127 C 
BRANCH   6   7
ATOM      7  C   UNL A   1      33.615  27.168  25.329  1.00  0.00     0.183 C 
ATOM      8  C   UNL A   1      31.270  24.250  24.998  1.00  0.00     0.301 C 
ATOM      9  N   UNL A   1      31.944  25.519  24.861  1.00  0.00    -0.191 N 
ATOM     10  C   UNL A   1      33.211  25.708  25.368  1.00  0.00     0.324 C 
ATOM     11  C   UNL A   1      31.402  26.555  24.151  1.00  0.00     0.339 C 
ATOM     12  O   UNL A   1      33.925  24.837  25.853  1.00  0.00    -0.245 OA
ATOM     13  S   UNL A   1      32.546  27.870  24.049  1.00  0.00    -0.020 SA
ATOM     14  N   UNL A   1      30.216  26.535  23.624  1.00  0.00    -0.142 N 
ATOM     15  H   UNL A   1      29.589  25.783  23.725  1.00  0.00     0.343 HD
BRANCH  14  16
ATOM     16  N   UNL A   1      29.925  27.690  22.899  1.00  0.00    -0.093 NA
ATOM     17  C   UNL A   1      29.240  28.562  23.568  1.00  0.00     0.170 C 
BRANCH  17  18
ATOM     18  C   UNL A   1      28.853  29.845  22.943  1.00  0.00     0.039 A 
ATOM     19  C   UNL A   1      27.784  30.556  23.500  1.00  0.00     0.017 A 
ATOM     20  C   UNL A   1      29.521  30.362  21.821  1.00  0.00     0.128 A 
ATOM     21  C   UNL A   1      27.389  31.770  22.931  1.00  0.00     0.047 A 
ATOM     22  C   UNL A   1      29.112  31.563  21.242  1.00  0.00     0.093 A 
ATOM     23  C   UNL A   1      28.047  32.256  21.804  1.00  0.00     0.119 A 
BRANCH  20  24
ATOM     24  O   UNL A   1      30.594  29.746  21.236  1.00  0.00    -0.507 OA
ATOM     25  H   UNL A   1      30.856  28.891  21.519  1.00  0.00     0.293 HD
ENDBRANCH  20  24
BRANCH  23  26
ATOM     26  O   UNL A   1      27.607  33.435  21.280  1.00  0.00    -0.508 OA
ATOM     27  H   UNL A   1      27.328  33.476  20.387  1.00  0.00     0.293 HD
ENDBRANCH  23  26
ENDBRANCH  17  18
ENDBRANCH  14  16
ENDBRANCH   6   7
ENDBRANCH   3   6
ENDBRANCH   1   2
BRANCH   1  28
ATOM     28  C   UNL A   1      31.931  31.997  26.921  1.00  0.00     0.042 C 
BRANCH  28  29
ATOM     29  C   UNL A   1      33.130  32.858  27.294  1.00  0.00     0.118 C 
BRANCH  29  30
ATOM     30  N   UNL A   1      32.727  34.195  27.705  1.00  0.00    -0.352 N 
ATOM     31  C   UNL A   1      33.126  34.922  28.800  1.00  0.00     0.251 C 
ATOM     32  H   UNL A   1      32.077  34.642  27.114  1.00  0.00     0.163 HD
ATOM     33  O   UNL A   1      32.493  35.925  29.129  1.00  0.00    -0.269 OA
BRANCH  31  34
ATOM     34  C   UNL A   1      34.297  34.488  29.594  1.00  0.00     0.039 A 
ATOM     35  C   UNL A   1      34.092  33.923  30.856  1.00  0.00     0.014 A 
ATOM     36  C   UNL A   1      35.595  34.639  29.097  1.00  0.00     0.014 A 
ATOM     37  C   UNL A   1      35.183  33.437  31.583  1.00  0.00     0.010 A 
ATOM     38  C   UNL A   1      36.671  34.089  29.789  1.00  0.00     0.010 A 
ATOM     39  C   UNL A   1      36.476  33.475  31.035  1.00  0.00    -0.014 A 
BRANCH  39  40
ATOM     40  C   UNL A   1      37.633  32.857  31.734  1.00  0.00     0.031 A 
ATOM     41  C   UNL A   1      38.299  31.634  31.165  1.00  0.00     0.074 A 
ATOM     42  C   UNL A   1      38.035  33.354  32.921  1.00  0.00     0.049 A 
ATOM     43  N   UNL A   1      39.248  30.897  31.680  1.00  0.00    -0.248 NA
ATOM     44  C   UNL A   1      37.817  31.165  29.857  1.00  0.00     0.031 C 
ATOM     45  C   UNL A   1      37.448  34.515  33.592  1.00  0.00     0.029 A 
ATOM     46  N   UNL A   1      39.020  32.938  33.782  1.00  0.00    -0.354 N 
ATOM     47  C   UNL A   1      39.478  29.878  30.764  1.00  0.00     0.074 A 
ATOM     48  C   UNL A   1      38.526  30.059  29.688  1.00  0.00     0.031 C 
ATOM     49  C   UNL A   1      38.096  34.729  34.749  1.00  0.00     0.029 A 
ATOM     50  C   UNL A   1      39.109  33.694  34.928  1.00  0.00     0.049 A 
ATOM     51  H   UNL A   1      39.609  32.170  33.596  1.00  0.00     0.167 HD
ATOM     52  C   UNL A   1      40.410  28.895  30.805  1.00  0.00     0.037 A 
ATOM     53  C   UNL A   1      39.899  33.559  36.011  1.00  0.00     0.037 A 
ATOM     54  C   UNL A   1      41.361  28.730  31.875  1.00  0.00     0.049 A 
ATOM     55  C   UNL A   1      40.889  32.425  36.060  1.00  0.00     0.074 A 
ATOM     56  C   UNL A   1      42.376  27.795  31.985  1.00  0.00     0.029 A 
ATOM     57  N   UNL A   1      41.412  29.510  33.022  1.00  0.00    -0.354 N 
ATOM     58  N   UNL A   1      41.132  31.505  35.157  1.00  0.00    -0.248 NA
ATOM     59  C   UNL A   1      41.706  32.308  37.275  1.00  0.00     0.031 C 
ATOM     60  C   UNL A   1      43.001  27.972  33.223  1.00  0.00     0.029 A 
ATOM     61  C   UNL A   1      42.415  29.053  33.862  1.00  0.00     0.049 A 
ATOM     62  H   UNL A   1      40.822  30.275  33.210  1.00  0.00     0.167 HD
ATOM     63  C   UNL A   1      42.143  30.711  35.687  1.00  0.00     0.074 A 
ATOM     64  C   UNL A   1      42.477  31.268  36.981  1.00  0.00     0.031 C 
ATOM     65  C   UNL A   1      42.739  29.618  35.149  1.00  0.00     0.037 A 
BRANCH  52  66
ATOM     66  C   UNL A   1      40.443  27.917  29.661  1.00  0.00     0.058 A 
ATOM     67  C   UNL A   1      39.562  26.826  29.597  1.00  0.00     0.135 A 
ATOM     68  C   UNL A   1      41.348  28.089  28.600  1.00  0.00     0.135 A 
ATOM     69  F   UNL A   1      38.684  26.606  30.587  1.00  0.00    -0.206 F 
ATOM     70  C   UNL A   1      39.601  25.921  28.541  1.00  0.00     0.059 A 
ATOM     71  C   UNL A   1      41.384  27.213  27.519  1.00  0.00     0.059 A 
ATOM     72  F   UNL A   1      42.213  29.116  28.610  1.00  0.00    -0.206 F 
ATOM     73  C   UNL A   1      40.517  26.121  27.508  1.00  0.00     0.060 A 
BRANCH  73  74
ATOM     74  S   UNL A   1      40.559  24.931  26.152  1.00  0.00     0.124 S 
ATOM     75  O   UNL A   1      41.453  23.909  26.690  1.00  0.00    -0.237 OA
ATOM     76  O   UNL A   1      39.157  24.545  26.031  1.00  0.00    -0.237 OA
ATOM     77  O   UNL A   1      41.092  25.704  25.035  1.00  0.00    -0.744 OA
ENDBRANCH  73  74
ENDBRANCH  52  66
BRANCH  53  78
ATOM     78  C   UNL A   1      39.789  34.526  37.136  1.00  0.00     0.058 A 
ATOM     79  C   UNL A   1      40.504  35.733  37.120  1.00  0.00     0.135 A 
ATOM     80  C   UNL A   1      38.957  34.275  38.239  1.00  0.00     0.135 A 
ATOM     81  F   UNL A   1      41.321  36.014  36.093  1.00  0.00    -0.206 F 
ATOM     82  C   UNL A   1      40.406  36.653  38.159  1.00  0.00     0.059 A 
ATOM     83  C   UNL A   1      38.822  35.192  39.277  1.00  0.00     0.059 A 
ATOM     84  F   UNL A   1      38.244  33.140  38.298  1.00  0.00    -0.206 F 
ATOM     85  C   UNL A   1      39.557  36.375  39.232  1.00  0.00     0.060 A 
BRANCH  85  86
ATOM     86  S   UNL A   1      39.395  37.603  40.546  1.00  0.00     0.124 S 
ATOM     87  O   UNL A   1      40.747  38.148  40.607  1.00  0.00    -0.237 OA
ATOM     88  O   UNL A   1      38.372  38.493  40.008  1.00  0.00    -0.237 OA
ATOM     89  O   UNL A   1      38.982  36.809  41.699  1.00  0.00    -0.744 OA
ENDBRANCH  85  86
ENDBRANCH  53  78
BRANCH  65  90
ATOM     90  C   UNL A   1      43.826  28.951  35.948  1.00  0.00     0.058 A 
ATOM     91  C   UNL A   1      45.136  29.452  35.965  1.00  0.00     0.135 A 
ATOM     92  C   UNL A   1      43.535  27.848  36.766  1.00  0.00     0.135 A 
ATOM     93  F   UNL A   1      45.471  30.498  35.192  1.00  0.00    -0.206 F 
ATOM     94  C   UNL A   1      46.123  28.878  36.760  1.00  0.00     0.059 A 
ATOM     95  C   UNL A   1      44.499  27.275  37.591  1.00  0.00     0.059 A 
ATOM     96  F   UNL A   1      42.295  27.333  36.792  1.00  0.00    -0.206 F 
ATOM     97  C   UNL A   1      45.791  27.795  37.578  1.00  0.00     0.060 A 
BRANCH  97  98
ATOM     98  S   UNL A   1      47.066  27.104  38.654  1.00  0.00     0.124 S 
ATOM     99  O   UNL A   1      46.330  26.053  39.347  1.00  0.00    -0.237 OA
ATOM    100  O   UNL A   1      48.068  26.649  37.694  1.00  0.00    -0.237 OA
ATOM    101  O   UNL A   1      47.468  28.238  39.479  1.00  0.00    -0.744 OA
ENDBRANCH  97  98
ENDBRANCH  65  90
ENDBRANCH  39  40
ENDBRANCH  31  34
ENDBRANCH  29  30
ENDBRANCH  28  29
ENDBRANCH   1  28
TORSDOF 18
ENDMDL
MODEL 3
REMARK VINA RESULT:     -11.5      1.640      2.433
REMARK SMILES CN1C(=O)[C@H](CC(=O)NCCCNC(=O)c2ccc(-c3c4nc(c(-c5c(F)cc(S(=O)(=O)[O-])cc5F)c5ccc([nH]5)c(-c5c(F)cc(S(=O)(=O)[O-])cc5F)c5nc(c(-c6c(F)cc(S(=O)(=O)[O-])cc6F)c6ccc3[nH]6)C=C5)C=C4)cc2)S/C1=[NH+]\N=C\c1ccc(O)cc1O
REMARK SMILES IDX 10 1 9 2 7 3 8 4 6 6 5 7 1 8 2 9 3 10 83 11 4 12 82 13 84 14
REMARK SMILES IDX 85 16 86 17 87 18 88 19 93 20 89 21 92 22 90 23 94 24 91 26
REMARK SMILES IDX 11 28 12 29 13 30 14 31 15 33 16 34 17 35 81 36 18 37 80 38
REMARK SMILES IDX 19 39 20 40 21 41 74 42 22 43 79 44 73 45 75 46 23 47 78 48
REMARK SMILES IDX 72 49 71 50 24 52 58 53 37 54 57 55 38 56 41 57 56 58 76 59
REMARK SMILES IDX 39 60 40 61 55 63 77 64 42 65 25 66 26 67 35 68 27 69 28 70
REMARK SMILES IDX 34 71 36 72 29 73 30 74 31 75 32 76 33 77 59 78 60 79 69 80
REMARK SMILES IDX 61 81 62 82 68 83 70 84 63 85 64 86 65 87 66 88 67 89 43 90
REMARK SMILES IDX 44 91 53 92 45 93 46 94 52 95 54 96 47 97 48 98 49 99 50 100
REMARK SMILES IDX 51 101
REMARK H PARENT 9 5 84 15 94 25 91 27 13 32 75 51 41 62
REMARK Flexibility Score: inf
ROOT
ATOM      1  C   UNL A   1      32.992  27.964  24.865  1.00  0.00     0.117 C 
ENDROOT
BRANCH   1   2
ATOM      2  N   UNL A   1      33.612  26.826  24.204  1.00  0.00    -0.356 N 
ATOM      3  C   UNL A   1      33.945  25.603  24.696  1.00  0.00     0.221 C 
ATOM      4  O   UNL A   1      34.507  24.792  23.959  1.00  0.00    -0.275 OA
ATOM      5  H   UNL A   1      33.823  26.963  23.251  1.00  0.00     0.163 HD
BRANCH   3   6
ATOM      6  C   UNL A   1      33.600  25.242  26.119  1.00  0.00     0.127 C 
BRANCH   6   7
ATOM      7  C   UNL A   1      32.518  24.178  26.327  1.00  0.00     0.183 C 
ATOM      8  C   UNL A   1      30.391  24.000  23.233  1.00  0.00     0.301 C 
ATOM      9  N   UNL A   1      31.290  23.712  24.324  1.00  0.00    -0.191 N 
ATOM     10  C   UNL A   1      31.343  24.525  25.435  1.00  0.00     0.324 C 
ATOM     11  C   UNL A   1      32.062  22.582  24.349  1.00  0.00     0.339 C 
ATOM     12  O   UNL A   1      30.586  25.461  25.673  1.00  0.00    -0.245 OA
ATOM     13  S   UNL A   1      32.899  22.467  25.877  1.00  0.00    -0.020 SA
ATOM     14  N   UNL A   1      32.132  21.726  23.376  1.00  0.00    -0.142 N 
ATOM     15  H   UNL A   1      31.663  21.839  22.518  1.00  0.00     0.343 HD
BRANCH  14  16
ATOM     16  N   UNL A   1      32.939  20.630  23.675  1.00  0.00    -0.093 NA
ATOM     17  C   UNL A   1      32.273  19.550  23.930  1.00  0.00     0.170 C 
BRANCH  17  18
ATOM     18  C   UNL A   1      32.983  18.296  24.261  1.00  0.00     0.039 A 
ATOM     19  C   UNL A   1      33.570  17.573  23.216  1.00  0.00     0.017 A 
ATOM     20  C   UNL A   1      33.085  17.818  25.578  1.00  0.00     0.128 A 
ATOM     21  C   UNL A   1      34.245  16.381  23.494  1.00  0.00     0.047 A 
ATOM     22  C   UNL A   1      33.740  16.618  25.850  1.00  0.00     0.093 A 
ATOM     23  C   UNL A   1      34.315  15.909  24.802  1.00  0.00     0.119 A 
BRANCH  20  24
ATOM     24  O   UNL A   1      32.567  18.481  26.659  1.00  0.00    -0.507 OA
ATOM     25  H   UNL A   1      32.226  17.996  27.386  1.00  0.00     0.293 HD
ENDBRANCH  20  24
BRANCH  23  26
ATOM     26  O   UNL A   1      34.970  14.732  25.012  1.00  0.00    -0.508 OA
ATOM     27  H   UNL A   1      35.073  14.402  25.882  1.00  0.00     0.293 HD
ENDBRANCH  23  26
ENDBRANCH  17  18
ENDBRANCH  14  16
ENDBRANCH   6   7
ENDBRANCH   3   6
ENDBRANCH   1   2
BRANCH   1  28
ATOM     28  C   UNL A   1      33.989  28.821  25.640  1.00  0.00     0.042 C 
BRANCH  28  29
ATOM     29  C   UNL A   1      33.814  28.779  27.151  1.00  0.00     0.118 C 
BRANCH  29  30
ATOM     30  N   UNL A   1      33.751  30.116  27.725  1.00  0.00    -0.352 N 
ATOM     31  C   UNL A   1      34.671  30.765  28.512  1.00  0.00     0.251 C 
ATOM     32  H   UNL A   1      32.934  30.627  27.519  1.00  0.00     0.163 HD
ATOM     33  O   UNL A   1      34.342  31.785  29.117  1.00  0.00    -0.269 OA
BRANCH  31  34
ATOM     34  C   UNL A   1      36.042  30.228  28.650  1.00  0.00     0.039 A 
ATOM     35  C   UNL A   1      36.904  30.272  27.551  1.00  0.00     0.014 A 
ATOM     36  C   UNL A   1      36.479  29.681  29.861  1.00  0.00     0.014 A 
ATOM     37  C   UNL A   1      38.226  29.840  27.690  1.00  0.00     0.010 A 
ATOM     38  C   UNL A   1      37.815  29.321  30.017  1.00  0.00     0.010 A 
ATOM     39  C   UNL A   1      38.705  29.403  28.937  1.00  0.00    -0.014 A 
BRANCH  39  40
ATOM     40  C   UNL A   1      40.135  29.055  29.140  1.00  0.00     0.031 A 
ATOM     41  C   UNL A   1      41.106  30.090  29.638  1.00  0.00     0.074 A 
ATOM     42  C   UNL A   1      40.574  27.825  28.803  1.00  0.00     0.049 A 
ATOM     43  N   UNL A   1      42.404  30.006  29.778  1.00  0.00    -0.248 NA
ATOM     44  C   UNL A   1      40.548  31.402  30.002  1.00  0.00     0.031 C 
ATOM     45  C   UNL A   1      39.737  26.745  28.280  1.00  0.00     0.029 A 
ATOM     46  N   UNL A   1      41.834  27.280  28.837  1.00  0.00    -0.354 N 
ATOM     47  C   UNL A   1      42.818  31.247  30.244  1.00  0.00     0.074 A 
ATOM     48  C   UNL A   1      41.640  32.086  30.306  1.00  0.00     0.031 C 
ATOM     49  C   UNL A   1      40.501  25.663  28.059  1.00  0.00     0.029 A 
ATOM     50  C   UNL A   1      41.889  25.985  28.376  1.00  0.00     0.049 A 
ATOM     51  H   UNL A   1      42.624  27.771  29.162  1.00  0.00     0.167 HD
ATOM     52  C   UNL A   1      44.062  31.644  30.606  1.00  0.00     0.037 A 
ATOM     53  C   UNL A   1      42.938  25.157  28.208  1.00  0.00     0.037 A 
ATOM     54  C   UNL A   1      45.227  30.797  30.553  1.00  0.00     0.049 A 
ATOM     55  C   UNL A   1      44.318  25.639  28.564  1.00  0.00     0.074 A 
ATOM     56  C   UNL A   1      46.521  31.092  30.943  1.00  0.00     0.029 A 
ATOM     57  N   UNL A   1      45.242  29.496  30.071  1.00  0.00    -0.354 N 
ATOM     58  N   UNL A   1      44.683  26.798  29.059  1.00  0.00    -0.248 NA
ATOM     59  C   UNL A   1      45.429  24.705  28.335  1.00  0.00     0.031 C 
ATOM     60  C   UNL A   1      47.330  29.991  30.645  1.00  0.00     0.029 A 
ATOM     61  C   UNL A   1      46.531  28.989  30.119  1.00  0.00     0.049 A 
ATOM     62  H   UNL A   1      44.454  29.006  29.743  1.00  0.00     0.167 HD
ATOM     63  C   UNL A   1      46.063  26.725  29.218  1.00  0.00     0.074 A 
ATOM     64  C   UNL A   1      46.465  25.404  28.782  1.00  0.00     0.031 C 
ATOM     65  C   UNL A   1      46.918  27.669  29.682  1.00  0.00     0.037 A 
BRANCH  52  66
ATOM     66  C   UNL A   1      44.228  33.060  31.091  1.00  0.00     0.058 A 
ATOM     67  C   UNL A   1      43.996  33.415  32.429  1.00  0.00     0.135 A 
ATOM     68  C   UNL A   1      44.655  34.070  30.212  1.00  0.00     0.135 A 
ATOM     69  F   UNL A   1      43.576  32.494  33.310  1.00  0.00    -0.206 F 
ATOM     70  C   UNL A   1      44.144  34.726  32.870  1.00  0.00     0.059 A 
ATOM     71  C   UNL A   1      44.839  35.382  30.640  1.00  0.00     0.059 A 
ATOM     72  F   UNL A   1      44.893  33.787  28.921  1.00  0.00    -0.206 F 
ATOM     73  C   UNL A   1      44.564  35.703  31.968  1.00  0.00     0.060 A 
BRANCH  73  74
ATOM     74  S   UNL A   1      44.742  37.400  32.557  1.00  0.00     0.124 S 
ATOM     75  O   UNL A   1      44.231  37.289  33.920  1.00  0.00    -0.237 OA
ATOM     76  O   UNL A   1      46.179  37.623  32.436  1.00  0.00    -0.237 OA
ATOM     77  O   UNL A   1      43.911  38.170  31.637  1.00  0.00    -0.744 OA
ENDBRANCH  73  74
ENDBRANCH  52  66
BRANCH  53  78
ATOM     78  C   UNL A   1      42.721  23.783  27.678  1.00  0.00     0.058 A 
ATOM     79  C   UNL A   1      42.745  23.531  26.298  1.00  0.00     0.135 A 
ATOM     80  C   UNL A   1      42.506  22.693  28.536  1.00  0.00     0.135 A 
ATOM     81  F   UNL A   1      42.937  24.542  25.436  1.00  0.00    -0.206 F 
ATOM     82  C   UNL A   1      42.554  22.252  25.786  1.00  0.00     0.059 A 
ATOM     83  C   UNL A   1      42.339  21.400  28.049  1.00  0.00     0.059 A 
ATOM     84  F   UNL A   1      42.484  22.878  29.865  1.00  0.00    -0.206 F 
ATOM     85  C   UNL A   1      42.357  21.191  26.672  1.00  0.00     0.060 A 
BRANCH  85  86
ATOM     86  S   UNL A   1      42.168  19.527  25.996  1.00  0.00     0.124 S 
ATOM     87  O   UNL A   1      42.624  18.704  27.110  1.00  0.00    -0.237 OA
ATOM     88  O   UNL A   1      40.738  19.476  25.708  1.00  0.00    -0.237 OA
ATOM     89  O   UNL A   1      43.037  19.539  24.824  1.00  0.00    -0.744 OA
ENDBRANCH  85  86
ENDBRANCH  53  78
BRANCH  65  90
ATOM     90  C   UNL A   1      48.378  27.312  29.758  1.00  0.00     0.058 A 
ATOM     91  C   UNL A   1      49.255  27.578  28.696  1.00  0.00     0.135 A 
ATOM     92  C   UNL A   1      48.919  26.770  30.935  1.00  0.00     0.135 A 
ATOM     93  F   UNL A   1      48.788  28.085  27.543  1.00  0.00    -0.206 F 
ATOM     94  C   UNL A   1      50.617  27.313  28.794  1.00  0.00     0.059 A 
ATOM     95  C   UNL A   1      50.283  26.523  31.066  1.00  0.00     0.059 A 
ATOM     96  F   UNL A   1      48.125  26.502  31.984  1.00  0.00    -0.206 F 
ATOM     97  C   UNL A   1      51.123  26.795  29.989  1.00  0.00     0.060 A 
BRANCH  97  98
ATOM     98  S   UNL A   1      52.903  26.520  30.124  1.00  0.00     0.124 S 
ATOM     99  O   UNL A   1      53.233  26.056  28.781  1.00  0.00    -0.237 OA
ATOM    100  O   UNL A   1      53.396  27.848  30.475  1.00  0.00    -0.237 OA
ATOM    101  O   UNL A   1      53.014  25.518  31.180  1.00  0.00    -0.744 OA
ENDBRANCH  97  98
ENDBRANCH  65  90
ENDBRANCH  39  40
ENDBRANCH  31  34
ENDBRANCH  29  30
ENDBRANCH  28  29
ENDBRANCH   1  28
TORSDOF 18
ENDMDL
