MODEL 1
REMARK VINA RESULT:     -11.2      0.000      0.000
REMARK SMILES CCCCCN(C)S(=O)(=O)c1cc(Cl)cc(C(=O)NCCCNC(=O)c2ccc(-c3c4nc(c(-c5c(F)cc(S(=O)(=O)[O-])cc5F)c5ccc([nH]5)c(-c5c(F)cc(S(=O)(=O)[O-])cc5F)c5nc(c(-c6c(F)cc(S(=O)(=O)[O-])cc6F)c6ccc3[nH]6)C=C5)C=C4)cc2)c1F
REMARK SMILES IDX 17 1 18 2 19 3 16 5 11 6 12 7 92 8 13 9 93 10 14 11 15 12
REMARK SMILES IDX 8 13 9 14 10 15 6 16 7 17 5 18 4 19 3 20 2 21 1 22 20 23
REMARK SMILES IDX 21 24 22 25 23 26 24 27 25 29 26 30 27 31 91 32 28 33 90 34
REMARK SMILES IDX 29 35 30 36 31 37 84 38 32 39 89 40 83 41 85 42 33 43 88 44
REMARK SMILES IDX 82 45 81 46 34 48 68 49 47 50 67 51 48 52 51 53 66 54 86 55
REMARK SMILES IDX 49 56 50 57 65 59 87 60 52 61 35 62 36 63 45 64 37 65 38 66
REMARK SMILES IDX 44 67 46 68 39 69 40 70 41 71 42 72 43 73 69 74 70 75 79 76
REMARK SMILES IDX 71 77 72 78 78 79 80 80 73 81 74 82 75 83 76 84 77 85 53 86
REMARK SMILES IDX 54 87 63 88 55 89 56 90 62 91 64 92 57 93 58 94 59 95 60 96
REMARK SMILES IDX 61 97
REMARK H PARENT 19 4 23 28 85 47 51 58
REMARK Flexibility Score: inf
ROOT
ATOM      1  C   UNL A   1      36.391  22.821  23.501  1.00  0.00     0.254 C 
ATOM      2  O   UNL A   1      36.656  22.996  22.311  1.00  0.00    -0.269 OA
ATOM      3  N   UNL A   1      37.427  22.833  24.405  1.00  0.00    -0.352 N 
ATOM      4  H   UNL A   1      38.318  22.872  23.988  1.00  0.00     0.163 HD
ENDROOT
BRANCH   1   5
ATOM      5  C   UNL A   1      34.963  22.674  23.879  1.00  0.00     0.078 A 
ATOM      6  C   UNL A   1      32.710  23.517  24.149  1.00  0.00     0.120 A 
ATOM      7  C   UNL A   1      32.265  22.298  24.646  1.00  0.00     0.045 A 
ATOM      8  C   UNL A   1      34.055  23.720  23.850  1.00  0.00     0.156 A 
ATOM      9  C   UNL A   1      33.189  21.260  24.761  1.00  0.00     0.043 A 
ATOM     10  F   UNL A   1      34.471  24.965  23.619  1.00  0.00    -0.205 F 
ATOM     11  Cl  UNL A   1      32.679  19.741  25.388  1.00  0.00    -0.084 Cl
ATOM     12  C   UNL A   1      34.521  21.432  24.362  1.00  0.00     0.037 A 
BRANCH   6  13
ATOM     13  S   UNL A   1      31.665  24.902  23.870  1.00  0.00     0.245 S 
ATOM     14  O   UNL A   1      30.357  24.542  24.372  1.00  0.00    -0.207 OA
ATOM     15  O   UNL A   1      31.908  25.260  22.493  1.00  0.00    -0.207 OA
BRANCH  13  16
ATOM     16  N   UNL A   1      32.188  26.200  24.876  1.00  0.00    -0.201 NA
ATOM     17  C   UNL A   1      31.297  26.444  26.055  1.00  0.00     0.124 C 
BRANCH  16  18
ATOM     18  C   UNL A   1      32.293  27.520  24.120  1.00  0.00     0.102 C 
BRANCH  18  19
ATOM     19  C   UNL A   1      31.053  28.414  24.095  1.00  0.00     0.017 C 
BRANCH  19  20
ATOM     20  C   UNL A   1      29.826  28.019  23.251  1.00  0.00     0.001 C 
BRANCH  20  21
ATOM     21  C   UNL A   1      29.019  29.131  22.580  1.00  0.00    -0.003 C 
ATOM     22  C   UNL A   1      28.961  30.408  23.399  1.00  0.00     0.004 C 
ENDBRANCH  20  21
ENDBRANCH  19  20
ENDBRANCH  18  19
ENDBRANCH  16  18
ENDBRANCH  13  16
ENDBRANCH   6  13
ENDBRANCH   1   5
BRANCH   3  23
ATOM     23  C   UNL A   1      37.460  22.799  25.864  1.00  0.00     0.118 C 
BRANCH  23  24
ATOM     24  C   UNL A   1      38.405  23.850  26.454  1.00  0.00     0.042 C 
BRANCH  24  25
ATOM     25  C   UNL A   1      39.717  23.297  26.995  1.00  0.00     0.118 C 
BRANCH  25  26
ATOM     26  N   UNL A   1      40.867  23.725  26.216  1.00  0.00    -0.352 N 
ATOM     27  C   UNL A   1      41.607  24.881  26.299  1.00  0.00     0.251 C 
ATOM     28  H   UNL A   1      41.161  23.091  25.524  1.00  0.00     0.163 HD
ATOM     29  O   UNL A   1      42.436  25.116  25.421  1.00  0.00    -0.269 OA
BRANCH  27  30
ATOM     30  C   UNL A   1      41.415  25.849  27.407  1.00  0.00     0.039 A 
ATOM     31  C   UNL A   1      42.294  26.933  27.506  1.00  0.00     0.014 A 
ATOM     32  C   UNL A   1      40.426  25.674  28.381  1.00  0.00     0.014 A 
ATOM     33  C   UNL A   1      42.154  27.862  28.544  1.00  0.00     0.010 A 
ATOM     34  C   UNL A   1      40.250  26.632  29.382  1.00  0.00     0.010 A 
ATOM     35  C   UNL A   1      41.115  27.732  29.478  1.00  0.00    -0.014 A 
BRANCH  35  36
ATOM     36  C   UNL A   1      40.934  28.722  30.573  1.00  0.00     0.031 A 
ATOM     37  C   UNL A   1      41.801  28.656  31.803  1.00  0.00     0.074 A 
ATOM     38  C   UNL A   1      39.964  29.655  30.483  1.00  0.00     0.049 A 
ATOM     39  N   UNL A   1      41.734  29.363  32.902  1.00  0.00    -0.248 NA
ATOM     40  C   UNL A   1      42.875  27.648  31.804  1.00  0.00     0.031 C 
ATOM     41  C   UNL A   1      39.041  29.810  29.357  1.00  0.00     0.029 A 
ATOM     42  N   UNL A   1      39.585  30.640  31.360  1.00  0.00    -0.354 N 
ATOM     43  C   UNL A   1      42.745  28.883  33.726  1.00  0.00     0.074 A 
ATOM     44  C   UNL A   1      43.386  27.796  33.019  1.00  0.00     0.031 C 
ATOM     45  C   UNL A   1      38.211  30.837  29.607  1.00  0.00     0.029 A 
ATOM     46  C   UNL A   1      38.519  31.392  30.921  1.00  0.00     0.049 A 
ATOM     47  H   UNL A   1      40.034  30.796  32.222  1.00  0.00     0.167 HD
ATOM     48  C   UNL A   1      43.120  29.321  34.953  1.00  0.00     0.037 A 
ATOM     49  C   UNL A   1      37.860  32.404  31.516  1.00  0.00     0.037 A 
ATOM     50  C   UNL A   1      42.498  30.418  35.648  1.00  0.00     0.049 A 
ATOM     51  C   UNL A   1      38.294  32.869  32.880  1.00  0.00     0.074 A 
ATOM     52  C   UNL A   1      42.814  30.941  36.891  1.00  0.00     0.029 A 
ATOM     53  N   UNL A   1      41.444  31.171  35.154  1.00  0.00    -0.354 N 
ATOM     54  N   UNL A   1      39.263  32.409  33.637  1.00  0.00    -0.248 NA
ATOM     55  C   UNL A   1      37.551  33.991  33.470  1.00  0.00     0.031 C 
ATOM     56  C   UNL A   1      41.940  32.001  37.155  1.00  0.00     0.029 A 
ATOM     57  C   UNL A   1      41.100  32.156  36.065  1.00  0.00     0.049 A 
ATOM     58  H   UNL A   1      41.005  31.027  34.285  1.00  0.00     0.167 HD
ATOM     59  C   UNL A   1      39.260  33.204  34.778  1.00  0.00     0.074 A 
ATOM     60  C   UNL A   1      38.202  34.179  34.609  1.00  0.00     0.031 C 
ATOM     61  C   UNL A   1      40.060  33.131  35.870  1.00  0.00     0.037 A 
BRANCH  48  62
ATOM     62  C   UNL A   1      44.273  28.625  35.620  1.00  0.00     0.058 A 
ATOM     63  C   UNL A   1      45.595  29.050  35.416  1.00  0.00     0.135 A 
ATOM     64  C   UNL A   1      44.056  27.562  36.510  1.00  0.00     0.135 A 
ATOM     65  F   UNL A   1      45.858  30.052  34.561  1.00  0.00    -0.206 F 
ATOM     66  C   UNL A   1      46.664  28.435  36.059  1.00  0.00     0.059 A 
ATOM     67  C   UNL A   1      45.109  26.946  37.181  1.00  0.00     0.059 A 
ATOM     68  F   UNL A   1      42.811  27.115  36.740  1.00  0.00    -0.206 F 
ATOM     69  C   UNL A   1      46.410  27.384  36.940  1.00  0.00     0.060 A 
BRANCH  69  70
ATOM     70  S   UNL A   1      47.806  26.610  37.785  1.00  0.00     0.124 S 
ATOM     71  O   UNL A   1      48.437  27.764  38.419  1.00  0.00    -0.237 OA
ATOM     72  O   UNL A   1      47.147  25.673  38.689  1.00  0.00    -0.237 OA
ATOM     73  O   UNL A   1      48.565  25.999  36.698  1.00  0.00    -0.744 OA
ENDBRANCH  69  70
ENDBRANCH  48  62
BRANCH  49  74
ATOM     74  C   UNL A   1      36.718  33.063  30.829  1.00  0.00     0.058 A 
ATOM     75  C   UNL A   1      36.934  33.952  29.765  1.00  0.00     0.135 A 
ATOM     76  C   UNL A   1      35.395  32.844  31.241  1.00  0.00     0.135 A 
ATOM     77  F   UNL A   1      38.182  34.198  29.340  1.00  0.00    -0.206 F 
ATOM     78  C   UNL A   1      35.881  34.627  29.154  1.00  0.00     0.059 A 
ATOM     79  C   UNL A   1      34.324  33.489  30.630  1.00  0.00     0.059 A 
ATOM     80  F   UNL A   1      35.135  31.990  32.244  1.00  0.00    -0.206 F 
ATOM     81  C   UNL A   1      34.579  34.393  29.600  1.00  0.00     0.060 A 
BRANCH  81  82
ATOM     82  S   UNL A   1      33.215  35.263  28.799  1.00  0.00     0.124 S 
ATOM     83  O   UNL A   1      33.922  36.317  28.081  1.00  0.00    -0.237 OA
ATOM     84  O   UNL A   1      32.619  34.218  27.972  1.00  0.00    -0.237 OA
ATOM     85  O   UNL A   1      32.395  35.703  29.924  1.00  0.00    -0.744 OA
ENDBRANCH  81  82
ENDBRANCH  49  74
BRANCH  61  86
ATOM     86  C   UNL A   1      39.853  34.160  36.944  1.00  0.00     0.058 A 
ATOM     87  C   UNL A   1      39.022  33.913  38.048  1.00  0.00     0.135 A 
ATOM     88  C   UNL A   1      40.529  35.388  36.890  1.00  0.00     0.135 A 
ATOM     89  F   UNL A   1      38.349  32.756  38.141  1.00  0.00    -0.206 F 
ATOM     90  C   UNL A   1      38.853  34.858  39.053  1.00  0.00     0.059 A 
ATOM     91  C   UNL A   1      40.391  36.341  37.895  1.00  0.00     0.059 A 
ATOM     92  F   UNL A   1      41.342  35.667  35.859  1.00  0.00    -0.206 F 
ATOM     93  C   UNL A   1      39.541  36.071  38.967  1.00  0.00     0.060 A 
BRANCH  93  94
ATOM     94  S   UNL A   1      39.343  37.279  40.294  1.00  0.00     0.124 S 
ATOM     95  O   UNL A   1      38.565  38.320  39.629  1.00  0.00    -0.237 OA
ATOM     96  O   UNL A   1      38.636  36.515  41.316  1.00  0.00    -0.237 OA
ATOM     97  O   UNL A   1      40.717  37.640  40.631  1.00  0.00    -0.744 OA
ENDBRANCH  93  94
ENDBRANCH  61  86
ENDBRANCH  35  36
ENDBRANCH  27  30
ENDBRANCH  25  26
ENDBRANCH  24  25
ENDBRANCH  23  24
ENDBRANCH   3  23
TORSDOF 19
ENDMDL
MODEL 2
REMARK VINA RESULT:     -11.2      6.255     11.926
REMARK SMILES CCCCCN(C)S(=O)(=O)c1cc(Cl)cc(C(=O)NCCCNC(=O)c2ccc(-c3c4nc(c(-c5c(F)cc(S(=O)(=O)[O-])cc5F)c5ccc([nH]5)c(-c5c(F)cc(S(=O)(=O)[O-])cc5F)c5nc(c(-c6c(F)cc(S(=O)(=O)[O-])cc6F)c6ccc3[nH]6)C=C5)C=C4)cc2)c1F
REMARK SMILES IDX 17 1 18 2 19 3 16 5 11 6 12 7 92 8 13 9 93 10 14 11 15 12
REMARK SMILES IDX 8 13 9 14 10 15 6 16 7 17 5 18 4 19 3 20 2 21 1 22 20 23
REMARK SMILES IDX 21 24 22 25 23 26 24 27 25 29 26 30 27 31 91 32 28 33 90 34
REMARK SMILES IDX 29 35 30 36 31 37 84 38 32 39 89 40 83 41 85 42 33 43 88 44
REMARK SMILES IDX 82 45 81 46 34 48 68 49 47 50 67 51 48 52 51 53 66 54 86 55
REMARK SMILES IDX 49 56 50 57 65 59 87 60 52 61 35 62 36 63 45 64 37 65 38 66
REMARK SMILES IDX 44 67 46 68 39 69 40 70 41 71 42 72 43 73 69 74 70 75 79 76
REMARK SMILES IDX 71 77 72 78 78 79 80 80 73 81 74 82 75 83 76 84 77 85 53 86
REMARK SMILES IDX 54 87 63 88 55 89 56 90 62 91 64 92 57 93 58 94 59 95 60 96
REMARK SMILES IDX 61 97
REMARK H PARENT 19 4 23 28 85 47 51 58
REMARK Flexibility Score: inf
ROOT
ATOM      1  C   UNL A   1      31.997  28.391  27.201  1.00  0.00     0.254 C 
ATOM      2  O   UNL A   1      31.223  27.846  27.989  1.00  0.00    -0.269 OA
ATOM      3  N   UNL A   1      32.943  29.250  27.709  1.00  0.00    -0.352 N 
ATOM      4  H   UNL A   1      32.835  29.436  28.671  1.00  0.00     0.163 HD
ENDROOT
BRANCH   1   5
ATOM      5  C   UNL A   1      31.894  28.030  25.765  1.00  0.00     0.078 A 
ATOM      6  C   UNL A   1      32.300  26.567  23.878  1.00  0.00     0.120 A 
ATOM      7  C   UNL A   1      31.661  27.441  23.007  1.00  0.00     0.045 A 
ATOM      8  C   UNL A   1      32.481  26.900  25.219  1.00  0.00     0.156 A 
ATOM      9  C   UNL A   1      31.140  28.625  23.528  1.00  0.00     0.043 A 
ATOM     10  F   UNL A   1      33.309  26.153  25.949  1.00  0.00    -0.205 F 
ATOM     11  Cl  UNL A   1      30.358  29.739  22.476  1.00  0.00    -0.084 Cl
ATOM     12  C   UNL A   1      31.231  28.912  24.897  1.00  0.00     0.037 A 
BRANCH   6  13
ATOM     13  S   UNL A   1      32.945  25.004  23.402  1.00  0.00     0.245 S 
ATOM     14  O   UNL A   1      34.039  25.268  22.493  1.00  0.00    -0.207 OA
ATOM     15  O   UNL A   1      31.782  24.235  23.031  1.00  0.00    -0.207 OA
BRANCH  13  16
ATOM     16  N   UNL A   1      33.676  24.266  24.778  1.00  0.00    -0.201 NA
ATOM     17  C   UNL A   1      35.173  24.319  24.765  1.00  0.00     0.124 C 
BRANCH  16  18
ATOM     18  C   UNL A   1      33.285  22.801  24.931  1.00  0.00     0.102 C 
BRANCH  18  19
ATOM     19  C   UNL A   1      34.147  21.766  24.206  1.00  0.00     0.017 C 
BRANCH  19  20
ATOM     20  C   UNL A   1      34.635  20.505  24.946  1.00  0.00     0.001 C 
BRANCH  20  21
ATOM     21  C   UNL A   1      33.856  19.203  24.750  1.00  0.00    -0.003 C 
ATOM     22  C   UNL A   1      32.543  19.395  24.013  1.00  0.00     0.004 C 
ENDBRANCH  20  21
ENDBRANCH  19  20
ENDBRANCH  18  19
ENDBRANCH  16  18
ENDBRANCH  13  16
ENDBRANCH   6  13
ENDBRANCH   1   5
BRANCH   3  23
ATOM     23  C   UNL A   1      34.076  29.939  27.100  1.00  0.00     0.118 C 
BRANCH  23  24
ATOM     24  C   UNL A   1      34.253  31.364  27.634  1.00  0.00     0.042 C 
BRANCH  24  25
ATOM     25  C   UNL A   1      35.550  31.602  28.398  1.00  0.00     0.118 C 
BRANCH  25  26
ATOM     26  N   UNL A   1      35.430  31.287  29.812  1.00  0.00    -0.352 N 
ATOM     27  C   UNL A   1      36.285  30.597  30.638  1.00  0.00     0.251 C 
ATOM     28  H   UNL A   1      34.611  31.620  30.245  1.00  0.00     0.163 HD
ATOM     29  O   UNL A   1      35.903  30.297  31.768  1.00  0.00    -0.269 OA
BRANCH  27  30
ATOM     30  C   UNL A   1      37.643  30.198  30.191  1.00  0.00     0.039 A 
ATOM     31  C   UNL A   1      38.597  29.872  31.162  1.00  0.00     0.014 A 
ATOM     32  C   UNL A   1      38.008  30.196  28.840  1.00  0.00     0.014 A 
ATOM     33  C   UNL A   1      39.892  29.502  30.781  1.00  0.00     0.010 A 
ATOM     34  C   UNL A   1      39.282  29.771  28.459  1.00  0.00     0.010 A 
ATOM     35  C   UNL A   1      40.239  29.425  29.424  1.00  0.00    -0.014 A 
BRANCH  35  36
ATOM     36  C   UNL A   1      41.602  29.009  29.000  1.00  0.00     0.031 A 
ATOM     37  C   UNL A   1      42.724  30.014  28.970  1.00  0.00     0.074 A 
ATOM     38  C   UNL A   1      41.824  27.740  28.599  1.00  0.00     0.049 A 
ATOM     39  N   UNL A   1      43.952  29.871  28.540  1.00  0.00    -0.248 NA
ATOM     40  C   UNL A   1      42.420  31.363  29.475  1.00  0.00     0.031 C 
ATOM     41  C   UNL A   1      40.818  26.678  28.556  1.00  0.00     0.029 A 
ATOM     42  N   UNL A   1      42.966  27.133  28.140  1.00  0.00    -0.354 N 
ATOM     43  C   UNL A   1      44.563  31.107  28.713  1.00  0.00     0.074 A 
ATOM     44  C   UNL A   1      43.560  32.002  29.249  1.00  0.00     0.031 C 
ATOM     45  C   UNL A   1      41.389  25.547  28.108  1.00  0.00     0.029 A 
ATOM     46  C   UNL A   1      42.792  25.811  27.800  1.00  0.00     0.049 A 
ATOM     47  H   UNL A   1      43.830  27.599  28.062  1.00  0.00     0.167 HD
ATOM     48  C   UNL A   1      45.848  31.462  28.468  1.00  0.00     0.037 A 
ATOM     49  C   UNL A   1      43.660  24.918  27.289  1.00  0.00     0.037 A 
ATOM     50  C   UNL A   1      46.852  30.566  27.956  1.00  0.00     0.049 A 
ATOM     51  C   UNL A   1      45.081  25.339  27.021  1.00  0.00     0.074 A 
ATOM     52  C   UNL A   1      48.185  30.830  27.684  1.00  0.00     0.029 A 
ATOM     53  N   UNL A   1      46.642  29.229  27.656  1.00  0.00    -0.354 N 
ATOM     54  N   UNL A   1      45.641  26.511  27.205  1.00  0.00    -0.248 NA
ATOM     55  C   UNL A   1      45.988  24.316  26.483  1.00  0.00     0.031 C 
ATOM     56  C   UNL A   1      48.775  29.657  27.203  1.00  0.00     0.029 A 
ATOM     57  C   UNL A   1      47.818  28.655  27.205  1.00  0.00     0.049 A 
ATOM     58  H   UNL A   1      45.782  28.758  27.750  1.00  0.00     0.167 HD
ATOM     59  C   UNL A   1      46.972  26.356  26.829  1.00  0.00     0.074 A 
ATOM     60  C   UNL A   1      47.135  24.977  26.418  1.00  0.00     0.031 C 
ATOM     61  C   UNL A   1      47.968  27.275  26.823  1.00  0.00     0.037 A 
BRANCH  48  62
ATOM     62  C   UNL A   1      46.250  32.878  28.767  1.00  0.00     0.058 A 
ATOM     63  C   UNL A   1      46.771  33.237  30.020  1.00  0.00     0.135 A 
ATOM     64  C   UNL A   1      46.167  33.874  27.782  1.00  0.00     0.135 A 
ATOM     65  F   UNL A   1      46.855  32.324  31.002  1.00  0.00    -0.206 F 
ATOM     66  C   UNL A   1      47.181  34.537  30.292  1.00  0.00     0.059 A 
ATOM     67  C   UNL A   1      46.593  35.178  28.025  1.00  0.00     0.059 A 
ATOM     68  F   UNL A   1      45.676  33.586  26.566  1.00  0.00    -0.206 F 
ATOM     69  C   UNL A   1      47.088  35.501  29.288  1.00  0.00     0.060 A 
BRANCH  69  70
ATOM     70  S   UNL A   1      47.646  37.180  29.649  1.00  0.00     0.124 S 
ATOM     71  O   UNL A   1      46.387  37.835  29.992  1.00  0.00    -0.237 OA
ATOM     72  O   UNL A   1      48.574  36.973  30.756  1.00  0.00    -0.237 OA
ATOM     73  O   UNL A   1      48.257  37.612  28.395  1.00  0.00    -0.744 OA
ENDBRANCH  69  70
ENDBRANCH  48  62
BRANCH  49  74
ATOM     74  C   UNL A   1      43.224  23.527  26.996  1.00  0.00     0.058 A 
ATOM     75  C   UNL A   1      43.097  22.582  28.025  1.00  0.00     0.135 A 
ATOM     76  C   UNL A   1      42.955  23.108  25.685  1.00  0.00     0.135 A 
ATOM     77  F   UNL A   1      43.349  22.935  29.295  1.00  0.00    -0.206 F 
ATOM     78  C   UNL A   1      42.752  21.260  27.762  1.00  0.00     0.059 A 
ATOM     79  C   UNL A   1      42.587  21.797  25.399  1.00  0.00     0.059 A 
ATOM     80  F   UNL A   1      43.047  23.979  24.667  1.00  0.00    -0.206 F 
ATOM     81  C   UNL A   1      42.506  20.876  26.443  1.00  0.00     0.060 A 
BRANCH  81  82
ATOM     82  S   UNL A   1      42.050  19.161  26.105  1.00  0.00     0.124 S 
ATOM     83  O   UNL A   1      42.894  18.855  24.957  1.00  0.00    -0.237 OA
ATOM     84  O   UNL A   1      42.404  18.492  27.353  1.00  0.00    -0.237 OA
ATOM     85  O   UNL A   1      40.618  19.246  25.835  1.00  0.00    -0.744 OA
ENDBRANCH  81  82
ENDBRANCH  49  74
BRANCH  61  86
ATOM     86  C   UNL A   1      49.331  26.809  26.401  1.00  0.00     0.058 A 
ATOM     87  C   UNL A   1      50.212  26.197  27.307  1.00  0.00     0.135 A 
ATOM     88  C   UNL A   1      49.743  26.936  25.065  1.00  0.00     0.135 A 
ATOM     89  F   UNL A   1      49.866  26.059  28.596  1.00  0.00    -0.206 F 
ATOM     90  C   UNL A   1      51.463  25.744  26.906  1.00  0.00     0.059 A 
ATOM     91  C   UNL A   1      50.983  26.472  24.638  1.00  0.00     0.059 A 
ATOM     92  F   UNL A   1      48.932  27.506  24.160  1.00  0.00    -0.206 F 
ATOM     93  C   UNL A   1      51.841  25.887  25.569  1.00  0.00     0.060 A 
BRANCH  93  94
ATOM     94  S   UNL A   1      53.454  25.265  25.049  1.00  0.00     0.124 S 
ATOM     95  O   UNL A   1      54.350  25.995  25.940  1.00  0.00    -0.237 OA
ATOM     96  O   UNL A   1      53.338  23.832  25.301  1.00  0.00    -0.237 OA
ATOM     97  O   UNL A   1      53.525  25.642  23.641  1.00  0.00    -0.744 OA
ENDBRANCH  93  94
ENDBRANCH  61  86
ENDBRANCH  35  36
ENDBRANCH  27  30
ENDBRANCH  25  26
ENDBRANCH  24  25
ENDBRANCH  23  24
ENDBRANCH   3  23
TORSDOF 19
ENDMDL
MODEL 3
REMARK VINA RESULT:     -11.1      6.491     11.804
REMARK SMILES CCCCCN(C)S(=O)(=O)c1cc(Cl)cc(C(=O)NCCCNC(=O)c2ccc(-c3c4nc(c(-c5c(F)cc(S(=O)(=O)[O-])cc5F)c5ccc([nH]5)c(-c5c(F)cc(S(=O)(=O)[O-])cc5F)c5nc(c(-c6c(F)cc(S(=O)(=O)[O-])cc6F)c6ccc3[nH]6)C=C5)C=C4)cc2)c1F
REMARK SMILES IDX 17 1 18 2 19 3 16 5 11 6 12 7 92 8 13 9 93 10 14 11 15 12
REMARK SMILES IDX 8 13 9 14 10 15 6 16 7 17 5 18 4 19 3 20 2 21 1 22 20 23
REMARK SMILES IDX 21 24 22 25 23 26 24 27 25 29 26 30 27 31 91 32 28 33 90 34
REMARK SMILES IDX 29 35 30 36 31 37 84 38 32 39 89 40 83 41 85 42 33 43 88 44
REMARK SMILES IDX 82 45 81 46 34 48 68 49 47 50 67 51 48 52 51 53 66 54 86 55
REMARK SMILES IDX 49 56 50 57 65 59 87 60 52 61 35 62 36 63 45 64 37 65 38 66
REMARK SMILES IDX 44 67 46 68 39 69 40 70 41 71 42 72 43 73 69 74 70 75 79 76
REMARK SMILES IDX 71 77 72 78 78 79 80 80 73 81 74 82 75 83 76 84 77 85 53 86
REMARK SMILES IDX 54 87 63 88 55 89 56 90 62 91 64 92 57 93 58 94 59 95 60 96
REMARK SMILES IDX 61 97
REMARK H PARENT 19 4 23 28 85 47 51 58
REMARK Flexibility Score: inf
ROOT
ATOM      1  C   UNL A   1      32.029  28.332  27.093  1.00  0.00     0.254 C 
ATOM      2  O   UNL A   1      31.238  27.770  27.852  1.00  0.00    -0.269 OA
ATOM      3  N   UNL A   1      32.891  29.262  27.625  1.00  0.00    -0.352 N 
ATOM      4  H   UNL A   1      32.712  29.474  28.571  1.00  0.00     0.163 HD
ENDROOT
BRANCH   1   5
ATOM      5  C   UNL A   1      32.037  27.916  25.668  1.00  0.00     0.078 A 
ATOM      6  C   UNL A   1      32.672  26.434  23.862  1.00  0.00     0.120 A 
ATOM      7  C   UNL A   1      32.009  27.219  22.926  1.00  0.00     0.045 A 
ATOM      8  C   UNL A   1      32.750  26.826  25.196  1.00  0.00     0.156 A 
ATOM      9  C   UNL A   1      31.358  28.367  23.374  1.00  0.00     0.043 A 
ATOM     10  F   UNL A   1      33.598  26.180  25.996  1.00  0.00    -0.205 F 
ATOM     11  Cl  UNL A   1      30.541  29.372  22.242  1.00  0.00    -0.084 Cl
ATOM     12  C   UNL A   1      31.349  28.707  24.734  1.00  0.00     0.037 A 
BRANCH   6  13
ATOM     13  S   UNL A   1      33.477  24.920  23.479  1.00  0.00     0.245 S 
ATOM     14  O   UNL A   1      34.616  24.821  24.366  1.00  0.00    -0.207 OA
ATOM     15  O   UNL A   1      33.599  24.934  22.041  1.00  0.00    -0.207 OA
BRANCH  13  16
ATOM     16  N   UNL A   1      32.444  23.616  23.931  1.00  0.00    -0.201 NA
ATOM     17  C   UNL A   1      30.999  23.998  24.025  1.00  0.00     0.124 C 
BRANCH  16  18
ATOM     18  C   UNL A   1      32.830  23.005  25.273  1.00  0.00     0.102 C 
BRANCH  18  19
ATOM     19  C   UNL A   1      32.756  21.482  25.397  1.00  0.00     0.017 C 
BRANCH  19  20
ATOM     20  C   UNL A   1      34.029  20.627  25.242  1.00  0.00     0.001 C 
BRANCH  20  21
ATOM     21  C   UNL A   1      33.895  19.228  24.639  1.00  0.00    -0.003 C 
ATOM     22  C   UNL A   1      32.831  18.383  25.317  1.00  0.00     0.004 C 
ENDBRANCH  20  21
ENDBRANCH  19  20
ENDBRANCH  18  19
ENDBRANCH  16  18
ENDBRANCH  13  16
ENDBRANCH   6  13
ENDBRANCH   1   5
BRANCH   3  23
ATOM     23  C   UNL A   1      34.020  29.994  27.061  1.00  0.00     0.118 C 
BRANCH  23  24
ATOM     24  C   UNL A   1      34.336  31.276  27.837  1.00  0.00     0.042 C 
BRANCH  24  25
ATOM     25  C   UNL A   1      35.701  31.293  28.511  1.00  0.00     0.118 C 
BRANCH  25  26
ATOM     26  N   UNL A   1      35.651  30.819  29.884  1.00  0.00    -0.352 N 
ATOM     27  C   UNL A   1      36.562  30.073  30.594  1.00  0.00     0.251 C 
ATOM     28  H   UNL A   1      34.842  31.072  30.383  1.00  0.00     0.163 HD
ATOM     29  O   UNL A   1      36.237  29.634  31.696  1.00  0.00    -0.269 OA
BRANCH  27  30
ATOM     30  C   UNL A   1      37.911  29.775  30.052  1.00  0.00     0.039 A 
ATOM     31  C   UNL A   1      38.952  29.523  30.954  1.00  0.00     0.014 A 
ATOM     32  C   UNL A   1      38.181  29.798  28.680  1.00  0.00     0.014 A 
ATOM     33  C   UNL A   1      40.242  29.250  30.484  1.00  0.00     0.010 A 
ATOM     34  C   UNL A   1      39.454  29.468  28.209  1.00  0.00     0.010 A 
ATOM     35  C   UNL A   1      40.499  29.196  29.106  1.00  0.00    -0.014 A 
BRANCH  35  36
ATOM     36  C   UNL A   1      41.857  28.882  28.586  1.00  0.00     0.031 A 
ATOM     37  C   UNL A   1      42.198  27.477  28.165  1.00  0.00     0.074 A 
ATOM     38  C   UNL A   1      42.797  29.848  28.534  1.00  0.00     0.049 A 
ATOM     39  N   UNL A   1      43.348  26.985  27.780  1.00  0.00    -0.248 NA
ATOM     40  C   UNL A   1      41.106  26.491  28.197  1.00  0.00     0.031 C 
ATOM     41  C   UNL A   1      42.601  31.243  28.936  1.00  0.00     0.029 A 
ATOM     42  N   UNL A   1      44.108  29.801  28.130  1.00  0.00    -0.354 N 
ATOM     43  C   UNL A   1      43.123  25.636  27.533  1.00  0.00     0.074 A 
ATOM     44  C   UNL A   1      41.735  25.376  27.851  1.00  0.00     0.031 C 
ATOM     45  C   UNL A   1      43.747  31.920  28.748  1.00  0.00     0.029 A 
ATOM     46  C   UNL A   1      44.765  31.004  28.245  1.00  0.00     0.049 A 
ATOM     47  H   UNL A   1      44.537  28.984  27.790  1.00  0.00     0.167 HD
ATOM     48  C   UNL A   1      43.985  24.702  27.064  1.00  0.00     0.037 A 
ATOM     49  C   UNL A   1      46.047  31.328  27.984  1.00  0.00     0.037 A 
ATOM     50  C   UNL A   1      45.360  24.966  26.725  1.00  0.00     0.049 A 
ATOM     51  C   UNL A   1      46.986  30.271  27.468  1.00  0.00     0.074 A 
ATOM     52  C   UNL A   1      46.310  24.086  26.234  1.00  0.00     0.029 A 
ATOM     53  N   UNL A   1      45.976  26.203  26.826  1.00  0.00    -0.354 N 
ATOM     54  N   UNL A   1      46.748  29.003  27.229  1.00  0.00    -0.248 NA
ATOM     55  C   UNL A   1      48.366  30.688  27.182  1.00  0.00     0.031 C 
ATOM     56  C   UNL A   1      47.506  24.789  26.053  1.00  0.00     0.029 A 
ATOM     57  C   UNL A   1      47.292  26.112  26.403  1.00  0.00     0.049 A 
ATOM     58  H   UNL A   1      45.542  27.025  27.150  1.00  0.00     0.167 HD
ATOM     59  C   UNL A   1      47.940  28.480  26.740  1.00  0.00     0.074 A 
ATOM     60  C   UNL A   1      48.894  29.569  26.708  1.00  0.00     0.031 C 
ATOM     61  C   UNL A   1      48.220  27.211  26.356  1.00  0.00     0.037 A 
BRANCH  48  62
ATOM     62  C   UNL A   1      43.465  23.306  26.871  1.00  0.00     0.058 A 
ATOM     63  C   UNL A   1      43.228  22.790  25.587  1.00  0.00     0.135 A 
ATOM     64  C   UNL A   1      43.252  22.457  27.968  1.00  0.00     0.135 A 
ATOM     65  F   UNL A   1      43.400  23.567  24.505  1.00  0.00    -0.206 F 
ATOM     66  C   UNL A   1      42.783  21.486  25.398  1.00  0.00     0.059 A 
ATOM     67  C   UNL A   1      42.828  21.141  27.801  1.00  0.00     0.059 A 
ATOM     68  F   UNL A   1      43.463  22.901  29.217  1.00  0.00    -0.206 F 
ATOM     69  C   UNL A   1      42.586  20.670  26.511  1.00  0.00     0.060 A 
BRANCH  69  70
ATOM     70  S   UNL A   1      42.029  18.972  26.249  1.00  0.00     0.124 S 
ATOM     71  O   UNL A   1      42.960  18.517  25.221  1.00  0.00    -0.237 OA
ATOM     72  O   UNL A   1      42.203  18.376  27.570  1.00  0.00    -0.237 OA
ATOM     73  O   UNL A   1      40.644  19.132  25.815  1.00  0.00    -0.744 OA
ENDBRANCH  69  70
ENDBRANCH  48  62
BRANCH  49  74
ATOM     74  C   UNL A   1      46.528  32.718  28.197  1.00  0.00     0.058 A 
ATOM     75  C   UNL A   1      47.106  33.101  29.418  1.00  0.00     0.135 A 
ATOM     76  C   UNL A   1      46.394  33.697  27.201  1.00  0.00     0.135 A 
ATOM     77  F   UNL A   1      47.249  32.201  30.402  1.00  0.00    -0.206 F 
ATOM     78  C   UNL A   1      47.502  34.413  29.657  1.00  0.00     0.059 A 
ATOM     79  C   UNL A   1      46.804  35.010  27.408  1.00  0.00     0.059 A 
ATOM     80  F   UNL A   1      45.863  33.377  26.011  1.00  0.00    -0.206 F 
ATOM     81  C   UNL A   1      47.340  35.362  28.646  1.00  0.00     0.060 A 
BRANCH  81  82
ATOM     82  S   UNL A   1      47.864  37.062  28.957  1.00  0.00     0.124 S 
ATOM     83  O   UNL A   1      46.958  37.810  28.093  1.00  0.00    -0.237 OA
ATOM     84  O   UNL A   1      47.637  37.203  30.392  1.00  0.00    -0.237 OA
ATOM     85  O   UNL A   1      49.266  37.057  28.551  1.00  0.00    -0.744 OA
ENDBRANCH  81  82
ENDBRANCH  49  74
BRANCH  61  86
ATOM     86  C   UNL A   1      49.598  26.942  25.824  1.00  0.00     0.058 A 
ATOM     87  C   UNL A   1      49.913  27.131  24.469  1.00  0.00     0.135 A 
ATOM     88  C   UNL A   1      50.625  26.532  26.688  1.00  0.00     0.135 A 
ATOM     89  F   UNL A   1      48.964  27.516  23.602  1.00  0.00    -0.206 F 
ATOM     90  C   UNL A   1      51.197  26.905  23.986  1.00  0.00     0.059 A 
ATOM     91  C   UNL A   1      51.921  26.319  26.230  1.00  0.00     0.059 A 
ATOM     92  F   UNL A   1      50.374  26.345  27.994  1.00  0.00    -0.206 F 
ATOM     93  C   UNL A   1      52.195  26.497  24.875  1.00  0.00     0.060 A 
BRANCH  93  94
ATOM     94  S   UNL A   1      53.867  26.238  24.245  1.00  0.00     0.124 S 
ATOM     95  O   UNL A   1      54.234  24.984  24.894  1.00  0.00    -0.237 OA
ATOM     96  O   UNL A   1      53.656  26.168  22.803  1.00  0.00    -0.237 OA
ATOM     97  O   UNL A   1      54.589  27.420  24.708  1.00  0.00    -0.744 OA
ENDBRANCH  93  94
ENDBRANCH  61  86
ENDBRANCH  35  36
ENDBRANCH  27  30
ENDBRANCH  25  26
ENDBRANCH  24  25
ENDBRANCH  23  24
ENDBRANCH   3  23
TORSDOF 19
ENDMDL
