MODEL 1
REMARK VINA RESULT:     -11.2      0.000      0.000
REMARK SMILES O=C(C[C@H]1C[N@@H+](Cc2c(F)cccc2F)CCO1)NCCCNC(=O)c1ccc(-c2c3nc(c(-c4c(F)cc(S(=O)(=O)[O-])cc4F)c4ccc([nH]4)c(-c4c(F)cc(S(=O)(=O)[O-])cc4F)c4nc(c(-c5c(F)cc(S(=O)(=O)[O-])cc5F)c5ccc2[nH]5)C=C4)C=C3)cc1
REMARK SMILES IDX 21 1 20 2 19 3 1 4 2 5 3 7 4 8 5 9 18 10 6 11 17 12 16 13
REMARK SMILES IDX 7 15 8 16 9 17 14 18 10 19 11 20 13 21 15 22 12 23 22 24
REMARK SMILES IDX 23 25 24 26 25 28 26 29 27 30 91 31 28 32 90 33 29 34 30 35
REMARK SMILES IDX 31 36 84 37 32 38 89 39 83 40 85 41 33 42 88 43 82 44 81 45
REMARK SMILES IDX 34 47 68 48 47 49 67 50 48 51 51 52 66 53 86 54 49 55 50 56
REMARK SMILES IDX 65 58 87 59 52 60 35 61 36 62 45 63 37 64 38 65 44 66 46 67
REMARK SMILES IDX 39 68 40 69 41 70 42 71 43 72 69 73 70 74 79 75 71 76 72 77
REMARK SMILES IDX 78 78 80 79 73 80 74 81 75 82 76 83 77 84 53 85 54 86 63 87
REMARK SMILES IDX 55 88 56 89 62 90 64 91 57 92 58 93 59 94 60 95 61 96
REMARK H PARENT 19 6 6 14 23 27 85 46 51 57
REMARK Flexibility Score: inf
ROOT
ATOM      1  C   UNL A   1      33.675  33.563  27.925  1.00  0.00     0.042 C 
ENDROOT
BRANCH   1   2
ATOM      2  C   UNL A   1      34.442  34.870  27.915  1.00  0.00     0.117 C 
BRANCH   2   3
ATOM      3  N   UNL A   1      34.305  35.578  29.174  1.00  0.00    -0.356 N 
ATOM      4  O   UNL A   1      32.234  36.270  28.645  1.00  0.00    -0.275 OA
ATOM      5  C   UNL A   1      33.155  36.260  29.450  1.00  0.00     0.222 C 
ATOM      6  H   UNL A   1      35.041  35.567  29.827  1.00  0.00     0.163 HD
BRANCH   5   7
ATOM      7  C   UNL A   1      33.144  37.039  30.733  1.00  0.00     0.138 C 
BRANCH   7   8
ATOM      8  C   UNL A   1      32.751  36.260  31.994  1.00  0.00     0.182 C 
ATOM      9  C   UNL A   1      33.318  34.825  32.075  1.00  0.00     0.295 C 
ATOM     10  O   UNL A   1      32.830  36.984  33.230  1.00  0.00    -0.366 OA
ATOM     11  N   UNL A   1      34.573  34.674  32.781  1.00  0.00    -0.327 N 
ATOM     12  C   UNL A   1      34.078  36.865  33.930  1.00  0.00     0.222 C 
ATOM     13  C   UNL A   1      34.641  35.440  34.013  1.00  0.00     0.291 C 
ATOM     14  H   UNL A   1      34.542  33.710  33.116  1.00  0.00     0.348 HD
BRANCH  11  15
ATOM     15  C   UNL A   1      35.787  34.325  32.056  1.00  0.00     0.305 C 
BRANCH  15  16
ATOM     16  C   UNL A   1      36.660  33.222  32.582  1.00  0.00     0.078 A 
ATOM     17  C   UNL A   1      36.307  31.876  32.433  1.00  0.00     0.135 A 
ATOM     18  C   UNL A   1      37.874  33.495  33.219  1.00  0.00     0.135 A 
ATOM     19  F   UNL A   1      35.165  31.548  31.812  1.00  0.00    -0.206 F 
ATOM     20  C   UNL A   1      37.102  30.845  32.946  1.00  0.00     0.040 A 
ATOM     21  C   UNL A   1      38.685  32.478  33.734  1.00  0.00     0.040 A 
ATOM     22  F   UNL A   1      38.279  34.765  33.371  1.00  0.00    -0.206 F 
ATOM     23  C   UNL A   1      38.291  31.147  33.611  1.00  0.00     0.006 A 
ENDBRANCH  15  16
ENDBRANCH  11  15
ENDBRANCH   7   8
ENDBRANCH   5   7
ENDBRANCH   2   3
ENDBRANCH   1   2
BRANCH   1  24
ATOM     24  C   UNL A   1      34.504  32.395  28.428  1.00  0.00     0.118 C 
BRANCH  24  25
ATOM     25  N   UNL A   1      33.881  31.106  28.146  1.00  0.00    -0.352 N 
ATOM     26  C   UNL A   1      34.483  29.888  27.968  1.00  0.00     0.251 C 
ATOM     27  H   UNL A   1      32.899  31.112  28.075  1.00  0.00     0.163 HD
ATOM     28  O   UNL A   1      33.855  28.935  27.526  1.00  0.00    -0.269 OA
BRANCH  26  29
ATOM     29  C   UNL A   1      35.908  29.770  28.312  1.00  0.00     0.039 A 
ATOM     30  C   UNL A   1      36.269  29.316  29.580  1.00  0.00     0.014 A 
ATOM     31  C   UNL A   1      36.871  30.037  27.335  1.00  0.00     0.014 A 
ATOM     32  C   UNL A   1      37.613  29.071  29.849  1.00  0.00     0.010 A 
ATOM     33  C   UNL A   1      38.192  29.701  27.575  1.00  0.00     0.010 A 
ATOM     34  C   UNL A   1      38.575  29.226  28.837  1.00  0.00    -0.014 A 
BRANCH  34  35
ATOM     35  C   UNL A   1      40.001  28.913  29.074  1.00  0.00     0.031 A 
ATOM     36  C   UNL A   1      40.905  29.974  29.634  1.00  0.00     0.074 A 
ATOM     37  C   UNL A   1      40.484  27.706  28.718  1.00  0.00     0.049 A 
ATOM     38  N   UNL A   1      42.196  29.938  29.829  1.00  0.00    -0.248 NA
ATOM     39  C   UNL A   1      40.281  31.261  29.992  1.00  0.00     0.031 C 
ATOM     40  C   UNL A   1      39.698  26.622  28.125  1.00  0.00     0.029 A 
ATOM     41  N   UNL A   1      41.751  27.190  28.796  1.00  0.00    -0.354 N 
ATOM     42  C   UNL A   1      42.537  31.192  30.320  1.00  0.00     0.074 A 
ATOM     43  C   UNL A   1      41.333  31.989  30.332  1.00  0.00     0.031 C 
ATOM     44  C   UNL A   1      40.494  25.561  27.922  1.00  0.00     0.029 A 
ATOM     45  C   UNL A   1      41.854  25.904  28.325  1.00  0.00     0.049 A 
ATOM     46  H   UNL A   1      42.517  27.694  29.157  1.00  0.00     0.167 HD
ATOM     47  C   UNL A   1      43.744  31.626  30.749  1.00  0.00     0.037 A 
ATOM     48  C   UNL A   1      42.927  25.096  28.220  1.00  0.00     0.037 A 
ATOM     49  C   UNL A   1      44.926  30.807  30.754  1.00  0.00     0.049 A 
ATOM     50  C   UNL A   1      44.263  25.608  28.686  1.00  0.00     0.074 A 
ATOM     51  C   UNL A   1      46.190  31.127  31.215  1.00  0.00     0.029 A 
ATOM     52  N   UNL A   1      44.990  29.506  30.274  1.00  0.00    -0.354 N 
ATOM     53  N   UNL A   1      44.561  26.779  29.199  1.00  0.00    -0.248 NA
ATOM     54  C   UNL A   1      45.409  24.698  28.560  1.00  0.00     0.031 C 
ATOM     55  C   UNL A   1      47.031  30.040  30.964  1.00  0.00     0.029 A 
ATOM     56  C   UNL A   1      46.279  29.019  30.403  1.00  0.00     0.049 A 
ATOM     57  H   UNL A   1      44.231  29.004  29.898  1.00  0.00     0.167 HD
ATOM     58  C   UNL A   1      45.922  26.738  29.480  1.00  0.00     0.074 A 
ATOM     59  C   UNL A   1      46.386  25.422  29.089  1.00  0.00     0.031 C 
ATOM     60  C   UNL A   1      46.716  27.700  30.012  1.00  0.00     0.037 A 
BRANCH  47  61
ATOM     61  C   UNL A   1      43.845  33.038  31.256  1.00  0.00     0.058 A 
ATOM     62  C   UNL A   1      43.596  33.331  32.606  1.00  0.00     0.135 A 
ATOM     63  C   UNL A   1      44.140  34.110  30.398  1.00  0.00     0.135 A 
ATOM     64  F   UNL A   1      43.315  32.343  33.472  1.00  0.00    -0.206 F 
ATOM     65  C   UNL A   1      43.626  34.636  33.090  1.00  0.00     0.059 A 
ATOM     66  C   UNL A   1      44.207  35.418  30.866  1.00  0.00     0.059 A 
ATOM     67  F   UNL A   1      44.406  33.887  29.102  1.00  0.00    -0.206 F 
ATOM     68  C   UNL A   1      43.943  35.672  32.213  1.00  0.00     0.060 A 
BRANCH  68  69
ATOM     69  S   UNL A   1      44.017  37.378  32.793  1.00  0.00     0.124 S 
ATOM     70  O   UNL A   1      45.371  37.443  33.338  1.00  0.00    -0.237 OA
ATOM     71  O   UNL A   1      43.792  38.132  31.566  1.00  0.00    -0.237 OA
ATOM     72  O   UNL A   1      42.944  37.451  33.780  1.00  0.00    -0.744 OA
ENDBRANCH  68  69
ENDBRANCH  47  61
BRANCH  48  73
ATOM     73  C   UNL A   1      42.770  23.721  27.674  1.00  0.00     0.058 A 
ATOM     74  C   UNL A   1      42.782  23.479  26.290  1.00  0.00     0.135 A 
ATOM     75  C   UNL A   1      42.570  22.625  28.525  1.00  0.00     0.135 A 
ATOM     76  F   UNL A   1      42.952  24.495  25.430  1.00  0.00    -0.206 F 
ATOM     77  C   UNL A   1      42.583  22.204  25.768  1.00  0.00     0.059 A 
ATOM     78  C   UNL A   1      42.396  21.337  28.028  1.00  0.00     0.059 A 
ATOM     79  F   UNL A   1      42.554  22.803  29.855  1.00  0.00    -0.206 F 
ATOM     80  C   UNL A   1      42.397  21.138  26.647  1.00  0.00     0.060 A 
BRANCH  80  81
ATOM     81  S   UNL A   1      42.121  19.469  26.015  1.00  0.00     0.124 S 
ATOM     82  O   UNL A   1      42.554  18.651  27.142  1.00  0.00    -0.237 OA
ATOM     83  O   UNL A   1      40.686  19.481  25.747  1.00  0.00    -0.237 OA
ATOM     84  O   UNL A   1      42.973  19.412  24.831  1.00  0.00    -0.744 OA
ENDBRANCH  80  81
ENDBRANCH  48  73
BRANCH  60  85
ATOM     85  C   UNL A   1      48.165  27.368  30.232  1.00  0.00     0.058 A 
ATOM     86  C   UNL A   1      48.577  26.748  31.424  1.00  0.00     0.135 A 
ATOM     87  C   UNL A   1      49.154  27.752  29.314  1.00  0.00     0.135 A 
ATOM     88  F   UNL A   1      47.669  26.371  32.338  1.00  0.00    -0.206 F 
ATOM     89  C   UNL A   1      49.921  26.541  31.710  1.00  0.00     0.059 A 
ATOM     90  C   UNL A   1      50.502  27.528  29.567  1.00  0.00     0.059 A 
ATOM     91  F   UNL A   1      48.811  28.342  28.158  1.00  0.00    -0.206 F 
ATOM     92  C   UNL A   1      50.877  26.931  30.774  1.00  0.00     0.060 A 
BRANCH  92  93
ATOM     93  S   UNL A   1      52.636  26.702  31.109  1.00  0.00     0.124 S 
ATOM     94  O   UNL A   1      53.121  26.217  29.822  1.00  0.00    -0.237 OA
ATOM     95  O   UNL A   1      53.057  28.050  31.479  1.00  0.00    -0.237 OA
ATOM     96  O   UNL A   1      52.652  25.725  32.194  1.00  0.00    -0.744 OA
ENDBRANCH  92  93
ENDBRANCH  60  85
ENDBRANCH  34  35
ENDBRANCH  26  29
ENDBRANCH  24  25
ENDBRANCH   1  24
TORSDOF 16
ENDMDL
MODEL 2
REMARK VINA RESULT:     -11.0      3.476      6.686
REMARK SMILES O=C(C[C@H]1C[N@@H+](Cc2c(F)cccc2F)CCO1)NCCCNC(=O)c1ccc(-c2c3nc(c(-c4c(F)cc(S(=O)(=O)[O-])cc4F)c4ccc([nH]4)c(-c4c(F)cc(S(=O)(=O)[O-])cc4F)c4nc(c(-c5c(F)cc(S(=O)(=O)[O-])cc5F)c5ccc2[nH]5)C=C4)C=C3)cc1
REMARK SMILES IDX 21 1 20 2 19 3 1 4 2 5 3 7 4 8 5 9 18 10 6 11 17 12 16 13
REMARK SMILES IDX 7 15 8 16 9 17 14 18 10 19 11 20 13 21 15 22 12 23 22 24
REMARK SMILES IDX 23 25 24 26 25 28 26 29 27 30 91 31 28 32 90 33 29 34 30 35
REMARK SMILES IDX 31 36 84 37 32 38 89 39 83 40 85 41 33 42 88 43 82 44 81 45
REMARK SMILES IDX 34 47 68 48 47 49 67 50 48 51 51 52 66 53 86 54 49 55 50 56
REMARK SMILES IDX 65 58 87 59 52 60 35 61 36 62 45 63 37 64 38 65 44 66 46 67
REMARK SMILES IDX 39 68 40 69 41 70 42 71 43 72 69 73 70 74 79 75 71 76 72 77
REMARK SMILES IDX 78 78 80 79 73 80 74 81 75 82 76 83 77 84 53 85 54 86 63 87
REMARK SMILES IDX 55 88 56 89 62 90 64 91 57 92 58 93 59 94 60 95 61 96
REMARK H PARENT 19 6 6 14 23 27 85 46 51 57
REMARK Flexibility Score: inf
ROOT
ATOM      1  C   UNL A   1      34.002  28.226  25.420  1.00  0.00     0.042 C 
ENDROOT
BRANCH   1   2
ATOM      2  C   UNL A   1      32.978  27.424  24.642  1.00  0.00     0.117 C 
BRANCH   2   3
ATOM      3  N   UNL A   1      33.360  26.029  24.540  1.00  0.00    -0.356 N 
ATOM      4  O   UNL A   1      33.624  26.187  22.315  1.00  0.00    -0.275 OA
ATOM      5  C   UNL A   1      33.664  25.493  23.321  1.00  0.00     0.222 C 
ATOM      6  H   UNL A   1      33.399  25.469  25.348  1.00  0.00     0.163 HD
BRANCH   5   7
ATOM      7  C   UNL A   1      33.954  24.021  23.304  1.00  0.00     0.138 C 
BRANCH   7   8
ATOM      8  C   UNL A   1      32.737  23.091  23.234  1.00  0.00     0.182 C 
ATOM      9  C   UNL A   1      33.002  21.638  23.686  1.00  0.00     0.295 C 
ATOM     10  O   UNL A   1      31.503  23.633  23.723  1.00  0.00    -0.366 OA
ATOM     11  N   UNL A   1      32.725  21.342  25.076  1.00  0.00    -0.327 N 
ATOM     12  C   UNL A   1      31.225  23.370  25.108  1.00  0.00     0.222 C 
ATOM     13  C   UNL A   1      31.486  21.927  25.558  1.00  0.00     0.291 C 
ATOM     14  H   UNL A   1      32.515  20.343  25.069  1.00  0.00     0.348 HD
BRANCH  11  15
ATOM     15  C   UNL A   1      33.815  21.050  25.997  1.00  0.00     0.305 C 
BRANCH  15  16
ATOM     16  C   UNL A   1      35.128  21.757  25.822  1.00  0.00     0.078 A 
ATOM     17  C   UNL A   1      35.316  23.073  26.262  1.00  0.00     0.135 A 
ATOM     18  C   UNL A   1      36.226  21.121  25.235  1.00  0.00     0.135 A 
ATOM     19  F   UNL A   1      34.308  23.731  26.853  1.00  0.00    -0.206 F 
ATOM     20  C   UNL A   1      36.528  23.746  26.075  1.00  0.00     0.040 A 
ATOM     21  C   UNL A   1      37.447  21.775  25.045  1.00  0.00     0.040 A 
ATOM     22  F   UNL A   1      36.116  19.851  24.814  1.00  0.00    -0.206 F 
ATOM     23  C   UNL A   1      37.595  23.099  25.452  1.00  0.00     0.006 A 
ENDBRANCH  15  16
ENDBRANCH  11  15
ENDBRANCH   7   8
ENDBRANCH   5   7
ENDBRANCH   2   3
ENDBRANCH   1   2
BRANCH   1  24
ATOM     24  C   UNL A   1      33.638  28.385  26.886  1.00  0.00     0.118 C 
BRANCH  24  25
ATOM     25  N   UNL A   1      33.494  29.784  27.276  1.00  0.00    -0.352 N 
ATOM     26  C   UNL A   1      34.362  30.562  27.996  1.00  0.00     0.251 C 
ATOM     27  H   UNL A   1      32.664  30.226  26.985  1.00  0.00     0.163 HD
ATOM     28  O   UNL A   1      34.015  31.652  28.432  1.00  0.00    -0.269 OA
BRANCH  26  29
ATOM     29  C   UNL A   1      35.715  30.039  28.236  1.00  0.00     0.039 A 
ATOM     30  C   UNL A   1      36.661  30.093  27.213  1.00  0.00     0.014 A 
ATOM     31  C   UNL A   1      36.051  29.572  29.511  1.00  0.00     0.014 A 
ATOM     32  C   UNL A   1      37.975  29.729  27.491  1.00  0.00     0.010 A 
ATOM     33  C   UNL A   1      37.376  29.305  29.807  1.00  0.00     0.010 A 
ATOM     34  C   UNL A   1      38.346  29.370  28.798  1.00  0.00    -0.014 A 
BRANCH  34  35
ATOM     35  C   UNL A   1      39.748  29.040  29.138  1.00  0.00     0.031 A 
ATOM     36  C   UNL A   1      40.612  30.081  29.791  1.00  0.00     0.074 A 
ATOM     37  C   UNL A   1      40.249  27.837  28.794  1.00  0.00     0.049 A 
ATOM     38  N   UNL A   1      41.883  30.029  30.085  1.00  0.00    -0.248 NA
ATOM     39  C   UNL A   1      39.970  31.365  30.129  1.00  0.00     0.031 C 
ATOM     40  C   UNL A   1      39.504  26.773  28.116  1.00  0.00     0.029 A 
ATOM     41  N   UNL A   1      41.503  27.309  28.959  1.00  0.00    -0.354 N 
ATOM     42  C   UNL A   1      42.194  31.269  30.630  1.00  0.00     0.074 A 
ATOM     43  C   UNL A   1      40.997  32.076  30.567  1.00  0.00     0.031 C 
ATOM     44  C   UNL A   1      40.306  25.710  27.952  1.00  0.00     0.029 A 
ATOM     45  C   UNL A   1      41.633  26.033  28.467  1.00  0.00     0.049 A 
ATOM     46  H   UNL A   1      42.241  27.799  29.389  1.00  0.00     0.167 HD
ATOM     47  C   UNL A   1      43.366  31.683  31.161  1.00  0.00     0.037 A 
ATOM     48  C   UNL A   1      42.706  25.218  28.428  1.00  0.00     0.037 A 
ATOM     49  C   UNL A   1      44.539  30.854  31.240  1.00  0.00     0.049 A 
ATOM     50  C   UNL A   1      44.005  25.709  29.009  1.00  0.00     0.074 A 
ATOM     51  C   UNL A   1      45.765  31.153  31.805  1.00  0.00     0.029 A 
ATOM     52  N   UNL A   1      44.632  29.564  30.737  1.00  0.00    -0.354 N 
ATOM     53  N   UNL A   1      44.269  26.866  29.570  1.00  0.00    -0.248 NA
ATOM     54  C   UNL A   1      45.151  24.792  28.951  1.00  0.00     0.031 C 
ATOM     55  C   UNL A   1      46.615  30.065  31.596  1.00  0.00     0.029 A 
ATOM     56  C   UNL A   1      45.903  29.063  30.955  1.00  0.00     0.049 A 
ATOM     57  H   UNL A   1      43.901  29.077  30.291  1.00  0.00     0.167 HD
ATOM     58  C   UNL A   1      45.603  26.807  29.955  1.00  0.00     0.074 A 
ATOM     59  C   UNL A   1      46.089  25.496  29.572  1.00  0.00     0.031 C 
ATOM     60  C   UNL A   1      46.360  27.749  30.569  1.00  0.00     0.037 A 
BRANCH  47  61
ATOM     61  C   UNL A   1      43.436  33.083  31.707  1.00  0.00     0.058 A 
ATOM     62  C   UNL A   1      43.817  34.153  30.881  1.00  0.00     0.135 A 
ATOM     63  C   UNL A   1      43.174  33.362  33.058  1.00  0.00     0.135 A 
ATOM     64  F   UNL A   1      44.073  33.944  29.579  1.00  0.00    -0.206 F 
ATOM     65  C   UNL A   1      43.945  35.448  31.374  1.00  0.00     0.059 A 
ATOM     66  C   UNL A   1      43.265  34.653  33.565  1.00  0.00     0.059 A 
ATOM     67  F   UNL A   1      42.786  32.381  33.889  1.00  0.00    -0.206 F 
ATOM     68  C   UNL A   1      43.657  35.689  32.716  1.00  0.00     0.060 A 
BRANCH  68  69
ATOM     69  S   UNL A   1      43.786  37.354  33.400  1.00  0.00     0.124 S 
ATOM     70  O   UNL A   1      43.773  38.169  32.189  1.00  0.00    -0.237 OA
ATOM     71  O   UNL A   1      42.592  37.439  34.234  1.00  0.00    -0.237 OA
ATOM     72  O   UNL A   1      45.054  37.330  34.122  1.00  0.00    -0.744 OA
ENDBRANCH  68  69
ENDBRANCH  47  61
BRANCH  48  73
ATOM     73  C   UNL A   1      42.583  23.858  27.840  1.00  0.00     0.058 A 
ATOM     74  C   UNL A   1      42.555  23.662  26.449  1.00  0.00     0.135 A 
ATOM     75  C   UNL A   1      42.455  22.726  28.659  1.00  0.00     0.135 A 
ATOM     76  F   UNL A   1      42.654  24.712  25.620  1.00  0.00    -0.206 F 
ATOM     77  C   UNL A   1      42.387  22.399  25.890  1.00  0.00     0.059 A 
ATOM     78  C   UNL A   1      42.314  21.450  28.124  1.00  0.00     0.059 A 
ATOM     79  F   UNL A   1      42.480  22.859  29.994  1.00  0.00    -0.206 F 
ATOM     80  C   UNL A   1      42.274  21.297  26.737  1.00  0.00     0.060 A 
BRANCH  80  81
ATOM     81  S   UNL A   1      42.040  19.640  26.058  1.00  0.00     0.124 S 
ATOM     82  O   UNL A   1      42.979  19.644  24.942  1.00  0.00    -0.237 OA
ATOM     83  O   UNL A   1      42.399  18.795  27.193  1.00  0.00    -0.237 OA
ATOM     84  O   UNL A   1      40.627  19.622  25.693  1.00  0.00    -0.744 OA
ENDBRANCH  80  81
ENDBRANCH  48  73
BRANCH  60  85
ATOM     85  C   UNL A   1      47.785  27.401  30.894  1.00  0.00     0.058 A 
ATOM     86  C   UNL A   1      48.793  27.574  29.930  1.00  0.00     0.135 A 
ATOM     87  C   UNL A   1      48.137  26.802  32.113  1.00  0.00     0.135 A 
ATOM     88  F   UNL A   1      48.505  28.132  28.743  1.00  0.00    -0.206 F 
ATOM     89  C   UNL A   1      50.097  27.148  30.154  1.00  0.00     0.059 A 
ATOM     90  C   UNL A   1      49.441  26.395  32.370  1.00  0.00     0.059 A 
ATOM     91  F   UNL A   1      47.212  26.620  33.068  1.00  0.00    -0.206 F 
ATOM     92  C   UNL A   1      50.412  26.561  31.379  1.00  0.00     0.060 A 
BRANCH  92  93
ATOM     93  S   UNL A   1      52.086  25.971  31.709  1.00  0.00     0.124 S 
ATOM     94  O   UNL A   1      52.775  26.333  30.475  1.00  0.00    -0.237 OA
ATOM     95  O   UNL A   1      52.456  26.742  32.892  1.00  0.00    -0.237 OA
ATOM     96  O   UNL A   1      51.906  24.539  31.930  1.00  0.00    -0.744 OA
ENDBRANCH  92  93
ENDBRANCH  60  85
ENDBRANCH  34  35
ENDBRANCH  26  29
ENDBRANCH  24  25
ENDBRANCH   1  24
TORSDOF 16
ENDMDL
MODEL 3
REMARK VINA RESULT:     -11.0      3.832      6.893
REMARK SMILES O=C(C[C@H]1C[N@@H+](Cc2c(F)cccc2F)CCO1)NCCCNC(=O)c1ccc(-c2c3nc(c(-c4c(F)cc(S(=O)(=O)[O-])cc4F)c4ccc([nH]4)c(-c4c(F)cc(S(=O)(=O)[O-])cc4F)c4nc(c(-c5c(F)cc(S(=O)(=O)[O-])cc5F)c5ccc2[nH]5)C=C4)C=C3)cc1
REMARK SMILES IDX 21 1 20 2 19 3 1 4 2 5 3 7 4 8 5 9 18 10 6 11 17 12 16 13
REMARK SMILES IDX 7 15 8 16 9 17 14 18 10 19 11 20 13 21 15 22 12 23 22 24
REMARK SMILES IDX 23 25 24 26 25 28 26 29 27 30 91 31 28 32 90 33 29 34 30 35
REMARK SMILES IDX 31 36 84 37 32 38 89 39 83 40 85 41 33 42 88 43 82 44 81 45
REMARK SMILES IDX 34 47 68 48 47 49 67 50 48 51 51 52 66 53 86 54 49 55 50 56
REMARK SMILES IDX 65 58 87 59 52 60 35 61 36 62 45 63 37 64 38 65 44 66 46 67
REMARK SMILES IDX 39 68 40 69 41 70 42 71 43 72 69 73 70 74 79 75 71 76 72 77
REMARK SMILES IDX 78 78 80 79 73 80 74 81 75 82 76 83 77 84 53 85 54 86 63 87
REMARK SMILES IDX 55 88 56 89 62 90 64 91 57 92 58 93 59 94 60 95 61 96
REMARK H PARENT 19 6 6 14 23 27 85 46 51 57
REMARK Flexibility Score: inf
ROOT
ATOM      1  C   UNL A   1      34.043  29.774  26.947  1.00  0.00     0.042 C 
ENDROOT
BRANCH   1   2
ATOM      2  C   UNL A   1      32.997  28.684  26.817  1.00  0.00     0.117 C 
BRANCH   2   3
ATOM      3  N   UNL A   1      33.519  27.525  26.117  1.00  0.00    -0.356 N 
ATOM      4  O   UNL A   1      31.795  26.251  26.787  1.00  0.00    -0.275 OA
ATOM      5  C   UNL A   1      32.844  26.340  26.165  1.00  0.00     0.222 C 
ATOM      6  H   UNL A   1      34.360  27.594  25.610  1.00  0.00     0.163 HD
BRANCH   5   7
ATOM      7  C   UNL A   1      33.510  25.176  25.491  1.00  0.00     0.138 C 
BRANCH   7   8
ATOM      8  C   UNL A   1      32.880  23.800  25.735  1.00  0.00     0.182 C 
ATOM      9  C   UNL A   1      33.288  22.709  24.721  1.00  0.00     0.295 C 
ATOM     10  O   UNL A   1      32.866  23.348  27.097  1.00  0.00    -0.366 OA
ATOM     11  N   UNL A   1      34.418  21.883  25.091  1.00  0.00    -0.327 N 
ATOM     12  C   UNL A   1      33.994  22.548  27.488  1.00  0.00     0.222 C 
ATOM     13  C   UNL A   1      34.398  21.463  26.482  1.00  0.00     0.291 C 
ATOM     14  H   UNL A   1      34.249  21.010  24.590  1.00  0.00     0.348 HD
BRANCH  11  15
ATOM     15  C   UNL A   1      35.677  21.992  24.368  1.00  0.00     0.305 C 
BRANCH  15  16
ATOM     16  C   UNL A   1      36.933  22.304  25.129  1.00  0.00     0.078 A 
ATOM     17  C   UNL A   1      37.153  23.567  25.692  1.00  0.00     0.135 A 
ATOM     18  C   UNL A   1      37.925  21.338  25.328  1.00  0.00     0.135 A 
ATOM     19  F   UNL A   1      36.231  24.531  25.554  1.00  0.00    -0.206 F 
ATOM     20  C   UNL A   1      38.334  23.872  26.377  1.00  0.00     0.040 A 
ATOM     21  C   UNL A   1      39.109  21.623  26.015  1.00  0.00     0.040 A 
ATOM     22  F   UNL A   1      37.761  20.102  24.833  1.00  0.00    -0.206 F 
ATOM     23  C   UNL A   1      39.323  22.900  26.529  1.00  0.00     0.006 A 
ENDBRANCH  15  16
ENDBRANCH  11  15
ENDBRANCH   7   8
ENDBRANCH   5   7
ENDBRANCH   2   3
ENDBRANCH   1   2
BRANCH   1  24
ATOM     24  C   UNL A   1      35.195  29.381  27.854  1.00  0.00     0.118 C 
BRANCH  24  25
ATOM     25  N   UNL A   1      35.288  30.230  29.038  1.00  0.00    -0.352 N 
ATOM     26  C   UNL A   1      36.346  30.387  29.893  1.00  0.00     0.251 C 
ATOM     27  H   UNL A   1      34.485  30.759  29.249  1.00  0.00     0.163 HD
ATOM     28  O   UNL A   1      36.209  30.966  30.963  1.00  0.00    -0.269 OA
BRANCH  26  29
ATOM     29  C   UNL A   1      37.644  29.826  29.490  1.00  0.00     0.039 A 
ATOM     30  C   UNL A   1      38.066  29.960  28.168  1.00  0.00     0.014 A 
ATOM     31  C   UNL A   1      38.467  29.241  30.459  1.00  0.00     0.014 A 
ATOM     32  C   UNL A   1      39.353  29.554  27.828  1.00  0.00     0.010 A 
ATOM     33  C   UNL A   1      39.776  28.930  30.138  1.00  0.00     0.010 A 
ATOM     34  C   UNL A   1      40.226  29.073  28.818  1.00  0.00    -0.014 A 
BRANCH  34  35
ATOM     35  C   UNL A   1      41.621  28.694  28.499  1.00  0.00     0.031 A 
ATOM     36  C   UNL A   1      42.686  29.753  28.484  1.00  0.00     0.074 A 
ATOM     37  C   UNL A   1      41.901  27.422  28.156  1.00  0.00     0.049 A 
ATOM     38  N   UNL A   1      43.942  29.652  28.141  1.00  0.00    -0.248 NA
ATOM     39  C   UNL A   1      42.279  31.115  28.874  1.00  0.00     0.031 C 
ATOM     40  C   UNL A   1      40.928  26.328  28.096  1.00  0.00     0.029 A 
ATOM     41  N   UNL A   1      43.082  26.833  27.788  1.00  0.00    -0.354 N 
ATOM     42  C   UNL A   1      44.470  30.932  28.265  1.00  0.00     0.074 A 
ATOM     43  C   UNL A   1      43.386  31.806  28.649  1.00  0.00     0.031 C 
ATOM     44  C   UNL A   1      41.558  25.197  27.744  1.00  0.00     0.029 A 
ATOM     45  C   UNL A   1      42.967  25.493  27.507  1.00  0.00     0.049 A 
ATOM     46  H   UNL A   1      43.934  27.324  27.729  1.00  0.00     0.167 HD
ATOM     47  C   UNL A   1      45.750  31.332  28.099  1.00  0.00     0.037 A 
ATOM     48  C   UNL A   1      43.893  24.606  27.094  1.00  0.00     0.037 A 
ATOM     49  C   UNL A   1      46.821  30.440  27.743  1.00  0.00     0.049 A 
ATOM     50  C   UNL A   1      45.309  25.079  26.899  1.00  0.00     0.074 A 
ATOM     51  C   UNL A   1      48.166  30.727  27.600  1.00  0.00     0.029 A 
ATOM     52  N   UNL A   1      46.668  29.087  27.473  1.00  0.00    -0.354 N 
ATOM     53  N   UNL A   1      45.804  26.283  27.072  1.00  0.00    -0.248 NA
ATOM     54  C   UNL A   1      46.291  24.083  26.451  1.00  0.00     0.031 C 
ATOM     55  C   UNL A   1      48.817  29.561  27.191  1.00  0.00     0.029 A 
ATOM     56  C   UNL A   1      47.890  28.532  27.137  1.00  0.00     0.049 A 
ATOM     57  H   UNL A   1      45.816  28.596  27.513  1.00  0.00     0.167 HD
ATOM     58  C   UNL A   1      47.159  26.183  26.779  1.00  0.00     0.074 A 
ATOM     59  C   UNL A   1      47.407  24.798  26.428  1.00  0.00     0.031 C 
ATOM     60  C   UNL A   1      48.113  27.147  26.798  1.00  0.00     0.037 A 
BRANCH  47  61
ATOM     61  C   UNL A   1      46.066  32.786  28.312  1.00  0.00     0.058 A 
ATOM     62  C   UNL A   1      46.036  33.688  27.236  1.00  0.00     0.135 A 
ATOM     63  C   UNL A   1      46.446  33.283  29.570  1.00  0.00     0.135 A 
ATOM     64  F   UNL A   1      45.674  33.269  26.013  1.00  0.00    -0.206 F 
ATOM     65  C   UNL A   1      46.380  35.028  27.394  1.00  0.00     0.059 A 
ATOM     66  C   UNL A   1      46.763  34.623  29.758  1.00  0.00     0.059 A 
ATOM     67  F   UNL A   1      46.473  32.470  30.638  1.00  0.00    -0.206 F 
ATOM     68  C   UNL A   1      46.732  35.488  28.662  1.00  0.00     0.060 A 
BRANCH  68  69
ATOM     69  S   UNL A   1      47.165  37.220  28.925  1.00  0.00     0.124 S 
ATOM     70  O   UNL A   1      46.796  37.403  30.326  1.00  0.00    -0.237 OA
ATOM     71  O   UNL A   1      48.595  37.227  28.641  1.00  0.00    -0.237 OA
ATOM     72  O   UNL A   1      46.331  37.931  27.962  1.00  0.00    -0.744 OA
ENDBRANCH  68  69
ENDBRANCH  47  61
BRANCH  48  73
ATOM     73  C   UNL A   1      43.510  23.187  26.863  1.00  0.00     0.058 A 
ATOM     74  C   UNL A   1      43.358  22.672  25.565  1.00  0.00     0.135 A 
ATOM     75  C   UNL A   1      43.255  22.325  27.939  1.00  0.00     0.135 A 
ATOM     76  F   UNL A   1      43.571  23.460  24.500  1.00  0.00    -0.206 F 
ATOM     77  C   UNL A   1      42.948  21.362  25.340  1.00  0.00     0.059 A 
ATOM     78  C   UNL A   1      42.872  21.002  27.740  1.00  0.00     0.059 A 
ATOM     79  F   UNL A   1      43.391  22.766  29.199  1.00  0.00    -0.206 F 
ATOM     80  C   UNL A   1      42.714  20.532  26.435  1.00  0.00     0.060 A 
BRANCH  80  81
ATOM     81  S   UNL A   1      42.167  18.827  26.192  1.00  0.00     0.124 S 
ATOM     82  O   UNL A   1      43.129  18.347  25.207  1.00  0.00    -0.237 OA
ATOM     83  O   UNL A   1      42.299  18.274  27.537  1.00  0.00    -0.237 OA
ATOM     84  O   UNL A   1      40.796  18.978  25.715  1.00  0.00    -0.744 OA
ENDBRANCH  80  81
ENDBRANCH  48  73
BRANCH  60  85
ATOM     85  C   UNL A   1      49.520  26.746  26.456  1.00  0.00     0.058 A 
ATOM     86  C   UNL A   1      49.973  26.815  25.128  1.00  0.00     0.135 A 
ATOM     87  C   UNL A   1      50.383  26.199  27.418  1.00  0.00     0.135 A 
ATOM     88  F   UNL A   1      49.181  27.321  24.169  1.00  0.00    -0.206 F 
ATOM     89  C   UNL A   1      51.226  26.337  24.759  1.00  0.00     0.059 A 
ATOM     90  C   UNL A   1      51.650  25.741  27.077  1.00  0.00     0.059 A 
ATOM     91  F   UNL A   1      49.999  26.116  28.702  1.00  0.00    -0.206 F 
ATOM     92  C   UNL A   1      52.058  25.804  25.742  1.00  0.00     0.060 A 
BRANCH  92  93
ATOM     93  S   UNL A   1      53.684  25.151  25.309  1.00  0.00     0.124 S 
ATOM     94  O   UNL A   1      53.433  23.714  25.304  1.00  0.00    -0.237 OA
ATOM     95  O   UNL A   1      53.922  25.758  24.003  1.00  0.00    -0.237 OA
ATOM     96  O   UNL A   1      54.544  25.633  26.386  1.00  0.00    -0.744 OA
ENDBRANCH  92  93
ENDBRANCH  60  85
ENDBRANCH  34  35
ENDBRANCH  26  29
ENDBRANCH  24  25
ENDBRANCH   1  24
TORSDOF 16
ENDMDL
