MODEL 1
REMARK VINA RESULT:     -11.8      0.000      0.000
REMARK SMILES C[C@H]1[C@@H](C(=O)NCCCNC(=O)c2ccc(-c3c4nc(c(-c5c(F)cc(S(=O)(=O)[O-])cc5F)c5ccc([nH]5)c(-c5c(F)cc(S(=O)(=O)[O-])cc5F)c5nc(c(-c6c(F)cc(S(=O)(=O)[O-])cc6F)c6ccc3[nH]6)C=C5)C=C4)cc2)CCN1C(=O)NCC(C1CC1)C1CC1
REMARK SMILES IDX 7 1 6 2 4 3 5 4 3 6 1 7 2 8 81 9 79 10 80 11 82 12 83 13
REMARK SMILES IDX 84 14 85 16 86 17 87 18 88 19 89 20 90 21 91 22 92 23 8 24
REMARK SMILES IDX 9 25 10 26 11 27 12 29 13 30 14 31 78 32 15 33 77 34 16 35
REMARK SMILES IDX 17 36 18 37 71 38 19 39 76 40 70 41 72 42 20 43 75 44 69 45
REMARK SMILES IDX 68 46 21 48 55 49 34 50 54 51 35 52 38 53 53 54 73 55 36 56
REMARK SMILES IDX 37 57 52 59 74 60 39 61 22 62 23 63 32 64 24 65 25 66 31 67
REMARK SMILES IDX 33 68 26 69 27 70 28 71 29 72 30 73 56 74 57 75 66 76 58 77
REMARK SMILES IDX 59 78 65 79 67 80 60 81 61 82 62 83 63 84 64 85 40 86 41 87
REMARK SMILES IDX 50 88 42 89 43 90 49 91 51 92 44 93 45 94 46 95 47 96 48 97
REMARK H PARENT 6 5 84 15 10 28 72 47 38 58
REMARK Flexibility Score: inf
ROOT
ATOM      1  C   UNL A   1      37.588  22.428  25.541  1.00  0.00     0.117 C 
ENDROOT
BRANCH   1   2
ATOM      2  N   UNL A   1      36.863  21.203  25.230  1.00  0.00    -0.356 N 
ATOM      3  C   UNL A   1      35.538  20.932  25.049  1.00  0.00     0.225 C 
ATOM      4  O   UNL A   1      35.244  19.756  24.828  1.00  0.00    -0.275 OA
ATOM      5  H   UNL A   1      37.443  20.413  25.132  1.00  0.00     0.163 HD
BRANCH   3   6
ATOM      6  C   UNL A   1      34.489  22.039  25.003  1.00  0.00     0.102 C 
ATOM      7  C   UNL A   1      34.024  21.677  27.559  1.00  0.00     0.032 C 
ATOM      8  C   UNL A   1      33.919  22.574  26.328  1.00  0.00     0.096 C 
ATOM      9  N   UNL A   1      32.509  22.827  26.084  1.00  0.00    -0.321 N 
ATOM     10  C   UNL A   1      33.243  21.700  24.157  1.00  0.00     0.037 C 
ATOM     11  C   UNL A   1      32.050  21.890  25.078  1.00  0.00     0.122 C 
BRANCH   9  12
ATOM     12  C   UNL A   1      31.608  23.555  26.802  1.00  0.00     0.317 C 
ATOM     13  O   UNL A   1      30.865  23.014  27.628  1.00  0.00    -0.249 OA
ATOM     14  N   UNL A   1      31.478  24.893  26.679  1.00  0.00    -0.338 N 
ATOM     15  H   UNL A   1      30.777  25.243  27.275  1.00  0.00     0.165 HD
BRANCH  14  16
ATOM     16  C   UNL A   1      32.099  25.962  25.896  1.00  0.00     0.121 C 
BRANCH  16  17
ATOM     17  C   UNL A   1      31.169  27.179  25.701  1.00  0.00     0.014 C 
BRANCH  17  18
ATOM     18  C   UNL A   1      31.826  28.517  25.998  1.00  0.00    -0.006 C 
ATOM     19  C   UNL A   1      31.903  29.182  27.354  1.00  0.00     0.004 C 
ATOM     20  C   UNL A   1      33.135  28.566  26.752  1.00  0.00     0.004 C 
ENDBRANCH  17  18
BRANCH  17  21
ATOM     21  C   UNL A   1      30.492  27.267  24.334  1.00  0.00    -0.006 C 
ATOM     22  C   UNL A   1      30.533  26.152  23.317  1.00  0.00     0.004 C 
ATOM     23  C   UNL A   1      29.228  26.519  23.975  1.00  0.00     0.004 C 
ENDBRANCH  17  21
ENDBRANCH  16  17
ENDBRANCH  14  16
ENDBRANCH   9  12
ENDBRANCH   3   6
ENDBRANCH   1   2
BRANCH   1  24
ATOM     24  C   UNL A   1      38.979  22.140  26.112  1.00  0.00     0.042 C 
BRANCH  24  25
ATOM     25  C   UNL A   1      39.658  23.322  26.793  1.00  0.00     0.118 C 
BRANCH  25  26
ATOM     26  N   UNL A   1      40.818  23.784  26.059  1.00  0.00    -0.352 N 
ATOM     27  C   UNL A   1      41.583  24.921  26.176  1.00  0.00     0.251 C 
ATOM     28  H   UNL A   1      41.114  23.173  25.345  1.00  0.00     0.163 HD
ATOM     29  O   UNL A   1      42.375  25.166  25.265  1.00  0.00    -0.269 OA
BRANCH  27  30
ATOM     30  C   UNL A   1      41.488  25.860  27.329  1.00  0.00     0.039 A 
ATOM     31  C   UNL A   1      40.560  25.565  28.338  1.00  0.00     0.014 A 
ATOM     32  C   UNL A   1      42.189  27.065  27.405  1.00  0.00     0.014 A 
ATOM     33  C   UNL A   1      40.359  26.447  29.409  1.00  0.00     0.010 A 
ATOM     34  C   UNL A   1      42.061  27.901  28.522  1.00  0.00     0.010 A 
ATOM     35  C   UNL A   1      41.122  27.620  29.525  1.00  0.00    -0.014 A 
BRANCH  35  36
ATOM     36  C   UNL A   1      40.905  28.573  30.652  1.00  0.00     0.031 A 
ATOM     37  C   UNL A   1      41.745  28.485  31.905  1.00  0.00     0.074 A 
ATOM     38  C   UNL A   1      39.936  29.508  30.570  1.00  0.00     0.049 A 
ATOM     39  N   UNL A   1      41.682  29.205  32.997  1.00  0.00    -0.248 NA
ATOM     40  C   UNL A   1      42.774  27.434  31.946  1.00  0.00     0.031 C 
ATOM     41  C   UNL A   1      39.016  29.675  29.443  1.00  0.00     0.029 A 
ATOM     42  N   UNL A   1      39.559  30.492  31.451  1.00  0.00    -0.354 N 
ATOM     43  C   UNL A   1      42.645  28.685  33.856  1.00  0.00     0.074 A 
ATOM     44  C   UNL A   1      43.241  27.554  33.180  1.00  0.00     0.031 C 
ATOM     45  C   UNL A   1      38.200  30.712  29.690  1.00  0.00     0.029 A 
ATOM     46  C   UNL A   1      38.515  31.266  31.004  1.00  0.00     0.049 A 
ATOM     47  H   UNL A   1      39.996  30.630  32.323  1.00  0.00     0.167 HD
ATOM     48  C   UNL A   1      43.023  29.123  35.083  1.00  0.00     0.037 A 
ATOM     49  C   UNL A   1      37.877  32.303  31.582  1.00  0.00     0.037 A 
ATOM     50  C   UNL A   1      42.456  30.269  35.745  1.00  0.00     0.049 A 
ATOM     51  C   UNL A   1      38.329  32.790  32.932  1.00  0.00     0.074 A 
ATOM     52  C   UNL A   1      42.809  30.820  36.966  1.00  0.00     0.029 A 
ATOM     53  N   UNL A   1      41.421  31.042  35.242  1.00  0.00    -0.354 N 
ATOM     54  N   UNL A   1      39.280  32.316  33.703  1.00  0.00    -0.248 NA
ATOM     55  C   UNL A   1      37.632  33.958  33.486  1.00  0.00     0.031 C 
ATOM     56  C   UNL A   1      41.964  31.909  37.216  1.00  0.00     0.029 A 
ATOM     57  C   UNL A   1      41.114  32.060  36.132  1.00  0.00     0.049 A 
ATOM     58  H   UNL A   1      40.970  30.892  34.381  1.00  0.00     0.167 HD
ATOM     59  C   UNL A   1      39.305  33.139  34.824  1.00  0.00     0.074 A 
ATOM     60  C   UNL A   1      38.289  34.152  34.622  1.00  0.00     0.031 C 
ATOM     61  C   UNL A   1      40.097  33.061  35.922  1.00  0.00     0.037 A 
BRANCH  48  62
ATOM     62  C   UNL A   1      44.115  28.360  35.786  1.00  0.00     0.058 A 
ATOM     63  C   UNL A   1      45.471  28.667  35.588  1.00  0.00     0.135 A 
ATOM     64  C   UNL A   1      43.805  27.327  36.686  1.00  0.00     0.135 A 
ATOM     65  F   UNL A   1      45.827  29.636  34.729  1.00  0.00    -0.206 F 
ATOM     66  C   UNL A   1      46.482  27.954  36.225  1.00  0.00     0.059 A 
ATOM     67  C   UNL A   1      44.799  26.618  37.357  1.00  0.00     0.059 A 
ATOM     68  F   UNL A   1      42.526  26.993  36.918  1.00  0.00    -0.206 F 
ATOM     69  C   UNL A   1      46.135  26.927  37.105  1.00  0.00     0.060 A 
BRANCH  69  70
ATOM     70  S   UNL A   1      47.456  26.002  37.918  1.00  0.00     0.124 S 
ATOM     71  O   UNL A   1      47.287  26.422  39.308  1.00  0.00    -0.237 OA
ATOM     72  O   UNL A   1      47.090  24.616  37.630  1.00  0.00    -0.237 OA
ATOM     73  O   UNL A   1      48.663  26.479  37.260  1.00  0.00    -0.744 OA
ENDBRANCH  69  70
ENDBRANCH  48  62
BRANCH  49  74
ATOM     74  C   UNL A   1      36.755  32.969  30.869  1.00  0.00     0.058 A 
ATOM     75  C   UNL A   1      35.421  32.714  31.220  1.00  0.00     0.135 A 
ATOM     76  C   UNL A   1      36.994  33.892  29.839  1.00  0.00     0.135 A 
ATOM     77  F   UNL A   1      35.141  31.834  32.193  1.00  0.00    -0.206 F 
ATOM     78  C   UNL A   1      34.363  33.345  30.573  1.00  0.00     0.059 A 
ATOM     79  C   UNL A   1      35.955  34.553  29.193  1.00  0.00     0.059 A 
ATOM     80  F   UNL A   1      38.253  34.182  29.476  1.00  0.00    -0.206 F 
ATOM     81  C   UNL A   1      34.641  34.267  29.562  1.00  0.00     0.060 A 
BRANCH  81  82
ATOM     82  S   UNL A   1      33.265  35.133  28.775  1.00  0.00     0.124 S 
ATOM     83  O   UNL A   1      32.490  35.566  29.931  1.00  0.00    -0.237 OA
ATOM     84  O   UNL A   1      33.950  36.187  28.032  1.00  0.00    -0.237 OA
ATOM     85  O   UNL A   1      32.647  34.099  27.950  1.00  0.00    -0.744 OA
ENDBRANCH  81  82
ENDBRANCH  49  74
BRANCH  61  86
ATOM     86  C   UNL A   1      39.910  34.111  36.981  1.00  0.00     0.058 A 
ATOM     87  C   UNL A   1      40.487  35.386  36.865  1.00  0.00     0.135 A 
ATOM     88  C   UNL A   1      39.122  33.849  38.113  1.00  0.00     0.135 A 
ATOM     89  F   UNL A   1      41.254  35.685  35.804  1.00  0.00    -0.206 F 
ATOM     90  C   UNL A   1      40.314  36.355  37.846  1.00  0.00     0.059 A 
ATOM     91  C   UNL A   1      38.913  34.812  39.096  1.00  0.00     0.059 A 
ATOM     92  F   UNL A   1      38.537  32.651  38.268  1.00  0.00    -0.206 F 
ATOM     93  C   UNL A   1      39.528  36.057  38.961  1.00  0.00     0.060 A 
BRANCH  93  94
ATOM     94  S   UNL A   1      39.298  37.326  40.225  1.00  0.00     0.124 S 
ATOM     95  O   UNL A   1      40.675  37.733  40.485  1.00  0.00    -0.237 OA
ATOM     96  O   UNL A   1      38.466  38.309  39.538  1.00  0.00    -0.237 OA
ATOM     97  O   UNL A   1      38.639  36.607  41.312  1.00  0.00    -0.744 OA
ENDBRANCH  93  94
ENDBRANCH  61  86
ENDBRANCH  35  36
ENDBRANCH  27  30
ENDBRANCH  25  26
ENDBRANCH  24  25
ENDBRANCH   1  24
TORSDOF 18
ENDMDL
MODEL 2
REMARK VINA RESULT:     -11.3      6.644     12.221
REMARK SMILES C[C@H]1[C@@H](C(=O)NCCCNC(=O)c2ccc(-c3c4nc(c(-c5c(F)cc(S(=O)(=O)[O-])cc5F)c5ccc([nH]5)c(-c5c(F)cc(S(=O)(=O)[O-])cc5F)c5nc(c(-c6c(F)cc(S(=O)(=O)[O-])cc6F)c6ccc3[nH]6)C=C5)C=C4)cc2)CCN1C(=O)NCC(C1CC1)C1CC1
REMARK SMILES IDX 7 1 6 2 4 3 5 4 3 6 1 7 2 8 81 9 79 10 80 11 82 12 83 13
REMARK SMILES IDX 84 14 85 16 86 17 87 18 88 19 89 20 90 21 91 22 92 23 8 24
REMARK SMILES IDX 9 25 10 26 11 27 12 29 13 30 14 31 78 32 15 33 77 34 16 35
REMARK SMILES IDX 17 36 18 37 71 38 19 39 76 40 70 41 72 42 20 43 75 44 69 45
REMARK SMILES IDX 68 46 21 48 55 49 34 50 54 51 35 52 38 53 53 54 73 55 36 56
REMARK SMILES IDX 37 57 52 59 74 60 39 61 22 62 23 63 32 64 24 65 25 66 31 67
REMARK SMILES IDX 33 68 26 69 27 70 28 71 29 72 30 73 56 74 57 75 66 76 58 77
REMARK SMILES IDX 59 78 65 79 67 80 60 81 61 82 62 83 63 84 64 85 40 86 41 87
REMARK SMILES IDX 50 88 42 89 43 90 49 91 51 92 44 93 45 94 46 95 47 96 48 97
REMARK H PARENT 6 5 84 15 10 28 72 47 38 58
REMARK Flexibility Score: inf
ROOT
ATOM      1  C   UNL A   1      33.093  29.673  26.804  1.00  0.00     0.117 C 
ENDROOT
BRANCH   1   2
ATOM      2  N   UNL A   1      32.032  30.065  25.886  1.00  0.00    -0.356 N 
ATOM      3  C   UNL A   1      31.380  29.399  24.888  1.00  0.00     0.225 C 
ATOM      4  O   UNL A   1      30.538  30.044  24.260  1.00  0.00    -0.275 OA
ATOM      5  H   UNL A   1      31.726  30.992  26.007  1.00  0.00     0.163 HD
BRANCH   3   6
ATOM      6  C   UNL A   1      31.594  27.910  24.639  1.00  0.00     0.102 C 
ATOM      7  C   UNL A   1      33.621  28.481  23.077  1.00  0.00     0.032 C 
ATOM      8  C   UNL A   1      32.880  27.455  23.930  1.00  0.00     0.096 C 
ATOM      9  N   UNL A   1      32.493  26.356  23.063  1.00  0.00    -0.321 N 
ATOM     10  C   UNL A   1      30.457  27.227  23.849  1.00  0.00     0.037 C 
ATOM     11  C   UNL A   1      31.120  26.569  22.651  1.00  0.00     0.122 C 
BRANCH   9  12
ATOM     12  C   UNL A   1      33.257  25.417  22.436  1.00  0.00     0.317 C 
ATOM     13  O   UNL A   1      33.653  25.587  21.278  1.00  0.00    -0.249 OA
ATOM     14  N   UNL A   1      33.641  24.267  23.029  1.00  0.00    -0.338 N 
ATOM     15  H   UNL A   1      34.185  23.713  22.422  1.00  0.00     0.165 HD
BRANCH  14  16
ATOM     16  C   UNL A   1      33.467  23.621  24.331  1.00  0.00     0.121 C 
BRANCH  16  17
ATOM     17  C   UNL A   1      34.393  22.401  24.523  1.00  0.00     0.014 C 
BRANCH  17  18
ATOM     18  C   UNL A   1      35.629  22.685  25.359  1.00  0.00    -0.006 C 
ATOM     19  C   UNL A   1      37.042  22.270  25.017  1.00  0.00     0.004 C 
ATOM     20  C   UNL A   1      36.637  23.712  24.896  1.00  0.00     0.004 C 
ENDBRANCH  17  18
BRANCH  17  21
ATOM     21  C   UNL A   1      33.713  21.149  25.076  1.00  0.00    -0.006 C 
ATOM     22  C   UNL A   1      32.690  20.353  24.302  1.00  0.00     0.004 C 
ATOM     23  C   UNL A   1      34.034  19.747  24.613  1.00  0.00     0.004 C 
ENDBRANCH  17  21
ENDBRANCH  16  17
ENDBRANCH  14  16
ENDBRANCH   9  12
ENDBRANCH   3   6
ENDBRANCH   1   2
BRANCH   1  24
ATOM     24  C   UNL A   1      33.666  30.875  27.561  1.00  0.00     0.042 C 
BRANCH  24  25
ATOM     25  C   UNL A   1      35.132  30.751  27.959  1.00  0.00     0.118 C 
BRANCH  25  26
ATOM     26  N   UNL A   1      35.324  30.884  29.389  1.00  0.00    -0.352 N 
ATOM     27  C   UNL A   1      36.351  30.492  30.215  1.00  0.00     0.251 C 
ATOM     28  H   UNL A   1      34.584  31.338  29.854  1.00  0.00     0.163 HD
ATOM     29  O   UNL A   1      36.145  30.529  31.429  1.00  0.00    -0.269 OA
BRANCH  27  30
ATOM     30  C   UNL A   1      37.673  30.019  29.717  1.00  0.00     0.039 A 
ATOM     31  C   UNL A   1      38.639  29.658  30.667  1.00  0.00     0.014 A 
ATOM     32  C   UNL A   1      38.036  30.018  28.369  1.00  0.00     0.014 A 
ATOM     33  C   UNL A   1      39.930  29.283  30.271  1.00  0.00     0.010 A 
ATOM     34  C   UNL A   1      39.294  29.551  27.965  1.00  0.00     0.010 A 
ATOM     35  C   UNL A   1      40.269  29.207  28.911  1.00  0.00    -0.014 A 
BRANCH  35  36
ATOM     36  C   UNL A   1      41.646  28.824  28.480  1.00  0.00     0.031 A 
ATOM     37  C   UNL A   1      42.740  29.862  28.393  1.00  0.00     0.074 A 
ATOM     38  C   UNL A   1      41.917  27.548  28.140  1.00  0.00     0.049 A 
ATOM     39  N   UNL A   1      43.985  29.724  28.011  1.00  0.00    -0.248 NA
ATOM     40  C   UNL A   1      42.381  31.242  28.759  1.00  0.00     0.031 C 
ATOM     41  C   UNL A   1      40.946  26.451  28.127  1.00  0.00     0.029 A 
ATOM     42  N   UNL A   1      43.089  26.954  27.735  1.00  0.00    -0.354 N 
ATOM     43  C   UNL A   1      44.550  30.994  28.075  1.00  0.00     0.074 A 
ATOM     44  C   UNL A   1      43.496  31.900  28.477  1.00  0.00     0.031 C 
ATOM     45  C   UNL A   1      41.565  25.318  27.759  1.00  0.00     0.029 A 
ATOM     46  C   UNL A   1      42.969  25.609  27.479  1.00  0.00     0.049 A 
ATOM     47  H   UNL A   1      43.936  27.447  27.636  1.00  0.00     0.167 HD
ATOM     48  C   UNL A   1      45.832  31.373  27.847  1.00  0.00     0.037 A 
ATOM     49  C   UNL A   1      43.881  24.707  27.063  1.00  0.00     0.037 A 
ATOM     50  C   UNL A   1      46.891  30.469  27.479  1.00  0.00     0.049 A 
ATOM     51  C   UNL A   1      45.303  25.142  26.843  1.00  0.00     0.074 A 
ATOM     52  C   UNL A   1      48.232  30.750  27.278  1.00  0.00     0.029 A 
ATOM     53  N   UNL A   1      46.732  29.109  27.260  1.00  0.00    -0.354 N 
ATOM     54  N   UNL A   1      45.827  26.340  26.961  1.00  0.00    -0.248 NA
ATOM     55  C   UNL A   1      46.263  24.104  26.444  1.00  0.00     0.031 C 
ATOM     56  C   UNL A   1      48.878  29.565  26.906  1.00  0.00     0.029 A 
ATOM     57  C   UNL A   1      47.947  28.539  26.915  1.00  0.00     0.049 A 
ATOM     58  H   UNL A   1      45.882  28.621  27.338  1.00  0.00     0.167 HD
ATOM     59  C   UNL A   1      47.179  26.194  26.668  1.00  0.00     0.074 A 
ATOM     60  C   UNL A   1      47.397  24.790  26.387  1.00  0.00     0.031 C 
ATOM     61  C   UNL A   1      48.151  27.139  26.634  1.00  0.00     0.037 A 
BRANCH  48  62
ATOM     62  C   UNL A   1      46.162  32.834  28.003  1.00  0.00     0.058 A 
ATOM     63  C   UNL A   1      45.993  33.743  26.946  1.00  0.00     0.135 A 
ATOM     64  C   UNL A   1      46.628  33.339  29.228  1.00  0.00     0.135 A 
ATOM     65  F   UNL A   1      45.563  33.314  25.748  1.00  0.00    -0.206 F 
ATOM     66  C   UNL A   1      46.311  35.091  27.084  1.00  0.00     0.059 A 
ATOM     67  C   UNL A   1      46.925  34.689  29.398  1.00  0.00     0.059 A 
ATOM     68  F   UNL A   1      46.803  32.517  30.275  1.00  0.00    -0.206 F 
ATOM     69  C   UNL A   1      46.781  35.553  28.313  1.00  0.00     0.060 A 
BRANCH  69  70
ATOM     70  S   UNL A   1      47.200  37.302  28.477  1.00  0.00     0.124 S 
ATOM     71  O   UNL A   1      48.467  37.228  29.202  1.00  0.00    -0.237 OA
ATOM     72  O   UNL A   1      47.297  37.733  27.083  1.00  0.00    -0.237 OA
ATOM     73  O   UNL A   1      46.080  37.854  29.224  1.00  0.00    -0.744 OA
ENDBRANCH  69  70
ENDBRANCH  48  62
BRANCH  49  74
ATOM     74  C   UNL A   1      43.476  23.291  26.856  1.00  0.00     0.058 A 
ATOM     75  C   UNL A   1      43.234  22.440  27.945  1.00  0.00     0.135 A 
ATOM     76  C   UNL A   1      43.297  22.768  25.566  1.00  0.00     0.135 A 
ATOM     77  F   UNL A   1      43.399  22.892  29.197  1.00  0.00    -0.206 F 
ATOM     78  C   UNL A   1      42.837  21.120  27.764  1.00  0.00     0.059 A 
ATOM     79  C   UNL A   1      42.878  21.458  25.359  1.00  0.00     0.059 A 
ATOM     80  F   UNL A   1      43.501  23.546  24.491  1.00  0.00    -0.206 F 
ATOM     81  C   UNL A   1      42.658  20.638  26.466  1.00  0.00     0.060 A 
BRANCH  81  82
ATOM     82  S   UNL A   1      42.074  18.943  26.241  1.00  0.00     0.124 S 
ATOM     83  O   UNL A   1      40.717  19.162  25.758  1.00  0.00    -0.237 OA
ATOM     84  O   UNL A   1      43.024  18.419  25.265  1.00  0.00    -0.237 OA
ATOM     85  O   UNL A   1      42.186  18.371  27.579  1.00  0.00    -0.744 OA
ENDBRANCH  81  82
ENDBRANCH  49  74
BRANCH  61  86
ATOM     86  C   UNL A   1      49.543  26.682  26.298  1.00  0.00     0.058 A 
ATOM     87  C   UNL A   1      50.052  26.769  24.992  1.00  0.00     0.135 A 
ATOM     88  C   UNL A   1      50.389  26.178  27.299  1.00  0.00     0.135 A 
ATOM     89  F   UNL A   1      49.283  27.240  23.998  1.00  0.00    -0.206 F 
ATOM     90  C   UNL A   1      51.340  26.345  24.685  1.00  0.00     0.059 A 
ATOM     91  C   UNL A   1      51.690  25.771  27.019  1.00  0.00     0.059 A 
ATOM     92  F   UNL A   1      49.956  26.085  28.566  1.00  0.00    -0.206 F 
ATOM     93  C   UNL A   1      52.151  25.843  25.705  1.00  0.00     0.060 A 
BRANCH  93  94
ATOM     94  S   UNL A   1      53.826  25.306  25.298  1.00  0.00     0.124 S 
ATOM     95  O   UNL A   1      54.617  26.055  26.268  1.00  0.00    -0.237 OA
ATOM     96  O   UNL A   1      53.756  23.864  25.516  1.00  0.00    -0.237 OA
ATOM     97  O   UNL A   1      53.985  25.715  23.906  1.00  0.00    -0.744 OA
ENDBRANCH  93  94
ENDBRANCH  61  86
ENDBRANCH  35  36
ENDBRANCH  27  30
ENDBRANCH  25  26
ENDBRANCH  24  25
ENDBRANCH   1  24
TORSDOF 18
ENDMDL
MODEL 3
REMARK VINA RESULT:     -11.3      3.270      9.539
REMARK SMILES C[C@H]1[C@@H](C(=O)NCCCNC(=O)c2ccc(-c3c4nc(c(-c5c(F)cc(S(=O)(=O)[O-])cc5F)c5ccc([nH]5)c(-c5c(F)cc(S(=O)(=O)[O-])cc5F)c5nc(c(-c6c(F)cc(S(=O)(=O)[O-])cc6F)c6ccc3[nH]6)C=C5)C=C4)cc2)CCN1C(=O)NCC(C1CC1)C1CC1
REMARK SMILES IDX 7 1 6 2 4 3 5 4 3 6 1 7 2 8 81 9 79 10 80 11 82 12 83 13
REMARK SMILES IDX 84 14 85 16 86 17 87 18 88 19 89 20 90 21 91 22 92 23 8 24
REMARK SMILES IDX 9 25 10 26 11 27 12 29 13 30 14 31 78 32 15 33 77 34 16 35
REMARK SMILES IDX 17 36 18 37 71 38 19 39 76 40 70 41 72 42 20 43 75 44 69 45
REMARK SMILES IDX 68 46 21 48 55 49 34 50 54 51 35 52 38 53 53 54 73 55 36 56
REMARK SMILES IDX 37 57 52 59 74 60 39 61 22 62 23 63 32 64 24 65 25 66 31 67
REMARK SMILES IDX 33 68 26 69 27 70 28 71 29 72 30 73 56 74 57 75 66 76 58 77
REMARK SMILES IDX 59 78 65 79 67 80 60 81 61 82 62 83 63 84 64 85 40 86 41 87
REMARK SMILES IDX 50 88 42 89 43 90 49 91 51 92 44 93 45 94 46 95 47 96 48 97
REMARK H PARENT 6 5 84 15 10 28 72 47 38 58
REMARK Flexibility Score: inf
ROOT
ATOM      1  C   UNL A   1      32.679  28.748  23.364  1.00  0.00     0.117 C 
ENDROOT
BRANCH   1   2
ATOM      2  N   UNL A   1      32.510  27.727  22.339  1.00  0.00    -0.356 N 
ATOM      3  C   UNL A   1      32.082  26.431  22.385  1.00  0.00     0.225 C 
ATOM      4  O   UNL A   1      32.091  25.813  21.319  1.00  0.00    -0.275 OA
ATOM      5  H   UNL A   1      32.752  28.030  21.434  1.00  0.00     0.163 HD
BRANCH   3   6
ATOM      6  C   UNL A   1      31.514  25.816  23.660  1.00  0.00     0.102 C 
ATOM      7  C   UNL A   1      33.786  24.563  24.045  1.00  0.00     0.032 C 
ATOM      8  C   UNL A   1      32.468  25.081  24.616  1.00  0.00     0.096 C 
ATOM      9  N   UNL A   1      31.726  23.939  25.123  1.00  0.00    -0.321 N 
ATOM     10  C   UNL A   1      30.361  24.816  23.424  1.00  0.00     0.037 C 
ATOM     11  C   UNL A   1      30.784  23.525  24.103  1.00  0.00     0.122 C 
BRANCH   9  12
ATOM     12  C   UNL A   1      31.976  23.130  26.191  1.00  0.00     0.317 C 
ATOM     13  O   UNL A   1      31.943  23.571  27.345  1.00  0.00    -0.249 OA
ATOM     14  N   UNL A   1      32.254  21.815  26.069  1.00  0.00    -0.338 N 
ATOM     15  H   UNL A   1      32.407  21.397  26.948  1.00  0.00     0.165 HD
BRANCH  14  16
ATOM     16  C   UNL A   1      32.389  20.844  24.982  1.00  0.00     0.121 C 
BRANCH  16  17
ATOM     17  C   UNL A   1      33.719  20.063  25.039  1.00  0.00     0.014 C 
BRANCH  17  18
ATOM     18  C   UNL A   1      33.727  18.788  24.212  1.00  0.00    -0.006 C 
ATOM     19  C   UNL A   1      34.487  17.524  24.543  1.00  0.00     0.004 C 
ATOM     20  C   UNL A   1      32.993  17.562  24.705  1.00  0.00     0.004 C 
ENDBRANCH  17  18
BRANCH  17  21
ATOM     21  C   UNL A   1      34.965  20.874  24.687  1.00  0.00    -0.006 C 
ATOM     22  C   UNL A   1      35.731  21.695  25.697  1.00  0.00     0.004 C 
ATOM     23  C   UNL A   1      36.367  20.474  25.086  1.00  0.00     0.004 C 
ENDBRANCH  17  21
ENDBRANCH  16  17
ENDBRANCH  14  16
ENDBRANCH   9  12
ENDBRANCH   3   6
ENDBRANCH   1   2
BRANCH   1  24
ATOM     24  C   UNL A   1      34.011  28.598  24.105  1.00  0.00     0.042 C 
BRANCH  24  25
ATOM     25  C   UNL A   1      33.904  28.536  25.624  1.00  0.00     0.118 C 
BRANCH  25  26
ATOM     26  N   UNL A   1      33.654  29.839  26.209  1.00  0.00    -0.352 N 
ATOM     27  C   UNL A   1      34.275  30.519  27.229  1.00  0.00     0.251 C 
ATOM     28  H   UNL A   1      32.901  30.326  25.800  1.00  0.00     0.163 HD
ATOM     29  O   UNL A   1      33.706  31.517  27.672  1.00  0.00    -0.269 OA
BRANCH  27  30
ATOM     30  C   UNL A   1      35.576  30.101  27.823  1.00  0.00     0.039 A 
ATOM     31  C   UNL A   1      35.571  29.632  29.145  1.00  0.00     0.014 A 
ATOM     32  C   UNL A   1      36.805  30.250  27.178  1.00  0.00     0.014 A 
ATOM     33  C   UNL A   1      36.769  29.300  29.794  1.00  0.00     0.010 A 
ATOM     34  C   UNL A   1      37.993  29.828  27.790  1.00  0.00     0.010 A 
ATOM     35  C   UNL A   1      37.996  29.377  29.117  1.00  0.00    -0.014 A 
BRANCH  35  36
ATOM     36  C   UNL A   1      39.277  29.041  29.804  1.00  0.00     0.031 A 
ATOM     37  C   UNL A   1      39.710  29.800  31.036  1.00  0.00     0.074 A 
ATOM     38  C   UNL A   1      40.073  28.069  29.313  1.00  0.00     0.049 A 
ATOM     39  N   UNL A   1      40.802  29.671  31.748  1.00  0.00    -0.248 NA
ATOM     40  C   UNL A   1      38.811  30.862  31.516  1.00  0.00     0.031 C 
ATOM     41  C   UNL A   1      39.806  27.289  28.102  1.00  0.00     0.029 A 
ATOM     42  N   UNL A   1      41.271  27.572  29.766  1.00  0.00    -0.354 N 
ATOM     43  C   UNL A   1      40.727  30.640  32.744  1.00  0.00     0.074 A 
ATOM     44  C   UNL A   1      39.511  31.387  32.510  1.00  0.00     0.031 C 
ATOM     45  C   UNL A   1      40.795  26.399  27.924  1.00  0.00     0.029 A 
ATOM     46  C   UNL A   1      41.783  26.563  28.987  1.00  0.00     0.049 A 
ATOM     47  H   UNL A   1      41.721  27.909  30.575  1.00  0.00     0.167 HD
ATOM     48  C   UNL A   1      41.576  30.873  33.777  1.00  0.00     0.037 A 
ATOM     49  C   UNL A   1      42.920  25.847  29.107  1.00  0.00     0.037 A 
ATOM     50  C   UNL A   1      42.771  30.109  34.032  1.00  0.00     0.049 A 
ATOM     51  C   UNL A   1      43.834  26.103  30.274  1.00  0.00     0.074 A 
ATOM     52  C   UNL A   1      43.665  30.236  35.081  1.00  0.00     0.029 A 
ATOM     53  N   UNL A   1      43.235  29.075  33.234  1.00  0.00    -0.354 N 
ATOM     54  N   UNL A   1      43.716  26.989  31.235  1.00  0.00    -0.248 NA
ATOM     55  C   UNL A   1      45.028  25.255  30.382  1.00  0.00     0.031 C 
ATOM     56  C   UNL A   1      44.690  29.298  34.900  1.00  0.00     0.029 A 
ATOM     57  C   UNL A   1      44.411  28.562  33.760  1.00  0.00     0.049 A 
ATOM     58  H   UNL A   1      42.797  28.753  32.415  1.00  0.00     0.167 HD
ATOM     59  C   UNL A   1      44.811  26.793  32.069  1.00  0.00     0.074 A 
ATOM     60  C   UNL A   1      45.569  25.692  31.512  1.00  0.00     0.031 C 
ATOM     61  C   UNL A   1      45.159  27.466  33.195  1.00  0.00     0.037 A 
BRANCH  48  62
ATOM     62  C   UNL A   1      41.232  31.997  34.717  1.00  0.00     0.058 A 
ATOM     63  C   UNL A   1      41.744  33.292  34.533  1.00  0.00     0.135 A 
ATOM     64  C   UNL A   1      40.363  31.788  35.800  1.00  0.00     0.135 A 
ATOM     65  F   UNL A   1      42.590  33.548  33.522  1.00  0.00    -0.206 F 
ATOM     66  C   UNL A   1      41.439  34.329  35.409  1.00  0.00     0.059 A 
ATOM     67  C   UNL A   1      40.021  32.817  36.674  1.00  0.00     0.059 A 
ATOM     68  F   UNL A   1      39.839  30.572  36.022  1.00  0.00    -0.206 F 
ATOM     69  C   UNL A   1      40.580  34.080  36.480  1.00  0.00     0.060 A 
BRANCH  69  70
ATOM     70  S   UNL A   1      40.199  35.431  37.616  1.00  0.00     0.124 S 
ATOM     71  O   UNL A   1      41.451  35.541  38.363  1.00  0.00    -0.237 OA
ATOM     72  O   UNL A   1      39.913  36.537  36.704  1.00  0.00    -0.237 OA
ATOM     73  O   UNL A   1      39.059  34.933  38.371  1.00  0.00    -0.744 OA
ENDBRANCH  69  70
ENDBRANCH  48  62
BRANCH  49  74
ATOM     74  C   UNL A   1      43.241  24.799  28.103  1.00  0.00     0.058 A 
ATOM     75  C   UNL A   1      43.943  25.112  26.929  1.00  0.00     0.135 A 
ATOM     76  C   UNL A   1      42.876  23.459  28.308  1.00  0.00     0.135 A 
ATOM     77  F   UNL A   1      44.307  26.380  26.685  1.00  0.00    -0.206 F 
ATOM     78  C   UNL A   1      44.265  24.138  25.991  1.00  0.00     0.059 A 
ATOM     79  C   UNL A   1      43.207  22.463  27.396  1.00  0.00     0.059 A 
ATOM     80  F   UNL A   1      42.216  23.106  29.422  1.00  0.00    -0.206 F 
ATOM     81  C   UNL A   1      43.897  22.814  26.235  1.00  0.00     0.060 A 
BRANCH  81  82
ATOM     82  S   UNL A   1      44.381  21.544  25.045  1.00  0.00     0.124 S 
ATOM     83  O   UNL A   1      43.380  20.513  25.292  1.00  0.00    -0.237 OA
ATOM     84  O   UNL A   1      44.267  22.254  23.775  1.00  0.00    -0.237 OA
ATOM     85  O   UNL A   1      45.744  21.212  25.446  1.00  0.00    -0.744 OA
ENDBRANCH  81  82
ENDBRANCH  49  74
BRANCH  61  86
ATOM     86  C   UNL A   1      46.403  27.017  33.909  1.00  0.00     0.058 A 
ATOM     87  C   UNL A   1      47.659  27.575  33.621  1.00  0.00     0.135 A 
ATOM     88  C   UNL A   1      46.335  26.038  34.913  1.00  0.00     0.135 A 
ATOM     89  F   UNL A   1      47.779  28.512  32.667  1.00  0.00    -0.206 F 
ATOM     90  C   UNL A   1      48.808  27.158  34.283  1.00  0.00     0.059 A 
ATOM     91  C   UNL A   1      47.468  25.623  35.605  1.00  0.00     0.059 A 
ATOM     92  F   UNL A   1      45.157  25.482  35.235  1.00  0.00    -0.206 F 
ATOM     93  C   UNL A   1      48.703  26.177  35.271  1.00  0.00     0.060 A 
BRANCH  93  94
ATOM     94  S   UNL A   1      50.200  25.650  36.133  1.00  0.00     0.124 S 
ATOM     95  O   UNL A   1      51.003  25.128  35.032  1.00  0.00    -0.237 OA
ATOM     96  O   UNL A   1      50.675  26.895  36.729  1.00  0.00    -0.237 OA
ATOM     97  O   UNL A   1      49.712  24.654  37.083  1.00  0.00    -0.744 OA
ENDBRANCH  93  94
ENDBRANCH  61  86
ENDBRANCH  35  36
ENDBRANCH  27  30
ENDBRANCH  25  26
ENDBRANCH  24  25
ENDBRANCH   1  24
TORSDOF 18
ENDMDL
