MODEL 1
REMARK VINA RESULT:     -12.3      0.000      0.000
REMARK SMILES O=C(C[C@@H]1C(=O)NCCN1C(=O)OCC1c2ccccc2-c2ccccc21)NCCCNC(=O)c1ccc(-c2c3nc(c(-c4c(F)cc(S(=O)(=O)[O-])cc4F)c4ccc([nH]4)c(-c4c(F)cc(S(=O)(=O)[O-])cc4F)c4nc(c(-c5c(F)cc(S(=O)(=O)[O-])cc5F)c5ccc2[nH]5)C=C4)C=C3)cc1
REMARK SMILES IDX 29 1 28 2 1 3 2 4 3 6 4 7 5 8 10 9 6 10 7 11 9 12 8 13 11 15
REMARK SMILES IDX 12 16 13 17 14 18 15 19 16 20 27 21 17 22 21 23 22 24 26 25
REMARK SMILES IDX 18 26 20 27 23 28 25 29 19 30 24 31 30 32 31 33 32 34 33 35
REMARK SMILES IDX 34 37 35 38 36 39 100 40 37 41 99 42 38 43 39 44 40 45 93 46
REMARK SMILES IDX 41 47 98 48 92 49 94 50 42 51 97 52 91 53 90 54 43 56 77 57
REMARK SMILES IDX 56 58 76 59 57 60 60 61 75 62 95 63 58 64 59 65 74 67 96 68
REMARK SMILES IDX 61 69 44 70 45 71 54 72 46 73 47 74 53 75 55 76 48 77 49 78
REMARK SMILES IDX 50 79 51 80 52 81 78 82 79 83 88 84 80 85 81 86 87 87 89 88
REMARK SMILES IDX 82 89 83 90 84 91 85 92 86 93 62 94 63 95 72 96 64 97 65 98
REMARK SMILES IDX 71 99 73 100 66 101 67 102 68 103 69 104 70 105
REMARK H PARENT 28 5 7 14 32 36 94 55 60 66
REMARK Flexibility Score: inf
ROOT
ATOM      1  C   UNL A   1      33.962  31.334  27.855  1.00  0.00     0.117 C 
ENDROOT
BRANCH   1   2
ATOM      2  N   UNL A   1      34.585  32.630  27.814  1.00  0.00    -0.356 N 
ATOM      3  O   UNL A   1      32.634  33.799  28.009  1.00  0.00    -0.275 OA
ATOM      4  C   UNL A   1      33.822  33.663  28.304  1.00  0.00     0.222 C 
ATOM      5  H   UNL A   1      35.493  32.766  27.461  1.00  0.00     0.163 HD
BRANCH   4   6
ATOM      6  C   UNL A   1      34.465  34.593  29.295  1.00  0.00     0.135 C 
BRANCH   6   7
ATOM      7  C   UNL A   1      33.620  35.193  30.430  1.00  0.00     0.187 C 
ATOM      8  C   UNL A   1      33.230  36.643  29.999  1.00  0.00     0.243 C 
ATOM      9  N   UNL A   1      34.023  35.036  31.858  1.00  0.00    -0.294 N 
ATOM     10  O   UNL A   1      32.811  36.915  28.875  1.00  0.00    -0.273 OA
ATOM     11  N   UNL A   1      33.334  37.650  30.918  1.00  0.00    -0.353 N 
ATOM     12  C   UNL A   1      33.520  36.068  32.768  1.00  0.00     0.145 C 
ATOM     13  C   UNL A   1      33.841  37.461  32.252  1.00  0.00     0.137 C 
ATOM     14  H   UNL A   1      33.046  38.553  30.652  1.00  0.00     0.163 HD
BRANCH   9  15
ATOM     15  C   UNL A   1      34.301  33.819  32.477  1.00  0.00     0.410 C 
ATOM     16  O   UNL A   1      33.962  32.743  31.981  1.00  0.00    -0.224 OA
BRANCH  15  17
ATOM     17  O   UNL A   1      34.823  33.922  33.722  1.00  0.00    -0.448 OA
BRANCH  17  18
ATOM     18  C   UNL A   1      36.257  34.228  33.805  1.00  0.00     0.248 C 
BRANCH  18  19
ATOM     19  C   UNL A   1      37.107  33.157  33.085  1.00  0.00     0.088 C 
ATOM     20  C   UNL A   1      38.000  33.558  31.915  1.00  0.00    -0.029 A 
ATOM     21  C   UNL A   1      38.066  32.342  33.951  1.00  0.00    -0.029 A 
ATOM     22  C   UNL A   1      37.645  34.185  30.732  1.00  0.00     0.005 A 
ATOM     23  C   UNL A   1      39.275  32.965  32.060  1.00  0.00    -0.014 A 
ATOM     24  C   UNL A   1      39.317  32.227  33.305  1.00  0.00    -0.014 A 
ATOM     25  C   UNL A   1      37.793  31.629  35.111  1.00  0.00     0.005 A 
ATOM     26  C   UNL A   1      38.583  34.249  29.700  1.00  0.00     0.000 A 
ATOM     27  C   UNL A   1      40.213  33.041  31.041  1.00  0.00     0.009 A 
ATOM     28  C   UNL A   1      40.311  31.413  33.827  1.00  0.00     0.009 A 
ATOM     29  C   UNL A   1      38.796  30.808  35.634  1.00  0.00     0.000 A 
ATOM     30  C   UNL A   1      39.858  33.688  29.855  1.00  0.00     0.001 A 
ATOM     31  C   UNL A   1      40.044  30.700  34.998  1.00  0.00     0.001 A 
ENDBRANCH  18  19
ENDBRANCH  17  18
ENDBRANCH  15  17
ENDBRANCH   9  15
ENDBRANCH   6   7
ENDBRANCH   4   6
ENDBRANCH   1   2
BRANCH   1  32
ATOM     32  C   UNL A   1      34.692  30.153  27.279  1.00  0.00     0.042 C 
BRANCH  32  33
ATOM     33  C   UNL A   1      35.748  29.580  28.197  1.00  0.00     0.118 C 
BRANCH  33  34
ATOM     34  N   UNL A   1      35.568  29.877  29.619  1.00  0.00    -0.352 N 
ATOM     35  C   UNL A   1      36.521  30.090  30.594  1.00  0.00     0.251 C 
ATOM     36  H   UNL A   1      34.634  29.931  29.923  1.00  0.00     0.163 HD
ATOM     37  O   UNL A   1      36.174  30.342  31.744  1.00  0.00    -0.269 OA
BRANCH  35  38
ATOM     38  C   UNL A   1      37.956  29.954  30.258  1.00  0.00     0.039 A 
ATOM     39  C   UNL A   1      38.810  29.319  31.164  1.00  0.00     0.014 A 
ATOM     40  C   UNL A   1      38.440  30.365  29.017  1.00  0.00     0.014 A 
ATOM     41  C   UNL A   1      40.117  29.006  30.777  1.00  0.00     0.010 A 
ATOM     42  C   UNL A   1      39.684  29.927  28.586  1.00  0.00     0.010 A 
ATOM     43  C   UNL A   1      40.545  29.254  29.463  1.00  0.00    -0.014 A 
BRANCH  43  44
ATOM     44  C   UNL A   1      41.890  28.843  28.979  1.00  0.00     0.031 A 
ATOM     45  C   UNL A   1      42.998  29.864  28.900  1.00  0.00     0.074 A 
ATOM     46  C   UNL A   1      42.092  27.590  28.527  1.00  0.00     0.049 A 
ATOM     47  N   UNL A   1      44.204  29.738  28.410  1.00  0.00    -0.248 NA
ATOM     48  C   UNL A   1      42.693  31.218  29.390  1.00  0.00     0.031 C 
ATOM     49  C   UNL A   1      41.079  26.531  28.466  1.00  0.00     0.029 A 
ATOM     50  N   UNL A   1      43.220  26.992  28.022  1.00  0.00    -0.354 N 
ATOM     51  C   UNL A   1      44.781  30.999  28.501  1.00  0.00     0.074 A 
ATOM     52  C   UNL A   1      43.773  31.891  29.025  1.00  0.00     0.031 C 
ATOM     53  C   UNL A   1      41.642  25.407  27.993  1.00  0.00     0.029 A 
ATOM     54  C   UNL A   1      43.044  25.670  27.684  1.00  0.00     0.049 A 
ATOM     55  H   UNL A   1      44.076  27.466  27.913  1.00  0.00     0.167 HD
ATOM     56  C   UNL A   1      46.049  31.377  28.212  1.00  0.00     0.037 A 
ATOM     57  C   UNL A   1      43.915  24.771  27.189  1.00  0.00     0.037 A 
ATOM     58  C   UNL A   1      47.069  30.472  27.756  1.00  0.00     0.049 A 
ATOM     59  C   UNL A   1      45.338  25.195  26.942  1.00  0.00     0.074 A 
ATOM     60  C   UNL A   1      48.405  30.733  27.512  1.00  0.00     0.029 A 
ATOM     61  N   UNL A   1      46.868  29.126  27.491  1.00  0.00    -0.354 N 
ATOM     62  N   UNL A   1      45.886  26.378  27.098  1.00  0.00    -0.248 NA
ATOM     63  C   UNL A   1      46.266  24.160  26.464  1.00  0.00     0.031 C 
ATOM     64  C   UNL A   1      49.008  29.546  27.077  1.00  0.00     0.029 A 
ATOM     65  C   UNL A   1      48.054  28.541  27.084  1.00  0.00     0.049 A 
ATOM     66  H   UNL A   1      46.007  28.655  27.579  1.00  0.00     0.167 HD
ATOM     67  C   UNL A   1      47.225  26.223  26.762  1.00  0.00     0.074 A 
ATOM     68  C   UNL A   1      47.409  24.831  26.407  1.00  0.00     0.031 C 
ATOM     69  C   UNL A   1      48.215  27.150  26.747  1.00  0.00     0.037 A 
BRANCH  56  70
ATOM     70  C   UNL A   1      46.404  32.825  28.410  1.00  0.00     0.058 A 
ATOM     71  C   UNL A   1      46.888  33.299  29.641  1.00  0.00     0.135 A 
ATOM     72  C   UNL A   1      46.267  33.748  27.362  1.00  0.00     0.135 A 
ATOM     73  F   UNL A   1      47.019  32.465  30.684  1.00  0.00    -0.206 F 
ATOM     74  C   UNL A   1      47.187  34.644  29.836  1.00  0.00     0.059 A 
ATOM     75  C   UNL A   1      46.589  35.092  27.525  1.00  0.00     0.059 A 
ATOM     76  F   UNL A   1      45.808  33.349  26.165  1.00  0.00    -0.206 F 
ATOM     77  C   UNL A   1      47.031  35.533  28.773  1.00  0.00     0.060 A 
BRANCH  77  78
ATOM     78  S   UNL A   1      47.419  37.275  29.042  1.00  0.00     0.124 S 
ATOM     79  O   UNL A   1      47.101  37.847  27.737  1.00  0.00    -0.237 OA
ATOM     80  O   UNL A   1      46.514  37.634  30.128  1.00  0.00    -0.237 OA
ATOM     81  O   UNL A   1      48.837  37.256  29.391  1.00  0.00    -0.744 OA
ENDBRANCH  77  78
ENDBRANCH  56  70
BRANCH  57  82
ATOM     82  C   UNL A   1      43.483  23.370  26.944  1.00  0.00     0.058 A 
ATOM     83  C   UNL A   1      43.292  22.898  25.636  1.00  0.00     0.135 A 
ATOM     84  C   UNL A   1      43.267  22.473  28.001  1.00  0.00     0.135 A 
ATOM     85  F   UNL A   1      43.482  23.720  24.593  1.00  0.00    -0.206 F 
ATOM     86  C   UNL A   1      42.884  21.593  25.385  1.00  0.00     0.059 A 
ATOM     87  C   UNL A   1      42.880  21.156  27.774  1.00  0.00     0.059 A 
ATOM     88  F   UNL A   1      43.454  22.871  29.268  1.00  0.00    -0.206 F 
ATOM     89  C   UNL A   1      42.682  20.727  26.461  1.00  0.00     0.060 A 
BRANCH  89  90
ATOM     90  S   UNL A   1      42.199  19.019  26.122  1.00  0.00     0.124 S 
ATOM     91  O   UNL A   1      40.784  19.171  25.806  1.00  0.00    -0.237 OA
ATOM     92  O   UNL A   1      43.070  18.670  25.003  1.00  0.00    -0.237 OA
ATOM     93  O   UNL A   1      42.499  18.333  27.375  1.00  0.00    -0.744 OA
ENDBRANCH  89  90
ENDBRANCH  57  82
BRANCH  69  94
ATOM     94  C   UNL A   1      49.590  26.680  26.367  1.00  0.00     0.058 A 
ATOM     95  C   UNL A   1      50.070  26.794  25.055  1.00  0.00     0.135 A 
ATOM     96  C   UNL A   1      50.452  26.151  27.341  1.00  0.00     0.135 A 
ATOM     97  F   UNL A   1      49.282  27.290  24.087  1.00  0.00    -0.206 F 
ATOM     98  C   UNL A   1      51.350  26.374  24.713  1.00  0.00     0.059 A 
ATOM     99  C   UNL A   1      51.745  25.747  27.026  1.00  0.00     0.059 A 
ATOM    100  F   UNL A   1      50.043  26.033  28.615  1.00  0.00    -0.206 F 
ATOM    101  C   UNL A   1      52.180  25.849  25.705  1.00  0.00     0.060 A 
BRANCH 101 102
ATOM    102  S   UNL A   1      53.849  25.329  25.258  1.00  0.00     0.124 S 
ATOM    103  O   UNL A   1      53.999  25.933  23.938  1.00  0.00    -0.237 OA
ATOM    104  O   UNL A   1      54.659  25.919  26.319  1.00  0.00    -0.237 OA
ATOM    105  O   UNL A   1      53.767  23.872  25.277  1.00  0.00    -0.744 OA
ENDBRANCH 101 102
ENDBRANCH  69  94
ENDBRANCH  43  44
ENDBRANCH  35  38
ENDBRANCH  33  34
ENDBRANCH  32  33
ENDBRANCH   1  32
TORSDOF 18
ENDMDL
MODEL 2
REMARK VINA RESULT:     -12.0      5.414     13.898
REMARK SMILES O=C(C[C@@H]1C(=O)NCCN1C(=O)OCC1c2ccccc2-c2ccccc21)NCCCNC(=O)c1ccc(-c2c3nc(c(-c4c(F)cc(S(=O)(=O)[O-])cc4F)c4ccc([nH]4)c(-c4c(F)cc(S(=O)(=O)[O-])cc4F)c4nc(c(-c5c(F)cc(S(=O)(=O)[O-])cc5F)c5ccc2[nH]5)C=C4)C=C3)cc1
REMARK SMILES IDX 29 1 28 2 1 3 2 4 3 6 4 7 5 8 10 9 6 10 7 11 9 12 8 13 11 15
REMARK SMILES IDX 12 16 13 17 14 18 15 19 16 20 27 21 17 22 21 23 22 24 26 25
REMARK SMILES IDX 18 26 20 27 23 28 25 29 19 30 24 31 30 32 31 33 32 34 33 35
REMARK SMILES IDX 34 37 35 38 36 39 100 40 37 41 99 42 38 43 39 44 40 45 93 46
REMARK SMILES IDX 41 47 98 48 92 49 94 50 42 51 97 52 91 53 90 54 43 56 77 57
REMARK SMILES IDX 56 58 76 59 57 60 60 61 75 62 95 63 58 64 59 65 74 67 96 68
REMARK SMILES IDX 61 69 44 70 45 71 54 72 46 73 47 74 53 75 55 76 48 77 49 78
REMARK SMILES IDX 50 79 51 80 52 81 78 82 79 83 88 84 80 85 81 86 87 87 89 88
REMARK SMILES IDX 82 89 83 90 84 91 85 92 86 93 62 94 63 95 72 96 64 97 65 98
REMARK SMILES IDX 71 99 73 100 66 101 67 102 68 103 69 104 70 105
REMARK H PARENT 28 5 7 14 32 36 94 55 60 66
REMARK Flexibility Score: inf
ROOT
ATOM      1  C   UNL A   1      40.345  22.772  27.540  1.00  0.00     0.117 C 
ENDROOT
BRANCH   1   2
ATOM      2  N   UNL A   1      40.809  21.496  27.064  1.00  0.00    -0.356 N 
ATOM      3  O   UNL A   1      42.077  22.361  25.373  1.00  0.00    -0.275 OA
ATOM      4  C   UNL A   1      41.937  21.539  26.279  1.00  0.00     0.222 C 
ATOM      5  H   UNL A   1      40.351  20.654  27.283  1.00  0.00     0.163 HD
BRANCH   4   6
ATOM      6  C   UNL A   1      43.054  20.591  26.618  1.00  0.00     0.135 C 
BRANCH   6   7
ATOM      7  C   UNL A   1      44.041  20.162  25.521  1.00  0.00     0.187 C 
ATOM      8  C   UNL A   1      44.113  18.602  25.547  1.00  0.00     0.243 C 
ATOM      9  N   UNL A   1      45.348  20.860  25.343  1.00  0.00    -0.294 N 
ATOM     10  O   UNL A   1      43.113  17.889  25.616  1.00  0.00    -0.273 OA
ATOM     11  N   UNL A   1      45.338  18.000  25.464  1.00  0.00    -0.353 N 
ATOM     12  C   UNL A   1      46.403  20.064  24.710  1.00  0.00     0.145 C 
ATOM     13  C   UNL A   1      46.580  18.727  25.411  1.00  0.00     0.137 C 
ATOM     14  H   UNL A   1      45.372  17.017  25.438  1.00  0.00     0.163 HD
BRANCH   9  15
ATOM     15  C   UNL A   1      45.500  22.235  25.182  1.00  0.00     0.410 C 
ATOM     16  O   UNL A   1      45.079  22.826  24.186  1.00  0.00    -0.224 OA
BRANCH  15  17
ATOM     17  O   UNL A   1      46.277  22.834  26.116  1.00  0.00    -0.448 OA
BRANCH  17  18
ATOM     18  C   UNL A   1      46.420  24.292  26.007  1.00  0.00     0.248 C 
BRANCH  18  19
ATOM     19  C   UNL A   1      45.405  25.030  26.908  1.00  0.00     0.088 C 
ATOM     20  C   UNL A   1      45.079  24.482  28.293  1.00  0.00    -0.029 A 
ATOM     21  C   UNL A   1      45.694  26.501  27.209  1.00  0.00    -0.029 A 
ATOM     22  C   UNL A   1      44.591  23.230  28.634  1.00  0.00     0.005 A 
ATOM     23  C   UNL A   1      45.093  25.531  29.240  1.00  0.00    -0.014 A 
ATOM     24  C   UNL A   1      45.473  26.762  28.580  1.00  0.00    -0.014 A 
ATOM     25  C   UNL A   1      45.954  27.533  26.317  1.00  0.00     0.005 A 
ATOM     26  C   UNL A   1      44.146  23.020  29.940  1.00  0.00     0.000 A 
ATOM     27  C   UNL A   1      44.664  25.318  30.542  1.00  0.00     0.009 A 
ATOM     28  C   UNL A   1      45.531  28.057  29.071  1.00  0.00     0.009 A 
ATOM     29  C   UNL A   1      46.010  28.838  26.816  1.00  0.00     0.000 A 
ATOM     30  C   UNL A   1      44.188  24.051  30.888  1.00  0.00     0.001 A 
ATOM     31  C   UNL A   1      45.801  29.098  28.179  1.00  0.00     0.001 A 
ENDBRANCH  18  19
ENDBRANCH  17  18
ENDBRANCH  15  17
ENDBRANCH   9  15
ENDBRANCH   6   7
ENDBRANCH   4   6
ENDBRANCH   1   2
BRANCH   1  32
ATOM     32  C   UNL A   1      39.235  23.468  26.803  1.00  0.00     0.042 C 
BRANCH  32  33
ATOM     33  C   UNL A   1      39.576  24.877  26.373  1.00  0.00     0.118 C 
BRANCH  33  34
ATOM     34  N   UNL A   1      40.799  25.010  25.580  1.00  0.00    -0.352 N 
ATOM     35  C   UNL A   1      41.935  25.747  25.844  1.00  0.00     0.251 C 
ATOM     36  H   UNL A   1      40.812  24.503  24.737  1.00  0.00     0.163 HD
ATOM     37  O   UNL A   1      42.876  25.723  25.057  1.00  0.00    -0.269 OA
BRANCH  35  38
ATOM     38  C   UNL A   1      41.988  26.606  27.048  1.00  0.00     0.039 A 
ATOM     39  C   UNL A   1      42.258  27.969  26.901  1.00  0.00     0.014 A 
ATOM     40  C   UNL A   1      41.680  26.091  28.306  1.00  0.00     0.014 A 
ATOM     41  C   UNL A   1      42.113  28.825  27.997  1.00  0.00     0.010 A 
ATOM     42  C   UNL A   1      41.398  26.957  29.353  1.00  0.00     0.010 A 
ATOM     43  C   UNL A   1      41.623  28.334  29.218  1.00  0.00    -0.014 A 
BRANCH  43  44
ATOM     44  C   UNL A   1      41.355  29.225  30.378  1.00  0.00     0.031 A 
ATOM     45  C   UNL A   1      42.235  29.142  31.601  1.00  0.00     0.074 A 
ATOM     46  C   UNL A   1      40.279  30.036  30.373  1.00  0.00     0.049 A 
ATOM     47  N   UNL A   1      42.109  29.750  32.752  1.00  0.00    -0.248 NA
ATOM     48  C   UNL A   1      43.377  28.216  31.539  1.00  0.00     0.031 C 
ATOM     49  C   UNL A   1      39.298  30.146  29.288  1.00  0.00     0.029 A 
ATOM     50  N   UNL A   1      39.821  30.920  31.318  1.00  0.00    -0.354 N 
ATOM     51  C   UNL A   1      43.129  29.253  33.555  1.00  0.00     0.074 A 
ATOM     52  C   UNL A   1      43.820  28.243  32.786  1.00  0.00     0.031 C 
ATOM     53  C   UNL A   1      38.382  31.073  29.612  1.00  0.00     0.029 A 
ATOM     54  C   UNL A   1      38.686  31.599  30.939  1.00  0.00     0.049 A 
ATOM     55  H   UNL A   1      40.264  31.055  32.186  1.00  0.00     0.167 HD
ATOM     56  C   UNL A   1      43.486  29.628  34.806  1.00  0.00     0.037 A 
ATOM     57  C   UNL A   1      37.977  32.544  31.585  1.00  0.00     0.037 A 
ATOM     58  C   UNL A   1      42.840  30.681  35.540  1.00  0.00     0.049 A 
ATOM     59  C   UNL A   1      38.434  32.997  32.945  1.00  0.00     0.074 A 
ATOM     60  C   UNL A   1      43.172  31.196  36.780  1.00  0.00     0.029 A 
ATOM     61  N   UNL A   1      41.736  31.391  35.093  1.00  0.00    -0.354 N 
ATOM     62  N   UNL A   1      39.443  32.562  33.663  1.00  0.00    -0.248 NA
ATOM     63  C   UNL A   1      37.665  34.077  33.579  1.00  0.00     0.031 C 
ATOM     64  C   UNL A   1      42.254  32.206  37.093  1.00  0.00     0.029 A 
ATOM     65  C   UNL A   1      41.371  32.340  36.032  1.00  0.00     0.049 A 
ATOM     66  H   UNL A   1      41.278  31.242  34.234  1.00  0.00     0.167 HD
ATOM     67  C   UNL A   1      39.445  33.331  34.820  1.00  0.00     0.074 A 
ATOM     68  C   UNL A   1      38.346  34.267  34.702  1.00  0.00     0.031 C 
ATOM     69  C   UNL A   1      40.280  33.269  35.887  1.00  0.00     0.037 A 
BRANCH  56  70
ATOM     70  C   UNL A   1      44.646  28.911  35.440  1.00  0.00     0.058 A 
ATOM     71  C   UNL A   1      45.962  29.386  35.310  1.00  0.00     0.135 A 
ATOM     72  C   UNL A   1      44.444  27.743  36.192  1.00  0.00     0.135 A 
ATOM     73  F   UNL A   1      46.216  30.486  34.584  1.00  0.00    -0.206 F 
ATOM     74  C   UNL A   1      47.039  28.707  35.869  1.00  0.00     0.059 A 
ATOM     75  C   UNL A   1      45.504  27.065  36.787  1.00  0.00     0.059 A 
ATOM     76  F   UNL A   1      43.207  27.245  36.349  1.00  0.00    -0.206 F 
ATOM     77  C   UNL A   1      46.801  27.545  36.603  1.00  0.00     0.060 A 
BRANCH  77  78
ATOM     78  S   UNL A   1      48.209  26.674  37.319  1.00  0.00     0.124 S 
ATOM     79  O   UNL A   1      49.149  27.770  37.534  1.00  0.00    -0.237 OA
ATOM     80  O   UNL A   1      47.636  26.087  38.525  1.00  0.00    -0.237 OA
ATOM     81  O   UNL A   1      48.583  25.721  36.278  1.00  0.00    -0.744 OA
ENDBRANCH  77  78
ENDBRANCH  56  70
BRANCH  57  82
ATOM     82  C   UNL A   1      36.793  33.164  30.933  1.00  0.00     0.058 A 
ATOM     83  C   UNL A   1      35.496  32.890  31.394  1.00  0.00     0.135 A 
ATOM     84  C   UNL A   1      36.930  34.047  29.851  1.00  0.00     0.135 A 
ATOM     85  F   UNL A   1      35.315  32.048  32.423  1.00  0.00    -0.206 F 
ATOM     86  C   UNL A   1      34.375  33.456  30.797  1.00  0.00     0.059 A 
ATOM     87  C   UNL A   1      35.824  34.643  29.251  1.00  0.00     0.059 A 
ATOM     88  F   UNL A   1      38.149  34.355  29.385  1.00  0.00    -0.206 F 
ATOM     89  C   UNL A   1      34.549  34.333  29.725  1.00  0.00     0.060 A 
BRANCH  89  90
ATOM     90  S   UNL A   1      33.089  35.100  28.987  1.00  0.00     0.124 S 
ATOM     91  O   UNL A   1      33.657  36.310  28.403  1.00  0.00    -0.237 OA
ATOM     92  O   UNL A   1      32.650  34.079  28.040  1.00  0.00    -0.237 OA
ATOM     93  O   UNL A   1      32.205  35.304  30.130  1.00  0.00    -0.744 OA
ENDBRANCH  89  90
ENDBRANCH  57  82
BRANCH  69  94
ATOM     94  C   UNL A   1      40.059  34.261  36.992  1.00  0.00     0.058 A 
ATOM     95  C   UNL A   1      40.505  35.587  36.892  1.00  0.00     0.135 A 
ATOM     96  C   UNL A   1      39.353  33.889  38.147  1.00  0.00     0.135 A 
ATOM     97  F   UNL A   1      41.189  35.989  35.808  1.00  0.00    -0.206 F 
ATOM     98  C   UNL A   1      40.282  36.505  37.911  1.00  0.00     0.059 A 
ATOM     99  C   UNL A   1      39.098  34.798  39.168  1.00  0.00     0.059 A 
ATOM    100  F   UNL A   1      38.894  32.635  38.285  1.00  0.00    -0.206 F 
ATOM    101  C   UNL A   1      39.579  36.101  39.047  1.00  0.00     0.060 A 
BRANCH 101 102
ATOM    102  S   UNL A   1      39.273  37.307  40.355  1.00  0.00     0.124 S 
ATOM    103  O   UNL A   1      40.632  37.651  40.758  1.00  0.00    -0.237 OA
ATOM    104  O   UNL A   1      38.538  38.354  39.652  1.00  0.00    -0.237 OA
ATOM    105  O   UNL A   1      38.497  36.554  41.335  1.00  0.00    -0.744 OA
ENDBRANCH 101 102
ENDBRANCH  69  94
ENDBRANCH  43  44
ENDBRANCH  35  38
ENDBRANCH  33  34
ENDBRANCH  32  33
ENDBRANCH   1  32
TORSDOF 18
ENDMDL
MODEL 3
REMARK VINA RESULT:     -11.8      0.871      7.937
REMARK SMILES O=C(C[C@@H]1C(=O)NCCN1C(=O)OCC1c2ccccc2-c2ccccc21)NCCCNC(=O)c1ccc(-c2c3nc(c(-c4c(F)cc(S(=O)(=O)[O-])cc4F)c4ccc([nH]4)c(-c4c(F)cc(S(=O)(=O)[O-])cc4F)c4nc(c(-c5c(F)cc(S(=O)(=O)[O-])cc5F)c5ccc2[nH]5)C=C4)C=C3)cc1
REMARK SMILES IDX 29 1 28 2 1 3 2 4 3 6 4 7 5 8 10 9 6 10 7 11 9 12 8 13 11 15
REMARK SMILES IDX 12 16 13 17 14 18 15 19 16 20 27 21 17 22 21 23 22 24 26 25
REMARK SMILES IDX 18 26 20 27 23 28 25 29 19 30 24 31 30 32 31 33 32 34 33 35
REMARK SMILES IDX 34 37 35 38 36 39 100 40 37 41 99 42 38 43 39 44 40 45 93 46
REMARK SMILES IDX 41 47 98 48 92 49 94 50 42 51 97 52 91 53 90 54 43 56 77 57
REMARK SMILES IDX 56 58 76 59 57 60 60 61 75 62 95 63 58 64 59 65 74 67 96 68
REMARK SMILES IDX 61 69 44 70 45 71 54 72 46 73 47 74 53 75 55 76 48 77 49 78
REMARK SMILES IDX 50 79 51 80 52 81 78 82 79 83 88 84 80 85 81 86 87 87 89 88
REMARK SMILES IDX 82 89 83 90 84 91 85 92 86 93 62 94 63 95 72 96 64 97 65 98
REMARK SMILES IDX 71 99 73 100 66 101 67 102 68 103 69 104 70 105
REMARK H PARENT 28 5 7 14 32 36 94 55 60 66
REMARK Flexibility Score: inf
ROOT
ATOM      1  C   UNL A   1      34.179  31.375  27.640  1.00  0.00     0.117 C 
ENDROOT
BRANCH   1   2
ATOM      2  N   UNL A   1      34.387  32.216  28.788  1.00  0.00    -0.356 N 
ATOM      3  O   UNL A   1      36.347  33.109  28.031  1.00  0.00    -0.275 OA
ATOM      4  C   UNL A   1      35.265  33.257  28.600  1.00  0.00     0.222 C 
ATOM      5  H   UNL A   1      33.934  32.057  29.646  1.00  0.00     0.163 HD
BRANCH   4   6
ATOM      6  C   UNL A   1      34.825  34.625  29.041  1.00  0.00     0.135 C 
BRANCH   6   7
ATOM      7  C   UNL A   1      33.736  34.760  30.118  1.00  0.00     0.187 C 
ATOM      8  C   UNL A   1      32.912  36.044  29.786  1.00  0.00     0.243 C 
ATOM      9  N   UNL A   1      34.050  34.556  31.562  1.00  0.00    -0.294 N 
ATOM     10  O   UNL A   1      32.519  36.309  28.650  1.00  0.00    -0.273 OA
ATOM     11  N   UNL A   1      32.592  36.900  30.803  1.00  0.00    -0.353 N 
ATOM     12  C   UNL A   1      33.154  35.236  32.500  1.00  0.00     0.145 C 
ATOM     13  C   UNL A   1      33.022  36.713  32.165  1.00  0.00     0.137 C 
ATOM     14  H   UNL A   1      32.037  37.685  30.593  1.00  0.00     0.163 HD
BRANCH   9  15
ATOM     15  C   UNL A   1      34.675  33.428  32.090  1.00  0.00     0.410 C 
ATOM     16  O   UNL A   1      34.418  32.292  31.686  1.00  0.00    -0.224 OA
BRANCH  15  17
ATOM     17  O   UNL A   1      35.452  33.664  33.173  1.00  0.00    -0.448 OA
BRANCH  17  18
ATOM     18  C   UNL A   1      36.739  34.327  32.920  1.00  0.00     0.248 C 
BRANCH  18  19
ATOM     19  C   UNL A   1      37.723  33.392  32.182  1.00  0.00     0.088 C 
ATOM     20  C   UNL A   1      38.738  33.976  31.206  1.00  0.00    -0.029 A 
ATOM     21  C   UNL A   1      38.600  32.491  33.051  1.00  0.00    -0.029 A 
ATOM     22  C   UNL A   1      38.508  34.751  30.080  1.00  0.00     0.005 A 
ATOM     23  C   UNL A   1      40.010  33.406  31.438  1.00  0.00    -0.014 A 
ATOM     24  C   UNL A   1      39.927  32.504  32.568  1.00  0.00    -0.014 A 
ATOM     25  C   UNL A   1      38.214  31.617  34.058  1.00  0.00     0.005 A 
ATOM     26  C   UNL A   1      39.567  34.984  29.201  1.00  0.00     0.000 A 
ATOM     27  C   UNL A   1      41.067  33.649  30.572  1.00  0.00     0.009 A 
ATOM     28  C   UNL A   1      40.883  31.654  33.103  1.00  0.00     0.009 A 
ATOM     29  C   UNL A   1      39.180  30.761  34.596  1.00  0.00     0.000 A 
ATOM     30  C   UNL A   1      40.837  34.444  29.447  1.00  0.00     0.001 A 
ATOM     31  C   UNL A   1      40.502  30.778  34.123  1.00  0.00     0.001 A 
ENDBRANCH  18  19
ENDBRANCH  17  18
ENDBRANCH  15  17
ENDBRANCH   9  15
ENDBRANCH   6   7
ENDBRANCH   4   6
ENDBRANCH   1   2
BRANCH   1  32
ATOM     32  C   UNL A   1      34.681  29.959  27.671  1.00  0.00     0.042 C 
BRANCH  32  33
ATOM     33  C   UNL A   1      35.941  29.774  28.486  1.00  0.00     0.118 C 
BRANCH  33  34
ATOM     34  N   UNL A   1      35.755  29.791  29.938  1.00  0.00    -0.352 N 
ATOM     35  C   UNL A   1      36.705  29.823  30.938  1.00  0.00     0.251 C 
ATOM     36  H   UNL A   1      34.820  29.778  30.243  1.00  0.00     0.163 HD
ATOM     37  O   UNL A   1      36.353  29.848  32.114  1.00  0.00    -0.269 OA
BRANCH  35  38
ATOM     38  C   UNL A   1      38.141  29.767  30.589  1.00  0.00     0.039 A 
ATOM     39  C   UNL A   1      38.988  28.928  31.317  1.00  0.00     0.014 A 
ATOM     40  C   UNL A   1      38.635  30.466  29.488  1.00  0.00     0.014 A 
ATOM     41  C   UNL A   1      40.297  28.713  30.874  1.00  0.00     0.010 A 
ATOM     42  C   UNL A   1      39.880  30.142  28.970  1.00  0.00     0.010 A 
ATOM     43  C   UNL A   1      40.735  29.272  29.662  1.00  0.00    -0.014 A 
BRANCH  43  44
ATOM     44  C   UNL A   1      42.081  28.986  29.101  1.00  0.00     0.031 A 
ATOM     45  C   UNL A   1      42.376  27.622  28.528  1.00  0.00     0.074 A 
ATOM     46  C   UNL A   1      43.059  29.909  29.187  1.00  0.00     0.049 A 
ATOM     47  N   UNL A   1      43.509  27.137  28.089  1.00  0.00    -0.248 NA
ATOM     48  C   UNL A   1      41.263  26.660  28.490  1.00  0.00     0.031 C 
ATOM     49  C   UNL A   1      42.930  31.236  29.798  1.00  0.00     0.029 A 
ATOM     50  N   UNL A   1      44.365  29.870  28.766  1.00  0.00    -0.354 N 
ATOM     51  C   UNL A   1      43.250  25.812  27.761  1.00  0.00     0.074 A 
ATOM     52  C   UNL A   1      41.875  25.547  28.116  1.00  0.00     0.031 C 
ATOM     53  C   UNL A   1      44.093  31.895  29.675  1.00  0.00     0.029 A 
ATOM     54  C   UNL A   1      45.062  31.031  29.009  1.00  0.00     0.049 A 
ATOM     55  H   UNL A   1      44.766  29.084  28.330  1.00  0.00     0.167 HD
ATOM     56  C   UNL A   1      44.070  24.904  27.179  1.00  0.00     0.037 A 
ATOM     57  C   UNL A   1      46.335  31.363  28.722  1.00  0.00     0.037 A 
ATOM     58  C   UNL A   1      45.415  25.192  26.764  1.00  0.00     0.049 A 
ATOM     59  C   UNL A   1      47.206  30.364  28.010  1.00  0.00     0.074 A 
ATOM     60  C   UNL A   1      46.304  24.372  26.092  1.00  0.00     0.029 A 
ATOM     61  N   UNL A   1      46.062  26.402  26.967  1.00  0.00    -0.354 N 
ATOM     62  N   UNL A   1      46.923  29.135  27.646  1.00  0.00    -0.248 NA
ATOM     63  C   UNL A   1      48.566  30.798  27.660  1.00  0.00     0.031 C 
ATOM     64  C   UNL A   1      47.497  25.080  25.908  1.00  0.00     0.029 A 
ATOM     65  C   UNL A   1      47.339  26.352  26.436  1.00  0.00     0.049 A 
ATOM     66  H   UNL A   1      45.669  27.183  27.422  1.00  0.00     0.167 HD
ATOM     67  C   UNL A   1      48.059  28.659  27.002  1.00  0.00     0.074 A 
ATOM     68  C   UNL A   1      49.028  29.735  27.015  1.00  0.00     0.031 C 
ATOM     69  C   UNL A   1      48.282  27.441  26.450  1.00  0.00     0.037 A 
BRANCH  56  70
ATOM     70  C   UNL A   1      43.517  23.527  26.934  1.00  0.00     0.058 A 
ATOM     71  C   UNL A   1      43.391  22.591  27.974  1.00  0.00     0.135 A 
ATOM     72  C   UNL A   1      43.100  23.139  25.651  1.00  0.00     0.135 A 
ATOM     73  F   UNL A   1      43.794  22.901  29.217  1.00  0.00    -0.206 F 
ATOM     74  C   UNL A   1      42.910  21.307  27.743  1.00  0.00     0.059 A 
ATOM     75  C   UNL A   1      42.586  21.870  25.403  1.00  0.00     0.059 A 
ATOM     76  F   UNL A   1      43.198  23.994  24.621  1.00  0.00    -0.206 F 
ATOM     77  C   UNL A   1      42.512  20.954  26.453  1.00  0.00     0.060 A 
BRANCH  77  78
ATOM     78  S   UNL A   1      41.893  19.283  26.169  1.00  0.00     0.124 S 
ATOM     79  O   UNL A   1      42.674  18.880  25.003  1.00  0.00    -0.237 OA
ATOM     80  O   UNL A   1      42.226  18.608  27.418  1.00  0.00    -0.237 OA
ATOM     81  O   UNL A   1      40.467  19.487  25.930  1.00  0.00    -0.744 OA
ENDBRANCH  77  78
ENDBRANCH  56  70
BRANCH  57  82
ATOM     82  C   UNL A   1      46.846  32.719  29.057  1.00  0.00     0.058 A 
ATOM     83  C   UNL A   1      46.712  33.779  28.147  1.00  0.00     0.135 A 
ATOM     84  C   UNL A   1      47.463  32.987  30.288  1.00  0.00     0.135 A 
ATOM     85  F   UNL A   1      46.133  33.570  26.955  1.00  0.00    -0.206 F 
ATOM     86  C   UNL A   1      47.187  35.053  28.438  1.00  0.00     0.059 A 
ATOM     87  C   UNL A   1      47.926  34.259  30.610  1.00  0.00     0.059 A 
ATOM     88  F   UNL A   1      47.599  32.011  31.198  1.00  0.00    -0.206 F 
ATOM     89  C   UNL A   1      47.792  35.285  29.674  1.00  0.00     0.060 A 
BRANCH  89  90
ATOM     90  S   UNL A   1      48.361  36.955  30.062  1.00  0.00     0.124 S 
ATOM     91  O   UNL A   1      48.960  36.763  31.377  1.00  0.00    -0.237 OA
ATOM     92  O   UNL A   1      49.291  37.225  28.969  1.00  0.00    -0.237 OA
ATOM     93  O   UNL A   1      47.132  37.742  30.035  1.00  0.00    -0.744 OA
ENDBRANCH  89  90
ENDBRANCH  57  82
BRANCH  69  94
ATOM     94  C   UNL A   1      49.610  27.219  25.785  1.00  0.00     0.058 A 
ATOM     95  C   UNL A   1      50.730  26.782  26.506  1.00  0.00     0.135 A 
ATOM     96  C   UNL A   1      49.749  27.407  24.401  1.00  0.00     0.135 A 
ATOM     97  F   UNL A   1      50.648  26.592  27.833  1.00  0.00    -0.206 F 
ATOM     98  C   UNL A   1      51.953  26.562  25.882  1.00  0.00     0.059 A 
ATOM     99  C   UNL A   1      50.956  27.170  23.752  1.00  0.00     0.059 A 
ATOM    100  F   UNL A   1      48.703  27.813  23.664  1.00  0.00    -0.206 F 
ATOM    101  C   UNL A   1      52.057  26.761  24.505  1.00  0.00     0.060 A 
BRANCH 101 102
ATOM    102  S   UNL A   1      53.641  26.450  23.699  1.00  0.00     0.124 S 
ATOM    103  O   UNL A   1      54.214  25.425  24.566  1.00  0.00    -0.237 OA
ATOM    104  O   UNL A   1      53.236  26.000  22.370  1.00  0.00    -0.237 OA
ATOM    105  O   UNL A   1      54.303  27.749  23.739  1.00  0.00    -0.744 OA
ENDBRANCH 101 102
ENDBRANCH  69  94
ENDBRANCH  43  44
ENDBRANCH  35  38
ENDBRANCH  33  34
ENDBRANCH  32  33
ENDBRANCH   1  32
TORSDOF 18
ENDMDL
