MODEL 1
REMARK VINA RESULT:     -10.7      0.000      0.000
REMARK SMILES CC[C@](C)([NH3+])C(=O)NC[C@](C)(O)C(=O)NCCCNC(=O)c1ccc(-c2c3nc(c(-c4c(F)cc(S(=O)(=O)[O-])cc4F)c4ccc([nH]4)c(-c4c(F)cc(S(=O)(=O)[O-])cc4F)c4nc(c(-c5c(F)cc(S(=O)(=O)[O-])cc5F)c5ccc2[nH]5)C=C4)C=C3)cc1
REMARK SMILES IDX 16 1 15 2 13 3 14 4 10 6 11 7 9 8 8 9 6 10 7 11 3 13 4 14
REMARK SMILES IDX 2 15 1 16 5 17 12 21 17 23 18 24 19 25 20 26 21 28 22 29
REMARK SMILES IDX 23 30 87 31 24 32 86 33 25 34 26 35 27 36 80 37 28 38 85 39
REMARK SMILES IDX 79 40 81 41 29 42 84 43 78 44 77 45 30 47 64 48 43 49 63 50
REMARK SMILES IDX 44 51 47 52 62 53 82 54 45 55 46 56 61 58 83 59 48 60 31 61
REMARK SMILES IDX 32 62 41 63 33 64 34 65 40 66 42 67 35 68 36 69 37 70 38 71
REMARK SMILES IDX 39 72 65 73 66 74 75 75 67 76 68 77 74 78 76 79 69 80 70 81
REMARK SMILES IDX 71 82 72 83 73 84 49 85 50 86 59 87 51 88 52 89 58 90 60 91
REMARK SMILES IDX 53 92 54 93 55 94 56 95 57 96
REMARK H PARENT 15 5 8 12 5 18 5 19 5 20 12 22 19 27 81 46 47 57
REMARK Flexibility Score: inf
ROOT
ATOM      1  C   UNL A   1      36.606  22.343  25.392  1.00  0.00     0.117 C 
ENDROOT
BRANCH   1   2
ATOM      2  N   UNL A   1      35.798  22.269  26.600  1.00  0.00    -0.353 N 
ATOM      3  C   UNL A   1      34.482  21.930  26.752  1.00  0.00     0.253 C 
ATOM      4  O   UNL A   1      34.025  21.944  27.899  1.00  0.00    -0.272 OA
ATOM      5  H   UNL A   1      36.270  22.496  27.434  1.00  0.00     0.163 HD
BRANCH   3   6
ATOM      6  C   UNL A   1      33.637  21.482  25.529  1.00  0.00     0.157 C 
ATOM      7  C   UNL A   1      34.259  20.226  24.902  1.00  0.00     0.055 C 
BRANCH   6   8
ATOM      8  C   UNL A   1      33.539  22.671  24.545  1.00  0.00     0.161 C 
BRANCH   8   9
ATOM      9  N   UNL A   1      32.231  23.001  24.026  1.00  0.00    -0.347 N 
ATOM     10  C   UNL A   1      31.383  24.007  24.383  1.00  0.00     0.281 C 
ATOM     11  O   UNL A   1      30.459  24.235  23.595  1.00  0.00    -0.268 OA
ATOM     12  H   UNL A   1      31.904  22.412  23.308  1.00  0.00     0.163 HD
BRANCH  10  13
ATOM     13  C   UNL A   1      31.574  24.833  25.702  1.00  0.00     0.170 C 
ATOM     14  C   UNL A   1      30.516  25.963  25.672  1.00  0.00     0.090 C 
BRANCH  13  15
ATOM     15  C   UNL A   1      32.966  25.497  25.923  1.00  0.00     0.075 C 
ATOM     16  C   UNL A   1      33.529  26.428  24.857  1.00  0.00     0.011 C 
ENDBRANCH  13  15
BRANCH  13  17
ATOM     17  N   UNL A   1      31.189  24.000  26.874  1.00  0.00    -0.345 N 
ATOM     18  H   UNL A   1      31.960  23.975  27.541  1.00  0.00     0.345 HD
ATOM     19  H   UNL A   1      30.979  23.052  26.562  1.00  0.00     0.345 HD
ATOM     20  H   UNL A   1      30.365  24.401  27.321  1.00  0.00     0.345 HD
ENDBRANCH  13  17
ENDBRANCH  10  13
ENDBRANCH   8   9
ENDBRANCH   6   8
BRANCH   6  21
ATOM     21  O   UNL A   1      32.289  21.141  25.904  1.00  0.00    -0.378 OA
ATOM     22  H   UNL A   1      31.773  20.938  25.108  1.00  0.00     0.212 HD
ENDBRANCH   6  21
ENDBRANCH   3   6
ENDBRANCH   1   2
BRANCH   1  23
ATOM     23  C   UNL A   1      37.282  23.694  25.235  1.00  0.00     0.042 C 
BRANCH  23  24
ATOM     24  C   UNL A   1      38.168  24.077  26.411  1.00  0.00     0.118 C 
BRANCH  24  25
ATOM     25  N   UNL A   1      39.589  23.903  26.137  1.00  0.00    -0.352 N 
ATOM     26  C   UNL A   1      40.659  24.665  26.542  1.00  0.00     0.251 C 
ATOM     27  H   UNL A   1      39.815  23.124  25.580  1.00  0.00     0.163 HD
ATOM     28  O   UNL A   1      41.773  24.445  26.071  1.00  0.00    -0.269 OA
BRANCH  26  29
ATOM     29  C   UNL A   1      40.463  25.759  27.514  1.00  0.00     0.039 A 
ATOM     30  C   UNL A   1      39.512  25.605  28.527  1.00  0.00     0.014 A 
ATOM     31  C   UNL A   1      41.226  26.928  27.442  1.00  0.00     0.014 A 
ATOM     32  C   UNL A   1      39.387  26.587  29.512  1.00  0.00     0.010 A 
ATOM     33  C   UNL A   1      41.166  27.858  28.473  1.00  0.00     0.010 A 
ATOM     34  C   UNL A   1      40.245  27.700  29.519  1.00  0.00    -0.014 A 
BRANCH  34  35
ATOM     35  C   UNL A   1      40.202  28.707  30.609  1.00  0.00     0.031 A 
ATOM     36  C   UNL A   1      41.083  28.548  31.819  1.00  0.00     0.074 A 
ATOM     37  C   UNL A   1      39.313  29.718  30.548  1.00  0.00     0.049 A 
ATOM     38  N   UNL A   1      41.123  29.265  32.911  1.00  0.00    -0.248 NA
ATOM     39  C   UNL A   1      42.020  27.413  31.814  1.00  0.00     0.031 C 
ATOM     40  C   UNL A   1      38.364  29.949  29.455  1.00  0.00     0.029 A 
ATOM     41  N   UNL A   1      39.048  30.735  31.432  1.00  0.00    -0.354 N 
ATOM     42  C   UNL A   1      42.070  28.660  33.729  1.00  0.00     0.074 A 
ATOM     43  C   UNL A   1      42.544  27.486  33.029  1.00  0.00     0.031 C 
ATOM     44  C   UNL A   1      37.639  31.046  29.723  1.00  0.00     0.029 A 
ATOM     45  C   UNL A   1      38.036  31.573  31.024  1.00  0.00     0.049 A 
ATOM     46  H   UNL A   1      39.536  30.853  32.279  1.00  0.00     0.167 HD
ATOM     47  C   UNL A   1      42.521  29.059  34.942  1.00  0.00     0.037 A 
ATOM     48  C   UNL A   1      37.481  32.639  31.635  1.00  0.00     0.037 A 
ATOM     49  C   UNL A   1      42.068  30.247  35.617  1.00  0.00     0.049 A 
ATOM     50  C   UNL A   1      38.005  33.069  32.978  1.00  0.00     0.074 A 
ATOM     51  C   UNL A   1      42.514  30.776  36.815  1.00  0.00     0.029 A 
ATOM     52  N   UNL A   1      41.065  31.087  35.157  1.00  0.00    -0.354 N 
ATOM     53  N   UNL A   1      38.952  32.525  33.704  1.00  0.00    -0.248 NA
ATOM     54  C   UNL A   1      37.393  34.260  33.582  1.00  0.00     0.031 C 
ATOM     55  C   UNL A   1      41.747  31.909  37.104  1.00  0.00     0.029 A 
ATOM     56  C   UNL A   1      40.861  32.118  36.059  1.00  0.00     0.049 A 
ATOM     57  H   UNL A   1      40.571  30.968  34.314  1.00  0.00     0.167 HD
ATOM     58  C   UNL A   1      39.068  33.322  34.838  1.00  0.00     0.074 A 
ATOM     59  C   UNL A   1      38.102  34.392  34.695  1.00  0.00     0.031 C 
ATOM     60  C   UNL A   1      39.899  33.181  35.900  1.00  0.00     0.037 A 
BRANCH  47  61
ATOM     61  C   UNL A   1      43.563  28.208  35.617  1.00  0.00     0.058 A 
ATOM     62  C   UNL A   1      43.215  27.194  36.524  1.00  0.00     0.135 A 
ATOM     63  C   UNL A   1      44.925  28.380  35.321  1.00  0.00     0.135 A 
ATOM     64  F   UNL A   1      41.929  26.996  36.856  1.00  0.00    -0.206 F 
ATOM     65  C   UNL A   1      44.180  26.400  37.135  1.00  0.00     0.059 A 
ATOM     66  C   UNL A   1      45.905  27.577  35.897  1.00  0.00     0.059 A 
ATOM     67  F   UNL A   1      45.314  29.335  34.462  1.00  0.00    -0.206 F 
ATOM     68  C   UNL A   1      45.523  26.598  36.813  1.00  0.00     0.060 A 
BRANCH  68  69
ATOM     69  S   UNL A   1      46.762  25.551  37.604  1.00  0.00     0.124 S 
ATOM     70  O   UNL A   1      47.526  25.085  36.450  1.00  0.00    -0.237 OA
ATOM     71  O   UNL A   1      47.451  26.491  38.482  1.00  0.00    -0.237 OA
ATOM     72  O   UNL A   1      45.965  24.532  38.281  1.00  0.00    -0.744 OA
ENDBRANCH  68  69
ENDBRANCH  47  61
BRANCH  48  73
ATOM     73  C   UNL A   1      36.377  33.382  30.970  1.00  0.00     0.058 A 
ATOM     74  C   UNL A   1      35.061  33.308  31.452  1.00  0.00     0.135 A 
ATOM     75  C   UNL A   1      36.618  34.198  29.854  1.00  0.00     0.135 A 
ATOM     76  F   UNL A   1      34.779  32.537  32.513  1.00  0.00    -0.206 F 
ATOM     77  C   UNL A   1      34.022  34.004  30.844  1.00  0.00     0.059 A 
ATOM     78  C   UNL A   1      35.599  34.925  29.244  1.00  0.00     0.059 A 
ATOM     79  F   UNL A   1      37.862  34.319  29.364  1.00  0.00    -0.206 F 
ATOM     80  C   UNL A   1      34.301  34.814  29.742  1.00  0.00     0.060 A 
BRANCH  80  81
ATOM     81  S   UNL A   1      32.954  35.756  28.995  1.00  0.00     0.124 S 
ATOM     82  O   UNL A   1      32.371  34.772  28.091  1.00  0.00    -0.237 OA
ATOM     83  O   UNL A   1      32.148  36.112  30.159  1.00  0.00    -0.237 OA
ATOM     84  O   UNL A   1      33.643  36.874  28.354  1.00  0.00    -0.744 OA
ENDBRANCH  80  81
ENDBRANCH  48  73
BRANCH  60  85
ATOM     85  C   UNL A   1      39.832  34.226  36.979  1.00  0.00     0.058 A 
ATOM     86  C   UNL A   1      40.472  35.468  36.846  1.00  0.00     0.135 A 
ATOM     87  C   UNL A   1      39.066  34.004  38.134  1.00  0.00     0.135 A 
ATOM     88  F   UNL A   1      41.223  35.730  35.764  1.00  0.00    -0.206 F 
ATOM     89  C   UNL A   1      40.370  36.446  37.830  1.00  0.00     0.059 A 
ATOM     90  C   UNL A   1      38.926  34.978  39.117  1.00  0.00     0.059 A 
ATOM     91  F   UNL A   1      38.424  32.837  38.307  1.00  0.00    -0.206 F 
ATOM     92  C   UNL A   1      39.592  36.193  38.961  1.00  0.00     0.060 A 
BRANCH  92  93
ATOM     93  S   UNL A   1      39.436  37.486  40.212  1.00  0.00     0.124 S 
ATOM     94  O   UNL A   1      38.510  38.409  39.564  1.00  0.00    -0.237 OA
ATOM     95  O   UNL A   1      38.904  36.752  41.356  1.00  0.00    -0.237 OA
ATOM     96  O   UNL A   1      40.803  37.973  40.369  1.00  0.00    -0.744 OA
ENDBRANCH  92  93
ENDBRANCH  60  85
ENDBRANCH  34  35
ENDBRANCH  26  29
ENDBRANCH  24  25
ENDBRANCH  23  24
ENDBRANCH   1  23
TORSDOF 19
ENDMDL
MODEL 2
REMARK VINA RESULT:     -10.7      5.477      8.046
REMARK SMILES CC[C@](C)([NH3+])C(=O)NC[C@](C)(O)C(=O)NCCCNC(=O)c1ccc(-c2c3nc(c(-c4c(F)cc(S(=O)(=O)[O-])cc4F)c4ccc([nH]4)c(-c4c(F)cc(S(=O)(=O)[O-])cc4F)c4nc(c(-c5c(F)cc(S(=O)(=O)[O-])cc5F)c5ccc2[nH]5)C=C4)C=C3)cc1
REMARK SMILES IDX 16 1 15 2 13 3 14 4 10 6 11 7 9 8 8 9 6 10 7 11 3 13 4 14
REMARK SMILES IDX 2 15 1 16 5 17 12 21 17 23 18 24 19 25 20 26 21 28 22 29
REMARK SMILES IDX 23 30 87 31 24 32 86 33 25 34 26 35 27 36 80 37 28 38 85 39
REMARK SMILES IDX 79 40 81 41 29 42 84 43 78 44 77 45 30 47 64 48 43 49 63 50
REMARK SMILES IDX 44 51 47 52 62 53 82 54 45 55 46 56 61 58 83 59 48 60 31 61
REMARK SMILES IDX 32 62 41 63 33 64 34 65 40 66 42 67 35 68 36 69 37 70 38 71
REMARK SMILES IDX 39 72 65 73 66 74 75 75 67 76 68 77 74 78 76 79 69 80 70 81
REMARK SMILES IDX 71 82 72 83 73 84 49 85 50 86 59 87 51 88 52 89 58 90 60 91
REMARK SMILES IDX 53 92 54 93 55 94 56 95 57 96
REMARK H PARENT 15 5 8 12 5 18 5 19 5 20 12 22 19 27 81 46 47 57
REMARK Flexibility Score: inf
ROOT
ATOM      1  C   UNL A   1      43.241  20.349  25.875  1.00  0.00     0.117 C 
ENDROOT
BRANCH   1   2
ATOM      2  N   UNL A   1      43.474  19.658  24.616  1.00  0.00    -0.353 N 
ATOM      3  C   UNL A   1      44.648  19.394  23.967  1.00  0.00     0.253 C 
ATOM      4  O   UNL A   1      44.576  18.783  22.897  1.00  0.00    -0.272 OA
ATOM      5  H   UNL A   1      42.663  19.330  24.163  1.00  0.00     0.163 HD
BRANCH   3   6
ATOM      6  C   UNL A   1      46.007  19.794  24.604  1.00  0.00     0.157 C 
ATOM      7  C   UNL A   1      46.353  18.821  25.740  1.00  0.00     0.055 C 
BRANCH   6   8
ATOM      8  C   UNL A   1      45.912  21.266  25.067  1.00  0.00     0.161 C 
BRANCH   8   9
ATOM      9  N   UNL A   1      46.443  22.279  24.184  1.00  0.00    -0.347 N 
ATOM     10  C   UNL A   1      46.552  23.625  24.371  1.00  0.00     0.281 C 
ATOM     11  O   UNL A   1      47.295  24.218  23.582  1.00  0.00    -0.268 OA
ATOM     12  H   UNL A   1      46.774  21.948  23.318  1.00  0.00     0.163 HD
BRANCH  10  13
ATOM     13  C   UNL A   1      45.796  24.373  25.523  1.00  0.00     0.170 C 
ATOM     14  C   UNL A   1      46.004  25.887  25.278  1.00  0.00     0.090 C 
BRANCH  13  15
ATOM     15  C   UNL A   1      46.251  24.065  26.982  1.00  0.00     0.075 C 
ATOM     16  C   UNL A   1      45.259  23.452  27.962  1.00  0.00     0.011 C 
ENDBRANCH  13  15
BRANCH  13  17
ATOM     17  N   UNL A   1      44.328  24.174  25.370  1.00  0.00    -0.345 N 
ATOM     18  H   UNL A   1      44.117  23.176  25.392  1.00  0.00     0.345 HD
ATOM     19  H   UNL A   1      44.024  24.567  24.479  1.00  0.00     0.345 HD
ATOM     20  H   UNL A   1      43.840  24.642  26.133  1.00  0.00     0.345 HD
ENDBRANCH  13  17
ENDBRANCH  10  13
ENDBRANCH   8   9
ENDBRANCH   6   8
BRANCH   6  21
ATOM     21  O   UNL A   1      47.085  19.727  23.651  1.00  0.00    -0.378 OA
ATOM     22  H   UNL A   1      47.447  20.616  23.509  1.00  0.00     0.212 HD
ENDBRANCH   6  21
ENDBRANCH   3   6
ENDBRANCH   1   2
BRANCH   1  23
ATOM     23  C   UNL A   1      41.775  20.351  26.268  1.00  0.00     0.042 C 
BRANCH  23  24
ATOM     24  C   UNL A   1      41.186  21.745  26.432  1.00  0.00     0.118 C 
BRANCH  24  25
ATOM     25  N   UNL A   1      39.787  21.825  26.028  1.00  0.00    -0.352 N 
ATOM     26  C   UNL A   1      38.888  22.853  26.182  1.00  0.00     0.251 C 
ATOM     27  H   UNL A   1      39.435  21.024  25.578  1.00  0.00     0.163 HD
ATOM     28  O   UNL A   1      37.703  22.668  25.917  1.00  0.00    -0.269 OA
BRANCH  26  29
ATOM     29  C   UNL A   1      39.343  24.163  26.692  1.00  0.00     0.039 A 
ATOM     30  C   UNL A   1      39.182  24.457  28.048  1.00  0.00     0.014 A 
ATOM     31  C   UNL A   1      39.946  25.094  25.840  1.00  0.00     0.014 A 
ATOM     32  C   UNL A   1      39.698  25.648  28.563  1.00  0.00     0.010 A 
ATOM     33  C   UNL A   1      40.540  26.232  26.370  1.00  0.00     0.010 A 
ATOM     34  C   UNL A   1      40.422  26.524  27.737  1.00  0.00    -0.014 A 
BRANCH  34  35
ATOM     35  C   UNL A   1      41.068  27.747  28.279  1.00  0.00     0.031 A 
ATOM     36  C   UNL A   1      42.568  27.835  28.361  1.00  0.00     0.074 A 
ATOM     37  C   UNL A   1      40.303  28.742  28.773  1.00  0.00     0.049 A 
ATOM     38  N   UNL A   1      43.312  28.774  28.885  1.00  0.00    -0.248 NA
ATOM     39  C   UNL A   1      43.331  26.704  27.809  1.00  0.00     0.031 C 
ATOM     40  C   UNL A   1      38.838  28.750  28.804  1.00  0.00     0.029 A 
ATOM     41  N   UNL A   1      40.651  29.934  29.359  1.00  0.00    -0.354 N 
ATOM     42  C   UNL A   1      44.626  28.339  28.745  1.00  0.00     0.074 A 
ATOM     43  C   UNL A   1      44.574  27.029  28.135  1.00  0.00     0.031 C 
ATOM     44  C   UNL A   1      38.415  29.897  29.358  1.00  0.00     0.029 A 
ATOM     45  C   UNL A   1      39.572  30.687  29.762  1.00  0.00     0.049 A 
ATOM     46  H   UNL A   1      41.584  30.223  29.479  1.00  0.00     0.167 HD
ATOM     47  C   UNL A   1      45.770  28.983  29.074  1.00  0.00     0.037 A 
ATOM     48  C   UNL A   1      39.521  31.874  30.399  1.00  0.00     0.037 A 
ATOM     49  C   UNL A   1      45.814  30.301  29.652  1.00  0.00     0.049 A 
ATOM     50  C   UNL A   1      40.806  32.575  30.746  1.00  0.00     0.074 A 
ATOM     51  C   UNL A   1      46.924  31.069  29.955  1.00  0.00     0.029 A 
ATOM     52  N   UNL A   1      44.700  31.044  30.017  1.00  0.00    -0.354 N 
ATOM     53  N   UNL A   1      42.040  32.180  30.541  1.00  0.00    -0.248 NA
ATOM     54  C   UNL A   1      40.695  33.884  31.403  1.00  0.00     0.031 C 
ATOM     55  C   UNL A   1      46.484  32.257  30.549  1.00  0.00     0.029 A 
ATOM     56  C   UNL A   1      45.098  32.253  30.564  1.00  0.00     0.049 A 
ATOM     57  H   UNL A   1      43.767  30.756  29.903  1.00  0.00     0.167 HD
ATOM     58  C   UNL A   1      42.851  33.203  31.019  1.00  0.00     0.074 A 
ATOM     59  C   UNL A   1      41.968  34.239  31.513  1.00  0.00     0.031 C 
ATOM     60  C   UNL A   1      44.205  33.279  31.045  1.00  0.00     0.037 A 
BRANCH  47  61
ATOM     61  C   UNL A   1      47.072  28.275  28.813  1.00  0.00     0.058 A 
ATOM     62  C   UNL A   1      47.683  27.469  29.786  1.00  0.00     0.135 A 
ATOM     63  C   UNL A   1      47.696  28.372  27.558  1.00  0.00     0.135 A 
ATOM     64  F   UNL A   1      47.140  27.354  31.008  1.00  0.00    -0.206 F 
ATOM     65  C   UNL A   1      48.880  26.804  29.535  1.00  0.00     0.059 A 
ATOM     66  C   UNL A   1      48.878  27.692  27.275  1.00  0.00     0.059 A 
ATOM     67  F   UNL A   1      47.157  29.130  26.592  1.00  0.00    -0.206 F 
ATOM     68  C   UNL A   1      49.468  26.921  28.275  1.00  0.00     0.060 A 
BRANCH  68  69
ATOM     69  S   UNL A   1      51.013  26.043  27.962  1.00  0.00     0.124 S 
ATOM     70  O   UNL A   1      51.588  26.842  26.883  1.00  0.00    -0.237 OA
ATOM     71  O   UNL A   1      51.693  26.137  29.250  1.00  0.00    -0.237 OA
ATOM     72  O   UNL A   1      50.574  24.703  27.584  1.00  0.00    -0.744 OA
ENDBRANCH  68  69
ENDBRANCH  47  61
BRANCH  48  73
ATOM     73  C   UNL A   1      38.204  32.480  30.732  1.00  0.00     0.058 A 
ATOM     74  C   UNL A   1      37.615  32.285  31.990  1.00  0.00     0.135 A 
ATOM     75  C   UNL A   1      37.518  33.284  29.808  1.00  0.00     0.135 A 
ATOM     76  F   UNL A   1      38.228  31.520  32.906  1.00  0.00    -0.206 F 
ATOM     77  C   UNL A   1      36.387  32.852  32.316  1.00  0.00     0.059 A 
ATOM     78  C   UNL A   1      36.302  33.884  30.120  1.00  0.00     0.059 A 
ATOM     79  F   UNL A   1      38.047  33.517  28.597  1.00  0.00    -0.206 F 
ATOM     80  C   UNL A   1      35.740  33.654  31.375  1.00  0.00     0.060 A 
BRANCH  80  81
ATOM     81  S   UNL A   1      34.175  34.431  31.830  1.00  0.00     0.124 S 
ATOM     82  O   UNL A   1      34.629  35.679  32.433  1.00  0.00    -0.237 OA
ATOM     83  O   UNL A   1      33.506  34.552  30.538  1.00  0.00    -0.237 OA
ATOM     84  O   UNL A   1      33.576  33.466  32.748  1.00  0.00    -0.744 OA
ENDBRANCH  80  81
ENDBRANCH  48  73
BRANCH  60  85
ATOM     85  C   UNL A   1      44.822  34.537  31.593  1.00  0.00     0.058 A 
ATOM     86  C   UNL A   1      45.184  34.655  32.944  1.00  0.00     0.135 A 
ATOM     87  C   UNL A   1      45.109  35.614  30.740  1.00  0.00     0.135 A 
ATOM     88  F   UNL A   1      44.925  33.656  33.803  1.00  0.00    -0.206 F 
ATOM     89  C   UNL A   1      45.793  35.806  33.434  1.00  0.00     0.059 A 
ATOM     90  C   UNL A   1      45.744  36.763  31.202  1.00  0.00     0.059 A 
ATOM     91  F   UNL A   1      44.793  35.549  29.436  1.00  0.00    -0.206 F 
ATOM     92  C   UNL A   1      46.072  36.854  32.554  1.00  0.00     0.060 A 
BRANCH  92  93
ATOM     93  S   UNL A   1      46.898  38.325  33.195  1.00  0.00     0.124 S 
ATOM     94  O   UNL A   1      46.723  38.156  34.634  1.00  0.00    -0.237 OA
ATOM     95  O   UNL A   1      48.260  38.160  32.698  1.00  0.00    -0.237 OA
ATOM     96  O   UNL A   1      46.148  39.425  32.596  1.00  0.00    -0.744 OA
ENDBRANCH  92  93
ENDBRANCH  60  85
ENDBRANCH  34  35
ENDBRANCH  26  29
ENDBRANCH  24  25
ENDBRANCH  23  24
ENDBRANCH   1  23
TORSDOF 19
ENDMDL
MODEL 3
REMARK VINA RESULT:     -10.5      5.027     10.613
REMARK SMILES CC[C@](C)([NH3+])C(=O)NC[C@](C)(O)C(=O)NCCCNC(=O)c1ccc(-c2c3nc(c(-c4c(F)cc(S(=O)(=O)[O-])cc4F)c4ccc([nH]4)c(-c4c(F)cc(S(=O)(=O)[O-])cc4F)c4nc(c(-c5c(F)cc(S(=O)(=O)[O-])cc5F)c5ccc2[nH]5)C=C4)C=C3)cc1
REMARK SMILES IDX 16 1 15 2 13 3 14 4 10 6 11 7 9 8 8 9 6 10 7 11 3 13 4 14
REMARK SMILES IDX 2 15 1 16 5 17 12 21 17 23 18 24 19 25 20 26 21 28 22 29
REMARK SMILES IDX 23 30 87 31 24 32 86 33 25 34 26 35 27 36 80 37 28 38 85 39
REMARK SMILES IDX 79 40 81 41 29 42 84 43 78 44 77 45 30 47 64 48 43 49 63 50
REMARK SMILES IDX 44 51 47 52 62 53 82 54 45 55 46 56 61 58 83 59 48 60 31 61
REMARK SMILES IDX 32 62 41 63 33 64 34 65 40 66 42 67 35 68 36 69 37 70 38 71
REMARK SMILES IDX 39 72 65 73 66 74 75 75 67 76 68 77 74 78 76 79 69 80 70 81
REMARK SMILES IDX 71 82 72 83 73 84 49 85 50 86 59 87 51 88 52 89 58 90 60 91
REMARK SMILES IDX 53 92 54 93 55 94 56 95 57 96
REMARK H PARENT 15 5 8 12 5 18 5 19 5 20 12 22 19 27 81 46 47 57
REMARK Flexibility Score: inf
ROOT
ATOM      1  C   UNL A   1      33.250  26.776  25.392  1.00  0.00     0.117 C 
ENDROOT
BRANCH   1   2
ATOM      2  N   UNL A   1      32.054  26.347  26.100  1.00  0.00    -0.353 N 
ATOM      3  C   UNL A   1      30.800  26.087  25.620  1.00  0.00     0.253 C 
ATOM      4  O   UNL A   1      29.945  25.733  26.437  1.00  0.00    -0.272 OA
ATOM      5  H   UNL A   1      32.163  26.225  27.071  1.00  0.00     0.163 HD
BRANCH   3   6
ATOM      6  C   UNL A   1      30.505  26.172  24.097  1.00  0.00     0.157 C 
ATOM      7  C   UNL A   1      29.097  26.738  23.873  1.00  0.00     0.055 C 
BRANCH   6   8
ATOM      8  C   UNL A   1      30.703  24.765  23.486  1.00  0.00     0.161 C 
BRANCH   8   9
ATOM      9  N   UNL A   1      30.512  23.627  24.356  1.00  0.00    -0.347 N 
ATOM     10  C   UNL A   1      31.383  22.632  24.689  1.00  0.00     0.281 C 
ATOM     11  O   UNL A   1      31.063  21.943  25.664  1.00  0.00    -0.268 OA
ATOM     12  H   UNL A   1      29.621  23.560  24.769  1.00  0.00     0.163 HD
BRANCH  10  13
ATOM     13  C   UNL A   1      32.713  22.384  23.897  1.00  0.00     0.170 C 
ATOM     14  C   UNL A   1      33.122  20.916  24.170  1.00  0.00     0.090 C 
BRANCH  13  15
ATOM     15  C   UNL A   1      33.929  23.287  24.260  1.00  0.00     0.075 C 
ATOM     16  C   UNL A   1      34.716  23.968  23.147  1.00  0.00     0.011 C 
ENDBRANCH  13  15
BRANCH  13  17
ATOM     17  N   UNL A   1      32.438  22.423  22.434  1.00  0.00    -0.345 N 
ATOM     18  H   UNL A   1      31.766  21.695  22.194  1.00  0.00     0.345 HD
ATOM     19  H   UNL A   1      33.307  22.268  21.921  1.00  0.00     0.345 HD
ATOM     20  H   UNL A   1      32.055  23.335  22.185  1.00  0.00     0.345 HD
ENDBRANCH  13  17
ENDBRANCH  10  13
ENDBRANCH   8   9
ENDBRANCH   6   8
BRANCH   6  21
ATOM     21  O   UNL A   1      31.424  27.051  23.422  1.00  0.00    -0.378 OA
ATOM     22  H   UNL A   1      31.984  26.534  22.820  1.00  0.00     0.212 HD
ENDBRANCH   6  21
ENDBRANCH   3   6
ENDBRANCH   1   2
BRANCH   1  23
ATOM     23  C   UNL A   1      33.722  28.148  25.838  1.00  0.00     0.042 C 
BRANCH  23  24
ATOM     24  C   UNL A   1      33.480  28.430  27.314  1.00  0.00     0.118 C 
BRANCH  24  25
ATOM     25  N   UNL A   1      33.458  29.853  27.627  1.00  0.00    -0.352 N 
ATOM     26  C   UNL A   1      34.440  30.645  28.173  1.00  0.00     0.251 C 
ATOM     27  H   UNL A   1      32.615  30.315  27.416  1.00  0.00     0.163 HD
ATOM     28  O   UNL A   1      34.173  31.796  28.512  1.00  0.00    -0.269 OA
BRANCH  26  29
ATOM     29  C   UNL A   1      35.799  30.103  28.377  1.00  0.00     0.039 A 
ATOM     30  C   UNL A   1      36.708  30.130  27.315  1.00  0.00     0.014 A 
ATOM     31  C   UNL A   1      36.186  29.588  29.617  1.00  0.00     0.014 A 
ATOM     32  C   UNL A   1      38.025  29.715  27.522  1.00  0.00     0.010 A 
ATOM     33  C   UNL A   1      37.518  29.265  29.846  1.00  0.00     0.010 A 
ATOM     34  C   UNL A   1      38.453  29.323  28.802  1.00  0.00    -0.014 A 
BRANCH  34  35
ATOM     35  C   UNL A   1      39.871  28.973  29.073  1.00  0.00     0.031 A 
ATOM     36  C   UNL A   1      40.812  30.012  29.622  1.00  0.00     0.074 A 
ATOM     37  C   UNL A   1      40.329  27.748  28.749  1.00  0.00     0.049 A 
ATOM     38  N   UNL A   1      42.099  29.928  29.836  1.00  0.00    -0.248 NA
ATOM     39  C   UNL A   1      40.236  31.328  29.942  1.00  0.00     0.031 C 
ATOM     40  C   UNL A   1      39.530  26.672  28.156  1.00  0.00     0.029 A 
ATOM     41  N   UNL A   1      41.585  27.203  28.855  1.00  0.00    -0.354 N 
ATOM     42  C   UNL A   1      42.489  31.181  30.295  1.00  0.00     0.074 A 
ATOM     43  C   UNL A   1      41.313  32.023  30.279  1.00  0.00     0.031 C 
ATOM     44  C   UNL A   1      40.307  25.594  27.973  1.00  0.00     0.029 A 
ATOM     45  C   UNL A   1      41.668  25.911  28.390  1.00  0.00     0.049 A 
ATOM     46  H   UNL A   1      42.354  27.691  29.229  1.00  0.00     0.167 HD
ATOM     47  C   UNL A   1      43.712  31.586  30.714  1.00  0.00     0.037 A 
ATOM     48  C   UNL A   1      42.725  25.079  28.298  1.00  0.00     0.037 A 
ATOM     49  C   UNL A   1      44.870  30.733  30.759  1.00  0.00     0.049 A 
ATOM     50  C   UNL A   1      44.071  25.548  28.779  1.00  0.00     0.074 A 
ATOM     51  C   UNL A   1      46.136  31.027  31.234  1.00  0.00     0.029 A 
ATOM     52  N   UNL A   1      44.907  29.421  30.309  1.00  0.00    -0.354 N 
ATOM     53  N   UNL A   1      44.406  26.714  29.277  1.00  0.00    -0.248 NA
ATOM     54  C   UNL A   1      45.181  24.589  28.693  1.00  0.00     0.031 C 
ATOM     55  C   UNL A   1      46.951  29.910  31.026  1.00  0.00     0.029 A 
ATOM     56  C   UNL A   1      46.179  28.900  30.473  1.00  0.00     0.049 A 
ATOM     57  H   UNL A   1      44.141  28.932  29.929  1.00  0.00     0.167 HD
ATOM     58  C   UNL A   1      45.758  26.621  29.589  1.00  0.00     0.074 A 
ATOM     59  C   UNL A   1      46.175  25.280  29.233  1.00  0.00     0.031 C 
ATOM     60  C   UNL A   1      46.579  27.559  30.122  1.00  0.00     0.037 A 
BRANCH  47  61
ATOM     61  C   UNL A   1      43.860  33.014  31.165  1.00  0.00     0.058 A 
ATOM     62  C   UNL A   1      43.697  33.386  32.509  1.00  0.00     0.135 A 
ATOM     63  C   UNL A   1      44.212  34.018  30.247  1.00  0.00     0.135 A 
ATOM     64  F   UNL A   1      43.344  32.471  33.426  1.00  0.00    -0.206 F 
ATOM     65  C   UNL A   1      43.849  34.706  32.923  1.00  0.00     0.059 A 
ATOM     66  C   UNL A   1      44.399  35.339  30.645  1.00  0.00     0.059 A 
ATOM     67  F   UNL A   1      44.379  33.719  28.950  1.00  0.00    -0.206 F 
ATOM     68  C   UNL A   1      44.202  35.674  31.983  1.00  0.00     0.060 A 
BRANCH  68  69
ATOM     69  S   UNL A   1      44.409  37.379  32.540  1.00  0.00     0.124 S 
ATOM     70  O   UNL A   1      43.284  37.522  33.460  1.00  0.00    -0.237 OA
ATOM     71  O   UNL A   1      45.731  37.347  33.158  1.00  0.00    -0.237 OA
ATOM     72  O   UNL A   1      44.314  38.154  31.307  1.00  0.00    -0.744 OA
ENDBRANCH  68  69
ENDBRANCH  47  61
BRANCH  48  73
ATOM     73  C   UNL A   1      42.544  23.710  27.743  1.00  0.00     0.058 A 
ATOM     74  C   UNL A   1      42.526  23.488  26.358  1.00  0.00     0.135 A 
ATOM     75  C   UNL A   1      42.408  22.595  28.584  1.00  0.00     0.135 A 
ATOM     76  F   UNL A   1      42.647  24.522  25.512  1.00  0.00    -0.206 F 
ATOM     77  C   UNL A   1      42.365  22.213  25.826  1.00  0.00     0.059 A 
ATOM     78  C   UNL A   1      42.273  21.307  28.076  1.00  0.00     0.059 A 
ATOM     79  F   UNL A   1      42.437  22.751  29.917  1.00  0.00    -0.206 F 
ATOM     80  C   UNL A   1      42.243  21.127  26.694  1.00  0.00     0.060 A 
BRANCH  80  81
ATOM     81  S   UNL A   1      42.092  19.470  25.993  1.00  0.00     0.124 S 
ATOM     82  O   UNL A   1      40.653  19.370  25.779  1.00  0.00    -0.237 OA
ATOM     83  O   UNL A   1      42.912  19.571  24.789  1.00  0.00    -0.237 OA
ATOM     84  O   UNL A   1      42.637  18.611  27.041  1.00  0.00    -0.744 OA
ENDBRANCH  80  81
ENDBRANCH  48  73
BRANCH  60  85
ATOM     85  C   UNL A   1      48.005  27.165  30.390  1.00  0.00     0.058 A 
ATOM     86  C   UNL A   1      49.023  27.390  29.452  1.00  0.00     0.135 A 
ATOM     87  C   UNL A   1      48.365  26.611  31.629  1.00  0.00     0.135 A 
ATOM     88  F   UNL A   1      48.732  27.911  28.249  1.00  0.00    -0.206 F 
ATOM     89  C   UNL A   1      50.348  27.061  29.724  1.00  0.00     0.059 A 
ATOM     90  C   UNL A   1      49.687  26.302  31.935  1.00  0.00     0.059 A 
ATOM     91  F   UNL A   1      47.432  26.386  32.568  1.00  0.00    -0.206 F 
ATOM     92  C   UNL A   1      50.670  26.520  30.971  1.00  0.00     0.060 A 
BRANCH  92  93
ATOM     93  S   UNL A   1      52.398  26.136  31.326  1.00  0.00     0.124 S 
ATOM     94  O   UNL A   1      52.992  26.200  29.995  1.00  0.00    -0.237 OA
ATOM     95  O   UNL A   1      52.774  27.208  32.242  1.00  0.00    -0.237 OA
ATOM     96  O   UNL A   1      52.334  24.805  31.922  1.00  0.00    -0.744 OA
ENDBRANCH  92  93
ENDBRANCH  60  85
ENDBRANCH  34  35
ENDBRANCH  26  29
ENDBRANCH  24  25
ENDBRANCH  23  24
ENDBRANCH   1  23
TORSDOF 19
ENDMDL
