MODEL 1
REMARK VINA RESULT:     -12.2      0.000      0.000
REMARK SMILES COc1ccc(CCNC(=O)[C@@]2(C)CC[C@@H](C(=O)NCCCNC(=O)c3ccc(-c4c5nc(c(-c6c(F)cc(S(=O)(=O)[O-])cc6F)c6ccc([nH]6)c(-c6c(F)cc(S(=O)(=O)[O-])cc6F)c6nc(c(-c7c(F)cc(S(=O)(=O)[O-])cc7F)c7ccc4[nH]7)C=C6)C=C5)cc3)C2(C)C)cc1OC
REMARK SMILES IDX 20 1 19 2 17 3 18 4 16 6 12 7 13 8 14 9 92 10 15 11 93 12
REMARK SMILES IDX 94 13 10 14 9 15 11 17 8 18 7 19 6 20 3 21 4 22 96 23 5 24
REMARK SMILES IDX 95 25 2 26 1 27 97 28 98 29 21 30 22 31 23 32 24 33 25 35
REMARK SMILES IDX 26 36 27 37 91 38 28 39 90 40 29 41 30 42 31 43 84 44 32 45
REMARK SMILES IDX 89 46 83 47 85 48 33 49 88 50 82 51 81 52 34 54 68 55 47 56
REMARK SMILES IDX 67 57 48 58 51 59 66 60 86 61 49 62 50 63 65 65 87 66 52 67
REMARK SMILES IDX 35 68 36 69 45 70 37 71 38 72 44 73 46 74 39 75 40 76 41 77
REMARK SMILES IDX 42 78 43 79 69 80 70 81 79 82 71 83 72 84 78 85 80 86 73 87
REMARK SMILES IDX 74 88 75 89 76 90 77 91 53 92 54 93 63 94 55 95 56 96 62 97
REMARK SMILES IDX 64 98 57 99 58 100 59 101 60 102 61 103
REMARK H PARENT 19 5 9 16 23 34 85 53 51 64
REMARK Flexibility Score: inf
ROOT
ATOM      1  C   UNL A   1      33.364  30.399  27.429  1.00  0.00     0.117 C 
ENDROOT
BRANCH   1   2
ATOM      2  N   UNL A   1      32.522  29.239  27.587  1.00  0.00    -0.356 N 
ATOM      3  C   UNL A   1      31.911  28.432  26.689  1.00  0.00     0.223 C 
ATOM      4  O   UNL A   1      31.284  27.481  27.178  1.00  0.00    -0.275 OA
ATOM      5  H   UNL A   1      32.360  28.988  28.525  1.00  0.00     0.163 HD
BRANCH   3   6
ATOM      6  C   UNL A   1      31.989  28.548  25.151  1.00  0.00     0.085 C 
ATOM      7  C   UNL A   1      31.566  26.728  23.439  1.00  0.00     0.052 C 
ATOM      8  C   UNL A   1      31.649  26.946  21.900  1.00  0.00     0.022 C 
ATOM      9  C   UNL A   1      30.262  27.422  23.893  1.00  0.00     0.018 C 
ATOM     10  C   UNL A   1      32.734  27.516  24.245  1.00  0.00    -0.010 C 
ATOM     11  C   UNL A   1      30.644  28.770  24.473  1.00  0.00     0.015 C 
ATOM     12  C   UNL A   1      33.720  26.647  25.045  1.00  0.00     0.013 C 
ATOM     13  C   UNL A   1      33.663  28.338  23.302  1.00  0.00     0.013 C 
BRANCH   7  14
ATOM     14  C   UNL A   1      31.702  25.178  23.560  1.00  0.00     0.226 C 
ATOM     15  N   UNL A   1      31.318  24.375  24.577  1.00  0.00    -0.355 N 
ATOM     16  H   UNL A   1      31.469  23.429  24.352  1.00  0.00     0.163 HD
ATOM     17  O   UNL A   1      32.174  24.554  22.596  1.00  0.00    -0.274 OA
BRANCH  15  18
ATOM     18  C   UNL A   1      30.745  24.508  25.913  1.00  0.00     0.120 C 
BRANCH  18  19
ATOM     19  C   UNL A   1      31.104  23.353  26.845  1.00  0.00     0.057 C 
BRANCH  19  20
ATOM     20  C   UNL A   1      32.295  22.567  26.361  1.00  0.00    -0.042 A 
ATOM     21  C   UNL A   1      34.483  21.080  25.428  1.00  0.00     0.160 A 
ATOM     22  C   UNL A   1      34.682  22.203  26.243  1.00  0.00     0.051 A 
ATOM     23  C   UNL A   1      33.187  20.665  25.104  1.00  0.00     0.160 A 
ATOM     24  C   UNL A   1      33.594  22.951  26.696  1.00  0.00     0.008 A 
ATOM     25  C   UNL A   1      32.104  21.410  25.587  1.00  0.00     0.054 A 
BRANCH  21  26
ATOM     26  O   UNL A   1      35.575  20.358  25.030  1.00  0.00    -0.493 OA
ATOM     27  C   UNL A   1      36.785  21.096  25.212  1.00  0.00     0.278 C 
ENDBRANCH  21  26
BRANCH  23  28
ATOM     28  O   UNL A   1      32.806  19.576  24.368  1.00  0.00    -0.493 OA
ATOM     29  C   UNL A   1      32.672  18.338  25.050  1.00  0.00     0.278 C 
ENDBRANCH  23  28
ENDBRANCH  19  20
ENDBRANCH  18  19
ENDBRANCH  15  18
ENDBRANCH   7  14
ENDBRANCH   3   6
ENDBRANCH   1   2
BRANCH   1  30
ATOM     30  C   UNL A   1      34.851  30.107  27.551  1.00  0.00     0.042 C 
BRANCH  30  31
ATOM     31  C   UNL A   1      35.616  31.139  28.350  1.00  0.00     0.118 C 
BRANCH  31  32
ATOM     32  N   UNL A   1      35.602  30.872  29.780  1.00  0.00    -0.352 N 
ATOM     33  C   UNL A   1      36.499  30.235  30.607  1.00  0.00     0.251 C 
ATOM     34  H   UNL A   1      34.801  31.210  30.243  1.00  0.00     0.163 HD
ATOM     35  O   UNL A   1      36.153  30.000  31.763  1.00  0.00    -0.269 OA
BRANCH  33  36
ATOM     36  C   UNL A   1      37.844  29.816  30.135  1.00  0.00     0.039 A 
ATOM     37  C   UNL A   1      38.132  29.858  28.765  1.00  0.00     0.014 A 
ATOM     38  C   UNL A   1      38.814  29.333  31.010  1.00  0.00     0.014 A 
ATOM     39  C   UNL A   1      39.396  29.471  28.301  1.00  0.00     0.010 A 
ATOM     40  C   UNL A   1      40.113  29.103  30.570  1.00  0.00     0.010 A 
ATOM     41  C   UNL A   1      40.416  29.126  29.204  1.00  0.00    -0.014 A 
BRANCH  41  42
ATOM     42  C   UNL A   1      41.779  28.732  28.753  1.00  0.00     0.031 A 
ATOM     43  C   UNL A   1      42.883  29.765  28.677  1.00  0.00     0.074 A 
ATOM     44  C   UNL A   1      42.017  27.467  28.347  1.00  0.00     0.049 A 
ATOM     45  N   UNL A   1      44.110  29.639  28.236  1.00  0.00    -0.248 NA
ATOM     46  C   UNL A   1      42.552  31.132  29.116  1.00  0.00     0.031 C 
ATOM     47  C   UNL A   1      41.028  26.389  28.307  1.00  0.00     0.029 A 
ATOM     48  N   UNL A   1      43.167  26.875  27.885  1.00  0.00    -0.354 N 
ATOM     49  C   UNL A   1      44.678  30.907  28.321  1.00  0.00     0.074 A 
ATOM     50  C   UNL A   1      43.643  31.803  28.780  1.00  0.00     0.031 C 
ATOM     51  C   UNL A   1      41.621  25.260  27.887  1.00  0.00     0.029 A 
ATOM     52  C   UNL A   1      43.021  25.541  27.585  1.00  0.00     0.049 A 
ATOM     53  H   UNL A   1      44.017  27.361  27.780  1.00  0.00     0.167 HD
ATOM     54  C   UNL A   1      45.955  31.287  28.079  1.00  0.00     0.037 A 
ATOM     55  C   UNL A   1      43.913  24.644  27.120  1.00  0.00     0.037 A 
ATOM     56  C   UNL A   1      46.996  30.382  27.666  1.00  0.00     0.049 A 
ATOM     57  C   UNL A   1      45.332  25.083  26.877  1.00  0.00     0.074 A 
ATOM     58  C   UNL A   1      48.337  30.649  27.456  1.00  0.00     0.029 A 
ATOM     59  N   UNL A   1      46.812  29.032  27.407  1.00  0.00    -0.354 N 
ATOM     60  N   UNL A   1      45.866  26.272  27.027  1.00  0.00    -0.248 NA
ATOM     61  C   UNL A   1      46.273  24.055  26.414  1.00  0.00     0.031 C 
ATOM     62  C   UNL A   1      48.955  29.471  27.025  1.00  0.00     0.029 A 
ATOM     63  C   UNL A   1      48.011  28.456  27.023  1.00  0.00     0.049 A 
ATOM     64  H   UNL A   1      45.955  28.553  27.484  1.00  0.00     0.167 HD
ATOM     65  C   UNL A   1      47.212  26.127  26.710  1.00  0.00     0.074 A 
ATOM     66  C   UNL A   1      47.412  24.733  26.372  1.00  0.00     0.031 C 
ATOM     67  C   UNL A   1      48.195  27.063  26.701  1.00  0.00     0.037 A 
BRANCH  54  68
ATOM     68  C   UNL A   1      46.303  32.742  28.272  1.00  0.00     0.058 A 
ATOM     69  C   UNL A   1      46.760  33.236  29.506  1.00  0.00     0.135 A 
ATOM     70  C   UNL A   1      46.205  33.650  27.205  1.00  0.00     0.135 A 
ATOM     71  F   UNL A   1      46.859  32.418  30.567  1.00  0.00    -0.206 F 
ATOM     72  C   UNL A   1      47.068  34.580  29.685  1.00  0.00     0.059 A 
ATOM     73  C   UNL A   1      46.542  34.993  27.352  1.00  0.00     0.059 A 
ATOM     74  F   UNL A   1      45.777  33.237  26.001  1.00  0.00    -0.206 F 
ATOM     75  C   UNL A   1      46.956  35.452  28.601  1.00  0.00     0.060 A 
BRANCH  75  76
ATOM     76  S   UNL A   1      47.367  37.192  28.851  1.00  0.00     0.124 S 
ATOM     77  O   UNL A   1      48.389  37.400  27.829  1.00  0.00    -0.237 OA
ATOM     78  O   UNL A   1      46.087  37.852  28.610  1.00  0.00    -0.237 OA
ATOM     79  O   UNL A   1      47.841  37.236  30.231  1.00  0.00    -0.744 OA
ENDBRANCH  75  76
ENDBRANCH  54  68
BRANCH  55  80
ATOM     80  C   UNL A   1      43.499  23.231  26.896  1.00  0.00     0.058 A 
ATOM     81  C   UNL A   1      43.345  22.724  25.597  1.00  0.00     0.135 A 
ATOM     82  C   UNL A   1      43.262  22.358  27.969  1.00  0.00     0.135 A 
ATOM     83  F   UNL A   1      43.554  23.520  24.537  1.00  0.00    -0.206 F 
ATOM     84  C   UNL A   1      42.950  21.410  25.368  1.00  0.00     0.059 A 
ATOM     85  C   UNL A   1      42.896  21.031  27.766  1.00  0.00     0.059 A 
ATOM     86  F   UNL A   1      43.413  22.788  29.232  1.00  0.00    -0.206 F 
ATOM     87  C   UNL A   1      42.732  20.569  26.460  1.00  0.00     0.060 A 
BRANCH  87  88
ATOM     88  S   UNL A   1      42.269  18.851  26.149  1.00  0.00     0.124 S 
ATOM     89  O   UNL A   1      43.212  18.475  25.104  1.00  0.00    -0.237 OA
ATOM     90  O   UNL A   1      42.484  18.236  27.456  1.00  0.00    -0.237 OA
ATOM     91  O   UNL A   1      40.873  18.950  25.736  1.00  0.00    -0.744 OA
ENDBRANCH  87  88
ENDBRANCH  55  80
BRANCH  67  92
ATOM     92  C   UNL A   1      49.586  26.600  26.362  1.00  0.00     0.058 A 
ATOM     93  C   UNL A   1      50.122  26.741  25.072  1.00  0.00     0.135 A 
ATOM     94  C   UNL A   1      50.407  26.043  27.356  1.00  0.00     0.135 A 
ATOM     95  F   UNL A   1      49.379  27.263  24.084  1.00  0.00    -0.206 F 
ATOM     96  C   UNL A   1      51.410  26.310  24.770  1.00  0.00     0.059 A 
ATOM     97  C   UNL A   1      51.710  25.637  27.085  1.00  0.00     0.059 A 
ATOM     98  F   UNL A   1      49.951  25.899  28.610  1.00  0.00    -0.206 F 
ATOM     99  C   UNL A   1      52.196  25.760  25.784  1.00  0.00     0.060 A 
BRANCH  99 100
ATOM    100  S   UNL A   1      53.871  25.219  25.383  1.00  0.00     0.124 S 
ATOM    101  O   UNL A   1      54.324  26.292  24.505  1.00  0.00    -0.237 OA
ATOM    102  O   UNL A   1      54.504  25.164  26.697  1.00  0.00    -0.237 OA
ATOM    103  O   UNL A   1      53.665  23.925  24.739  1.00  0.00    -0.744 OA
ENDBRANCH  99 100
ENDBRANCH  67  92
ENDBRANCH  41  42
ENDBRANCH  33  36
ENDBRANCH  31  32
ENDBRANCH  30  31
ENDBRANCH   1  30
TORSDOF 19
ENDMDL
MODEL 2
REMARK VINA RESULT:     -11.9      0.947      2.109
REMARK SMILES COc1ccc(CCNC(=O)[C@@]2(C)CC[C@@H](C(=O)NCCCNC(=O)c3ccc(-c4c5nc(c(-c6c(F)cc(S(=O)(=O)[O-])cc6F)c6ccc([nH]6)c(-c6c(F)cc(S(=O)(=O)[O-])cc6F)c6nc(c(-c7c(F)cc(S(=O)(=O)[O-])cc7F)c7ccc4[nH]7)C=C6)C=C5)cc3)C2(C)C)cc1OC
REMARK SMILES IDX 20 1 19 2 17 3 18 4 16 6 12 7 13 8 14 9 92 10 15 11 93 12
REMARK SMILES IDX 94 13 10 14 9 15 11 17 8 18 7 19 6 20 3 21 4 22 96 23 5 24
REMARK SMILES IDX 95 25 2 26 1 27 97 28 98 29 21 30 22 31 23 32 24 33 25 35
REMARK SMILES IDX 26 36 27 37 91 38 28 39 90 40 29 41 30 42 31 43 84 44 32 45
REMARK SMILES IDX 89 46 83 47 85 48 33 49 88 50 82 51 81 52 34 54 68 55 47 56
REMARK SMILES IDX 67 57 48 58 51 59 66 60 86 61 49 62 50 63 65 65 87 66 52 67
REMARK SMILES IDX 35 68 36 69 45 70 37 71 38 72 44 73 46 74 39 75 40 76 41 77
REMARK SMILES IDX 42 78 43 79 69 80 70 81 79 82 71 83 72 84 78 85 80 86 73 87
REMARK SMILES IDX 74 88 75 89 76 90 77 91 53 92 54 93 63 94 55 95 56 96 62 97
REMARK SMILES IDX 64 98 57 99 58 100 59 101 60 102 61 103
REMARK H PARENT 19 5 9 16 23 34 85 53 51 64
REMARK Flexibility Score: inf
ROOT
ATOM      1  C   UNL A   1      33.871  29.821  27.858  1.00  0.00     0.117 C 
ENDROOT
BRANCH   1   2
ATOM      2  N   UNL A   1      34.185  28.575  27.205  1.00  0.00    -0.356 N 
ATOM      3  C   UNL A   1      33.466  27.775  26.382  1.00  0.00     0.223 C 
ATOM      4  O   UNL A   1      34.071  26.779  25.959  1.00  0.00    -0.275 OA
ATOM      5  H   UNL A   1      35.093  28.243  27.392  1.00  0.00     0.163 HD
BRANCH   3   6
ATOM      6  C   UNL A   1      32.027  28.030  25.884  1.00  0.00     0.085 C 
ATOM      7  C   UNL A   1      30.848  26.922  23.934  1.00  0.00     0.052 C 
ATOM      8  C   UNL A   1      29.380  27.231  23.516  1.00  0.00     0.022 C 
ATOM      9  C   UNL A   1      30.750  26.087  25.229  1.00  0.00     0.018 C 
ATOM     10  C   UNL A   1      31.663  28.253  24.381  1.00  0.00    -0.010 C 
ATOM     11  C   UNL A   1      31.003  27.026  26.394  1.00  0.00     0.015 C 
ATOM     12  C   UNL A   1      32.893  28.620  23.534  1.00  0.00     0.013 C 
ATOM     13  C   UNL A   1      30.787  29.541  24.320  1.00  0.00     0.013 C 
BRANCH   7  14
ATOM     14  C   UNL A   1      31.429  26.276  22.637  1.00  0.00     0.226 C 
ATOM     15  N   UNL A   1      32.175  25.156  22.516  1.00  0.00    -0.355 N 
ATOM     16  H   UNL A   1      32.347  24.951  21.569  1.00  0.00     0.163 HD
ATOM     17  O   UNL A   1      31.154  26.801  21.546  1.00  0.00    -0.274 OA
BRANCH  15  18
ATOM     18  C   UNL A   1      32.800  24.163  23.385  1.00  0.00     0.120 C 
BRANCH  18  19
ATOM     19  C   UNL A   1      31.903  22.961  23.675  1.00  0.00     0.057 C 
BRANCH  19  20
ATOM     20  C   UNL A   1      32.689  21.710  23.969  1.00  0.00    -0.042 A 
ATOM     21  C   UNL A   1      34.181  19.406  24.547  1.00  0.00     0.160 A 
ATOM     22  C   UNL A   1      32.971  19.312  23.846  1.00  0.00     0.051 A 
ATOM     23  C   UNL A   1      34.678  20.656  24.930  1.00  0.00     0.160 A 
ATOM     24  C   UNL A   1      32.221  20.457  23.571  1.00  0.00     0.008 A 
ATOM     25  C   UNL A   1      33.928  21.798  24.624  1.00  0.00     0.054 A 
BRANCH  21  26
ATOM     26  O   UNL A   1      34.899  18.262  24.770  1.00  0.00    -0.493 OA
ATOM     27  C   UNL A   1      34.454  17.193  23.933  1.00  0.00     0.278 C 
ENDBRANCH  21  26
BRANCH  23  28
ATOM     28  O   UNL A   1      35.854  20.939  25.571  1.00  0.00    -0.493 OA
ATOM     29  C   UNL A   1      37.062  20.677  24.872  1.00  0.00     0.278 C 
ENDBRANCH  23  28
ENDBRANCH  19  20
ENDBRANCH  18  19
ENDBRANCH  15  18
ENDBRANCH   7  14
ENDBRANCH   3   6
ENDBRANCH   1   2
BRANCH   1  30
ATOM     30  C   UNL A   1      34.640  31.016  27.318  1.00  0.00     0.042 C 
BRANCH  30  31
ATOM     31  C   UNL A   1      35.802  31.443  28.188  1.00  0.00     0.118 C 
BRANCH  31  32
ATOM     32  N   UNL A   1      35.681  30.980  29.562  1.00  0.00    -0.352 N 
ATOM     33  C   UNL A   1      36.493  30.188  30.342  1.00  0.00     0.251 C 
ATOM     34  H   UNL A   1      34.865  31.290  30.019  1.00  0.00     0.163 HD
ATOM     35  O   UNL A   1      36.061  29.811  31.429  1.00  0.00    -0.269 OA
BRANCH  33  36
ATOM     36  C   UNL A   1      37.848  29.773  29.897  1.00  0.00     0.039 A 
ATOM     37  C   UNL A   1      38.127  29.705  28.527  1.00  0.00     0.014 A 
ATOM     38  C   UNL A   1      38.838  29.397  30.803  1.00  0.00     0.014 A 
ATOM     39  C   UNL A   1      39.401  29.319  28.088  1.00  0.00     0.010 A 
ATOM     40  C   UNL A   1      40.141  29.171  30.374  1.00  0.00     0.010 A 
ATOM     41  C   UNL A   1      40.436  29.084  29.009  1.00  0.00    -0.014 A 
BRANCH  41  42
ATOM     42  C   UNL A   1      41.809  28.696  28.583  1.00  0.00     0.031 A 
ATOM     43  C   UNL A   1      42.909  29.733  28.524  1.00  0.00     0.074 A 
ATOM     44  C   UNL A   1      42.060  27.431  28.184  1.00  0.00     0.049 A 
ATOM     45  N   UNL A   1      44.144  29.612  28.105  1.00  0.00    -0.248 NA
ATOM     46  C   UNL A   1      42.564  31.101  28.954  1.00  0.00     0.031 C 
ATOM     47  C   UNL A   1      41.076  26.348  28.130  1.00  0.00     0.029 A 
ATOM     48  N   UNL A   1      43.220  26.843  27.745  1.00  0.00    -0.354 N 
ATOM     49  C   UNL A   1      44.705  30.883  28.197  1.00  0.00     0.074 A 
ATOM     50  C   UNL A   1      43.657  31.775  28.635  1.00  0.00     0.031 C 
ATOM     51  C   UNL A   1      41.681  25.221  27.723  1.00  0.00     0.029 A 
ATOM     52  C   UNL A   1      43.085  25.508  27.445  1.00  0.00     0.049 A 
ATOM     53  H   UNL A   1      44.070  27.333  27.653  1.00  0.00     0.167 HD
ATOM     54  C   UNL A   1      45.985  31.269  27.976  1.00  0.00     0.037 A 
ATOM     55  C   UNL A   1      43.989  24.614  26.998  1.00  0.00     0.037 A 
ATOM     56  C   UNL A   1      47.036  30.367  27.584  1.00  0.00     0.049 A 
ATOM     57  C   UNL A   1      45.410  25.059  26.779  1.00  0.00     0.074 A 
ATOM     58  C   UNL A   1      48.380  30.640  27.397  1.00  0.00     0.029 A 
ATOM     59  N   UNL A   1      46.863  29.015  27.325  1.00  0.00    -0.354 N 
ATOM     60  N   UNL A   1      45.936  26.251  26.935  1.00  0.00    -0.248 NA
ATOM     61  C   UNL A   1      46.364  24.034  26.334  1.00  0.00     0.031 C 
ATOM     62  C   UNL A   1      49.010  29.464  26.980  1.00  0.00     0.029 A 
ATOM     63  C   UNL A   1      48.072  28.445  26.964  1.00  0.00     0.049 A 
ATOM     64  H   UNL A   1      46.007  28.533  27.388  1.00  0.00     0.167 HD
ATOM     65  C   UNL A   1      47.288  26.111  26.643  1.00  0.00     0.074 A 
ATOM     66  C   UNL A   1      47.500  24.717  26.312  1.00  0.00     0.031 C 
ATOM     67  C   UNL A   1      48.267  27.051  26.648  1.00  0.00     0.037 A 
BRANCH  54  68
ATOM     68  C   UNL A   1      46.322  32.726  28.172  1.00  0.00     0.058 A 
ATOM     69  C   UNL A   1      46.214  33.657  27.124  1.00  0.00     0.135 A 
ATOM     70  C   UNL A   1      46.733  33.204  29.426  1.00  0.00     0.135 A 
ATOM     71  F   UNL A   1      45.840  33.255  25.898  1.00  0.00    -0.206 F 
ATOM     72  C   UNL A   1      46.537  34.997  27.303  1.00  0.00     0.059 A 
ATOM     73  C   UNL A   1      47.028  34.549  29.637  1.00  0.00     0.059 A 
ATOM     74  F   UNL A   1      46.853  32.363  30.465  1.00  0.00    -0.206 F 
ATOM     75  C   UNL A   1      46.944  35.435  28.564  1.00  0.00     0.060 A 
BRANCH  75  76
ATOM     76  S   UNL A   1      47.354  37.180  28.779  1.00  0.00     0.124 S 
ATOM     77  O   UNL A   1      48.771  37.190  28.428  1.00  0.00    -0.237 OA
ATOM     78  O   UNL A   1      46.461  37.829  27.825  1.00  0.00    -0.237 OA
ATOM     79  O   UNL A   1      47.054  37.430  30.185  1.00  0.00    -0.744 OA
ENDBRANCH  75  76
ENDBRANCH  54  68
BRANCH  55  80
ATOM     80  C   UNL A   1      43.586  23.199  26.770  1.00  0.00     0.058 A 
ATOM     81  C   UNL A   1      43.249  22.363  27.845  1.00  0.00     0.135 A 
ATOM     82  C   UNL A   1      43.517  22.657  25.477  1.00  0.00     0.135 A 
ATOM     83  F   UNL A   1      43.305  22.831  29.102  1.00  0.00    -0.206 F 
ATOM     84  C   UNL A   1      42.879  21.036  27.651  1.00  0.00     0.059 A 
ATOM     85  C   UNL A   1      43.120  21.342  25.254  1.00  0.00     0.059 A 
ATOM     86  F   UNL A   1      43.811  23.419  24.412  1.00  0.00    -0.206 F 
ATOM     87  C   UNL A   1      42.813  20.535  26.350  1.00  0.00     0.060 A 
BRANCH  87  88
ATOM     88  S   UNL A   1      42.284  18.826  26.109  1.00  0.00     0.124 S 
ATOM     89  O   UNL A   1      43.175  18.388  25.042  1.00  0.00    -0.237 OA
ATOM     90  O   UNL A   1      42.528  18.243  27.425  1.00  0.00    -0.237 OA
ATOM     91  O   UNL A   1      40.877  18.958  25.744  1.00  0.00    -0.744 OA
ENDBRANCH  87  88
ENDBRANCH  55  80
BRANCH  67  92
ATOM     92  C   UNL A   1      49.666  26.594  26.335  1.00  0.00     0.058 A 
ATOM     93  C   UNL A   1      50.511  26.061  27.320  1.00  0.00     0.135 A 
ATOM     94  C   UNL A   1      50.151  26.656  25.018  1.00  0.00     0.135 A 
ATOM     95  F   UNL A   1      50.100  25.983  28.595  1.00  0.00    -0.206 F 
ATOM     96  C   UNL A   1      51.803  25.640  27.018  1.00  0.00     0.059 A 
ATOM     97  C   UNL A   1      51.425  26.210  24.687  1.00  0.00     0.059 A 
ATOM     98  F   UNL A   1      49.379  27.143  24.034  1.00  0.00    -0.206 F 
ATOM     99  C   UNL A   1      52.251  25.719  25.698  1.00  0.00     0.060 A 
BRANCH  99 100
ATOM    100  S   UNL A   1      53.923  25.156  25.316  1.00  0.00     0.124 S 
ATOM    101  O   UNL A   1      54.596  25.346  26.596  1.00  0.00    -0.237 OA
ATOM    102  O   UNL A   1      53.702  23.770  24.915  1.00  0.00    -0.237 OA
ATOM    103  O   UNL A   1      54.347  26.052  24.245  1.00  0.00    -0.744 OA
ENDBRANCH  99 100
ENDBRANCH  67  92
ENDBRANCH  41  42
ENDBRANCH  33  36
ENDBRANCH  31  32
ENDBRANCH  30  31
ENDBRANCH   1  30
TORSDOF 19
ENDMDL
MODEL 3
REMARK VINA RESULT:     -11.8      6.440     11.689
REMARK SMILES COc1ccc(CCNC(=O)[C@@]2(C)CC[C@@H](C(=O)NCCCNC(=O)c3ccc(-c4c5nc(c(-c6c(F)cc(S(=O)(=O)[O-])cc6F)c6ccc([nH]6)c(-c6c(F)cc(S(=O)(=O)[O-])cc6F)c6nc(c(-c7c(F)cc(S(=O)(=O)[O-])cc7F)c7ccc4[nH]7)C=C6)C=C5)cc3)C2(C)C)cc1OC
REMARK SMILES IDX 20 1 19 2 17 3 18 4 16 6 12 7 13 8 14 9 92 10 15 11 93 12
REMARK SMILES IDX 94 13 10 14 9 15 11 17 8 18 7 19 6 20 3 21 4 22 96 23 5 24
REMARK SMILES IDX 95 25 2 26 1 27 97 28 98 29 21 30 22 31 23 32 24 33 25 35
REMARK SMILES IDX 26 36 27 37 91 38 28 39 90 40 29 41 30 42 31 43 84 44 32 45
REMARK SMILES IDX 89 46 83 47 85 48 33 49 88 50 82 51 81 52 34 54 68 55 47 56
REMARK SMILES IDX 67 57 48 58 51 59 66 60 86 61 49 62 50 63 65 65 87 66 52 67
REMARK SMILES IDX 35 68 36 69 45 70 37 71 38 72 44 73 46 74 39 75 40 76 41 77
REMARK SMILES IDX 42 78 43 79 69 80 70 81 79 82 71 83 72 84 78 85 80 86 73 87
REMARK SMILES IDX 74 88 75 89 76 90 77 91 53 92 54 93 63 94 55 95 56 96 62 97
REMARK SMILES IDX 64 98 57 99 58 100 59 101 60 102 61 103
REMARK H PARENT 19 5 9 16 23 34 85 53 51 64
REMARK Flexibility Score: inf
ROOT
ATOM      1  C   UNL A   1      36.217  23.437  25.827  1.00  0.00     0.117 C 
ENDROOT
BRANCH   1   2
ATOM      2  N   UNL A   1      35.626  23.522  24.515  1.00  0.00    -0.356 N 
ATOM      3  C   UNL A   1      34.823  24.448  23.939  1.00  0.00     0.223 C 
ATOM      4  O   UNL A   1      34.529  24.224  22.756  1.00  0.00    -0.275 OA
ATOM      5  H   UNL A   1      35.848  22.764  23.927  1.00  0.00     0.163 HD
BRANCH   3   6
ATOM      6  C   UNL A   1      34.320  25.755  24.588  1.00  0.00     0.085 C 
ATOM      7  C   UNL A   1      31.931  26.584  24.745  1.00  0.00     0.052 C 
ATOM      8  C   UNL A   1      31.515  27.914  25.441  1.00  0.00     0.022 C 
ATOM      9  C   UNL A   1      32.289  25.606  25.886  1.00  0.00     0.018 C 
ATOM     10  C   UNL A   1      33.309  26.726  23.899  1.00  0.00    -0.010 C 
ATOM     11  C   UNL A   1      33.800  25.587  26.010  1.00  0.00     0.015 C 
ATOM     12  C   UNL A   1      33.210  26.481  22.383  1.00  0.00     0.013 C 
ATOM     13  C   UNL A   1      33.925  28.154  23.993  1.00  0.00     0.013 C 
BRANCH   7  14
ATOM     14  C   UNL A   1      30.699  26.292  23.832  1.00  0.00     0.226 C 
ATOM     15  N   UNL A   1      30.130  25.102  23.540  1.00  0.00    -0.355 N 
ATOM     16  H   UNL A   1      29.325  25.224  22.988  1.00  0.00     0.163 HD
ATOM     17  O   UNL A   1      30.103  27.256  23.325  1.00  0.00    -0.274 OA
BRANCH  15  18
ATOM     18  C   UNL A   1      30.366  23.686  23.808  1.00  0.00     0.120 C 
BRANCH  18  19
ATOM     19  C   UNL A   1      31.541  23.107  23.024  1.00  0.00     0.057 C 
BRANCH  19  20
ATOM     20  C   UNL A   1      32.055  21.821  23.616  1.00  0.00    -0.042 A 
ATOM     21  C   UNL A   1      33.010  19.446  24.764  1.00  0.00     0.160 A 
ATOM     22  C   UNL A   1      32.600  19.473  23.424  1.00  0.00     0.051 A 
ATOM     23  C   UNL A   1      32.985  20.614  25.532  1.00  0.00     0.160 A 
ATOM     24  C   UNL A   1      32.111  20.651  22.856  1.00  0.00     0.008 A 
ATOM     25  C   UNL A   1      32.517  21.795  24.942  1.00  0.00     0.054 A 
BRANCH  21  26
ATOM     26  O   UNL A   1      33.509  18.277  25.272  1.00  0.00    -0.493 OA
ATOM     27  C   UNL A   1      32.768  17.146  24.810  1.00  0.00     0.278 C 
ENDBRANCH  21  26
BRANCH  23  28
ATOM     28  O   UNL A   1      33.389  20.783  26.829  1.00  0.00    -0.493 OA
ATOM     29  C   UNL A   1      33.342  22.097  27.365  1.00  0.00     0.278 C 
ENDBRANCH  23  28
ENDBRANCH  19  20
ENDBRANCH  18  19
ENDBRANCH  15  18
ENDBRANCH   7  14
ENDBRANCH   3   6
ENDBRANCH   1   2
BRANCH   1  30
ATOM     30  C   UNL A   1      37.718  23.199  25.817  1.00  0.00     0.042 C 
BRANCH  30  31
ATOM     31  C   UNL A   1      38.533  24.388  26.278  1.00  0.00     0.118 C 
BRANCH  31  32
ATOM     32  N   UNL A   1      39.962  24.214  26.063  1.00  0.00    -0.352 N 
ATOM     33  C   UNL A   1      41.057  24.861  26.586  1.00  0.00     0.251 C 
ATOM     34  H   UNL A   1      40.186  23.500  25.422  1.00  0.00     0.163 HD
ATOM     35  O   UNL A   1      42.159  24.621  26.097  1.00  0.00    -0.269 OA
BRANCH  33  36
ATOM     36  C   UNL A   1      40.936  25.840  27.697  1.00  0.00     0.039 A 
ATOM     37  C   UNL A   1      41.820  26.924  27.754  1.00  0.00     0.014 A 
ATOM     38  C   UNL A   1      40.000  25.684  28.717  1.00  0.00     0.014 A 
ATOM     39  C   UNL A   1      41.718  27.860  28.792  1.00  0.00     0.010 A 
ATOM     40  C   UNL A   1      39.795  26.693  29.652  1.00  0.00     0.010 A 
ATOM     41  C   UNL A   1      40.678  27.776  29.733  1.00  0.00    -0.014 A 
BRANCH  41  42
ATOM     42  C   UNL A   1      40.520  28.763  30.837  1.00  0.00     0.031 A 
ATOM     43  C   UNL A   1      41.383  28.661  32.077  1.00  0.00     0.074 A 
ATOM     44  C   UNL A   1      39.563  29.710  30.764  1.00  0.00     0.049 A 
ATOM     45  N   UNL A   1      41.344  29.371  33.176  1.00  0.00    -0.248 NA
ATOM     46  C   UNL A   1      42.396  27.591  32.102  1.00  0.00     0.031 C 
ATOM     47  C   UNL A   1      38.621  29.881  29.657  1.00  0.00     0.029 A 
ATOM     48  N   UNL A   1      39.220  30.708  31.643  1.00  0.00    -0.354 N 
ATOM     49  C   UNL A   1      42.302  28.818  34.022  1.00  0.00     0.074 A 
ATOM     50  C   UNL A   1      42.849  27.667  33.343  1.00  0.00     0.031 C 
ATOM     51  C   UNL A   1      37.836  30.943  29.903  1.00  0.00     0.029 A 
ATOM     52  C   UNL A   1      38.188  31.504  31.203  1.00  0.00     0.049 A 
ATOM     53  H   UNL A   1      39.672  30.842  32.508  1.00  0.00     0.167 HD
ATOM     54  C   UNL A   1      42.719  29.249  35.236  1.00  0.00     0.037 A 
ATOM     55  C   UNL A   1      37.592  32.566  31.780  1.00  0.00     0.037 A 
ATOM     56  C   UNL A   1      42.203  30.424  35.889  1.00  0.00     0.049 A 
ATOM     57  C   UNL A   1      38.084  33.041  33.121  1.00  0.00     0.074 A 
ATOM     58  C   UNL A   1      42.599  30.987  37.090  1.00  0.00     0.029 A 
ATOM     59  N   UNL A   1      41.181  31.220  35.392  1.00  0.00    -0.354 N 
ATOM     60  N   UNL A   1      39.036  32.543  33.875  1.00  0.00    -0.248 NA
ATOM     61  C   UNL A   1      37.430  34.229  33.684  1.00  0.00     0.031 C 
ATOM     62  C   UNL A   1      41.786  32.097  37.341  1.00  0.00     0.029 A 
ATOM     63  C   UNL A   1      40.923  32.260  36.270  1.00  0.00     0.049 A 
ATOM     64  H   UNL A   1      40.710  31.068  34.542  1.00  0.00     0.167 HD
ATOM     65  C   UNL A   1      39.118  33.379  34.984  1.00  0.00     0.074 A 
ATOM     66  C   UNL A   1      38.127  34.418  34.796  1.00  0.00     0.031 C 
ATOM     67  C   UNL A   1      39.940  33.294  36.061  1.00  0.00     0.037 A 
BRANCH  54  68
ATOM     68  C   UNL A   1      43.798  28.457  35.930  1.00  0.00     0.058 A 
ATOM     69  C   UNL A   1      45.162  28.741  35.741  1.00  0.00     0.135 A 
ATOM     70  C   UNL A   1      43.468  27.419  36.816  1.00  0.00     0.135 A 
ATOM     71  F   UNL A   1      45.539  29.713  34.893  1.00  0.00    -0.206 F 
ATOM     72  C   UNL A   1      46.156  28.001  36.372  1.00  0.00     0.059 A 
ATOM     73  C   UNL A   1      44.446  26.688  37.486  1.00  0.00     0.059 A 
ATOM     74  F   UNL A   1      42.183  27.103  37.040  1.00  0.00    -0.206 F 
ATOM     75  C   UNL A   1      45.788  26.976  37.244  1.00  0.00     0.060 A 
BRANCH  75  76
ATOM     76  S   UNL A   1      47.093  26.030  38.058  1.00  0.00     0.124 S 
ATOM     77  O   UNL A   1      46.588  24.666  37.927  1.00  0.00    -0.237 OA
ATOM     78  O   UNL A   1      48.263  26.352  37.249  1.00  0.00    -0.237 OA
ATOM     79  O   UNL A   1      47.105  26.566  39.416  1.00  0.00    -0.744 OA
ENDBRANCH  75  76
ENDBRANCH  54  68
BRANCH  55  80
ATOM     80  C   UNL A   1      36.492  33.277  31.073  1.00  0.00     0.058 A 
ATOM     81  C   UNL A   1      35.168  33.189  31.527  1.00  0.00     0.135 A 
ATOM     82  C   UNL A   1      36.741  34.066  29.939  1.00  0.00     0.135 A 
ATOM     83  F   UNL A   1      34.876  32.443  32.603  1.00  0.00    -0.206 F 
ATOM     84  C   UNL A   1      34.127  33.840  30.873  1.00  0.00     0.059 A 
ATOM     85  C   UNL A   1      35.721  34.752  29.285  1.00  0.00     0.059 A 
ATOM     86  F   UNL A   1      37.993  34.199  29.473  1.00  0.00    -0.206 F 
ATOM     87  C   UNL A   1      34.414  34.623  29.754  1.00  0.00     0.060 A 
BRANCH  87  88
ATOM     88  S   UNL A   1      33.061  35.502  28.944  1.00  0.00     0.124 S 
ATOM     89  O   UNL A   1      32.464  34.446  28.137  1.00  0.00    -0.237 OA
ATOM     90  O   UNL A   1      32.270  35.960  30.084  1.00  0.00    -0.237 OA
ATOM     91  O   UNL A   1      33.742  36.558  28.202  1.00  0.00    -0.744 OA
ENDBRANCH  87  88
ENDBRANCH  55  80
BRANCH  67  92
ATOM     92  C   UNL A   1      39.838  34.382  37.095  1.00  0.00     0.058 A 
ATOM     93  C   UNL A   1      40.424  35.643  36.907  1.00  0.00     0.135 A 
ATOM     94  C   UNL A   1      39.106  34.168  38.275  1.00  0.00     0.135 A 
ATOM     95  F   UNL A   1      41.137  35.899  35.799  1.00  0.00    -0.206 F 
ATOM     96  C   UNL A   1      40.322  36.642  37.870  1.00  0.00     0.059 A 
ATOM     97  C   UNL A   1      38.962  35.163  39.236  1.00  0.00     0.059 A 
ATOM     98  F   UNL A   1      38.513  32.986  38.500  1.00  0.00    -0.206 F 
ATOM     99  C   UNL A   1      39.589  36.392  39.032  1.00  0.00     0.060 A 
BRANCH  99 100
ATOM    100  S   UNL A   1      39.451  37.701  40.267  1.00  0.00     0.124 S 
ATOM    101  O   UNL A   1      40.848  38.078  40.452  1.00  0.00    -0.237 OA
ATOM    102  O   UNL A   1      38.613  38.685  39.587  1.00  0.00    -0.237 OA
ATOM    103  O   UNL A   1      38.826  37.032  41.404  1.00  0.00    -0.744 OA
ENDBRANCH  99 100
ENDBRANCH  67  92
ENDBRANCH  41  42
ENDBRANCH  33  36
ENDBRANCH  31  32
ENDBRANCH  30  31
ENDBRANCH   1  30
TORSDOF 19
ENDMDL
