MODEL 1
REMARK VINA RESULT:     -10.8      0.000      0.000
REMARK SMILES C/C(=N\Nc1nc(-c2ccc(Cl)cc2)cs1)c1nnn(-c2ccc(C(=O)NCCCNC(=O)c3ccc(-c4c5nc(c(-c6c(F)cc(S(=O)(=O)[O-])cc6F)c6ccc([nH]6)c(-c6c(F)cc(S(=O)(=O)[O-])cc6F)c6nc(c(-c7c(F)cc(S(=O)(=O)[O-])cc7F)c7ccc4[nH]7)C=C6)C=C5)cc3)cc2)c1C
REMARK SMILES IDX 28 1 27 2 25 3 26 4 24 6 21 7 22 8 101 9 23 10 100 11 20 12
REMARK SMILES IDX 17 13 18 14 102 15 19 16 103 17 2 18 1 19 3 20 4 21 5 23
REMARK SMILES IDX 6 24 16 25 7 26 15 27 8 28 9 29 14 30 10 31 13 32 11 33
REMARK SMILES IDX 12 34 29 35 30 36 31 37 32 38 33 40 34 41 35 42 99 43 36 44
REMARK SMILES IDX 98 45 37 46 38 47 39 48 92 49 40 50 97 51 91 52 93 53 41 54
REMARK SMILES IDX 96 55 90 56 89 57 42 59 76 60 55 61 75 62 56 63 59 64 74 65
REMARK SMILES IDX 94 66 57 67 58 68 73 70 95 71 60 72 43 73 44 74 53 75 45 76
REMARK SMILES IDX 46 77 52 78 54 79 47 80 48 81 49 82 50 83 51 84 77 85 78 86
REMARK SMILES IDX 87 87 79 88 80 89 86 90 88 91 81 92 82 93 83 94 84 95 85 96
REMARK SMILES IDX 61 97 62 98 71 99 63 100 64 101 70 102 72 103 65 104 66 105
REMARK SMILES IDX 67 106 68 107 69 108
REMARK H PARENT 27 5 4 22 31 39 93 58 59 69
REMARK Flexibility Score: inf
ROOT
ATOM      1  C   UNL A   1      35.644  34.257  32.501  1.00  0.00     0.118 C 
ENDROOT
BRANCH   1   2
ATOM      2  N   UNL A   1      35.868  33.305  33.581  1.00  0.00    -0.352 N 
ATOM      3  C   UNL A   1      37.020  32.811  34.149  1.00  0.00     0.251 C 
ATOM      4  O   UNL A   1      36.921  32.147  35.179  1.00  0.00    -0.269 OA
ATOM      5  H   UNL A   1      35.041  32.950  33.980  1.00  0.00     0.163 HD
BRANCH   3   6
ATOM      6  C   UNL A   1      38.379  33.097  33.607  1.00  0.00     0.039 A 
ATOM      7  C   UNL A   1      40.787  33.817  32.398  1.00  0.00     0.067 A 
ATOM      8  C   UNL A   1      40.150  34.737  33.232  1.00  0.00     0.029 A 
ATOM      9  C   UNL A   1      40.309  32.517  32.268  1.00  0.00     0.029 A 
ATOM     10  C   UNL A   1      38.929  34.375  33.816  1.00  0.00     0.016 A 
ATOM     11  C   UNL A   1      39.131  32.157  32.906  1.00  0.00     0.016 A 
BRANCH   7  12
ATOM     12  N   UNL A   1      41.820  34.232  31.544  1.00  0.00    -0.217 N 
ATOM     13  C   UNL A   1      42.928  35.104  29.892  1.00  0.00     0.132 A 
ATOM     14  N   UNL A   1      43.795  34.876  30.925  1.00  0.00    -0.128 NA
ATOM     15  C   UNL A   1      41.657  34.692  30.251  1.00  0.00     0.071 A 
ATOM     16  N   UNL A   1      43.089  34.422  31.956  1.00  0.00    -0.061 NA
ATOM     17  C   UNL A   1      40.343  34.894  29.580  1.00  0.00     0.069 C 
BRANCH  13  18
ATOM     18  C   UNL A   1      43.237  35.908  28.724  1.00  0.00     0.087 C 
ATOM     19  C   UNL A   1      43.243  35.126  27.431  1.00  0.00     0.071 C 
ATOM     20  N   UNL A   1      43.545  37.158  28.934  1.00  0.00    -0.176 NA
BRANCH  20  21
ATOM     21  N   UNL A   1      44.005  37.997  27.946  1.00  0.00    -0.252 N 
ATOM     22  H   UNL A   1      44.985  38.028  27.851  1.00  0.00     0.193 HD
BRANCH  21  23
ATOM     23  C   UNL A   1      43.323  38.788  27.080  1.00  0.00     0.203 A 
ATOM     24  N   UNL A   1      43.845  39.717  26.312  1.00  0.00    -0.219 NA
ATOM     25  S   UNL A   1      41.596  38.723  27.011  1.00  0.00    -0.103 S 
ATOM     26  C   UNL A   1      42.879  40.623  25.930  1.00  0.00     0.084 A 
ATOM     27  C   UNL A   1      41.584  40.254  26.227  1.00  0.00     0.097 A 
BRANCH  26  28
ATOM     28  C   UNL A   1      43.282  41.896  25.365  1.00  0.00     0.001 A 
ATOM     29  C   UNL A   1      42.704  42.327  24.164  1.00  0.00     0.012 A 
ATOM     30  C   UNL A   1      44.334  42.635  25.926  1.00  0.00     0.012 A 
ATOM     31  C   UNL A   1      43.146  43.498  23.546  1.00  0.00     0.021 A 
ATOM     32  C   UNL A   1      44.784  43.803  25.300  1.00  0.00     0.021 A 
ATOM     33  C   UNL A   1      44.183  44.233  24.118  1.00  0.00     0.041 A 
ATOM     34  Cl  UNL A   1      44.734  45.671  23.351  1.00  0.00    -0.084 Cl
ENDBRANCH  26  28
ENDBRANCH  21  23
ENDBRANCH  20  21
ENDBRANCH  13  18
ENDBRANCH   7  12
ENDBRANCH   3   6
ENDBRANCH   1   2
BRANCH   1  35
ATOM     35  C   UNL A   1      35.701  33.602  31.112  1.00  0.00     0.042 C 
BRANCH  35  36
ATOM     36  C   UNL A   1      34.983  32.267  31.061  1.00  0.00     0.118 C 
BRANCH  36  37
ATOM     37  N   UNL A   1      34.652  31.863  29.693  1.00  0.00    -0.352 N 
ATOM     38  C   UNL A   1      35.499  31.361  28.717  1.00  0.00     0.251 C 
ATOM     39  H   UNL A   1      33.708  31.961  29.433  1.00  0.00     0.163 HD
ATOM     40  O   UNL A   1      35.185  31.399  27.542  1.00  0.00    -0.269 OA
BRANCH  38  41
ATOM     41  C   UNL A   1      36.790  30.789  29.143  1.00  0.00     0.039 A 
ATOM     42  C   UNL A   1      36.954  29.417  29.365  1.00  0.00     0.014 A 
ATOM     43  C   UNL A   1      37.861  31.663  29.265  1.00  0.00     0.014 A 
ATOM     44  C   UNL A   1      38.233  28.928  29.630  1.00  0.00     0.010 A 
ATOM     45  C   UNL A   1      39.129  31.161  29.311  1.00  0.00     0.010 A 
ATOM     46  C   UNL A   1      39.320  29.810  29.585  1.00  0.00    -0.014 A 
BRANCH  46  47
ATOM     47  C   UNL A   1      40.700  29.358  29.727  1.00  0.00     0.031 A 
ATOM     48  C   UNL A   1      41.145  29.135  31.134  1.00  0.00     0.074 A 
ATOM     49  C   UNL A   1      41.377  28.878  28.658  1.00  0.00     0.049 A 
ATOM     50  N   UNL A   1      42.101  29.722  31.776  1.00  0.00    -0.248 NA
ATOM     51  C   UNL A   1      40.328  28.247  31.982  1.00  0.00     0.031 C 
ATOM     52  C   UNL A   1      40.895  28.744  27.273  1.00  0.00     0.029 A 
ATOM     53  N   UNL A   1      42.582  28.254  28.602  1.00  0.00    -0.354 N 
ATOM     54  C   UNL A   1      42.164  29.095  33.020  1.00  0.00     0.074 A 
ATOM     55  C   UNL A   1      40.923  28.385  33.168  1.00  0.00     0.031 C 
ATOM     56  C   UNL A   1      41.665  27.860  26.606  1.00  0.00     0.029 A 
ATOM     57  C   UNL A   1      42.792  27.507  27.445  1.00  0.00     0.049 A 
ATOM     58  H   UNL A   1      43.251  28.325  29.321  1.00  0.00     0.167 HD
ATOM     59  C   UNL A   1      43.342  28.984  33.700  1.00  0.00     0.037 A 
ATOM     60  C   UNL A   1      43.802  26.631  27.213  1.00  0.00     0.037 A 
ATOM     61  C   UNL A   1      44.327  29.896  33.166  1.00  0.00     0.049 A 
ATOM     62  C   UNL A   1      44.872  26.946  28.196  1.00  0.00     0.074 A 
ATOM     63  C   UNL A   1      44.383  31.265  32.983  1.00  0.00     0.029 A 
ATOM     64  N   UNL A   1      45.313  29.373  32.364  1.00  0.00    -0.354 N 
ATOM     65  N   UNL A   1      45.544  28.066  28.201  1.00  0.00    -0.248 NA
ATOM     66  C   UNL A   1      44.864  26.222  29.459  1.00  0.00     0.031 C 
ATOM     67  C   UNL A   1      45.042  31.441  31.731  1.00  0.00     0.029 A 
ATOM     68  C   UNL A   1      45.421  30.182  31.261  1.00  0.00     0.049 A 
ATOM     69  H   UNL A   1      45.846  28.565  32.547  1.00  0.00     0.167 HD
ATOM     70  C   UNL A   1      45.674  28.400  29.542  1.00  0.00     0.074 A 
ATOM     71  C   UNL A   1      45.320  27.182  30.269  1.00  0.00     0.031 C 
ATOM     72  C   UNL A   1      45.766  29.705  29.939  1.00  0.00     0.037 A 
BRANCH  59  73
ATOM     73  C   UNL A   1      43.736  27.798  34.563  1.00  0.00     0.058 A 
ATOM     74  C   UNL A   1      44.224  28.036  35.868  1.00  0.00     0.135 A 
ATOM     75  C   UNL A   1      43.937  26.484  34.081  1.00  0.00     0.135 A 
ATOM     76  F   UNL A   1      44.075  29.238  36.446  1.00  0.00    -0.206 F 
ATOM     77  C   UNL A   1      44.955  27.085  36.583  1.00  0.00     0.059 A 
ATOM     78  C   UNL A   1      44.613  25.505  34.799  1.00  0.00     0.059 A 
ATOM     79  F   UNL A   1      43.576  26.099  32.853  1.00  0.00    -0.206 F 
ATOM     80  C   UNL A   1      45.166  25.829  36.025  1.00  0.00     0.060 A 
BRANCH  80  81
ATOM     81  S   UNL A   1      46.228  24.648  36.872  1.00  0.00     0.124 S 
ATOM     82  O   UNL A   1      46.978  24.084  35.757  1.00  0.00    -0.237 OA
ATOM     83  O   UNL A   1      46.978  25.511  37.778  1.00  0.00    -0.237 OA
ATOM     84  O   UNL A   1      45.278  23.746  37.517  1.00  0.00    -0.744 OA
ENDBRANCH  80  81
ENDBRANCH  59  73
BRANCH  60  85
ATOM     85  C   UNL A   1      43.768  25.374  26.417  1.00  0.00     0.058 A 
ATOM     86  C   UNL A   1      44.663  25.157  25.355  1.00  0.00     0.135 A 
ATOM     87  C   UNL A   1      43.036  24.246  26.847  1.00  0.00     0.135 A 
ATOM     88  F   UNL A   1      45.414  26.168  24.890  1.00  0.00    -0.206 F 
ATOM     89  C   UNL A   1      44.858  23.892  24.787  1.00  0.00     0.059 A 
ATOM     90  C   UNL A   1      43.205  22.979  26.290  1.00  0.00     0.059 A 
ATOM     91  F   UNL A   1      42.196  24.323  27.890  1.00  0.00    -0.206 F 
ATOM     92  C   UNL A   1      44.140  22.802  25.276  1.00  0.00     0.060 A 
BRANCH  92  93
ATOM     93  S   UNL A   1      44.519  21.139  24.673  1.00  0.00     0.124 S 
ATOM     94  O   UNL A   1      45.810  20.878  25.301  1.00  0.00    -0.237 OA
ATOM     95  O   UNL A   1      43.395  20.363  25.182  1.00  0.00    -0.237 OA
ATOM     96  O   UNL A   1      44.554  21.304  23.223  1.00  0.00    -0.744 OA
ENDBRANCH  92  93
ENDBRANCH  60  85
BRANCH  72  97
ATOM     97  C   UNL A   1      46.012  30.759  28.887  1.00  0.00     0.058 A 
ATOM     98  C   UNL A   1      44.999  31.429  28.178  1.00  0.00     0.135 A 
ATOM     99  C   UNL A   1      47.324  31.225  28.711  1.00  0.00     0.135 A 
ATOM    100  F   UNL A   1      43.709  31.126  28.365  1.00  0.00    -0.206 F 
ATOM    101  C   UNL A   1      45.278  32.482  27.304  1.00  0.00     0.059 A 
ATOM    102  C   UNL A   1      47.623  32.293  27.870  1.00  0.00     0.059 A 
ATOM    103  F   UNL A   1      48.330  30.674  29.409  1.00  0.00    -0.206 F 
ATOM    104  C   UNL A   1      46.596  32.909  27.158  1.00  0.00     0.060 A 
BRANCH 104 105
ATOM    105  S   UNL A   1      46.948  34.321  26.089  1.00  0.00     0.124 S 
ATOM    106  O   UNL A   1      45.873  34.238  25.107  1.00  0.00    -0.237 OA
ATOM    107  O   UNL A   1      46.875  35.448  27.015  1.00  0.00    -0.237 OA
ATOM    108  O   UNL A   1      48.286  34.034  25.575  1.00  0.00    -0.744 OA
ENDBRANCH 104 105
ENDBRANCH  72  97
ENDBRANCH  46  47
ENDBRANCH  38  41
ENDBRANCH  36  37
ENDBRANCH  35  36
ENDBRANCH   1  35
TORSDOF 18
ENDMDL
MODEL 2
REMARK VINA RESULT:     -10.6      5.334     11.593
REMARK SMILES C/C(=N\Nc1nc(-c2ccc(Cl)cc2)cs1)c1nnn(-c2ccc(C(=O)NCCCNC(=O)c3ccc(-c4c5nc(c(-c6c(F)cc(S(=O)(=O)[O-])cc6F)c6ccc([nH]6)c(-c6c(F)cc(S(=O)(=O)[O-])cc6F)c6nc(c(-c7c(F)cc(S(=O)(=O)[O-])cc7F)c7ccc4[nH]7)C=C6)C=C5)cc3)cc2)c1C
REMARK SMILES IDX 28 1 27 2 25 3 26 4 24 6 21 7 22 8 101 9 23 10 100 11 20 12
REMARK SMILES IDX 17 13 18 14 102 15 19 16 103 17 2 18 1 19 3 20 4 21 5 23
REMARK SMILES IDX 6 24 16 25 7 26 15 27 8 28 9 29 14 30 10 31 13 32 11 33
REMARK SMILES IDX 12 34 29 35 30 36 31 37 32 38 33 40 34 41 35 42 99 43 36 44
REMARK SMILES IDX 98 45 37 46 38 47 39 48 92 49 40 50 97 51 91 52 93 53 41 54
REMARK SMILES IDX 96 55 90 56 89 57 42 59 76 60 55 61 75 62 56 63 59 64 74 65
REMARK SMILES IDX 94 66 57 67 58 68 73 70 95 71 60 72 43 73 44 74 53 75 45 76
REMARK SMILES IDX 46 77 52 78 54 79 47 80 48 81 49 82 50 83 51 84 77 85 78 86
REMARK SMILES IDX 87 87 79 88 80 89 86 90 88 91 81 92 82 93 83 94 84 95 85 96
REMARK SMILES IDX 61 97 62 98 71 99 63 100 64 101 70 102 72 103 65 104 66 105
REMARK SMILES IDX 67 106 68 107 69 108
REMARK H PARENT 27 5 4 22 31 39 93 58 59 69
REMARK Flexibility Score: inf
ROOT
ATOM      1  C   UNL A   1      48.716  21.251  35.171  1.00  0.00     0.118 C 
ENDROOT
BRANCH   1   2
ATOM      2  N   UNL A   1      47.688  20.349  35.673  1.00  0.00    -0.352 N 
ATOM      3  C   UNL A   1      46.350  20.534  35.939  1.00  0.00     0.251 C 
ATOM      4  O   UNL A   1      45.665  19.543  36.188  1.00  0.00    -0.269 OA
ATOM      5  H   UNL A   1      48.010  19.437  35.855  1.00  0.00     0.163 HD
BRANCH   3   6
ATOM      6  C   UNL A   1      45.688  21.868  35.878  1.00  0.00     0.039 A 
ATOM      7  C   UNL A   1      44.308  24.288  36.015  1.00  0.00     0.067 A 
ATOM      8  C   UNL A   1      45.361  24.061  36.902  1.00  0.00     0.029 A 
ATOM      9  C   UNL A   1      44.027  23.389  34.991  1.00  0.00     0.029 A 
ATOM     10  C   UNL A   1      46.033  22.833  36.842  1.00  0.00     0.016 A 
ATOM     11  C   UNL A   1      44.747  22.205  34.907  1.00  0.00     0.016 A 
BRANCH   7  12
ATOM     12  N   UNL A   1      43.406  25.339  36.239  1.00  0.00    -0.217 N 
ATOM     13  C   UNL A   1      42.267  27.179  36.046  1.00  0.00     0.132 A 
ATOM     14  N   UNL A   1      41.625  26.360  36.933  1.00  0.00    -0.128 NA
ATOM     15  C   UNL A   1      43.419  26.560  35.591  1.00  0.00     0.071 A 
ATOM     16  N   UNL A   1      42.286  25.208  36.977  1.00  0.00    -0.061 NA
ATOM     17  C   UNL A   1      44.352  26.930  34.491  1.00  0.00     0.069 C 
BRANCH  13  18
ATOM     18  C   UNL A   1      41.687  28.375  35.465  1.00  0.00     0.087 C 
ATOM     19  C   UNL A   1      42.167  29.657  36.104  1.00  0.00     0.071 C 
ATOM     20  N   UNL A   1      40.783  28.201  34.540  1.00  0.00    -0.176 NA
BRANCH  20  21
ATOM     21  N   UNL A   1      40.041  29.231  34.009  1.00  0.00    -0.252 N 
ATOM     22  H   UNL A   1      39.950  30.019  34.591  1.00  0.00     0.193 HD
BRANCH  21  23
ATOM     23  C   UNL A   1      39.417  29.332  32.809  1.00  0.00     0.203 A 
ATOM     24  N   UNL A   1      39.444  28.435  31.850  1.00  0.00    -0.219 NA
ATOM     25  S   UNL A   1      38.599  30.791  32.369  1.00  0.00    -0.103 S 
ATOM     26  C   UNL A   1      39.132  29.016  30.640  1.00  0.00     0.084 A 
ATOM     27  C   UNL A   1      38.652  30.307  30.719  1.00  0.00     0.097 A 
BRANCH  26  28
ATOM     28  C   UNL A   1      39.421  28.300  29.412  1.00  0.00     0.001 A 
ATOM     29  C   UNL A   1      39.241  26.912  29.370  1.00  0.00     0.012 A 
ATOM     30  C   UNL A   1      40.003  28.951  28.315  1.00  0.00     0.012 A 
ATOM     31  C   UNL A   1      39.607  26.185  28.235  1.00  0.00     0.021 A 
ATOM     32  C   UNL A   1      40.380  28.222  27.183  1.00  0.00     0.021 A 
ATOM     33  C   UNL A   1      40.172  26.843  27.145  1.00  0.00     0.041 A 
ATOM     34  Cl  UNL A   1      40.632  25.946  25.751  1.00  0.00    -0.084 Cl
ENDBRANCH  26  28
ENDBRANCH  21  23
ENDBRANCH  20  21
ENDBRANCH  13  18
ENDBRANCH   7  12
ENDBRANCH   3   6
ENDBRANCH   1   2
BRANCH   1  35
ATOM     35  C   UNL A   1      49.474  20.674  33.965  1.00  0.00     0.042 C 
BRANCH  35  36
ATOM     36  C   UNL A   1      50.434  21.668  33.343  1.00  0.00     0.118 C 
BRANCH  36  37
ATOM     37  N   UNL A   1      50.910  22.663  34.305  1.00  0.00    -0.352 N 
ATOM     38  C   UNL A   1      51.152  24.013  34.097  1.00  0.00     0.251 C 
ATOM     39  H   UNL A   1      51.080  22.333  35.216  1.00  0.00     0.163 HD
ATOM     40  O   UNL A   1      51.866  24.641  34.856  1.00  0.00    -0.269 OA
BRANCH  38  41
ATOM     41  C   UNL A   1      50.527  24.659  32.927  1.00  0.00     0.039 A 
ATOM     42  C   UNL A   1      51.216  24.829  31.721  1.00  0.00     0.014 A 
ATOM     43  C   UNL A   1      49.201  25.048  33.051  1.00  0.00     0.014 A 
ATOM     44  C   UNL A   1      50.521  25.320  30.615  1.00  0.00     0.010 A 
ATOM     45  C   UNL A   1      48.479  25.322  31.925  1.00  0.00     0.010 A 
ATOM     46  C   UNL A   1      49.144  25.549  30.725  1.00  0.00    -0.014 A 
BRANCH  46  47
ATOM     47  C   UNL A   1      48.324  25.943  29.584  1.00  0.00     0.031 A 
ATOM     48  C   UNL A   1      47.221  26.895  29.903  1.00  0.00     0.074 A 
ATOM     49  C   UNL A   1      48.753  25.712  28.321  1.00  0.00     0.049 A 
ATOM     50  N   UNL A   1      45.948  26.728  29.757  1.00  0.00    -0.248 NA
ATOM     51  C   UNL A   1      47.571  28.141  30.613  1.00  0.00     0.031 C 
ATOM     52  C   UNL A   1      50.008  25.068  27.899  1.00  0.00     0.029 A 
ATOM     53  N   UNL A   1      48.242  26.144  27.140  1.00  0.00    -0.354 N 
ATOM     54  C   UNL A   1      45.361  27.940  30.117  1.00  0.00     0.074 A 
ATOM     55  C   UNL A   1      46.366  28.665  30.846  1.00  0.00     0.031 C 
ATOM     56  C   UNL A   1      50.278  25.392  26.618  1.00  0.00     0.029 A 
ATOM     57  C   UNL A   1      49.139  26.105  26.074  1.00  0.00     0.049 A 
ATOM     58  H   UNL A   1      47.314  26.459  27.044  1.00  0.00     0.167 HD
ATOM     59  C   UNL A   1      44.195  28.362  29.547  1.00  0.00     0.037 A 
ATOM     60  C   UNL A   1      48.971  26.656  24.846  1.00  0.00     0.037 A 
ATOM     61  C   UNL A   1      43.524  27.265  28.888  1.00  0.00     0.049 A 
ATOM     62  C   UNL A   1      47.513  26.900  24.685  1.00  0.00     0.074 A 
ATOM     63  C   UNL A   1      43.060  26.028  29.292  1.00  0.00     0.029 A 
ATOM     64  N   UNL A   1      43.595  27.206  27.516  1.00  0.00    -0.354 N 
ATOM     65  N   UNL A   1      46.622  25.946  24.627  1.00  0.00    -0.248 NA
ATOM     66  C   UNL A   1      46.999  28.205  25.071  1.00  0.00     0.031 C 
ATOM     67  C   UNL A   1      43.356  25.152  28.206  1.00  0.00     0.029 A 
ATOM     68  C   UNL A   1      43.906  25.914  27.174  1.00  0.00     0.049 A 
ATOM     69  H   UNL A   1      43.449  27.954  26.893  1.00  0.00     0.167 HD
ATOM     70  C   UNL A   1      45.547  26.416  25.370  1.00  0.00     0.074 A 
ATOM     71  C   UNL A   1      45.800  27.845  25.537  1.00  0.00     0.031 C 
ATOM     72  C   UNL A   1      44.714  25.554  26.028  1.00  0.00     0.037 A 
BRANCH  59  73
ATOM     73  C   UNL A   1      43.856  29.810  29.236  1.00  0.00     0.058 A 
ATOM     74  C   UNL A   1      44.720  30.548  28.397  1.00  0.00     0.135 A 
ATOM     75  C   UNL A   1      42.906  30.583  29.944  1.00  0.00     0.135 A 
ATOM     76  F   UNL A   1      45.652  29.926  27.657  1.00  0.00    -0.206 F 
ATOM     77  C   UNL A   1      44.719  31.943  28.357  1.00  0.00     0.059 A 
ATOM     78  C   UNL A   1      42.852  31.970  29.875  1.00  0.00     0.059 A 
ATOM     79  F   UNL A   1      42.041  30.051  30.812  1.00  0.00    -0.206 F 
ATOM     80  C   UNL A   1      43.796  32.645  29.123  1.00  0.00     0.060 A 
BRANCH  80  81
ATOM     81  S   UNL A   1      43.881  34.442  29.192  1.00  0.00     0.124 S 
ATOM     82  O   UNL A   1      42.867  34.740  30.196  1.00  0.00    -0.237 OA
ATOM     83  O   UNL A   1      45.265  34.664  29.594  1.00  0.00    -0.237 OA
ATOM     84  O   UNL A   1      43.558  34.845  27.826  1.00  0.00    -0.744 OA
ENDBRANCH  80  81
ENDBRANCH  59  73
BRANCH  60  85
ATOM     85  C   UNL A   1      50.002  27.252  23.953  1.00  0.00     0.058 A 
ATOM     86  C   UNL A   1      49.937  27.097  22.557  1.00  0.00     0.135 A 
ATOM     87  C   UNL A   1      50.924  28.210  24.425  1.00  0.00     0.135 A 
ATOM     88  F   UNL A   1      49.076  26.220  22.016  1.00  0.00    -0.206 F 
ATOM     89  C   UNL A   1      50.702  27.877  21.681  1.00  0.00     0.059 A 
ATOM     90  C   UNL A   1      51.705  28.990  23.572  1.00  0.00     0.059 A 
ATOM     91  F   UNL A   1      51.030  28.483  25.734  1.00  0.00    -0.206 F 
ATOM     92  C   UNL A   1      51.569  28.838  22.197  1.00  0.00     0.060 A 
BRANCH  92  93
ATOM     93  S   UNL A   1      52.420  29.970  21.071  1.00  0.00     0.124 S 
ATOM     94  O   UNL A   1      52.251  29.300  19.786  1.00  0.00    -0.237 OA
ATOM     95  O   UNL A   1      51.668  31.206  21.249  1.00  0.00    -0.237 OA
ATOM     96  O   UNL A   1      53.787  29.996  21.585  1.00  0.00    -0.744 OA
ENDBRANCH  92  93
ENDBRANCH  60  85
BRANCH  72  97
ATOM     97  C   UNL A   1      44.804  24.082  25.706  1.00  0.00     0.058 A 
ATOM     98  C   UNL A   1      45.688  23.183  26.331  1.00  0.00     0.135 A 
ATOM     99  C   UNL A   1      43.842  23.532  24.848  1.00  0.00     0.135 A 
ATOM    100  F   UNL A   1      46.568  23.603  27.247  1.00  0.00    -0.206 F 
ATOM    101  C   UNL A   1      45.645  21.809  26.081  1.00  0.00     0.059 A 
ATOM    102  C   UNL A   1      43.758  22.163  24.609  1.00  0.00     0.059 A 
ATOM    103  F   UNL A   1      42.925  24.326  24.272  1.00  0.00    -0.206 F 
ATOM    104  C   UNL A   1      44.674  21.307  25.219  1.00  0.00     0.060 A 
BRANCH 104 105
ATOM    105  S   UNL A   1      44.567  19.524  24.958  1.00  0.00     0.124 S 
ATOM    106  O   UNL A   1      45.788  19.047  25.599  1.00  0.00    -0.237 OA
ATOM    107  O   UNL A   1      43.320  19.177  25.632  1.00  0.00    -0.237 OA
ATOM    108  O   UNL A   1      44.535  19.393  23.503  1.00  0.00    -0.744 OA
ENDBRANCH 104 105
ENDBRANCH  72  97
ENDBRANCH  46  47
ENDBRANCH  38  41
ENDBRANCH  36  37
ENDBRANCH  35  36
ENDBRANCH   1  35
TORSDOF 18
ENDMDL
MODEL 3
REMARK VINA RESULT:     -10.4      4.257      6.223
REMARK SMILES C/C(=N\Nc1nc(-c2ccc(Cl)cc2)cs1)c1nnn(-c2ccc(C(=O)NCCCNC(=O)c3ccc(-c4c5nc(c(-c6c(F)cc(S(=O)(=O)[O-])cc6F)c6ccc([nH]6)c(-c6c(F)cc(S(=O)(=O)[O-])cc6F)c6nc(c(-c7c(F)cc(S(=O)(=O)[O-])cc7F)c7ccc4[nH]7)C=C6)C=C5)cc3)cc2)c1C
REMARK SMILES IDX 28 1 27 2 25 3 26 4 24 6 21 7 22 8 101 9 23 10 100 11 20 12
REMARK SMILES IDX 17 13 18 14 102 15 19 16 103 17 2 18 1 19 3 20 4 21 5 23
REMARK SMILES IDX 6 24 16 25 7 26 15 27 8 28 9 29 14 30 10 31 13 32 11 33
REMARK SMILES IDX 12 34 29 35 30 36 31 37 32 38 33 40 34 41 35 42 99 43 36 44
REMARK SMILES IDX 98 45 37 46 38 47 39 48 92 49 40 50 97 51 91 52 93 53 41 54
REMARK SMILES IDX 96 55 90 56 89 57 42 59 76 60 55 61 75 62 56 63 59 64 74 65
REMARK SMILES IDX 94 66 57 67 58 68 73 70 95 71 60 72 43 73 44 74 53 75 45 76
REMARK SMILES IDX 46 77 52 78 54 79 47 80 48 81 49 82 50 83 51 84 77 85 78 86
REMARK SMILES IDX 87 87 79 88 80 89 86 90 88 91 81 92 82 93 83 94 84 95 85 96
REMARK SMILES IDX 61 97 62 98 71 99 63 100 64 101 70 102 72 103 65 104 66 105
REMARK SMILES IDX 67 106 68 107 69 108
REMARK H PARENT 27 5 4 22 31 39 93 58 59 69
REMARK Flexibility Score: inf
ROOT
ATOM      1  C   UNL A   1      33.657  34.865  30.073  1.00  0.00     0.118 C 
ENDROOT
BRANCH   1   2
ATOM      2  N   UNL A   1      33.629  36.024  30.955  1.00  0.00    -0.352 N 
ATOM      3  C   UNL A   1      34.263  36.288  32.149  1.00  0.00     0.251 C 
ATOM      4  O   UNL A   1      34.202  37.432  32.597  1.00  0.00    -0.269 OA
ATOM      5  H   UNL A   1      33.050  36.754  30.639  1.00  0.00     0.163 HD
BRANCH   3   6
ATOM      6  C   UNL A   1      35.066  35.270  32.883  1.00  0.00     0.039 A 
ATOM      7  C   UNL A   1      36.684  33.593  34.416  1.00  0.00     0.067 A 
ATOM      8  C   UNL A   1      35.553  34.161  35.004  1.00  0.00     0.029 A 
ATOM      9  C   UNL A   1      36.938  33.747  33.057  1.00  0.00     0.029 A 
ATOM     10  C   UNL A   1      34.759  35.022  34.234  1.00  0.00     0.016 A 
ATOM     11  C   UNL A   1      36.103  34.551  32.294  1.00  0.00     0.016 A 
BRANCH   7  12
ATOM     12  N   UNL A   1      37.675  32.999  35.212  1.00  0.00    -0.217 N 
ATOM     13  C   UNL A   1      39.458  32.665  36.407  1.00  0.00     0.132 A 
ATOM     14  N   UNL A   1      38.571  31.654  36.656  1.00  0.00    -0.128 NA
ATOM     15  C   UNL A   1      38.920  33.538  35.477  1.00  0.00     0.071 A 
ATOM     16  N   UNL A   1      37.454  31.917  35.984  1.00  0.00    -0.061 NA
ATOM     17  C   UNL A   1      39.383  34.877  35.019  1.00  0.00     0.069 C 
BRANCH  13  18
ATOM     18  C   UNL A   1      40.644  32.929  37.200  1.00  0.00     0.087 C 
ATOM     19  C   UNL A   1      40.347  33.344  38.622  1.00  0.00     0.071 C 
ATOM     20  N   UNL A   1      41.792  32.858  36.583  1.00  0.00    -0.176 NA
BRANCH  20  21
ATOM     21  N   UNL A   1      42.983  33.229  37.163  1.00  0.00    -0.252 N 
ATOM     22  H   UNL A   1      42.902  33.886  37.892  1.00  0.00     0.193 HD
BRANCH  21  23
ATOM     23  C   UNL A   1      44.251  32.832  36.891  1.00  0.00     0.203 A 
ATOM     24  N   UNL A   1      44.669  32.319  35.757  1.00  0.00    -0.219 NA
ATOM     25  S   UNL A   1      45.458  32.848  38.129  1.00  0.00    -0.103 S 
ATOM     26  C   UNL A   1      45.833  31.607  35.952  1.00  0.00     0.084 A 
ATOM     27  C   UNL A   1      46.415  31.769  37.192  1.00  0.00     0.097 A 
BRANCH  26  28
ATOM     28  C   UNL A   1      46.289  30.692  34.923  1.00  0.00     0.001 A 
ATOM     29  C   UNL A   1      46.096  29.315  35.097  1.00  0.00     0.012 A 
ATOM     30  C   UNL A   1      47.035  31.149  33.827  1.00  0.00     0.012 A 
ATOM     31  C   UNL A   1      46.614  28.406  34.172  1.00  0.00     0.021 A 
ATOM     32  C   UNL A   1      47.563  30.237  32.907  1.00  0.00     0.021 A 
ATOM     33  C   UNL A   1      47.343  28.871  33.079  1.00  0.00     0.041 A 
ATOM     34  Cl  UNL A   1      47.989  27.750  31.946  1.00  0.00    -0.084 Cl
ENDBRANCH  26  28
ENDBRANCH  21  23
ENDBRANCH  20  21
ENDBRANCH  13  18
ENDBRANCH   7  12
ENDBRANCH   3   6
ENDBRANCH   1   2
BRANCH   1  35
ATOM     35  C   UNL A   1      34.579  35.064  28.860  1.00  0.00     0.042 C 
BRANCH  35  36
ATOM     36  C   UNL A   1      35.294  33.792  28.449  1.00  0.00     0.118 C 
BRANCH  36  37
ATOM     37  N   UNL A   1      34.371  32.761  27.973  1.00  0.00    -0.352 N 
ATOM     38  C   UNL A   1      34.649  31.442  27.649  1.00  0.00     0.251 C 
ATOM     39  H   UNL A   1      33.433  33.040  27.869  1.00  0.00     0.163 HD
ATOM     40  O   UNL A   1      33.892  30.802  26.944  1.00  0.00    -0.269 OA
BRANCH  38  41
ATOM     41  C   UNL A   1      35.890  30.843  28.176  1.00  0.00     0.039 A 
ATOM     42  C   UNL A   1      36.198  29.491  27.985  1.00  0.00     0.014 A 
ATOM     43  C   UNL A   1      36.774  31.689  28.829  1.00  0.00     0.014 A 
ATOM     44  C   UNL A   1      37.449  29.025  28.388  1.00  0.00     0.010 A 
ATOM     45  C   UNL A   1      38.063  31.285  29.024  1.00  0.00     0.010 A 
ATOM     46  C   UNL A   1      38.383  29.937  28.894  1.00  0.00    -0.014 A 
BRANCH  46  47
ATOM     47  C   UNL A   1      39.753  29.553  29.221  1.00  0.00     0.031 A 
ATOM     48  C   UNL A   1      40.046  29.459  30.681  1.00  0.00     0.074 A 
ATOM     49  C   UNL A   1      40.558  29.019  28.274  1.00  0.00     0.049 A 
ATOM     50  N   UNL A   1      40.906  30.132  31.372  1.00  0.00    -0.248 NA
ATOM     51  C   UNL A   1      39.168  28.607  31.506  1.00  0.00     0.031 C 
ATOM     52  C   UNL A   1      40.237  28.759  26.860  1.00  0.00     0.029 A 
ATOM     53  N   UNL A   1      41.781  28.442  28.400  1.00  0.00    -0.354 N 
ATOM     54  C   UNL A   1      40.851  29.606  32.663  1.00  0.00     0.074 A 
ATOM     55  C   UNL A   1      39.624  28.860  32.734  1.00  0.00     0.031 C 
ATOM     56  C   UNL A   1      41.104  27.857  26.355  1.00  0.00     0.029 A 
ATOM     57  C   UNL A   1      42.142  27.616  27.337  1.00  0.00     0.049 A 
ATOM     58  H   UNL A   1      42.364  28.595  29.179  1.00  0.00     0.167 HD
ATOM     59  C   UNL A   1      41.949  29.596  33.473  1.00  0.00     0.037 A 
ATOM     60  C   UNL A   1      43.198  26.766  27.288  1.00  0.00     0.037 A 
ATOM     61  C   UNL A   1      42.958  30.503  32.976  1.00  0.00     0.049 A 
ATOM     62  C   UNL A   1      44.143  27.199  28.352  1.00  0.00     0.074 A 
ATOM     63  C   UNL A   1      42.991  31.855  32.689  1.00  0.00     0.029 A 
ATOM     64  N   UNL A   1      44.042  29.959  32.331  1.00  0.00    -0.354 N 
ATOM     65  N   UNL A   1      44.775  28.342  28.337  1.00  0.00    -0.248 NA
ATOM     66  C   UNL A   1      44.018  26.576  29.661  1.00  0.00     0.031 C 
ATOM     67  C   UNL A   1      43.778  31.959  31.504  1.00  0.00     0.029 A 
ATOM     68  C   UNL A   1      44.247  30.683  31.183  1.00  0.00     0.049 A 
ATOM     69  H   UNL A   1      44.576  29.190  32.635  1.00  0.00     0.167 HD
ATOM     70  C   UNL A   1      44.744  28.784  29.653  1.00  0.00     0.074 A 
ATOM     71  C   UNL A   1      44.350  27.614  30.435  1.00  0.00     0.031 C 
ATOM     72  C   UNL A   1      44.751  30.119  29.949  1.00  0.00     0.037 A 
BRANCH  59  73
ATOM     73  C   UNL A   1      42.282  28.498  34.468  1.00  0.00     0.058 A 
ATOM     74  C   UNL A   1      42.269  28.801  35.848  1.00  0.00     0.135 A 
ATOM     75  C   UNL A   1      42.890  27.266  34.132  1.00  0.00     0.135 A 
ATOM     76  F   UNL A   1      41.702  29.932  36.296  1.00  0.00    -0.206 F 
ATOM     77  C   UNL A   1      42.913  28.006  36.799  1.00  0.00     0.059 A 
ATOM     78  C   UNL A   1      43.488  26.433  35.070  1.00  0.00     0.059 A 
ATOM     79  F   UNL A   1      43.025  26.844  32.871  1.00  0.00    -0.206 F 
ATOM     80  C   UNL A   1      43.544  26.835  36.392  1.00  0.00     0.060 A 
BRANCH  80  81
ATOM     81  S   UNL A   1      44.499  25.881  37.582  1.00  0.00     0.124 S 
ATOM     82  O   UNL A   1      45.853  26.344  37.301  1.00  0.00    -0.237 OA
ATOM     83  O   UNL A   1      43.923  26.315  38.850  1.00  0.00    -0.237 OA
ATOM     84  O   UNL A   1      44.212  24.498  37.210  1.00  0.00    -0.744 OA
ENDBRANCH  80  81
ENDBRANCH  59  73
BRANCH  60  85
ATOM     85  C   UNL A   1      43.292  25.450  26.599  1.00  0.00     0.058 A 
ATOM     86  C   UNL A   1      43.965  25.314  25.371  1.00  0.00     0.135 A 
ATOM     87  C   UNL A   1      42.956  24.246  27.255  1.00  0.00     0.135 A 
ATOM     88  F   UNL A   1      44.339  26.405  24.685  1.00  0.00    -0.206 F 
ATOM     89  C   UNL A   1      44.326  24.066  24.851  1.00  0.00     0.059 A 
ATOM     90  C   UNL A   1      43.295  22.991  26.749  1.00  0.00     0.059 A 
ATOM     91  F   UNL A   1      42.364  24.256  28.458  1.00  0.00    -0.206 F 
ATOM     92  C   UNL A   1      44.006  22.908  25.559  1.00  0.00     0.060 A 
BRANCH  92  93
ATOM     93  S   UNL A   1      44.629  21.310  24.984  1.00  0.00     0.124 S 
ATOM     94  O   UNL A   1      43.543  20.410  25.360  1.00  0.00    -0.237 OA
ATOM     95  O   UNL A   1      44.799  21.541  23.554  1.00  0.00    -0.237 OA
ATOM     96  O   UNL A   1      45.869  21.138  25.736  1.00  0.00    -0.744 OA
ENDBRANCH  92  93
ENDBRANCH  60  85
BRANCH  72  97
ATOM     97  C   UNL A   1      45.079  31.097  28.848  1.00  0.00     0.058 A 
ATOM     98  C   UNL A   1      44.124  31.706  28.013  1.00  0.00     0.135 A 
ATOM     99  C   UNL A   1      46.399  31.559  28.744  1.00  0.00     0.135 A 
ATOM    100  F   UNL A   1      42.824  31.407  28.117  1.00  0.00    -0.206 F 
ATOM    101  C   UNL A   1      44.471  32.696  27.090  1.00  0.00     0.059 A 
ATOM    102  C   UNL A   1      46.763  32.568  27.855  1.00  0.00     0.059 A 
ATOM    103  F   UNL A   1      47.347  31.069  29.559  1.00  0.00    -0.206 F 
ATOM    104  C   UNL A   1      45.795  33.122  27.020  1.00  0.00     0.060 A 
BRANCH 104 105
ATOM    105  S   UNL A   1      46.229  34.457  25.884  1.00  0.00     0.124 S 
ATOM    106  O   UNL A   1      45.886  35.644  26.660  1.00  0.00    -0.237 OA
ATOM    107  O   UNL A   1      47.655  34.235  25.661  1.00  0.00    -0.237 OA
ATOM    108  O   UNL A   1      45.380  34.205  24.722  1.00  0.00    -0.744 OA
ENDBRANCH 104 105
ENDBRANCH  72  97
ENDBRANCH  46  47
ENDBRANCH  38  41
ENDBRANCH  36  37
ENDBRANCH  35  36
ENDBRANCH   1  35
TORSDOF 18
ENDMDL
