MODEL 1
REMARK VINA RESULT:     -10.8      0.000      0.000
REMARK SMILES CC[C@@](C)(NC(=O)N(C)[C@@H](C)C(C)C)C(=O)NCCCNC(=O)c1ccc(-c2c3nc(c(-c4c(F)cc(S(=O)(=O)[O-])cc4F)c4ccc([nH]4)c(-c4c(F)cc(S(=O)(=O)[O-])cc4F)c4nc(c(-c5c(F)cc(S(=O)(=O)[O-])cc5F)c5ccc2[nH]5)C=C4)C=C3)cc1
REMARK SMILES IDX 18 1 17 2 15 3 16 4 3 6 4 7 2 8 1 9 5 10 6 11 7 13 8 14 9 15
REMARK SMILES IDX 10 16 11 17 12 18 13 19 14 20 19 21 20 22 21 23 22 24 23 26
REMARK SMILES IDX 24 27 25 28 89 29 26 30 88 31 27 32 28 33 29 34 82 35 30 36
REMARK SMILES IDX 87 37 81 38 83 39 31 40 86 41 80 42 79 43 32 45 66 46 45 47
REMARK SMILES IDX 65 48 46 49 49 50 64 51 84 52 47 53 48 54 63 56 85 57 50 58
REMARK SMILES IDX 33 59 34 60 43 61 35 62 36 63 42 64 44 65 37 66 38 67 39 68
REMARK SMILES IDX 40 69 41 70 67 71 68 72 77 73 69 74 70 75 76 76 78 77 71 78
REMARK SMILES IDX 72 79 73 80 74 81 75 82 51 83 52 84 61 85 53 86 54 87 60 88
REMARK SMILES IDX 62 89 55 90 56 91 57 92 58 93 59 94
REMARK H PARENT 17 5 5 12 21 25 83 44 49 55
REMARK Flexibility Score: inf
ROOT
ATOM      1  C   UNL A   1      33.029  29.665  26.197  1.00  0.00     0.117 C 
ENDROOT
BRANCH   1   2
ATOM      2  N   UNL A   1      33.643  29.475  24.892  1.00  0.00    -0.354 N 
ATOM      3  C   UNL A   1      33.647  28.463  23.979  1.00  0.00     0.245 C 
ATOM      4  O   UNL A   1      34.228  28.736  22.920  1.00  0.00    -0.272 OA
ATOM      5  H   UNL A   1      34.175  30.251  24.604  1.00  0.00     0.163 HD
BRANCH   3   6
ATOM      6  C   UNL A   1      32.897  27.105  24.165  1.00  0.00     0.117 C 
ATOM      7  C   UNL A   1      33.644  26.359  25.308  1.00  0.00     0.045 C 
BRANCH   6   8
ATOM      8  C   UNL A   1      31.411  27.237  24.638  1.00  0.00     0.035 C 
ATOM      9  C   UNL A   1      31.063  26.703  26.028  1.00  0.00     0.007 C 
ENDBRANCH   6   8
BRANCH   6  10
ATOM     10  N   UNL A   1      32.914  26.223  22.965  1.00  0.00    -0.324 N 
ATOM     11  C   UNL A   1      32.774  24.919  22.645  1.00  0.00     0.318 C 
ATOM     12  H   UNL A   1      33.079  26.757  22.155  1.00  0.00     0.166 HD
ATOM     13  O   UNL A   1      33.253  24.627  21.545  1.00  0.00    -0.249 OA
BRANCH  11  14
ATOM     14  N   UNL A   1      32.052  24.020  23.382  1.00  0.00    -0.325 N 
ATOM     15  C   UNL A   1      30.623  24.072  23.637  1.00  0.00     0.149 C 
BRANCH  14  16
ATOM     16  C   UNL A   1      32.744  22.856  24.020  1.00  0.00     0.086 C 
ATOM     17  C   UNL A   1      32.880  22.960  25.555  1.00  0.00     0.031 C 
BRANCH  16  18
ATOM     18  C   UNL A   1      32.170  21.458  23.638  1.00  0.00     0.005 C 
ATOM     19  C   UNL A   1      32.036  21.219  22.133  1.00  0.00     0.009 C 
ATOM     20  C   UNL A   1      33.058  20.344  24.221  1.00  0.00     0.009 C 
ENDBRANCH  16  18
ENDBRANCH  14  16
ENDBRANCH  11  14
ENDBRANCH   6  10
ENDBRANCH   3   6
ENDBRANCH   1   2
BRANCH   1  21
ATOM     21  C   UNL A   1      33.807  29.071  27.363  1.00  0.00     0.042 C 
BRANCH  21  22
ATOM     22  C   UNL A   1      35.173  29.694  27.636  1.00  0.00     0.118 C 
BRANCH  22  23
ATOM     23  N   UNL A   1      35.236  30.373  28.917  1.00  0.00    -0.352 N 
ATOM     24  C   UNL A   1      36.274  30.497  29.810  1.00  0.00     0.251 C 
ATOM     25  H   UNL A   1      34.401  30.817  29.191  1.00  0.00     0.163 HD
ATOM     26  O   UNL A   1      36.036  30.953  30.927  1.00  0.00    -0.269 OA
BRANCH  24  27
ATOM     27  C   UNL A   1      37.659  30.080  29.472  1.00  0.00     0.039 A 
ATOM     28  C   UNL A   1      38.541  29.799  30.523  1.00  0.00     0.014 A 
ATOM     29  C   UNL A   1      38.132  30.050  28.157  1.00  0.00     0.014 A 
ATOM     30  C   UNL A   1      39.869  29.444  30.257  1.00  0.00     0.010 A 
ATOM     31  C   UNL A   1      39.444  29.641  27.889  1.00  0.00     0.010 A 
ATOM     32  C   UNL A   1      40.330  29.337  28.936  1.00  0.00    -0.014 A 
BRANCH  32  33
ATOM     33  C   UNL A   1      41.728  28.919  28.634  1.00  0.00     0.031 A 
ATOM     34  C   UNL A   1      42.845  29.930  28.625  1.00  0.00     0.074 A 
ATOM     35  C   UNL A   1      41.994  27.635  28.316  1.00  0.00     0.049 A 
ATOM     36  N   UNL A   1      44.100  29.775  28.285  1.00  0.00    -0.248 NA
ATOM     37  C   UNL A   1      42.502  31.299  29.039  1.00  0.00     0.031 C 
ATOM     38  C   UNL A   1      41.009  26.554  28.274  1.00  0.00     0.029 A 
ATOM     39  N   UNL A   1      43.171  27.025  27.953  1.00  0.00    -0.354 N 
ATOM     40  C   UNL A   1      44.692  31.026  28.424  1.00  0.00     0.074 A 
ATOM     41  C   UNL A   1      43.650  31.936  28.850  1.00  0.00     0.031 C 
ATOM     42  C   UNL A   1      41.621  25.415  27.913  1.00  0.00     0.029 A 
ATOM     43  C   UNL A   1      43.032  25.690  27.654  1.00  0.00     0.049 A 
ATOM     44  H   UNL A   1      44.033  27.500  27.911  1.00  0.00     0.167 HD
ATOM     45  C   UNL A   1      45.985  31.381  28.227  1.00  0.00     0.037 A 
ATOM     46  C   UNL A   1      43.930  24.790  27.203  1.00  0.00     0.037 A 
ATOM     47  C   UNL A   1      47.029  30.470  27.830  1.00  0.00     0.049 A 
ATOM     48  C   UNL A   1      45.356  25.212  26.972  1.00  0.00     0.074 A 
ATOM     49  C   UNL A   1      48.377  30.736  27.648  1.00  0.00     0.029 A 
ATOM     50  N   UNL A   1      46.848  29.124  27.553  1.00  0.00    -0.354 N 
ATOM     51  N   UNL A   1      45.903  26.392  27.140  1.00  0.00    -0.248 NA
ATOM     52  C   UNL A   1      46.288  24.182  26.488  1.00  0.00     0.031 C 
ATOM     53  C   UNL A   1      49.003  29.559  27.223  1.00  0.00     0.029 A 
ATOM     54  C   UNL A   1      48.054  28.549  27.186  1.00  0.00     0.049 A 
ATOM     55  H   UNL A   1      45.989  28.647  27.608  1.00  0.00     0.167 HD
ATOM     56  C   UNL A   1      47.247  26.237  26.817  1.00  0.00     0.074 A 
ATOM     57  C   UNL A   1      47.433  24.852  26.442  1.00  0.00     0.031 C 
ATOM     58  C   UNL A   1      48.238  27.163  26.837  1.00  0.00     0.037 A 
BRANCH  45  59
ATOM     59  C   UNL A   1      46.353  32.826  28.432  1.00  0.00     0.058 A 
ATOM     60  C   UNL A   1      46.145  33.788  27.431  1.00  0.00     0.135 A 
ATOM     61  C   UNL A   1      46.872  33.262  29.662  1.00  0.00     0.135 A 
ATOM     62  F   UNL A   1      45.660  33.424  26.234  1.00  0.00    -0.206 F 
ATOM     63  C   UNL A   1      46.468  35.127  27.632  1.00  0.00     0.059 A 
ATOM     64  C   UNL A   1      47.178  34.599  29.893  1.00  0.00     0.059 A 
ATOM     65  F   UNL A   1      47.085  32.384  30.655  1.00  0.00    -0.206 F 
ATOM     66  C   UNL A   1      46.987  35.522  28.867  1.00  0.00     0.060 A 
BRANCH  66  67
ATOM     67  S   UNL A   1      47.403  37.262  29.110  1.00  0.00     0.124 S 
ATOM     68  O   UNL A   1      46.308  37.923  28.407  1.00  0.00    -0.237 OA
ATOM     69  O   UNL A   1      47.390  37.388  30.563  1.00  0.00    -0.237 OA
ATOM     70  O   UNL A   1      48.716  37.388  28.485  1.00  0.00    -0.744 OA
ENDBRANCH  66  67
ENDBRANCH  45  59
BRANCH  46  71
ATOM     71  C   UNL A   1      43.504  23.388  26.945  1.00  0.00     0.058 A 
ATOM     72  C   UNL A   1      43.301  22.490  28.002  1.00  0.00     0.135 A 
ATOM     73  C   UNL A   1      43.282  22.924  25.639  1.00  0.00     0.135 A 
ATOM     74  F   UNL A   1      43.512  22.885  29.267  1.00  0.00    -0.206 F 
ATOM     75  C   UNL A   1      42.904  21.177  27.776  1.00  0.00     0.059 A 
ATOM     76  C   UNL A   1      42.859  21.622  25.388  1.00  0.00     0.059 A 
ATOM     77  F   UNL A   1      43.451  23.748  24.594  1.00  0.00    -0.206 F 
ATOM     78  C   UNL A   1      42.683  20.753  26.464  1.00  0.00     0.060 A 
BRANCH  78  79
ATOM     79  S   UNL A   1      42.117  19.060  26.184  1.00  0.00     0.124 S 
ATOM     80  O   UNL A   1      40.722  19.275  25.817  1.00  0.00    -0.237 OA
ATOM     81  O   UNL A   1      42.999  18.614  25.109  1.00  0.00    -0.237 OA
ATOM     82  O   UNL A   1      42.339  18.414  27.474  1.00  0.00    -0.744 OA
ENDBRANCH  78  79
ENDBRANCH  46  71
BRANCH  58  83
ATOM     83  C   UNL A   1      49.630  26.711  26.493  1.00  0.00     0.058 A 
ATOM     84  C   UNL A   1      50.452  26.067  27.429  1.00  0.00     0.135 A 
ATOM     85  C   UNL A   1      50.114  26.851  25.182  1.00  0.00     0.135 A 
ATOM     86  F   UNL A   1      50.040  25.914  28.698  1.00  0.00    -0.206 F 
ATOM     87  C   UNL A   1      51.708  25.580  27.079  1.00  0.00     0.059 A 
ATOM     88  C   UNL A   1      51.357  26.354  24.804  1.00  0.00     0.059 A 
ATOM     89  F   UNL A   1      49.364  27.456  24.246  1.00  0.00    -0.206 F 
ATOM     90  C   UNL A   1      52.149  25.722  25.762  1.00  0.00     0.060 A 
BRANCH  90  91
ATOM     91  S   UNL A   1      53.752  25.027  25.303  1.00  0.00     0.124 S 
ATOM     92  O   UNL A   1      54.594  25.474  26.408  1.00  0.00    -0.237 OA
ATOM     93  O   UNL A   1      53.472  23.595  25.258  1.00  0.00    -0.237 OA
ATOM     94  O   UNL A   1      54.033  25.644  24.011  1.00  0.00    -0.744 OA
ENDBRANCH  90  91
ENDBRANCH  58  83
ENDBRANCH  32  33
ENDBRANCH  24  27
ENDBRANCH  22  23
ENDBRANCH  21  22
ENDBRANCH   1  21
TORSDOF 18
ENDMDL
MODEL 2
REMARK VINA RESULT:     -10.7      2.836      3.846
REMARK SMILES CC[C@@](C)(NC(=O)N(C)[C@@H](C)C(C)C)C(=O)NCCCNC(=O)c1ccc(-c2c3nc(c(-c4c(F)cc(S(=O)(=O)[O-])cc4F)c4ccc([nH]4)c(-c4c(F)cc(S(=O)(=O)[O-])cc4F)c4nc(c(-c5c(F)cc(S(=O)(=O)[O-])cc5F)c5ccc2[nH]5)C=C4)C=C3)cc1
REMARK SMILES IDX 18 1 17 2 15 3 16 4 3 6 4 7 2 8 1 9 5 10 6 11 7 13 8 14 9 15
REMARK SMILES IDX 10 16 11 17 12 18 13 19 14 20 19 21 20 22 21 23 22 24 23 26
REMARK SMILES IDX 24 27 25 28 89 29 26 30 88 31 27 32 28 33 29 34 82 35 30 36
REMARK SMILES IDX 87 37 81 38 83 39 31 40 86 41 80 42 79 43 32 45 66 46 45 47
REMARK SMILES IDX 65 48 46 49 49 50 64 51 84 52 47 53 48 54 63 56 85 57 50 58
REMARK SMILES IDX 33 59 34 60 43 61 35 62 36 63 42 64 44 65 37 66 38 67 39 68
REMARK SMILES IDX 40 69 41 70 67 71 68 72 77 73 69 74 70 75 76 76 78 77 71 78
REMARK SMILES IDX 72 79 73 80 74 81 75 82 51 83 52 84 61 85 53 86 54 87 60 88
REMARK SMILES IDX 62 89 55 90 56 91 57 92 58 93 59 94
REMARK H PARENT 17 5 5 12 21 25 83 44 49 55
REMARK Flexibility Score: inf
ROOT
ATOM      1  C   UNL A   1      32.825  26.896  24.629  1.00  0.00     0.117 C 
ENDROOT
BRANCH   1   2
ATOM      2  N   UNL A   1      31.634  26.186  24.188  1.00  0.00    -0.354 N 
ATOM      3  C   UNL A   1      31.343  24.880  23.931  1.00  0.00     0.245 C 
ATOM      4  O   UNL A   1      30.153  24.668  23.661  1.00  0.00    -0.272 OA
ATOM      5  H   UNL A   1      30.866  26.785  24.042  1.00  0.00     0.163 HD
BRANCH   3   6
ATOM      6  C   UNL A   1      32.364  23.706  24.069  1.00  0.00     0.117 C 
ATOM      7  C   UNL A   1      31.561  22.406  23.773  1.00  0.00     0.045 C 
BRANCH   6   8
ATOM      8  C   UNL A   1      33.537  23.731  23.032  1.00  0.00     0.035 C 
ATOM      9  C   UNL A   1      33.170  23.875  21.555  1.00  0.00     0.007 C 
ENDBRANCH   6   8
BRANCH   6  10
ATOM     10  N   UNL A   1      32.961  23.566  25.426  1.00  0.00    -0.324 N 
ATOM     11  C   UNL A   1      33.644  22.663  26.161  1.00  0.00     0.318 C 
ATOM     12  H   UNL A   1      32.810  24.387  25.948  1.00  0.00     0.166 HD
ATOM     13  O   UNL A   1      33.586  22.871  27.376  1.00  0.00    -0.249 OA
BRANCH  11  14
ATOM     14  N   UNL A   1      34.447  21.690  25.631  1.00  0.00    -0.325 N 
ATOM     15  C   UNL A   1      34.003  20.458  25.003  1.00  0.00     0.149 C 
BRANCH  14  16
ATOM     16  C   UNL A   1      35.936  21.847  25.682  1.00  0.00     0.086 C 
ATOM     17  C   UNL A   1      36.720  20.679  25.042  1.00  0.00     0.031 C 
BRANCH  16  18
ATOM     18  C   UNL A   1      36.475  23.202  25.135  1.00  0.00     0.005 C 
ATOM     19  C   UNL A   1      37.688  23.750  25.888  1.00  0.00     0.009 C 
ATOM     20  C   UNL A   1      36.859  23.060  23.651  1.00  0.00     0.009 C 
ENDBRANCH  16  18
ENDBRANCH  14  16
ENDBRANCH  11  14
ENDBRANCH   6  10
ENDBRANCH   3   6
ENDBRANCH   1   2
BRANCH   1  21
ATOM     21  C   UNL A   1      32.714  27.538  26.004  1.00  0.00     0.042 C 
BRANCH  21  22
ATOM     22  C   UNL A   1      33.985  28.197  26.534  1.00  0.00     0.118 C 
BRANCH  22  23
ATOM     23  N   UNL A   1      33.751  29.530  27.056  1.00  0.00    -0.352 N 
ATOM     24  C   UNL A   1      34.530  30.318  27.871  1.00  0.00     0.251 C 
ATOM     25  H   UNL A   1      32.896  29.937  26.784  1.00  0.00     0.163 HD
ATOM     26  O   UNL A   1      34.036  31.339  28.346  1.00  0.00    -0.269 OA
BRANCH  24  27
ATOM     27  C   UNL A   1      35.933  29.963  28.204  1.00  0.00     0.039 A 
ATOM     28  C   UNL A   1      36.901  30.076  27.200  1.00  0.00     0.014 A 
ATOM     29  C   UNL A   1      36.297  29.437  29.447  1.00  0.00     0.014 A 
ATOM     30  C   UNL A   1      38.230  29.711  27.452  1.00  0.00     0.010 A 
ATOM     31  C   UNL A   1      37.635  29.127  29.717  1.00  0.00     0.010 A 
ATOM     32  C   UNL A   1      38.617  29.256  28.721  1.00  0.00    -0.014 A 
BRANCH  32  33
ATOM     33  C   UNL A   1      40.034  28.905  29.019  1.00  0.00     0.031 A 
ATOM     34  C   UNL A   1      40.971  29.931  29.605  1.00  0.00     0.074 A 
ATOM     35  C   UNL A   1      40.503  27.677  28.717  1.00  0.00     0.049 A 
ATOM     36  N   UNL A   1      42.257  29.842  29.833  1.00  0.00    -0.248 NA
ATOM     37  C   UNL A   1      40.386  31.230  29.968  1.00  0.00     0.031 C 
ATOM     38  C   UNL A   1      39.712  26.591  28.137  1.00  0.00     0.029 A 
ATOM     39  N   UNL A   1      41.761  27.139  28.844  1.00  0.00    -0.354 N 
ATOM     40  C   UNL A   1      42.640  31.077  30.347  1.00  0.00     0.074 A 
ATOM     41  C   UNL A   1      41.455  31.908  30.367  1.00  0.00     0.031 C 
ATOM     42  C   UNL A   1      40.500  25.517  27.963  1.00  0.00     0.029 A 
ATOM     43  C   UNL A   1      41.861  25.849  28.377  1.00  0.00     0.049 A 
ATOM     44  H   UNL A   1      42.521  27.631  29.232  1.00  0.00     0.167 HD
ATOM     45  C   UNL A   1      43.863  31.478  30.773  1.00  0.00     0.037 A 
ATOM     46  C   UNL A   1      42.927  25.029  28.273  1.00  0.00     0.037 A 
ATOM     47  C   UNL A   1      45.038  30.644  30.779  1.00  0.00     0.049 A 
ATOM     48  C   UNL A   1      44.279  25.504  28.733  1.00  0.00     0.074 A 
ATOM     49  C   UNL A   1      46.310  30.955  31.234  1.00  0.00     0.029 A 
ATOM     50  N   UNL A   1      45.091  29.340  30.313  1.00  0.00    -0.354 N 
ATOM     51  N   UNL A   1      44.614  26.663  29.246  1.00  0.00    -0.248 NA
ATOM     52  C   UNL A   1      45.399  24.560  28.601  1.00  0.00     0.031 C 
ATOM     53  C   UNL A   1      47.140  29.853  31.005  1.00  0.00     0.029 A 
ATOM     54  C   UNL A   1      46.375  28.838  30.452  1.00  0.00     0.049 A 
ATOM     55  H   UNL A   1      44.328  28.843  29.936  1.00  0.00     0.167 HD
ATOM     56  C   UNL A   1      45.973  26.576  29.529  1.00  0.00     0.074 A 
ATOM     57  C   UNL A   1      46.401  25.252  29.129  1.00  0.00     0.031 C 
ATOM     58  C   UNL A   1      46.789  27.510  30.075  1.00  0.00     0.037 A 
BRANCH  45  59
ATOM     59  C   UNL A   1      44.002  32.893  31.268  1.00  0.00     0.058 A 
ATOM     60  C   UNL A   1      44.336  33.947  30.402  1.00  0.00     0.135 A 
ATOM     61  C   UNL A   1      43.748  33.206  32.613  1.00  0.00     0.135 A 
ATOM     62  F   UNL A   1      44.597  33.702  29.108  1.00  0.00    -0.206 F 
ATOM     63  C   UNL A   1      44.443  35.256  30.859  1.00  0.00     0.059 A 
ATOM     64  C   UNL A   1      43.826  34.512  33.087  1.00  0.00     0.059 A 
ATOM     65  F   UNL A   1      43.420  32.237  33.482  1.00  0.00    -0.206 F 
ATOM     66  C   UNL A   1      44.190  35.529  32.205  1.00  0.00     0.060 A 
BRANCH  66  67
ATOM     67  S   UNL A   1      44.336  37.232  32.783  1.00  0.00     0.124 S 
ATOM     68  O   UNL A   1      45.672  37.223  33.374  1.00  0.00    -0.237 OA
ATOM     69  O   UNL A   1      44.195  37.997  31.550  1.00  0.00    -0.237 OA
ATOM     70  O   UNL A   1      43.234  37.366  33.730  1.00  0.00    -0.744 OA
ENDBRANCH  66  67
ENDBRANCH  45  59
BRANCH  46  71
ATOM     71  C   UNL A   1      42.756  23.663  27.710  1.00  0.00     0.058 A 
ATOM     72  C   UNL A   1      42.514  22.564  28.546  1.00  0.00     0.135 A 
ATOM     73  C   UNL A   1      42.819  23.433  26.327  1.00  0.00     0.135 A 
ATOM     74  F   UNL A   1      42.456  22.733  29.876  1.00  0.00    -0.206 F 
ATOM     75  C   UNL A   1      42.352  21.282  28.033  1.00  0.00     0.059 A 
ATOM     76  C   UNL A   1      42.635  22.163  25.788  1.00  0.00     0.059 A 
ATOM     77  F   UNL A   1      43.036  24.454  25.484  1.00  0.00    -0.206 F 
ATOM     78  C   UNL A   1      42.413  21.091  26.652  1.00  0.00     0.060 A 
BRANCH  78  79
ATOM     79  S   UNL A   1      42.150  19.429  25.993  1.00  0.00     0.124 S 
ATOM     80  O   UNL A   1      40.706  19.420  25.791  1.00  0.00    -0.237 OA
ATOM     81  O   UNL A   1      42.964  19.447  24.781  1.00  0.00    -0.237 OA
ATOM     82  O   UNL A   1      42.646  18.564  27.058  1.00  0.00    -0.744 OA
ENDBRANCH  78  79
ENDBRANCH  46  71
BRANCH  58  83
ATOM     83  C   UNL A   1      48.222  27.131  30.330  1.00  0.00     0.058 A 
ATOM     84  C   UNL A   1      49.246  27.455  29.429  1.00  0.00     0.135 A 
ATOM     85  C   UNL A   1      48.583  26.508  31.536  1.00  0.00     0.135 A 
ATOM     86  F   UNL A   1      48.954  28.045  28.257  1.00  0.00    -0.206 F 
ATOM     87  C   UNL A   1      50.579  27.173  29.711  1.00  0.00     0.059 A 
ATOM     88  C   UNL A   1      49.911  26.235  31.849  1.00  0.00     0.059 A 
ATOM     89  F   UNL A   1      47.642  26.181  32.436  1.00  0.00    -0.206 F 
ATOM     90  C   UNL A   1      50.903  26.568  30.927  1.00  0.00     0.060 A 
BRANCH  90  91
ATOM     91  S   UNL A   1      52.642  26.267  31.311  1.00  0.00     0.124 S 
ATOM     92  O   UNL A   1      52.981  27.455  32.088  1.00  0.00    -0.237 OA
ATOM     93  O   UNL A   1      52.587  25.015  32.058  1.00  0.00    -0.237 OA
ATOM     94  O   UNL A   1      53.270  26.178  29.996  1.00  0.00    -0.744 OA
ENDBRANCH  90  91
ENDBRANCH  58  83
ENDBRANCH  32  33
ENDBRANCH  24  27
ENDBRANCH  22  23
ENDBRANCH  21  22
ENDBRANCH   1  21
TORSDOF 18
ENDMDL
MODEL 3
REMARK VINA RESULT:     -10.7      2.489      8.482
REMARK SMILES CC[C@@](C)(NC(=O)N(C)[C@@H](C)C(C)C)C(=O)NCCCNC(=O)c1ccc(-c2c3nc(c(-c4c(F)cc(S(=O)(=O)[O-])cc4F)c4ccc([nH]4)c(-c4c(F)cc(S(=O)(=O)[O-])cc4F)c4nc(c(-c5c(F)cc(S(=O)(=O)[O-])cc5F)c5ccc2[nH]5)C=C4)C=C3)cc1
REMARK SMILES IDX 18 1 17 2 15 3 16 4 3 6 4 7 2 8 1 9 5 10 6 11 7 13 8 14 9 15
REMARK SMILES IDX 10 16 11 17 12 18 13 19 14 20 19 21 20 22 21 23 22 24 23 26
REMARK SMILES IDX 24 27 25 28 89 29 26 30 88 31 27 32 28 33 29 34 82 35 30 36
REMARK SMILES IDX 87 37 81 38 83 39 31 40 86 41 80 42 79 43 32 45 66 46 45 47
REMARK SMILES IDX 65 48 46 49 49 50 64 51 84 52 47 53 48 54 63 56 85 57 50 58
REMARK SMILES IDX 33 59 34 60 43 61 35 62 36 63 42 64 44 65 37 66 38 67 39 68
REMARK SMILES IDX 40 69 41 70 67 71 68 72 77 73 69 74 70 75 76 76 78 77 71 78
REMARK SMILES IDX 72 79 73 80 74 81 75 82 51 83 52 84 61 85 53 86 54 87 60 88
REMARK SMILES IDX 62 89 55 90 56 91 57 92 58 93 59 94
REMARK H PARENT 17 5 5 12 21 25 83 44 49 55
REMARK Flexibility Score: inf
ROOT
ATOM      1  C   UNL A   1      36.791  20.460  24.971  1.00  0.00     0.117 C 
ENDROOT
BRANCH   1   2
ATOM      2  N   UNL A   1      35.533  19.730  24.972  1.00  0.00    -0.354 N 
ATOM      3  C   UNL A   1      34.220  20.091  25.038  1.00  0.00     0.245 C 
ATOM      4  O   UNL A   1      33.427  19.150  24.909  1.00  0.00    -0.272 OA
ATOM      5  H   UNL A   1      35.658  18.755  24.910  1.00  0.00     0.163 HD
BRANCH   3   6
ATOM      6  C   UNL A   1      33.718  21.566  25.148  1.00  0.00     0.117 C 
ATOM      7  C   UNL A   1      32.167  21.481  25.248  1.00  0.00     0.045 C 
BRANCH   6   8
ATOM      8  C   UNL A   1      34.189  22.326  26.433  1.00  0.00     0.035 C 
ATOM      9  C   UNL A   1      33.205  22.420  27.599  1.00  0.00     0.007 C 
ENDBRANCH   6   8
BRANCH   6  10
ATOM     10  N   UNL A   1      34.046  22.418  23.971  1.00  0.00    -0.324 N 
ATOM     11  C   UNL A   1      33.730  23.625  23.455  1.00  0.00     0.318 C 
ATOM     12  H   UNL A   1      34.693  21.957  23.390  1.00  0.00     0.166 HD
ATOM     13  O   UNL A   1      33.979  23.725  22.250  1.00  0.00    -0.249 OA
BRANCH  11  14
ATOM     14  N   UNL A   1      33.312  24.694  24.199  1.00  0.00    -0.325 N 
ATOM     15  C   UNL A   1      34.148  25.537  25.036  1.00  0.00     0.149 C 
BRANCH  14  16
ATOM     16  C   UNL A   1      31.864  25.076  24.202  1.00  0.00     0.086 C 
ATOM     17  C   UNL A   1      31.176  24.951  25.580  1.00  0.00     0.031 C 
BRANCH  16  18
ATOM     18  C   UNL A   1      31.550  26.471  23.584  1.00  0.00     0.005 C 
ATOM     19  C   UNL A   1      31.656  26.525  22.059  1.00  0.00     0.009 C 
ATOM     20  C   UNL A   1      30.131  26.918  23.979  1.00  0.00     0.009 C 
ENDBRANCH  16  18
ENDBRANCH  14  16
ENDBRANCH  11  14
ENDBRANCH   6  10
ENDBRANCH   3   6
ENDBRANCH   1   2
BRANCH   1  21
ATOM     21  C   UNL A   1      38.037  19.587  25.008  1.00  0.00     0.042 C 
BRANCH  21  22
ATOM     22  C   UNL A   1      39.238  20.174  25.745  1.00  0.00     0.118 C 
BRANCH  22  23
ATOM     23  N   UNL A   1      40.309  19.212  25.930  1.00  0.00    -0.352 N 
ATOM     24  C   UNL A   1      41.658  19.405  26.115  1.00  0.00     0.251 C 
ATOM     25  H   UNL A   1      40.025  18.270  25.922  1.00  0.00     0.163 HD
ATOM     26  O   UNL A   1      42.404  18.430  26.052  1.00  0.00    -0.269 OA
BRANCH  24  27
ATOM     27  C   UNL A   1      42.235  20.751  26.368  1.00  0.00     0.039 A 
ATOM     28  C   UNL A   1      42.354  21.181  27.694  1.00  0.00     0.014 A 
ATOM     29  C   UNL A   1      42.573  21.627  25.332  1.00  0.00     0.014 A 
ATOM     30  C   UNL A   1      42.851  22.459  27.983  1.00  0.00     0.010 A 
ATOM     31  C   UNL A   1      43.123  22.881  25.622  1.00  0.00     0.010 A 
ATOM     32  C   UNL A   1      43.265  23.314  26.950  1.00  0.00    -0.014 A 
BRANCH  32  33
ATOM     33  C   UNL A   1      43.837  24.659  27.241  1.00  0.00     0.031 A 
ATOM     34  C   UNL A   1      42.945  25.792  27.682  1.00  0.00     0.074 A 
ATOM     35  C   UNL A   1      45.155  24.885  27.062  1.00  0.00     0.049 A 
ATOM     36  N   UNL A   1      43.244  27.051  27.878  1.00  0.00    -0.248 NA
ATOM     37  C   UNL A   1      41.530  25.468  27.917  1.00  0.00     0.031 C 
ATOM     38  C   UNL A   1      46.131  23.885  26.629  1.00  0.00     0.029 A 
ATOM     39  N   UNL A   1      45.898  26.032  27.208  1.00  0.00    -0.354 N 
ATOM     40  C   UNL A   1      42.054  27.674  28.241  1.00  0.00     0.074 A 
ATOM     41  C   UNL A   1      41.023  26.659  28.206  1.00  0.00     0.031 C 
ATOM     42  C   UNL A   1      47.343  24.459  26.550  1.00  0.00     0.029 A 
ATOM     43  C   UNL A   1      47.225  25.876  26.883  1.00  0.00     0.049 A 
ATOM     44  H   UNL A   1      45.516  26.885  27.516  1.00  0.00     0.167 HD
ATOM     45  C   UNL A   1      41.842  28.969  28.582  1.00  0.00     0.037 A 
ATOM     46  C   UNL A   1      48.233  26.772  26.837  1.00  0.00     0.037 A 
ATOM     47  C   UNL A   1      42.872  29.975  28.644  1.00  0.00     0.049 A 
ATOM     48  C   UNL A   1      47.968  28.208  27.201  1.00  0.00     0.074 A 
ATOM     49  C   UNL A   1      42.753  31.303  29.022  1.00  0.00     0.029 A 
ATOM     50  N   UNL A   1      44.204  29.770  28.323  1.00  0.00    -0.354 N 
ATOM     51  N   UNL A   1      46.844  28.771  27.572  1.00  0.00    -0.248 NA
ATOM     52  C   UNL A   1      49.110  29.134  27.138  1.00  0.00     0.031 C 
ATOM     53  C   UNL A   1      44.007  31.910  28.890  1.00  0.00     0.029 A 
ATOM     54  C   UNL A   1      44.916  30.950  28.476  1.00  0.00     0.049 A 
ATOM     55  H   UNL A   1      44.589  28.913  28.027  1.00  0.00     0.167 HD
ATOM     56  C   UNL A   1      47.149  30.104  27.821  1.00  0.00     0.074 A 
ATOM     57  C   UNL A   1      48.563  30.268  27.557  1.00  0.00     0.031 C 
ATOM     58  C   UNL A   1      46.329  31.101  28.236  1.00  0.00     0.037 A 
BRANCH  45  59
ATOM     59  C   UNL A   1      40.433  29.383  28.914  1.00  0.00     0.058 A 
ATOM     60  C   UNL A   1      39.473  29.595  27.912  1.00  0.00     0.135 A 
ATOM     61  C   UNL A   1      40.026  29.520  30.251  1.00  0.00     0.135 A 
ATOM     62  F   UNL A   1      39.811  29.487  26.617  1.00  0.00    -0.206 F 
ATOM     63  C   UNL A   1      38.166  29.959  28.223  1.00  0.00     0.059 A 
ATOM     64  C   UNL A   1      38.718  29.857  30.586  1.00  0.00     0.059 A 
ATOM     65  F   UNL A   1      40.903  29.323  31.248  1.00  0.00    -0.206 F 
ATOM     66  C   UNL A   1      37.799  30.090  29.564  1.00  0.00     0.060 A 
BRANCH  66  67
ATOM     67  S   UNL A   1      36.101  30.565  29.952  1.00  0.00     0.124 S 
ATOM     68  O   UNL A   1      35.979  30.103  31.331  1.00  0.00    -0.237 OA
ATOM     69  O   UNL A   1      36.129  32.011  29.769  1.00  0.00    -0.237 OA
ATOM     70  O   UNL A   1      35.310  29.828  28.971  1.00  0.00    -0.744 OA
ENDBRANCH  66  67
ENDBRANCH  45  59
BRANCH  46  71
ATOM     71  C   UNL A   1      49.594  26.331  26.433  1.00  0.00     0.058 A 
ATOM     72  C   UNL A   1      50.034  26.469  25.109  1.00  0.00     0.135 A 
ATOM     73  C   UNL A   1      50.484  25.773  27.364  1.00  0.00     0.135 A 
ATOM     74  F   UNL A   1      49.215  26.987  24.181  1.00  0.00    -0.206 F 
ATOM     75  C   UNL A   1      51.304  26.061  24.717  1.00  0.00     0.059 A 
ATOM     76  C   UNL A   1      51.770  25.380  27.002  1.00  0.00     0.059 A 
ATOM     77  F   UNL A   1      50.115  25.630  28.646  1.00  0.00    -0.206 F 
ATOM     78  C   UNL A   1      52.166  25.519  25.672  1.00  0.00     0.060 A 
BRANCH  78  79
ATOM     79  S   UNL A   1      53.832  25.039  25.163  1.00  0.00     0.124 S 
ATOM     80  O   UNL A   1      54.598  25.318  26.372  1.00  0.00    -0.237 OA
ATOM     81  O   UNL A   1      53.657  23.628  24.829  1.00  0.00    -0.237 OA
ATOM     82  O   UNL A   1      54.101  25.914  24.027  1.00  0.00    -0.744 OA
ENDBRANCH  78  79
ENDBRANCH  46  71
BRANCH  58  83
ATOM     83  C   UNL A   1      46.935  32.453  28.486  1.00  0.00     0.058 A 
ATOM     84  C   UNL A   1      47.524  32.786  29.715  1.00  0.00     0.135 A 
ATOM     85  C   UNL A   1      47.002  33.399  27.450  1.00  0.00     0.135 A 
ATOM     86  F   UNL A   1      47.481  31.920  30.741  1.00  0.00    -0.206 F 
ATOM     87  C   UNL A   1      48.155  34.011  29.911  1.00  0.00     0.059 A 
ATOM     88  C   UNL A   1      47.646  34.622  27.616  1.00  0.00     0.059 A 
ATOM     89  F   UNL A   1      46.460  33.129  26.252  1.00  0.00    -0.206 F 
ATOM     90  C   UNL A   1      48.216  34.920  28.853  1.00  0.00     0.060 A 
BRANCH  90  91
ATOM     91  S   UNL A   1      49.096  36.479  29.098  1.00  0.00     0.124 S 
ATOM     92  O   UNL A   1      50.475  36.083  28.834  1.00  0.00    -0.237 OA
ATOM     93  O   UNL A   1      48.483  37.346  28.097  1.00  0.00    -0.237 OA
ATOM     94  O   UNL A   1      48.797  36.823  30.485  1.00  0.00    -0.744 OA
ENDBRANCH  90  91
ENDBRANCH  58  83
ENDBRANCH  32  33
ENDBRANCH  24  27
ENDBRANCH  22  23
ENDBRANCH  21  22
ENDBRANCH   1  21
TORSDOF 18
ENDMDL
