MODEL 1
REMARK VINA RESULT:     -11.2      0.000      0.000
REMARK SMILES CC(C)c1ccc(OCC[C@H]2CCC[C@@]2([NH3+])C(=O)NCCCNC(=O)c2ccc(-c3c4nc(c(-c5c(F)cc(S(=O)(=O)[O-])cc5F)c5ccc([nH]5)c(-c5c(F)cc(S(=O)(=O)[O-])cc5F)c5nc(c(-c6c(F)cc(S(=O)(=O)[O-])cc6F)c6ccc3[nH]6)C=C5)C=C4)cc2)cc1
REMARK SMILES IDX 20 1 19 2 17 3 18 4 15 6 11 7 12 8 13 9 14 10 10 11 9 12
REMARK SMILES IDX 8 13 7 14 4 15 5 16 93 17 6 18 92 19 2 20 1 21 3 22 16 23
REMARK SMILES IDX 21 27 22 28 23 29 24 30 25 32 26 33 27 34 91 35 28 36 90 37
REMARK SMILES IDX 29 38 30 39 31 40 84 41 32 42 89 43 83 44 85 45 33 46 88 47
REMARK SMILES IDX 82 48 81 49 34 51 68 52 47 53 67 54 48 55 51 56 66 57 86 58
REMARK SMILES IDX 49 59 50 60 65 62 87 63 52 64 35 65 36 66 45 67 37 68 38 69
REMARK SMILES IDX 44 70 46 71 39 72 40 73 41 74 42 75 43 76 69 77 70 78 79 79
REMARK SMILES IDX 71 80 72 81 78 82 80 83 73 84 74 85 75 86 76 87 77 88 53 89
REMARK SMILES IDX 54 90 63 91 55 92 56 93 62 94 64 95 57 96 58 97 59 98 60 99
REMARK SMILES IDX 61 100
REMARK H PARENT 19 5 16 24 16 25 16 26 23 31 85 50 51 61
REMARK Flexibility Score: inf
ROOT
ATOM      1  C   UNL A   1      37.077  20.764  24.680  1.00  0.00     0.118 C 
ENDROOT
BRANCH   1   2
ATOM      2  N   UNL A   1      35.788  20.432  25.267  1.00  0.00    -0.351 N 
ATOM      3  C   UNL A   1      34.767  21.236  25.696  1.00  0.00     0.281 C 
ATOM      4  O   UNL A   1      33.777  20.659  26.160  1.00  0.00    -0.268 OA
ATOM      5  H   UNL A   1      35.622  19.468  25.375  1.00  0.00     0.163 HD
BRANCH   3   6
ATOM      6  C   UNL A   1      34.859  22.791  25.685  1.00  0.00     0.176 C 
ATOM      7  C   UNL A   1      34.882  23.518  24.299  1.00  0.00     0.064 C 
ATOM      8  C   UNL A   1      34.642  24.961  24.754  1.00  0.00     0.011 C 
ATOM      9  C   UNL A   1      33.713  24.873  25.983  1.00  0.00     0.008 C 
ATOM     10  C   UNL A   1      33.600  23.388  26.317  1.00  0.00     0.079 C 
BRANCH   7  11
ATOM     11  C   UNL A   1      33.949  23.063  23.123  1.00  0.00     0.052 C 
BRANCH  11  12
ATOM     12  C   UNL A   1      33.034  24.039  22.329  1.00  0.00     0.230 C 
BRANCH  12  13
ATOM     13  O   UNL A   1      31.658  24.111  22.780  1.00  0.00    -0.494 OA
BRANCH  13  14
ATOM     14  C   UNL A   1      31.214  25.268  23.362  1.00  0.00     0.119 A 
ATOM     15  C   UNL A   1      31.285  27.540  25.000  1.00  0.00    -0.045 A 
ATOM     16  C   UNL A   1      31.797  27.591  23.694  1.00  0.00     0.008 A 
ATOM     17  C   UNL A   1      30.456  26.457  25.317  1.00  0.00     0.008 A 
ATOM     18  C   UNL A   1      31.764  26.453  22.878  1.00  0.00     0.047 A 
ATOM     19  C   UNL A   1      30.391  25.335  24.476  1.00  0.00     0.047 A 
BRANCH  15  20
ATOM     20  C   UNL A   1      31.839  28.492  26.059  1.00  0.00     0.013 C 
ATOM     21  C   UNL A   1      31.630  28.017  27.496  1.00  0.00     0.012 C 
ATOM     22  C   UNL A   1      33.297  28.933  25.858  1.00  0.00     0.012 C 
ENDBRANCH  15  20
ENDBRANCH  13  14
ENDBRANCH  12  13
ENDBRANCH  11  12
ENDBRANCH   7  11
BRANCH   6  23
ATOM     23  N   UNL A   1      36.020  23.289  26.479  1.00  0.00    -0.345 N 
ATOM     24  H   UNL A   1      35.842  24.247  26.778  1.00  0.00     0.345 HD
ATOM     25  H   UNL A   1      36.862  23.263  25.902  1.00  0.00     0.345 HD
ATOM     26  H   UNL A   1      36.152  22.695  27.298  1.00  0.00     0.345 HD
ENDBRANCH   6  23
ENDBRANCH   3   6
ENDBRANCH   1   2
BRANCH   1  27
ATOM     27  C   UNL A   1      38.165  19.738  25.009  1.00  0.00     0.042 C 
BRANCH  27  28
ATOM     28  C   UNL A   1      39.335  20.343  25.768  1.00  0.00     0.118 C 
BRANCH  28  29
ATOM     29  N   UNL A   1      40.340  19.333  26.068  1.00  0.00    -0.352 N 
ATOM     30  C   UNL A   1      41.703  19.458  26.093  1.00  0.00     0.251 C 
ATOM     31  H   UNL A   1      39.991  18.437  26.282  1.00  0.00     0.163 HD
ATOM     32  O   UNL A   1      42.410  18.474  25.912  1.00  0.00    -0.269 OA
BRANCH  30  33
ATOM     33  C   UNL A   1      42.300  20.774  26.387  1.00  0.00     0.039 A 
ATOM     34  C   UNL A   1      42.504  21.158  27.713  1.00  0.00     0.014 A 
ATOM     35  C   UNL A   1      42.589  21.657  25.340  1.00  0.00     0.014 A 
ATOM     36  C   UNL A   1      43.020  22.424  27.986  1.00  0.00     0.010 A 
ATOM     37  C   UNL A   1      43.191  22.874  25.609  1.00  0.00     0.010 A 
ATOM     38  C   UNL A   1      43.380  23.282  26.934  1.00  0.00    -0.014 A 
BRANCH  38  39
ATOM     39  C   UNL A   1      43.926  24.633  27.189  1.00  0.00     0.031 A 
ATOM     40  C   UNL A   1      43.001  25.737  27.623  1.00  0.00     0.074 A 
ATOM     41  C   UNL A   1      45.229  24.871  26.955  1.00  0.00     0.049 A 
ATOM     42  N   UNL A   1      43.261  27.004  27.813  1.00  0.00    -0.248 NA
ATOM     43  C   UNL A   1      41.588  25.378  27.837  1.00  0.00     0.031 C 
ATOM     44  C   UNL A   1      46.198  23.880  26.479  1.00  0.00     0.029 A 
ATOM     45  N   UNL A   1      45.961  26.022  27.073  1.00  0.00    -0.354 N 
ATOM     46  C   UNL A   1      42.047  27.592  28.150  1.00  0.00     0.074 A 
ATOM     47  C   UNL A   1      41.039  26.559  28.077  1.00  0.00     0.031 C 
ATOM     48  C   UNL A   1      47.403  24.460  26.371  1.00  0.00     0.029 A 
ATOM     49  C   UNL A   1      47.283  25.870  26.726  1.00  0.00     0.049 A 
ATOM     50  H   UNL A   1      45.579  26.876  27.376  1.00  0.00     0.167 HD
ATOM     51  C   UNL A   1      41.803  28.873  28.513  1.00  0.00     0.037 A 
ATOM     52  C   UNL A   1      48.281  26.773  26.692  1.00  0.00     0.037 A 
ATOM     53  C   UNL A   1      42.826  29.880  28.604  1.00  0.00     0.049 A 
ATOM     54  C   UNL A   1      47.987  28.188  27.103  1.00  0.00     0.074 A 
ATOM     55  C   UNL A   1      42.707  31.194  29.019  1.00  0.00     0.029 A 
ATOM     56  N   UNL A   1      44.160  29.683  28.272  1.00  0.00    -0.354 N 
ATOM     57  N   UNL A   1      46.847  28.717  27.485  1.00  0.00    -0.248 NA
ATOM     58  C   UNL A   1      49.112  29.131  27.088  1.00  0.00     0.031 C 
ATOM     59  C   UNL A   1      43.958  31.806  28.889  1.00  0.00     0.029 A 
ATOM     60  C   UNL A   1      44.870  30.858  28.450  1.00  0.00     0.049 A 
ATOM     61  H   UNL A   1      44.544  28.833  27.956  1.00  0.00     0.167 HD
ATOM     62  C   UNL A   1      47.125  30.045  27.784  1.00  0.00     0.074 A 
ATOM     63  C   UNL A   1      48.542  30.236  27.549  1.00  0.00     0.031 C 
ATOM     64  C   UNL A   1      46.285  31.020  28.216  1.00  0.00     0.037 A 
BRANCH  51  65
ATOM     65  C   UNL A   1      40.382  29.250  28.841  1.00  0.00     0.058 A 
ATOM     66  C   UNL A   1      39.937  29.376  30.167  1.00  0.00     0.135 A 
ATOM     67  C   UNL A   1      39.459  29.512  27.817  1.00  0.00     0.135 A 
ATOM     68  F   UNL A   1      40.771  29.121  31.189  1.00  0.00    -0.206 F 
ATOM     69  C   UNL A   1      38.622  29.714  30.466  1.00  0.00     0.059 A 
ATOM     70  C   UNL A   1      38.146  29.884  28.092  1.00  0.00     0.059 A 
ATOM     71  F   UNL A   1      39.828  29.405  26.530  1.00  0.00    -0.206 F 
ATOM     72  C   UNL A   1      37.733  29.967  29.420  1.00  0.00     0.060 A 
BRANCH  72  73
ATOM     73  S   UNL A   1      36.031  30.411  29.826  1.00  0.00     0.124 S 
ATOM     74  O   UNL A   1      35.911  29.891  31.185  1.00  0.00    -0.237 OA
ATOM     75  O   UNL A   1      36.050  31.865  29.703  1.00  0.00    -0.237 OA
ATOM     76  O   UNL A   1      35.245  29.709  28.815  1.00  0.00    -0.744 OA
ENDBRANCH  72  73
ENDBRANCH  51  65
BRANCH  52  77
ATOM     77  C   UNL A   1      49.645  26.352  26.281  1.00  0.00     0.058 A 
ATOM     78  C   UNL A   1      50.137  26.651  25.001  1.00  0.00     0.135 A 
ATOM     79  C   UNL A   1      50.498  25.672  27.165  1.00  0.00     0.135 A 
ATOM     80  F   UNL A   1      49.361  27.299  24.120  1.00  0.00    -0.206 F 
ATOM     81  C   UNL A   1      51.416  26.275  24.605  1.00  0.00     0.059 A 
ATOM     82  C   UNL A   1      51.791  25.309  26.802  1.00  0.00     0.059 A 
ATOM     83  F   UNL A   1      50.084  25.382  28.409  1.00  0.00    -0.206 F 
ATOM     84  C   UNL A   1      52.237  25.606  25.516  1.00  0.00     0.060 A 
BRANCH  84  85
ATOM     85  S   UNL A   1      53.913  25.165  25.006  1.00  0.00     0.124 S 
ATOM     86  O   UNL A   1      53.826  23.711  24.938  1.00  0.00    -0.237 OA
ATOM     87  O   UNL A   1      54.036  25.859  23.728  1.00  0.00    -0.237 OA
ATOM     88  O   UNL A   1      54.742  25.699  26.083  1.00  0.00    -0.744 OA
ENDBRANCH  84  85
ENDBRANCH  52  77
BRANCH  64  89
ATOM     89  C   UNL A   1      46.883  32.369  28.500  1.00  0.00     0.058 A 
ATOM     90  C   UNL A   1      46.932  33.376  27.525  1.00  0.00     0.135 A 
ATOM     91  C   UNL A   1      47.360  32.674  29.786  1.00  0.00     0.135 A 
ATOM     92  F   UNL A   1      46.496  33.134  26.280  1.00  0.00    -0.206 F 
ATOM     93  C   UNL A   1      47.457  34.633  27.808  1.00  0.00     0.059 A 
ATOM     94  C   UNL A   1      47.859  33.933  30.099  1.00  0.00     0.059 A 
ATOM     95  F   UNL A   1      47.325  31.748  30.758  1.00  0.00    -0.206 F 
ATOM     96  C   UNL A   1      47.914  34.903  29.099  1.00  0.00     0.060 A 
BRANCH  96  97
ATOM     97  S   UNL A   1      48.556  36.550  29.462  1.00  0.00     0.124 S 
ATOM     98  O   UNL A   1      49.131  36.931  28.176  1.00  0.00    -0.237 OA
ATOM     99  O   UNL A   1      47.351  37.273  29.857  1.00  0.00    -0.237 OA
ATOM    100  O   UNL A   1      49.517  36.312  30.535  1.00  0.00    -0.744 OA
ENDBRANCH  96  97
ENDBRANCH  64  89
ENDBRANCH  38  39
ENDBRANCH  30  33
ENDBRANCH  28  29
ENDBRANCH  27  28
ENDBRANCH   1  27
TORSDOF 19
ENDMDL
MODEL 2
REMARK VINA RESULT:     -11.2      3.401      7.716
REMARK SMILES CC(C)c1ccc(OCC[C@H]2CCC[C@@]2([NH3+])C(=O)NCCCNC(=O)c2ccc(-c3c4nc(c(-c5c(F)cc(S(=O)(=O)[O-])cc5F)c5ccc([nH]5)c(-c5c(F)cc(S(=O)(=O)[O-])cc5F)c5nc(c(-c6c(F)cc(S(=O)(=O)[O-])cc6F)c6ccc3[nH]6)C=C5)C=C4)cc2)cc1
REMARK SMILES IDX 20 1 19 2 17 3 18 4 15 6 11 7 12 8 13 9 14 10 10 11 9 12
REMARK SMILES IDX 8 13 7 14 4 15 5 16 93 17 6 18 92 19 2 20 1 21 3 22 16 23
REMARK SMILES IDX 21 27 22 28 23 29 24 30 25 32 26 33 27 34 91 35 28 36 90 37
REMARK SMILES IDX 29 38 30 39 31 40 84 41 32 42 89 43 83 44 85 45 33 46 88 47
REMARK SMILES IDX 82 48 81 49 34 51 68 52 47 53 67 54 48 55 51 56 66 57 86 58
REMARK SMILES IDX 49 59 50 60 65 62 87 63 52 64 35 65 36 66 45 67 37 68 38 69
REMARK SMILES IDX 44 70 46 71 39 72 40 73 41 74 42 75 43 76 69 77 70 78 79 79
REMARK SMILES IDX 71 80 72 81 78 82 80 83 73 84 74 85 75 86 76 87 77 88 53 89
REMARK SMILES IDX 54 90 63 91 55 92 56 93 62 94 64 95 57 96 58 97 59 98 60 99
REMARK SMILES IDX 61 100
REMARK H PARENT 19 5 16 24 16 25 16 26 23 31 85 50 51 61
REMARK Flexibility Score: inf
ROOT
ATOM      1  C   UNL A   1      33.773  25.969  25.507  1.00  0.00     0.118 C 
ENDROOT
BRANCH   1   2
ATOM      2  N   UNL A   1      33.825  25.482  24.137  1.00  0.00    -0.351 N 
ATOM      3  C   UNL A   1      34.483  24.412  23.593  1.00  0.00     0.281 C 
ATOM      4  O   UNL A   1      34.339  24.245  22.377  1.00  0.00    -0.268 OA
ATOM      5  H   UNL A   1      33.300  26.010  23.494  1.00  0.00     0.163 HD
BRANCH   3   6
ATOM      6  C   UNL A   1      35.429  23.495  24.423  1.00  0.00     0.176 C 
ATOM      7  C   UNL A   1      34.805  22.251  25.141  1.00  0.00     0.064 C 
ATOM      8  C   UNL A   1      36.085  21.499  25.522  1.00  0.00     0.011 C 
ATOM      9  C   UNL A   1      37.098  21.777  24.392  1.00  0.00     0.008 C 
ATOM     10  C   UNL A   1      36.447  22.829  23.497  1.00  0.00     0.079 C 
BRANCH   7  11
ATOM     11  C   UNL A   1      33.731  21.354  24.434  1.00  0.00     0.052 C 
BRANCH  11  12
ATOM     12  C   UNL A   1      32.199  21.535  24.633  1.00  0.00     0.230 C 
BRANCH  12  13
ATOM     13  O   UNL A   1      31.808  22.539  25.603  1.00  0.00    -0.494 OA
BRANCH  13  14
ATOM     14  C   UNL A   1      30.948  23.531  25.216  1.00  0.00     0.119 A 
ATOM     15  C   UNL A   1      30.144  26.005  24.175  1.00  0.00    -0.045 A 
ATOM     16  C   UNL A   1      30.339  24.907  23.323  1.00  0.00     0.008 A 
ATOM     17  C   UNL A   1      30.033  25.737  25.544  1.00  0.00     0.008 A 
ATOM     18  C   UNL A   1      30.745  23.672  23.845  1.00  0.00     0.047 A 
ATOM     19  C   UNL A   1      30.399  24.483  26.061  1.00  0.00     0.047 A 
BRANCH  15  20
ATOM     20  C   UNL A   1      30.314  27.420  23.622  1.00  0.00     0.013 C 
ATOM     21  C   UNL A   1      31.353  27.534  22.509  1.00  0.00     0.012 C 
ATOM     22  C   UNL A   1      29.017  28.130  23.206  1.00  0.00     0.012 C 
ENDBRANCH  15  20
ENDBRANCH  13  14
ENDBRANCH  12  13
ENDBRANCH  11  12
ENDBRANCH   7  11
BRANCH   6  23
ATOM     23  N   UNL A   1      36.205  24.264  25.439  1.00  0.00    -0.345 N 
ATOM     24  H   UNL A   1      36.349  25.217  25.107  1.00  0.00     0.345 HD
ATOM     25  H   UNL A   1      37.110  23.815  25.588  1.00  0.00     0.345 HD
ATOM     26  H   UNL A   1      35.689  24.283  26.319  1.00  0.00     0.345 HD
ENDBRANCH   6  23
ENDBRANCH   3   6
ENDBRANCH   1   2
BRANCH   1  27
ATOM     27  C   UNL A   1      33.830  27.496  25.601  1.00  0.00     0.042 C 
BRANCH  27  28
ATOM     28  C   UNL A   1      33.682  28.005  27.025  1.00  0.00     0.118 C 
BRANCH  28  29
ATOM     29  N   UNL A   1      33.628  29.459  27.057  1.00  0.00    -0.352 N 
ATOM     30  C   UNL A   1      34.425  30.335  27.744  1.00  0.00     0.251 C 
ATOM     31  H   UNL A   1      32.921  29.869  26.507  1.00  0.00     0.163 HD
ATOM     32  O   UNL A   1      34.001  31.447  28.035  1.00  0.00    -0.269 OA
BRANCH  30  33
ATOM     33  C   UNL A   1      35.804  29.938  28.084  1.00  0.00     0.039 A 
ATOM     34  C   UNL A   1      36.101  29.523  29.383  1.00  0.00     0.014 A 
ATOM     35  C   UNL A   1      36.818  30.049  27.125  1.00  0.00     0.014 A 
ATOM     36  C   UNL A   1      37.417  29.199  29.712  1.00  0.00     0.010 A 
ATOM     37  C   UNL A   1      38.103  29.635  27.427  1.00  0.00     0.010 A 
ATOM     38  C   UNL A   1      38.421  29.239  28.731  1.00  0.00    -0.014 A 
BRANCH  38  39
ATOM     39  C   UNL A   1      39.827  28.906  29.048  1.00  0.00     0.031 A 
ATOM     40  C   UNL A   1      40.717  29.952  29.660  1.00  0.00     0.074 A 
ATOM     41  C   UNL A   1      40.307  27.695  28.715  1.00  0.00     0.049 A 
ATOM     42  N   UNL A   1      41.995  29.892  29.932  1.00  0.00    -0.248 NA
ATOM     43  C   UNL A   1      40.100  31.253  29.974  1.00  0.00     0.031 C 
ATOM     44  C   UNL A   1      39.538  26.628  28.067  1.00  0.00     0.029 A 
ATOM     45  N   UNL A   1      41.559  27.159  28.861  1.00  0.00    -0.354 N 
ATOM     46  C   UNL A   1      42.334  31.145  30.430  1.00  0.00     0.074 A 
ATOM     47  C   UNL A   1      41.146  31.965  30.364  1.00  0.00     0.031 C 
ATOM     48  C   UNL A   1      40.328  25.557  27.896  1.00  0.00     0.029 A 
ATOM     49  C   UNL A   1      41.668  25.876  28.380  1.00  0.00     0.049 A 
ATOM     50  H   UNL A   1      42.310  27.646  29.271  1.00  0.00     0.167 HD
ATOM     51  C   UNL A   1      43.524  31.561  30.924  1.00  0.00     0.037 A 
ATOM     52  C   UNL A   1      42.733  25.054  28.330  1.00  0.00     0.037 A 
ATOM     53  C   UNL A   1      44.688  30.719  31.004  1.00  0.00     0.049 A 
ATOM     54  C   UNL A   1      44.043  25.538  28.886  1.00  0.00     0.074 A 
ATOM     55  C   UNL A   1      45.928  31.014  31.539  1.00  0.00     0.029 A 
ATOM     56  N   UNL A   1      44.753  29.415  30.532  1.00  0.00    -0.354 N 
ATOM     57  N   UNL A   1      44.334  26.703  29.417  1.00  0.00    -0.248 NA
ATOM     58  C   UNL A   1      45.169  24.597  28.846  1.00  0.00     0.031 C 
ATOM     59  C   UNL A   1      46.760  29.906  31.345  1.00  0.00     0.029 A 
ATOM     60  C   UNL A   1      46.021  28.899  30.743  1.00  0.00     0.049 A 
ATOM     61  H   UNL A   1      44.008  28.929  30.110  1.00  0.00     0.167 HD
ATOM     62  C   UNL A   1      45.667  26.624  29.802  1.00  0.00     0.074 A 
ATOM     63  C   UNL A   1      46.121  25.293  29.452  1.00  0.00     0.031 C 
ATOM     64  C   UNL A   1      46.446  27.566  30.392  1.00  0.00     0.037 A 
BRANCH  51  65
ATOM     65  C   UNL A   1      43.620  32.982  31.414  1.00  0.00     0.058 A 
ATOM     66  C   UNL A   1      43.230  33.344  32.714  1.00  0.00     0.135 A 
ATOM     67  C   UNL A   1      44.130  33.991  30.583  1.00  0.00     0.135 A 
ATOM     68  F   UNL A   1      42.718  32.424  33.549  1.00  0.00    -0.206 F 
ATOM     69  C   UNL A   1      43.311  34.659  33.160  1.00  0.00     0.059 A 
ATOM     70  C   UNL A   1      44.251  35.307  31.019  1.00  0.00     0.059 A 
ATOM     71  F   UNL A   1      44.517  33.704  29.329  1.00  0.00    -0.206 F 
ATOM     72  C   UNL A   1      43.824  35.634  32.304  1.00  0.00     0.060 A 
BRANCH  72  73
ATOM     73  S   UNL A   1      43.927  37.335  32.902  1.00  0.00     0.124 S 
ATOM     74  O   UNL A   1      42.841  37.366  33.877  1.00  0.00    -0.237 OA
ATOM     75  O   UNL A   1      45.277  37.390  33.453  1.00  0.00    -0.237 OA
ATOM     76  O   UNL A   1      43.711  38.133  31.699  1.00  0.00    -0.744 OA
ENDBRANCH  72  73
ENDBRANCH  51  65
BRANCH  52  77
ATOM     77  C   UNL A   1      42.589  23.690  27.758  1.00  0.00     0.058 A 
ATOM     78  C   UNL A   1      42.657  23.479  26.373  1.00  0.00     0.135 A 
ATOM     79  C   UNL A   1      42.413  22.568  28.582  1.00  0.00     0.135 A 
ATOM     80  F   UNL A   1      42.824  24.520  25.543  1.00  0.00    -0.206 F 
ATOM     81  C   UNL A   1      42.537  22.207  25.823  1.00  0.00     0.059 A 
ATOM     82  C   UNL A   1      42.318  21.283  28.058  1.00  0.00     0.059 A 
ATOM     83  F   UNL A   1      42.365  22.713  29.916  1.00  0.00    -0.206 F 
ATOM     84  C   UNL A   1      42.371  21.114  26.676  1.00  0.00     0.060 A 
BRANCH  84  85
ATOM     85  S   UNL A   1      42.263  19.462  25.952  1.00  0.00     0.124 S 
ATOM     86  O   UNL A   1      40.839  19.364  25.655  1.00  0.00    -0.237 OA
ATOM     87  O   UNL A   1      43.151  19.576  24.799  1.00  0.00    -0.237 OA
ATOM     88  O   UNL A   1      42.747  18.596  27.023  1.00  0.00    -0.744 OA
ENDBRANCH  84  85
ENDBRANCH  52  77
BRANCH  64  89
ATOM     89  C   UNL A   1      47.857  27.178  30.733  1.00  0.00     0.058 A 
ATOM     90  C   UNL A   1      48.179  26.556  31.949  1.00  0.00     0.135 A 
ATOM     91  C   UNL A   1      48.890  27.380  29.804  1.00  0.00     0.135 A 
ATOM     92  F   UNL A   1      47.230  26.347  32.874  1.00  0.00    -0.206 F 
ATOM     93  C   UNL A   1      49.483  26.170  32.242  1.00  0.00     0.059 A 
ATOM     94  C   UNL A   1      50.194  26.972  30.062  1.00  0.00     0.059 A 
ATOM     95  F   UNL A   1      48.633  27.961  28.621  1.00  0.00    -0.206 F 
ATOM     96  C   UNL A   1      50.483  26.379  31.290  1.00  0.00     0.060 A 
BRANCH  96  97
ATOM     97  S   UNL A   1      52.162  25.837  31.668  1.00  0.00     0.124 S 
ATOM     98  O   UNL A   1      52.827  26.023  30.382  1.00  0.00    -0.237 OA
ATOM     99  O   UNL A   1      52.557  26.762  32.725  1.00  0.00    -0.237 OA
ATOM    100  O   UNL A   1      51.987  24.451  32.090  1.00  0.00    -0.744 OA
ENDBRANCH  96  97
ENDBRANCH  64  89
ENDBRANCH  38  39
ENDBRANCH  30  33
ENDBRANCH  28  29
ENDBRANCH  27  28
ENDBRANCH   1  27
TORSDOF 19
ENDMDL
MODEL 3
REMARK VINA RESULT:     -10.9      0.680      8.222
REMARK SMILES CC(C)c1ccc(OCC[C@H]2CCC[C@@]2([NH3+])C(=O)NCCCNC(=O)c2ccc(-c3c4nc(c(-c5c(F)cc(S(=O)(=O)[O-])cc5F)c5ccc([nH]5)c(-c5c(F)cc(S(=O)(=O)[O-])cc5F)c5nc(c(-c6c(F)cc(S(=O)(=O)[O-])cc6F)c6ccc3[nH]6)C=C5)C=C4)cc2)cc1
REMARK SMILES IDX 20 1 19 2 17 3 18 4 15 6 11 7 12 8 13 9 14 10 10 11 9 12
REMARK SMILES IDX 8 13 7 14 4 15 5 16 93 17 6 18 92 19 2 20 1 21 3 22 16 23
REMARK SMILES IDX 21 27 22 28 23 29 24 30 25 32 26 33 27 34 91 35 28 36 90 37
REMARK SMILES IDX 29 38 30 39 31 40 84 41 32 42 89 43 83 44 85 45 33 46 88 47
REMARK SMILES IDX 82 48 81 49 34 51 68 52 47 53 67 54 48 55 51 56 66 57 86 58
REMARK SMILES IDX 49 59 50 60 65 62 87 63 52 64 35 65 36 66 45 67 37 68 38 69
REMARK SMILES IDX 44 70 46 71 39 72 40 73 41 74 42 75 43 76 69 77 70 78 79 79
REMARK SMILES IDX 71 80 72 81 78 82 80 83 73 84 74 85 75 86 76 87 77 88 53 89
REMARK SMILES IDX 54 90 63 91 55 92 56 93 62 94 64 95 57 96 58 97 59 98 60 99
REMARK SMILES IDX 61 100
REMARK H PARENT 19 5 16 24 16 25 16 26 23 31 85 50 51 61
REMARK Flexibility Score: inf
ROOT
ATOM      1  C   UNL A   1      37.143  20.856  24.761  1.00  0.00     0.118 C 
ENDROOT
BRANCH   1   2
ATOM      2  N   UNL A   1      35.807  20.339  25.017  1.00  0.00    -0.351 N 
ATOM      3  C   UNL A   1      34.660  20.978  25.402  1.00  0.00     0.281 C 
ATOM      4  O   UNL A   1      33.660  20.264  25.546  1.00  0.00    -0.268 OA
ATOM      5  H   UNL A   1      35.713  19.367  24.893  1.00  0.00     0.163 HD
BRANCH   3   6
ATOM      6  C   UNL A   1      34.612  22.500  25.726  1.00  0.00     0.176 C 
ATOM      7  C   UNL A   1      34.910  23.509  24.567  1.00  0.00     0.064 C 
ATOM      8  C   UNL A   1      34.438  24.811  25.224  1.00  0.00     0.011 C 
ATOM      9  C   UNL A   1      33.247  24.427  26.127  1.00  0.00     0.008 C 
ATOM     10  C   UNL A   1      33.189  22.902  26.116  1.00  0.00     0.079 C 
BRANCH   7  11
ATOM     11  C   UNL A   1      34.340  23.287  23.123  1.00  0.00     0.052 C 
BRANCH  11  12
ATOM     12  C   UNL A   1      32.986  23.878  22.637  1.00  0.00     0.230 C 
BRANCH  12  13
ATOM     13  O   UNL A   1      33.069  25.158  21.960  1.00  0.00    -0.494 OA
BRANCH  13  14
ATOM     14  C   UNL A   1      32.688  26.287  22.635  1.00  0.00     0.119 A 
ATOM     15  C   UNL A   1      32.543  28.118  24.751  1.00  0.00    -0.045 A 
ATOM     16  C   UNL A   1      33.574  28.209  23.803  1.00  0.00     0.008 A 
ATOM     17  C   UNL A   1      31.438  27.326  24.415  1.00  0.00     0.008 A 
ATOM     18  C   UNL A   1      33.648  27.290  22.749  1.00  0.00     0.047 A 
ATOM     19  C   UNL A   1      31.498  26.436  23.330  1.00  0.00     0.047 A 
BRANCH  15  20
ATOM     20  C   UNL A   1      32.773  28.655  26.163  1.00  0.00     0.013 C 
ATOM     21  C   UNL A   1      31.763  28.154  27.193  1.00  0.00     0.012 C 
ATOM     22  C   UNL A   1      34.201  28.500  26.708  1.00  0.00     0.012 C 
ENDBRANCH  15  20
ENDBRANCH  13  14
ENDBRANCH  12  13
ENDBRANCH  11  12
ENDBRANCH   7  11
BRANCH   6  23
ATOM     23  N   UNL A   1      35.494  22.856  26.876  1.00  0.00    -0.345 N 
ATOM     24  H   UNL A   1      34.948  22.851  27.737  1.00  0.00     0.345 HD
ATOM     25  H   UNL A   1      35.888  23.785  26.728  1.00  0.00     0.345 HD
ATOM     26  H   UNL A   1      36.250  22.175  26.948  1.00  0.00     0.345 HD
ENDBRANCH   6  23
ENDBRANCH   3   6
ENDBRANCH   1   2
BRANCH   1  27
ATOM     27  C   UNL A   1      38.249  19.865  25.137  1.00  0.00     0.042 C 
BRANCH  27  28
ATOM     28  C   UNL A   1      39.374  20.512  25.928  1.00  0.00     0.118 C 
BRANCH  28  29
ATOM     29  N   UNL A   1      40.451  19.563  26.172  1.00  0.00    -0.352 N 
ATOM     30  C   UNL A   1      41.804  19.766  26.119  1.00  0.00     0.251 C 
ATOM     31  H   UNL A   1      40.167  18.650  26.409  1.00  0.00     0.163 HD
ATOM     32  O   UNL A   1      42.554  18.823  25.900  1.00  0.00    -0.269 OA
BRANCH  30  33
ATOM     33  C   UNL A   1      42.340  21.116  26.373  1.00  0.00     0.039 A 
ATOM     34  C   UNL A   1      42.583  21.525  27.685  1.00  0.00     0.014 A 
ATOM     35  C   UNL A   1      42.532  22.001  25.306  1.00  0.00     0.014 A 
ATOM     36  C   UNL A   1      43.041  22.820  27.923  1.00  0.00     0.010 A 
ATOM     37  C   UNL A   1      43.077  23.253  25.536  1.00  0.00     0.010 A 
ATOM     38  C   UNL A   1      43.305  23.685  26.848  1.00  0.00    -0.014 A 
BRANCH  38  39
ATOM     39  C   UNL A   1      43.786  25.066  27.066  1.00  0.00     0.031 A 
ATOM     40  C   UNL A   1      45.241  25.386  26.862  1.00  0.00     0.074 A 
ATOM     41  C   UNL A   1      42.927  25.998  27.517  1.00  0.00     0.049 A 
ATOM     42  N   UNL A   1      45.878  26.507  27.083  1.00  0.00    -0.248 NA
ATOM     43  C   UNL A   1      46.104  24.293  26.380  1.00  0.00     0.031 C 
ATOM     44  C   UNL A   1      41.507  25.774  27.800  1.00  0.00     0.029 A 
ATOM     45  N   UNL A   1      43.124  27.317  27.831  1.00  0.00    -0.354 N 
ATOM     46  C   UNL A   1      47.212  26.248  26.785  1.00  0.00     0.074 A 
ATOM     47  C   UNL A   1      47.304  24.850  26.430  1.00  0.00     0.031 C 
ATOM     48  C   UNL A   1      40.954  26.923  28.219  1.00  0.00     0.029 A 
ATOM     49  C   UNL A   1      41.988  27.951  28.278  1.00  0.00     0.049 A 
ATOM     50  H   UNL A   1      43.994  27.768  27.745  1.00  0.00     0.167 HD
ATOM     51  C   UNL A   1      48.257  27.107  26.783  1.00  0.00     0.037 A 
ATOM     52  C   UNL A   1      41.809  29.218  28.696  1.00  0.00     0.037 A 
ATOM     53  C   UNL A   1      48.138  28.502  27.116  1.00  0.00     0.049 A 
ATOM     54  C   UNL A   1      42.984  30.155  28.682  1.00  0.00     0.074 A 
ATOM     55  C   UNL A   1      49.115  29.480  27.090  1.00  0.00     0.029 A 
ATOM     56  N   UNL A   1      46.966  29.115  27.538  1.00  0.00    -0.354 N 
ATOM     57  N   UNL A   1      44.227  29.914  28.333  1.00  0.00    -0.248 NA
ATOM     58  C   UNL A   1      42.735  31.537  29.109  1.00  0.00     0.031 C 
ATOM     59  C   UNL A   1      48.547  30.674  27.545  1.00  0.00     0.029 A 
ATOM     60  C   UNL A   1      47.201  30.455  27.798  1.00  0.00     0.049 A 
ATOM     61  H   UNL A   1      46.096  28.665  27.637  1.00  0.00     0.167 HD
ATOM     62  C   UNL A   1      44.901  31.122  28.470  1.00  0.00     0.074 A 
ATOM     63  C   UNL A   1      43.925  32.093  28.923  1.00  0.00     0.031 C 
ATOM     64  C   UNL A   1      46.208  31.404  28.241  1.00  0.00     0.037 A 
BRANCH  51  65
ATOM     65  C   UNL A   1      49.610  26.563  26.407  1.00  0.00     0.058 A 
ATOM     66  C   UNL A   1      50.390  25.827  27.315  1.00  0.00     0.135 A 
ATOM     67  C   UNL A   1      50.124  26.759  25.116  1.00  0.00     0.135 A 
ATOM     68  F   UNL A   1      49.957  25.623  28.570  1.00  0.00    -0.206 F 
ATOM     69  C   UNL A   1      51.643  25.335  26.967  1.00  0.00     0.059 A 
ATOM     70  C   UNL A   1      51.362  26.247  24.735  1.00  0.00     0.059 A 
ATOM     71  F   UNL A   1      49.424  27.456  24.207  1.00  0.00    -0.206 F 
ATOM     72  C   UNL A   1      52.120  25.550  25.673  1.00  0.00     0.060 A 
BRANCH  72  73
ATOM     73  S   UNL A   1      53.747  24.899  25.237  1.00  0.00     0.124 S 
ATOM     74  O   UNL A   1      53.528  23.461  25.361  1.00  0.00    -0.237 OA
ATOM     75  O   UNL A   1      53.929  25.398  23.878  1.00  0.00    -0.237 OA
ATOM     76  O   UNL A   1      54.629  25.486  26.241  1.00  0.00    -0.744 OA
ENDBRANCH  72  73
ENDBRANCH  51  65
BRANCH  52  77
ATOM     77  C   UNL A   1      40.462  29.669  29.131  1.00  0.00     0.058 A 
ATOM     78  C   UNL A   1      39.412  29.798  28.208  1.00  0.00     0.135 A 
ATOM     79  C   UNL A   1      40.185  29.950  30.478  1.00  0.00     0.135 A 
ATOM     80  F   UNL A   1      39.626  29.540  26.909  1.00  0.00    -0.206 F 
ATOM     81  C   UNL A   1      38.142  30.207  28.601  1.00  0.00     0.059 A 
ATOM     82  C   UNL A   1      38.916  30.335  30.899  1.00  0.00     0.059 A 
ATOM     83  F   UNL A   1      41.148  29.820  31.404  1.00  0.00    -0.206 F 
ATOM     84  C   UNL A   1      37.904  30.470  29.951  1.00  0.00     0.060 A 
BRANCH  84  85
ATOM     85  S   UNL A   1      36.239  30.955  30.456  1.00  0.00     0.124 S 
ATOM     86  O   UNL A   1      35.903  29.907  31.412  1.00  0.00    -0.237 OA
ATOM     87  O   UNL A   1      36.465  32.283  31.017  1.00  0.00    -0.237 OA
ATOM     88  O   UNL A   1      35.489  30.932  29.203  1.00  0.00    -0.744 OA
ENDBRANCH  84  85
ENDBRANCH  52  77
BRANCH  64  89
ATOM     89  C   UNL A   1      46.651  32.827  28.437  1.00  0.00     0.058 A 
ATOM     90  C   UNL A   1      47.229  33.262  29.640  1.00  0.00     0.135 A 
ATOM     91  C   UNL A   1      46.548  33.751  27.385  1.00  0.00     0.135 A 
ATOM     92  F   UNL A   1      47.344  32.420  30.678  1.00  0.00    -0.206 F 
ATOM     93  C   UNL A   1      47.667  34.572  29.800  1.00  0.00     0.059 A 
ATOM     94  C   UNL A   1      47.008  35.056  27.512  1.00  0.00     0.059 A 
ATOM     95  F   UNL A   1      46.012  33.381  26.210  1.00  0.00    -0.206 F 
ATOM     96  C   UNL A   1      47.556  35.461  28.729  1.00  0.00     0.060 A 
BRANCH  96  97
ATOM     97  S   UNL A   1      48.164  37.147  28.938  1.00  0.00     0.124 S 
ATOM     98  O   UNL A   1      49.537  37.026  28.460  1.00  0.00    -0.237 OA
ATOM     99  O   UNL A   1      47.260  37.912  28.084  1.00  0.00    -0.237 OA
ATOM    100  O   UNL A   1      48.016  37.387  30.370  1.00  0.00    -0.744 OA
ENDBRANCH  96  97
ENDBRANCH  64  89
ENDBRANCH  38  39
ENDBRANCH  30  33
ENDBRANCH  28  29
ENDBRANCH  27  28
ENDBRANCH   1  27
TORSDOF 19
ENDMDL
