MODEL 1
REMARK VINA RESULT:     -12.0      0.000      0.000
REMARK SMILES CCC[C@]1(C(=O)NCCCNC(=O)c2ccc(-c3c4nc(c(-c5c(F)cc(S(=O)(=O)[O-])cc5F)c5ccc([nH]5)c(-c5c(F)cc(S(=O)(=O)[O-])cc5F)c5nc(c(-c6c(F)cc(S(=O)(=O)[O-])cc6F)c6ccc3[nH]6)C=C5)C=C4)cc2)CCN(C(=O)c2cccnc2C)C1
REMARK SMILES IDX 9 1 8 2 7 3 5 4 6 5 4 7 80 8 92 9 81 10 82 11 3 12 2 13 1 14
REMARK SMILES IDX 83 15 84 16 85 17 86 18 90 19 87 20 89 21 91 22 88 23 10 24
REMARK SMILES IDX 11 25 12 26 13 28 14 29 15 30 79 31 16 32 78 33 17 34 18 35
REMARK SMILES IDX 19 36 72 37 20 38 77 39 71 40 73 41 21 42 76 43 70 44 69 45
REMARK SMILES IDX 22 47 56 48 35 49 55 50 36 51 39 52 54 53 74 54 37 55 38 56
REMARK SMILES IDX 53 58 75 59 40 60 23 61 24 62 33 63 25 64 26 65 32 66 34 67
REMARK SMILES IDX 27 68 28 69 29 70 30 71 31 72 57 73 58 74 67 75 59 76 60 77
REMARK SMILES IDX 66 78 68 79 61 80 62 81 63 82 64 83 65 84 41 85 42 86 51 87
REMARK SMILES IDX 43 88 44 89 50 90 52 91 45 92 46 93 47 94 48 95 49 96
REMARK H PARENT 7 6 11 27 73 46 39 57
REMARK Flexibility Score: inf
ROOT
ATOM      1  C   UNL A   1      39.272  22.068  26.175  1.00  0.00     0.042 C 
ENDROOT
BRANCH   1   2
ATOM      2  C   UNL A   1      37.836  22.458  25.854  1.00  0.00     0.117 C 
BRANCH   2   3
ATOM      3  N   UNL A   1      37.541  22.442  24.436  1.00  0.00    -0.355 N 
ATOM      4  C   UNL A   1      36.469  22.861  23.718  1.00  0.00     0.228 C 
ATOM      5  O   UNL A   1      36.671  22.942  22.501  1.00  0.00    -0.274 OA
ATOM      6  H   UNL A   1      38.258  22.051  23.886  1.00  0.00     0.163 HD
BRANCH   4   7
ATOM      7  C   UNL A   1      35.119  23.277  24.342  1.00  0.00     0.068 C 
ATOM      8  C   UNL A   1      35.145  24.549  25.229  1.00  0.00     0.040 C 
ATOM      9  C   UNL A   1      34.163  23.665  23.182  1.00  0.00     0.136 C 
ATOM     10  C   UNL A   1      33.885  25.325  24.861  1.00  0.00     0.121 C 
ATOM     11  N   UNL A   1      33.708  25.022  23.460  1.00  0.00    -0.337 N 
BRANCH   7  12
ATOM     12  C   UNL A   1      34.495  22.095  25.157  1.00  0.00     0.018 C 
BRANCH  12  13
ATOM     13  C   UNL A   1      33.784  20.943  24.413  1.00  0.00    -0.002 C 
ATOM     14  C   UNL A   1      32.288  20.788  24.622  1.00  0.00     0.004 C 
ENDBRANCH  12  13
ENDBRANCH   7  12
BRANCH  11  15
ATOM     15  C   UNL A   1      33.145  25.796  22.462  1.00  0.00     0.255 C 
ATOM     16  O   UNL A   1      33.360  25.587  21.269  1.00  0.00    -0.269 OA
BRANCH  15  17
ATOM     17  C   UNL A   1      32.208  26.885  22.802  1.00  0.00     0.061 A 
ATOM     18  C   UNL A   1      30.849  26.553  22.871  1.00  0.00     0.017 A 
ATOM     19  C   UNL A   1      32.566  28.230  22.910  1.00  0.00     0.050 A 
ATOM     20  C   UNL A   1      29.905  27.547  23.106  1.00  0.00     0.021 A 
ATOM     21  N   UNL A   1      31.651  29.200  23.182  1.00  0.00    -0.261 NA
ATOM     22  C   UNL A   1      33.961  28.736  22.721  1.00  0.00     0.067 C 
ATOM     23  C   UNL A   1      30.352  28.844  23.268  1.00  0.00     0.111 A 
ENDBRANCH  15  17
ENDBRANCH  11  15
ENDBRANCH   4   7
ENDBRANCH   2   3
ENDBRANCH   1   2
BRANCH   1  24
ATOM     24  C   UNL A   1      40.075  23.159  26.868  1.00  0.00     0.118 C 
BRANCH  24  25
ATOM     25  N   UNL A   1      41.226  23.585  26.087  1.00  0.00    -0.352 N 
ATOM     26  C   UNL A   1      41.911  24.774  26.096  1.00  0.00     0.251 C 
ATOM     27  H   UNL A   1      41.568  22.913  25.452  1.00  0.00     0.163 HD
ATOM     28  O   UNL A   1      42.727  25.006  25.207  1.00  0.00    -0.269 OA
BRANCH  26  29
ATOM     29  C   UNL A   1      41.660  25.780  27.151  1.00  0.00     0.039 A 
ATOM     30  C   UNL A   1      40.652  25.539  28.088  1.00  0.00     0.014 A 
ATOM     31  C   UNL A   1      42.395  26.967  27.207  1.00  0.00     0.014 A 
ATOM     32  C   UNL A   1      40.426  26.458  29.116  1.00  0.00     0.010 A 
ATOM     33  C   UNL A   1      42.229  27.837  28.280  1.00  0.00     0.010 A 
ATOM     34  C   UNL A   1      41.237  27.597  29.242  1.00  0.00    -0.014 A 
BRANCH  34  35
ATOM     35  C   UNL A   1      41.061  28.553  30.367  1.00  0.00     0.031 A 
ATOM     36  C   UNL A   1      41.912  28.428  31.603  1.00  0.00     0.074 A 
ATOM     37  C   UNL A   1      40.087  29.482  30.305  1.00  0.00     0.049 A 
ATOM     38  N   UNL A   1      41.852  29.109  32.718  1.00  0.00    -0.248 NA
ATOM     39  C   UNL A   1      42.948  27.382  31.596  1.00  0.00     0.031 C 
ATOM     40  C   UNL A   1      39.160  29.665  29.185  1.00  0.00     0.029 A 
ATOM     41  N   UNL A   1      39.701  30.440  31.211  1.00  0.00    -0.354 N 
ATOM     42  C   UNL A   1      42.821  28.561  33.550  1.00  0.00     0.074 A 
ATOM     43  C   UNL A   1      43.423  27.460  32.830  1.00  0.00     0.031 C 
ATOM     44  C   UNL A   1      38.328  30.681  29.462  1.00  0.00     0.029 A 
ATOM     45  C   UNL A   1      38.632  31.197  30.793  1.00  0.00     0.049 A 
ATOM     46  H   UNL A   1      40.150  30.572  32.077  1.00  0.00     0.167 HD
ATOM     47  C   UNL A   1      43.190  28.953  34.793  1.00  0.00     0.037 A 
ATOM     48  C   UNL A   1      37.964  32.187  31.416  1.00  0.00     0.037 A 
ATOM     49  C   UNL A   1      42.612  30.074  35.488  1.00  0.00     0.049 A 
ATOM     50  C   UNL A   1      38.407  32.619  32.788  1.00  0.00     0.074 A 
ATOM     51  C   UNL A   1      42.969  30.600  36.717  1.00  0.00     0.029 A 
ATOM     52  N   UNL A   1      41.557  30.840  35.016  1.00  0.00    -0.354 N 
ATOM     53  N   UNL A   1      39.375  32.136  33.530  1.00  0.00    -0.248 NA
ATOM     54  C   UNL A   1      37.674  33.733  33.405  1.00  0.00     0.031 C 
ATOM     55  C   UNL A   1      42.099  31.655  37.009  1.00  0.00     0.029 A 
ATOM     56  C   UNL A   1      41.234  31.821  35.939  1.00  0.00     0.049 A 
ATOM     57  H   UNL A   1      41.104  30.707  34.152  1.00  0.00     0.167 HD
ATOM     58  C   UNL A   1      39.384  32.904  34.690  1.00  0.00     0.074 A 
ATOM     59  C   UNL A   1      38.334  33.891  34.545  1.00  0.00     0.031 C 
ATOM     60  C   UNL A   1      40.190  32.801  35.776  1.00  0.00     0.037 A 
BRANCH  47  61
ATOM     61  C   UNL A   1      44.276  28.172  35.482  1.00  0.00     0.058 A 
ATOM     62  C   UNL A   1      45.634  28.490  35.319  1.00  0.00     0.135 A 
ATOM     63  C   UNL A   1      43.953  27.122  36.357  1.00  0.00     0.135 A 
ATOM     64  F   UNL A   1      46.002  29.474  34.484  1.00  0.00    -0.206 F 
ATOM     65  C   UNL A   1      46.632  27.778  35.975  1.00  0.00     0.059 A 
ATOM     66  C   UNL A   1      44.934  26.415  37.046  1.00  0.00     0.059 A 
ATOM     67  F   UNL A   1      42.670  26.774  36.550  1.00  0.00    -0.206 F 
ATOM     68  C   UNL A   1      46.273  26.744  36.839  1.00  0.00     0.060 A 
BRANCH  68  69
ATOM     69  S   UNL A   1      47.580  25.841  37.696  1.00  0.00     0.124 S 
ATOM     70  O   UNL A   1      47.775  26.669  38.883  1.00  0.00    -0.237 OA
ATOM     71  O   UNL A   1      46.961  24.540  37.928  1.00  0.00    -0.237 OA
ATOM     72  O   UNL A   1      48.682  25.847  36.739  1.00  0.00    -0.744 OA
ENDBRANCH  68  69
ENDBRANCH  47  61
BRANCH  48  73
ATOM     73  C   UNL A   1      36.814  32.849  30.741  1.00  0.00     0.058 A 
ATOM     74  C   UNL A   1      35.494  32.568  31.121  1.00  0.00     0.135 A 
ATOM     75  C   UNL A   1      37.014  33.780  29.711  1.00  0.00     0.135 A 
ATOM     76  F   UNL A   1      35.251  31.680  32.098  1.00  0.00    -0.206 F 
ATOM     77  C   UNL A   1      34.410  33.171  30.491  1.00  0.00     0.059 A 
ATOM     78  C   UNL A   1      35.948  34.417  29.084  1.00  0.00     0.059 A 
ATOM     79  F   UNL A   1      38.259  34.099  29.322  1.00  0.00    -0.206 F 
ATOM     80  C   UNL A   1      34.648  34.097  29.473  1.00  0.00     0.060 A 
BRANCH  80  81
ATOM     81  S   UNL A   1      33.236  34.905  28.688  1.00  0.00     0.124 S 
ATOM     82  O   UNL A   1      32.431  35.277  29.844  1.00  0.00    -0.237 OA
ATOM     83  O   UNL A   1      33.873  36.007  27.972  1.00  0.00    -0.237 OA
ATOM     84  O   UNL A   1      32.678  33.856  27.840  1.00  0.00    -0.744 OA
ENDBRANCH  80  81
ENDBRANCH  48  73
BRANCH  60  85
ATOM     85  C   UNL A   1      39.993  33.801  36.881  1.00  0.00     0.058 A 
ATOM     86  C   UNL A   1      40.627  35.053  36.865  1.00  0.00     0.135 A 
ATOM     87  C   UNL A   1      39.114  33.524  37.941  1.00  0.00     0.135 A 
ATOM     88  F   UNL A   1      41.481  35.365  35.878  1.00  0.00    -0.206 F 
ATOM     89  C   UNL A   1      40.413  35.987  37.873  1.00  0.00     0.059 A 
ATOM     90  C   UNL A   1      38.864  34.453  38.945  1.00  0.00     0.059 A 
ATOM     91  F   UNL A   1      38.474  32.345  37.998  1.00  0.00    -0.206 F 
ATOM     92  C   UNL A   1      39.528  35.679  38.909  1.00  0.00     0.060 A 
BRANCH  92  93
ATOM     93  S   UNL A   1      39.231  36.914  40.191  1.00  0.00     0.124 S 
ATOM     94  O   UNL A   1      38.373  36.178  41.114  1.00  0.00    -0.237 OA
ATOM     95  O   UNL A   1      40.581  37.198  40.669  1.00  0.00    -0.237 OA
ATOM     96  O   UNL A   1      38.585  38.006  39.469  1.00  0.00    -0.744 OA
ENDBRANCH  92  93
ENDBRANCH  60  85
ENDBRANCH  34  35
ENDBRANCH  26  29
ENDBRANCH  24  25
ENDBRANCH   1  24
TORSDOF 17
ENDMDL
MODEL 2
REMARK VINA RESULT:     -12.0      4.498     10.295
REMARK SMILES CCC[C@]1(C(=O)NCCCNC(=O)c2ccc(-c3c4nc(c(-c5c(F)cc(S(=O)(=O)[O-])cc5F)c5ccc([nH]5)c(-c5c(F)cc(S(=O)(=O)[O-])cc5F)c5nc(c(-c6c(F)cc(S(=O)(=O)[O-])cc6F)c6ccc3[nH]6)C=C5)C=C4)cc2)CCN(C(=O)c2cccnc2C)C1
REMARK SMILES IDX 9 1 8 2 7 3 5 4 6 5 4 7 80 8 92 9 81 10 82 11 3 12 2 13 1 14
REMARK SMILES IDX 83 15 84 16 85 17 86 18 90 19 87 20 89 21 91 22 88 23 10 24
REMARK SMILES IDX 11 25 12 26 13 28 14 29 15 30 79 31 16 32 78 33 17 34 18 35
REMARK SMILES IDX 19 36 72 37 20 38 77 39 71 40 73 41 21 42 76 43 70 44 69 45
REMARK SMILES IDX 22 47 56 48 35 49 55 50 36 51 39 52 54 53 74 54 37 55 38 56
REMARK SMILES IDX 53 58 75 59 40 60 23 61 24 62 33 63 25 64 26 65 32 66 34 67
REMARK SMILES IDX 27 68 28 69 29 70 30 71 31 72 57 73 58 74 67 75 59 76 60 77
REMARK SMILES IDX 66 78 68 79 61 80 62 81 63 82 64 83 65 84 41 85 42 86 51 87
REMARK SMILES IDX 43 88 44 89 50 90 52 91 45 92 46 93 47 94 48 95 49 96
REMARK H PARENT 7 6 11 27 73 46 39 57
REMARK Flexibility Score: inf
ROOT
ATOM      1  C   UNL A   1      33.973  27.824  25.936  1.00  0.00     0.042 C 
ENDROOT
BRANCH   1   2
ATOM      2  C   UNL A   1      32.967  27.694  24.800  1.00  0.00     0.117 C 
BRANCH   2   3
ATOM      3  N   UNL A   1      33.569  27.286  23.547  1.00  0.00    -0.355 N 
ATOM      4  C   UNL A   1      33.403  26.190  22.765  1.00  0.00     0.228 C 
ATOM      5  O   UNL A   1      33.877  26.299  21.629  1.00  0.00    -0.274 OA
ATOM      6  H   UNL A   1      34.225  27.930  23.194  1.00  0.00     0.163 HD
BRANCH   4   7
ATOM      7  C   UNL A   1      32.632  24.926  23.201  1.00  0.00     0.068 C 
ATOM      8  C   UNL A   1      33.068  23.598  22.528  1.00  0.00     0.040 C 
ATOM      9  C   UNL A   1      32.934  24.684  24.705  1.00  0.00     0.136 C 
ATOM     10  C   UNL A   1      33.077  22.561  23.646  1.00  0.00     0.121 C 
ATOM     11  N   UNL A   1      33.461  23.329  24.807  1.00  0.00    -0.337 N 
BRANCH   7  12
ATOM     12  C   UNL A   1      31.090  25.118  23.005  1.00  0.00     0.018 C 
BRANCH  12  13
ATOM     13  C   UNL A   1      30.228  25.631  24.179  1.00  0.00    -0.002 C 
ATOM     14  C   UNL A   1      29.278  26.783  23.903  1.00  0.00     0.004 C 
ENDBRANCH  12  13
ENDBRANCH   7  12
BRANCH  11  15
ATOM     15  C   UNL A   1      34.161  22.927  25.929  1.00  0.00     0.255 C 
ATOM     16  O   UNL A   1      33.606  22.699  27.004  1.00  0.00    -0.269 OA
BRANCH  15  17
ATOM     17  C   UNL A   1      35.619  22.703  25.858  1.00  0.00     0.061 A 
ATOM     18  C   UNL A   1      36.441  23.820  26.058  1.00  0.00     0.017 A 
ATOM     19  C   UNL A   1      36.216  21.505  25.464  1.00  0.00     0.050 A 
ATOM     20  C   UNL A   1      37.820  23.697  25.925  1.00  0.00     0.021 A 
ATOM     21  N   UNL A   1      37.568  21.369  25.373  1.00  0.00    -0.261 NA
ATOM     22  C   UNL A   1      35.448  20.278  25.087  1.00  0.00     0.067 C 
ATOM     23  C   UNL A   1      38.334  22.457  25.597  1.00  0.00     0.111 A 
ENDBRANCH  15  17
ENDBRANCH  11  15
ENDBRANCH   4   7
ENDBRANCH   2   3
ENDBRANCH   1   2
BRANCH   1  24
ATOM     24  C   UNL A   1      33.360  28.228  27.269  1.00  0.00     0.118 C 
BRANCH  24  25
ATOM     25  N   UNL A   1      33.289  29.671  27.435  1.00  0.00    -0.352 N 
ATOM     26  C   UNL A   1      34.206  30.549  27.958  1.00  0.00     0.251 C 
ATOM     27  H   UNL A   1      32.450  30.083  27.123  1.00  0.00     0.163 HD
ATOM     28  O   UNL A   1      33.865  31.704  28.200  1.00  0.00    -0.269 OA
BRANCH  26  29
ATOM     29  C   UNL A   1      35.588  30.109  28.249  1.00  0.00     0.039 A 
ATOM     30  C   UNL A   1      36.532  30.122  27.219  1.00  0.00     0.014 A 
ATOM     31  C   UNL A   1      35.950  29.660  29.521  1.00  0.00     0.014 A 
ATOM     32  C   UNL A   1      37.853  29.748  27.483  1.00  0.00     0.010 A 
ATOM     33  C   UNL A   1      37.282  29.373  29.804  1.00  0.00     0.010 A 
ATOM     34  C   UNL A   1      38.246  29.404  28.786  1.00  0.00    -0.014 A 
BRANCH  34  35
ATOM     35  C   UNL A   1      39.659  29.070  29.105  1.00  0.00     0.031 A 
ATOM     36  C   UNL A   1      40.567  30.116  29.697  1.00  0.00     0.074 A 
ATOM     37  C   UNL A   1      40.142  27.851  28.793  1.00  0.00     0.049 A 
ATOM     38  N   UNL A   1      41.845  30.043  29.964  1.00  0.00    -0.248 NA
ATOM     39  C   UNL A   1      39.966  31.426  30.001  1.00  0.00     0.031 C 
ATOM     40  C   UNL A   1      39.376  26.772  28.165  1.00  0.00     0.029 A 
ATOM     41  N   UNL A   1      41.398  27.317  28.948  1.00  0.00    -0.354 N 
ATOM     42  C   UNL A   1      42.205  31.298  30.444  1.00  0.00     0.074 A 
ATOM     43  C   UNL A   1      41.022  32.127  30.386  1.00  0.00     0.031 C 
ATOM     44  C   UNL A   1      40.171  25.702  28.004  1.00  0.00     0.029 A 
ATOM     45  C   UNL A   1      41.512  26.029  28.478  1.00  0.00     0.049 A 
ATOM     46  H   UNL A   1      42.145  27.810  29.356  1.00  0.00     0.167 HD
ATOM     47  C   UNL A   1      43.407  31.713  30.910  1.00  0.00     0.037 A 
ATOM     48  C   UNL A   1      42.579  25.208  28.426  1.00  0.00     0.037 A 
ATOM     49  C   UNL A   1      44.570  30.870  31.000  1.00  0.00     0.049 A 
ATOM     50  C   UNL A   1      43.897  25.686  28.970  1.00  0.00     0.074 A 
ATOM     51  C   UNL A   1      45.813  31.173  31.529  1.00  0.00     0.029 A 
ATOM     52  N   UNL A   1      44.636  29.559  30.550  1.00  0.00    -0.354 N 
ATOM     53  N   UNL A   1      44.201  26.853  29.487  1.00  0.00    -0.248 NA
ATOM     54  C   UNL A   1      45.018  24.736  28.929  1.00  0.00     0.031 C 
ATOM     55  C   UNL A   1      46.643  30.061  31.357  1.00  0.00     0.029 A 
ATOM     56  C   UNL A   1      45.904  29.047  30.769  1.00  0.00     0.049 A 
ATOM     57  H   UNL A   1      43.891  29.066  30.137  1.00  0.00     0.167 HD
ATOM     58  C   UNL A   1      45.538  26.768  29.858  1.00  0.00     0.074 A 
ATOM     59  C   UNL A   1      45.982  25.432  29.518  1.00  0.00     0.031 C 
ATOM     60  C   UNL A   1      46.328  27.711  30.430  1.00  0.00     0.037 A 
BRANCH  47  61
ATOM     61  C   UNL A   1      43.527  33.142  31.368  1.00  0.00     0.058 A 
ATOM     62  C   UNL A   1      43.331  33.508  32.709  1.00  0.00     0.135 A 
ATOM     63  C   UNL A   1      43.890  34.152  30.462  1.00  0.00     0.135 A 
ATOM     64  F   UNL A   1      42.967  32.587  33.615  1.00  0.00    -0.206 F 
ATOM     65  C   UNL A   1      43.464  34.827  33.130  1.00  0.00     0.059 A 
ATOM     66  C   UNL A   1      44.057  35.473  30.867  1.00  0.00     0.059 A 
ATOM     67  F   UNL A   1      44.089  33.859  29.167  1.00  0.00    -0.206 F 
ATOM     68  C   UNL A   1      43.830  35.802  32.203  1.00  0.00     0.060 A 
BRANCH  68  69
ATOM     69  S   UNL A   1      44.015  37.506  32.770  1.00  0.00     0.124 S 
ATOM     70  O   UNL A   1      42.966  37.591  33.782  1.00  0.00    -0.237 OA
ATOM     71  O   UNL A   1      45.384  37.519  33.276  1.00  0.00    -0.237 OA
ATOM     72  O   UNL A   1      43.788  38.294  31.563  1.00  0.00    -0.744 OA
ENDBRANCH  68  69
ENDBRANCH  47  61
BRANCH  48  73
ATOM     73  C   UNL A   1      42.439  23.843  27.849  1.00  0.00     0.058 A 
ATOM     74  C   UNL A   1      42.351  23.650  26.463  1.00  0.00     0.135 A 
ATOM     75  C   UNL A   1      42.400  22.707  28.671  1.00  0.00     0.135 A 
ATOM     76  F   UNL A   1      42.379  24.705  25.635  1.00  0.00    -0.206 F 
ATOM     77  C   UNL A   1      42.210  22.380  25.911  1.00  0.00     0.059 A 
ATOM     78  C   UNL A   1      42.286  21.425  28.143  1.00  0.00     0.059 A 
ATOM     79  F   UNL A   1      42.498  22.836  30.004  1.00  0.00    -0.206 F 
ATOM     80  C   UNL A   1      42.180  21.272  26.761  1.00  0.00     0.060 A 
BRANCH  80  81
ATOM     81  S   UNL A   1      42.036  19.625  26.034  1.00  0.00     0.124 S 
ATOM     82  O   UNL A   1      40.634  19.601  25.637  1.00  0.00    -0.237 OA
ATOM     83  O   UNL A   1      43.007  19.685  24.945  1.00  0.00    -0.237 OA
ATOM     84  O   UNL A   1      42.396  18.739  27.137  1.00  0.00    -0.744 OA
ENDBRANCH  80  81
ENDBRANCH  48  73
BRANCH  60  85
ATOM     85  C   UNL A   1      47.743  27.325  30.757  1.00  0.00     0.058 A 
ATOM     86  C   UNL A   1      48.081  26.723  31.979  1.00  0.00     0.135 A 
ATOM     87  C   UNL A   1      48.766  27.509  29.811  1.00  0.00     0.135 A 
ATOM     88  F   UNL A   1      47.143  26.530  32.919  1.00  0.00    -0.206 F 
ATOM     89  C   UNL A   1      49.387  26.336  32.260  1.00  0.00     0.059 A 
ATOM     90  C   UNL A   1      50.072  27.104  30.060  1.00  0.00     0.059 A 
ATOM     91  F   UNL A   1      48.493  28.070  28.622  1.00  0.00    -0.206 F 
ATOM     92  C   UNL A   1      50.376  26.529  31.293  1.00  0.00     0.060 A 
BRANCH  92  93
ATOM     93  S   UNL A   1      52.060  25.989  31.657  1.00  0.00     0.124 S 
ATOM     94  O   UNL A   1      52.713  26.173  30.365  1.00  0.00    -0.237 OA
ATOM     95  O   UNL A   1      52.464  26.916  32.710  1.00  0.00    -0.237 OA
ATOM     96  O   UNL A   1      51.888  24.603  32.081  1.00  0.00    -0.744 OA
ENDBRANCH  92  93
ENDBRANCH  60  85
ENDBRANCH  34  35
ENDBRANCH  26  29
ENDBRANCH  24  25
ENDBRANCH   1  24
TORSDOF 17
ENDMDL
MODEL 3
REMARK VINA RESULT:     -12.0      6.455     12.006
REMARK SMILES CCC[C@]1(C(=O)NCCCNC(=O)c2ccc(-c3c4nc(c(-c5c(F)cc(S(=O)(=O)[O-])cc5F)c5ccc([nH]5)c(-c5c(F)cc(S(=O)(=O)[O-])cc5F)c5nc(c(-c6c(F)cc(S(=O)(=O)[O-])cc6F)c6ccc3[nH]6)C=C5)C=C4)cc2)CCN(C(=O)c2cccnc2C)C1
REMARK SMILES IDX 9 1 8 2 7 3 5 4 6 5 4 7 80 8 92 9 81 10 82 11 3 12 2 13 1 14
REMARK SMILES IDX 83 15 84 16 85 17 86 18 90 19 87 20 89 21 91 22 88 23 10 24
REMARK SMILES IDX 11 25 12 26 13 28 14 29 15 30 79 31 16 32 78 33 17 34 18 35
REMARK SMILES IDX 19 36 72 37 20 38 77 39 71 40 73 41 21 42 76 43 70 44 69 45
REMARK SMILES IDX 22 47 56 48 35 49 55 50 36 51 39 52 54 53 74 54 37 55 38 56
REMARK SMILES IDX 53 58 75 59 40 60 23 61 24 62 33 63 25 64 26 65 32 66 34 67
REMARK SMILES IDX 27 68 28 69 29 70 30 71 31 72 57 73 58 74 67 75 59 76 60 77
REMARK SMILES IDX 66 78 68 79 61 80 62 81 63 82 64 83 65 84 41 85 42 86 51 87
REMARK SMILES IDX 43 88 44 89 50 90 52 91 45 92 46 93 47 94 48 95 49 96
REMARK H PARENT 7 6 11 27 73 46 39 57
REMARK Flexibility Score: inf
ROOT
ATOM      1  C   UNL A   1      34.893  29.856  27.669  1.00  0.00     0.042 C 
ENDROOT
BRANCH   1   2
ATOM      2  C   UNL A   1      33.611  30.218  26.932  1.00  0.00     0.117 C 
BRANCH   2   3
ATOM      3  N   UNL A   1      32.440  29.543  27.453  1.00  0.00    -0.355 N 
ATOM      4  C   UNL A   1      31.880  28.338  27.180  1.00  0.00     0.228 C 
ATOM      5  O   UNL A   1      31.040  27.967  28.008  1.00  0.00    -0.274 OA
ATOM      6  H   UNL A   1      31.959  30.058  28.140  1.00  0.00     0.163 HD
BRANCH   4   7
ATOM      7  C   UNL A   1      32.282  27.449  25.984  1.00  0.00     0.068 C 
ATOM      8  C   UNL A   1      33.732  26.897  26.005  1.00  0.00     0.040 C 
ATOM      9  C   UNL A   1      31.407  26.166  26.035  1.00  0.00     0.136 C 
ATOM     10  C   UNL A   1      33.620  25.447  25.547  1.00  0.00     0.121 C 
ATOM     11  N   UNL A   1      32.331  25.039  26.054  1.00  0.00    -0.337 N 
BRANCH   7  12
ATOM     12  C   UNL A   1      32.035  28.193  24.629  1.00  0.00     0.018 C 
BRANCH  12  13
ATOM     13  C   UNL A   1      30.624  28.192  24.001  1.00  0.00    -0.002 C 
ATOM     14  C   UNL A   1      30.066  29.521  23.523  1.00  0.00     0.004 C 
ENDBRANCH  12  13
ENDBRANCH   7  12
BRANCH  11  15
ATOM     15  C   UNL A   1      31.907  23.786  26.459  1.00  0.00     0.255 C 
ATOM     16  O   UNL A   1      31.030  23.633  27.309  1.00  0.00    -0.269 OA
BRANCH  15  17
ATOM     17  C   UNL A   1      32.468  22.571  25.836  1.00  0.00     0.061 A 
ATOM     18  C   UNL A   1      31.847  22.116  24.666  1.00  0.00     0.017 A 
ATOM     19  C   UNL A   1      33.463  21.778  26.408  1.00  0.00     0.050 A 
ATOM     20  C   UNL A   1      32.272  20.932  24.072  1.00  0.00     0.021 A 
ATOM     21  N   UNL A   1      33.912  20.641  25.809  1.00  0.00    -0.261 NA
ATOM     22  C   UNL A   1      34.111  22.076  27.723  1.00  0.00     0.067 C 
ATOM     23  C   UNL A   1      33.310  20.242  24.668  1.00  0.00     0.111 A 
ENDBRANCH  15  17
ENDBRANCH  11  15
ENDBRANCH   4   7
ENDBRANCH   2   3
ENDBRANCH   1   2
BRANCH   1  24
ATOM     24  C   UNL A   1      35.598  31.040  28.314  1.00  0.00     0.118 C 
BRANCH  24  25
ATOM     25  N   UNL A   1      35.556  30.990  29.767  1.00  0.00    -0.352 N 
ATOM     26  C   UNL A   1      36.435  30.427  30.659  1.00  0.00     0.251 C 
ATOM     27  H   UNL A   1      34.773  31.428  30.175  1.00  0.00     0.163 HD
ATOM     28  O   UNL A   1      36.106  30.313  31.838  1.00  0.00    -0.269 OA
BRANCH  26  29
ATOM     29  C   UNL A   1      37.758  29.944  30.209  1.00  0.00     0.039 A 
ATOM     30  C   UNL A   1      38.089  30.042  28.855  1.00  0.00     0.014 A 
ATOM     31  C   UNL A   1      38.662  29.373  31.108  1.00  0.00     0.014 A 
ATOM     32  C   UNL A   1      39.350  29.627  28.417  1.00  0.00     0.010 A 
ATOM     33  C   UNL A   1      39.947  29.043  30.687  1.00  0.00     0.010 A 
ATOM     34  C   UNL A   1      40.302  29.158  29.335  1.00  0.00    -0.014 A 
BRANCH  34  35
ATOM     35  C   UNL A   1      41.672  28.776  28.903  1.00  0.00     0.031 A 
ATOM     36  C   UNL A   1      42.752  29.822  28.809  1.00  0.00     0.074 A 
ATOM     37  C   UNL A   1      41.922  27.507  28.525  1.00  0.00     0.049 A 
ATOM     38  N   UNL A   1      43.979  29.703  28.374  1.00  0.00    -0.248 NA
ATOM     39  C   UNL A   1      42.397  31.187  29.232  1.00  0.00     0.031 C 
ATOM     40  C   UNL A   1      40.944  26.417  28.517  1.00  0.00     0.029 A 
ATOM     41  N   UNL A   1      43.073  26.920  28.058  1.00  0.00    -0.354 N 
ATOM     42  C   UNL A   1      44.534  30.976  28.449  1.00  0.00     0.074 A 
ATOM     43  C   UNL A   1      43.495  31.862  28.925  1.00  0.00     0.031 C 
ATOM     44  C   UNL A   1      41.538  25.293  28.086  1.00  0.00     0.029 A 
ATOM     45  C   UNL A   1      42.927  25.588  27.748  1.00  0.00     0.049 A 
ATOM     46  H   UNL A   1      43.922  27.407  27.956  1.00  0.00     0.167 HD
ATOM     47  C   UNL A   1      45.800  31.366  28.166  1.00  0.00     0.037 A 
ATOM     48  C   UNL A   1      43.809  24.706  27.239  1.00  0.00     0.037 A 
ATOM     49  C   UNL A   1      46.839  30.470  27.729  1.00  0.00     0.049 A 
ATOM     50  C   UNL A   1      45.215  25.159  26.953  1.00  0.00     0.074 A 
ATOM     51  C   UNL A   1      48.173  30.753  27.491  1.00  0.00     0.029 A 
ATOM     52  N   UNL A   1      46.662  29.121  27.463  1.00  0.00    -0.354 N 
ATOM     53  N   UNL A   1      45.741  26.352  27.099  1.00  0.00    -0.248 NA
ATOM     54  C   UNL A   1      46.150  24.148  26.440  1.00  0.00     0.031 C 
ATOM     55  C   UNL A   1      48.792  29.584  27.037  1.00  0.00     0.029 A 
ATOM     56  C   UNL A   1      47.857  28.561  27.042  1.00  0.00     0.049 A 
ATOM     57  H   UNL A   1      45.813  28.633  27.559  1.00  0.00     0.167 HD
ATOM     58  C   UNL A   1      47.074  26.228  26.722  1.00  0.00     0.074 A 
ATOM     59  C   UNL A   1      47.277  24.842  26.354  1.00  0.00     0.031 C 
ATOM     60  C   UNL A   1      48.044  27.177  26.685  1.00  0.00     0.037 A 
BRANCH  47  61
ATOM     61  C   UNL A   1      46.138  32.823  28.328  1.00  0.00     0.058 A 
ATOM     62  C   UNL A   1      46.616  33.342  29.543  1.00  0.00     0.135 A 
ATOM     63  C   UNL A   1      46.029  33.705  27.241  1.00  0.00     0.135 A 
ATOM     64  F   UNL A   1      46.726  32.548  30.619  1.00  0.00    -0.206 F 
ATOM     65  C   UNL A   1      46.948  34.685  29.680  1.00  0.00     0.059 A 
ATOM     66  C   UNL A   1      46.382  35.047  27.348  1.00  0.00     0.059 A 
ATOM     67  F   UNL A   1      45.576  33.264  26.056  1.00  0.00    -0.206 F 
ATOM     68  C   UNL A   1      46.830  35.530  28.577  1.00  0.00     0.060 A 
BRANCH  68  69
ATOM     69  S   UNL A   1      47.281  37.268  28.769  1.00  0.00     0.124 S 
ATOM     70  O   UNL A   1      46.079  37.936  28.277  1.00  0.00    -0.237 OA
ATOM     71  O   UNL A   1      47.519  37.371  30.205  1.00  0.00    -0.237 OA
ATOM     72  O   UNL A   1      48.465  37.407  27.928  1.00  0.00    -0.744 OA
ENDBRANCH  68  69
ENDBRANCH  47  61
BRANCH  48  73
ATOM     73  C   UNL A   1      43.391  23.302  26.979  1.00  0.00     0.058 A 
ATOM     74  C   UNL A   1      43.195  22.400  28.035  1.00  0.00     0.135 A 
ATOM     75  C   UNL A   1      43.168  22.838  25.674  1.00  0.00     0.135 A 
ATOM     76  F   UNL A   1      43.399  22.793  29.301  1.00  0.00    -0.206 F 
ATOM     77  C   UNL A   1      42.813  21.081  27.806  1.00  0.00     0.059 A 
ATOM     78  C   UNL A   1      42.761  21.533  25.420  1.00  0.00     0.059 A 
ATOM     79  F   UNL A   1      43.324  23.668  24.629  1.00  0.00    -0.206 F 
ATOM     80  C   UNL A   1      42.598  20.657  26.493  1.00  0.00     0.060 A 
BRANCH  80  81
ATOM     81  S   UNL A   1      42.065  18.955  26.207  1.00  0.00     0.124 S 
ATOM     82  O   UNL A   1      43.012  18.518  25.189  1.00  0.00    -0.237 OA
ATOM     83  O   UNL A   1      42.227  18.357  27.529  1.00  0.00    -0.237 OA
ATOM     84  O   UNL A   1      40.683  19.107  25.762  1.00  0.00    -0.744 OA
ENDBRANCH  80  81
ENDBRANCH  48  73
BRANCH  60  85
ATOM     85  C   UNL A   1      49.420  26.744  26.264  1.00  0.00     0.058 A 
ATOM     86  C   UNL A   1      49.869  26.895  24.943  1.00  0.00     0.135 A 
ATOM     87  C   UNL A   1      50.321  26.224  27.208  1.00  0.00     0.135 A 
ATOM     88  F   UNL A   1      49.046  27.381  24.001  1.00  0.00    -0.206 F 
ATOM     89  C   UNL A   1      51.156  26.525  24.568  1.00  0.00     0.059 A 
ATOM     90  C   UNL A   1      51.621  25.875  26.862  1.00  0.00     0.059 A 
ATOM     91  F   UNL A   1      49.945  26.071  28.488  1.00  0.00    -0.206 F 
ATOM     92  C   UNL A   1      52.026  26.017  25.535  1.00  0.00     0.060 A 
BRANCH  92  93
ATOM     93  S   UNL A   1      53.706  25.575  25.042  1.00  0.00     0.124 S 
ATOM     94  O   UNL A   1      54.502  26.445  25.901  1.00  0.00    -0.237 OA
ATOM     95  O   UNL A   1      53.759  24.151  25.357  1.00  0.00    -0.237 OA
ATOM     96  O   UNL A   1      53.739  25.899  23.619  1.00  0.00    -0.744 OA
ENDBRANCH  92  93
ENDBRANCH  60  85
ENDBRANCH  34  35
ENDBRANCH  26  29
ENDBRANCH  24  25
ENDBRANCH   1  24
TORSDOF 17
ENDMDL
