MODEL 1
REMARK VINA RESULT:     -11.0      0.000      0.000
REMARK SMILES C[C@H]1[C@H](C(=O)NCCCNC(=O)c2ccc(-c3c4nc(c(-c5c(F)cc(S(=O)(=O)[O-])cc5F)c5ccc([nH]5)c(-c5c(F)cc(S(=O)(=O)[O-])cc5F)c5nc(c(-c6c(F)cc(S(=O)(=O)[O-])cc6F)c6ccc3[nH]6)C=C5)C=C4)cc2)CCN1C(=O)CC[NH2+]C1CC1
REMARK SMILES IDX 7 1 6 2 4 3 5 4 3 6 1 7 2 8 81 9 79 10 80 11 82 12 83 13
REMARK SMILES IDX 84 14 85 15 86 16 87 19 88 20 89 21 8 22 9 23 10 24 11 25
REMARK SMILES IDX 12 27 13 28 14 29 78 30 15 31 77 32 16 33 17 34 18 35 71 36
REMARK SMILES IDX 19 37 76 38 70 39 72 40 20 41 75 42 69 43 68 44 21 46 55 47
REMARK SMILES IDX 34 48 54 49 35 50 38 51 53 52 73 53 36 54 37 55 52 57 74 58
REMARK SMILES IDX 39 59 22 60 23 61 32 62 24 63 25 64 31 65 33 66 26 67 27 68
REMARK SMILES IDX 28 69 29 70 30 71 56 72 57 73 66 74 58 75 59 76 65 77 67 78
REMARK SMILES IDX 60 79 61 80 62 81 63 82 64 83 40 84 41 85 50 86 42 87 43 88
REMARK SMILES IDX 49 89 51 90 44 91 45 92 46 93 47 94 48 95
REMARK H PARENT 6 5 86 17 86 18 10 26 72 45 38 56
REMARK Flexibility Score: inf
ROOT
ATOM      1  C   UNL A   1      36.199  23.973  25.755  1.00  0.00     0.117 C 
ENDROOT
BRANCH   1   2
ATOM      2  N   UNL A   1      35.619  23.971  24.424  1.00  0.00    -0.356 N 
ATOM      3  C   UNL A   1      34.455  24.485  23.960  1.00  0.00     0.225 C 
ATOM      4  O   UNL A   1      34.195  24.310  22.766  1.00  0.00    -0.275 OA
ATOM      5  H   UNL A   1      36.167  23.521  23.742  1.00  0.00     0.163 HD
BRANCH   3   6
ATOM      6  C   UNL A   1      33.465  25.212  24.848  1.00  0.00     0.102 C 
ATOM      7  C   UNL A   1      33.823  27.379  26.002  1.00  0.00     0.032 C 
ATOM      8  C   UNL A   1      33.519  26.732  24.651  1.00  0.00     0.094 C 
ATOM      9  N   UNL A   1      32.182  27.110  24.206  1.00  0.00    -0.339 N 
ATOM     10  C   UNL A   1      31.996  24.805  24.714  1.00  0.00     0.037 C 
ATOM     11  C   UNL A   1      31.215  26.110  24.611  1.00  0.00     0.120 C 
BRANCH   9  12
ATOM     12  C   UNL A   1      31.773  28.272  23.579  1.00  0.00     0.228 C 
ATOM     13  O   UNL A   1      32.596  29.122  23.227  1.00  0.00    -0.275 OA
BRANCH  12  14
ATOM     14  C   UNL A   1      30.286  28.528  23.371  1.00  0.00     0.161 C 
BRANCH  14  15
ATOM     15  C   UNL A   1      29.949  29.068  21.980  1.00  0.00     0.270 C 
BRANCH  15  16
ATOM     16  N   UNL A   1      29.998  30.535  21.938  1.00  0.00    -0.343 N 
ATOM     17  H   UNL A   1      30.187  30.820  20.977  1.00  0.00     0.346 HD
ATOM     18  H   UNL A   1      30.730  30.819  22.589  1.00  0.00     0.346 HD
BRANCH  16  19
ATOM     19  C   UNL A   1      28.766  31.196  22.379  1.00  0.00     0.182 C 
ATOM     20  C   UNL A   1      28.615  31.787  23.755  1.00  0.00     0.071 C 
ATOM     21  C   UNL A   1      28.786  32.692  22.574  1.00  0.00     0.071 C 
ENDBRANCH  16  19
ENDBRANCH  15  16
ENDBRANCH  14  15
ENDBRANCH  12  14
ENDBRANCH   9  12
ENDBRANCH   3   6
ENDBRANCH   1   2
BRANCH   1  22
ATOM     22  C   UNL A   1      37.588  23.356  25.775  1.00  0.00     0.042 C 
BRANCH  22  23
ATOM     23  C   UNL A   1      38.566  24.069  26.697  1.00  0.00     0.118 C 
BRANCH  23  24
ATOM     24  N   UNL A   1      39.909  24.142  26.137  1.00  0.00    -0.352 N 
ATOM     25  C   UNL A   1      40.925  25.025  26.392  1.00  0.00     0.251 C 
ATOM     26  H   UNL A   1      40.120  23.447  25.471  1.00  0.00     0.163 HD
ATOM     27  O   UNL A   1      41.898  25.058  25.638  1.00  0.00    -0.269 OA
BRANCH  25  28
ATOM     28  C   UNL A   1      40.850  25.935  27.552  1.00  0.00     0.039 A 
ATOM     29  C   UNL A   1      41.776  26.974  27.659  1.00  0.00     0.014 A 
ATOM     30  C   UNL A   1      39.881  25.753  28.543  1.00  0.00     0.014 A 
ATOM     31  C   UNL A   1      41.694  27.862  28.732  1.00  0.00     0.010 A 
ATOM     32  C   UNL A   1      39.740  26.695  29.556  1.00  0.00     0.010 A 
ATOM     33  C   UNL A   1      40.652  27.752  29.669  1.00  0.00    -0.014 A 
BRANCH  33  34
ATOM     34  C   UNL A   1      40.508  28.734  30.773  1.00  0.00     0.031 A 
ATOM     35  C   UNL A   1      41.354  28.615  32.012  1.00  0.00     0.074 A 
ATOM     36  C   UNL A   1      39.576  29.703  30.677  1.00  0.00     0.049 A 
ATOM     37  N   UNL A   1      41.347  29.355  33.090  1.00  0.00    -0.248 NA
ATOM     38  C   UNL A   1      42.316  27.500  32.058  1.00  0.00     0.031 C 
ATOM     39  C   UNL A   1      38.653  29.879  29.552  1.00  0.00     0.029 A 
ATOM     40  N   UNL A   1      39.245  30.718  31.538  1.00  0.00    -0.354 N 
ATOM     41  C   UNL A   1      42.293  28.795  33.940  1.00  0.00     0.074 A 
ATOM     42  C   UNL A   1      42.806  27.614  33.283  1.00  0.00     0.031 C 
ATOM     43  C   UNL A   1      37.882  30.953  29.780  1.00  0.00     0.029 A 
ATOM     44  C   UNL A   1      38.225  31.518  31.081  1.00  0.00     0.049 A 
ATOM     45  H   UNL A   1      39.696  30.860  32.402  1.00  0.00     0.167 HD
ATOM     46  C   UNL A   1      42.719  29.242  35.147  1.00  0.00     0.037 A 
ATOM     47  C   UNL A   1      37.630  32.585  31.649  1.00  0.00     0.037 A 
ATOM     48  C   UNL A   1      42.209  30.428  35.787  1.00  0.00     0.049 A 
ATOM     49  C   UNL A   1      38.119  33.064  32.987  1.00  0.00     0.074 A 
ATOM     50  C   UNL A   1      42.604  30.995  36.986  1.00  0.00     0.029 A 
ATOM     51  N   UNL A   1      41.191  31.225  35.285  1.00  0.00    -0.354 N 
ATOM     52  N   UNL A   1      39.064  32.564  33.748  1.00  0.00    -0.248 NA
ATOM     53  C   UNL A   1      37.471  34.261  33.541  1.00  0.00     0.031 C 
ATOM     54  C   UNL A   1      41.791  32.107  37.232  1.00  0.00     0.029 A 
ATOM     55  C   UNL A   1      40.929  32.268  36.159  1.00  0.00     0.049 A 
ATOM     56  H   UNL A   1      40.723  31.073  34.432  1.00  0.00     0.167 HD
ATOM     57  C   UNL A   1      39.138  33.395  34.859  1.00  0.00     0.074 A 
ATOM     58  C   UNL A   1      38.158  34.443  34.659  1.00  0.00     0.031 C 
ATOM     59  C   UNL A   1      39.943  33.300  35.948  1.00  0.00     0.037 A 
BRANCH  46  60
ATOM     60  C   UNL A   1      43.790  28.449  35.845  1.00  0.00     0.058 A 
ATOM     61  C   UNL A   1      45.155  28.738  35.671  1.00  0.00     0.135 A 
ATOM     62  C   UNL A   1      43.455  27.404  36.721  1.00  0.00     0.135 A 
ATOM     63  F   UNL A   1      45.536  29.716  34.834  1.00  0.00    -0.206 F 
ATOM     64  C   UNL A   1      46.145  28.000  36.310  1.00  0.00     0.059 A 
ATOM     65  C   UNL A   1      44.428  26.673  37.397  1.00  0.00     0.059 A 
ATOM     66  F   UNL A   1      42.168  27.081  36.927  1.00  0.00    -0.206 F 
ATOM     67  C   UNL A   1      45.772  26.968  37.172  1.00  0.00     0.060 A 
BRANCH  67  68
ATOM     68  S   UNL A   1      47.071  26.023  37.995  1.00  0.00     0.124 S 
ATOM     69  O   UNL A   1      47.737  27.062  38.775  1.00  0.00    -0.237 OA
ATOM     70  O   UNL A   1      46.307  25.047  38.764  1.00  0.00    -0.237 OA
ATOM     71  O   UNL A   1      47.848  25.476  36.887  1.00  0.00    -0.744 OA
ENDBRANCH  67  68
ENDBRANCH  46  60
BRANCH  47  72
ATOM     72  C   UNL A   1      36.521  33.277  30.938  1.00  0.00     0.058 A 
ATOM     73  C   UNL A   1      35.192  33.154  31.373  1.00  0.00     0.135 A 
ATOM     74  C   UNL A   1      36.771  34.095  29.824  1.00  0.00     0.135 A 
ATOM     75  F   UNL A   1      34.901  32.381  32.429  1.00  0.00    -0.206 F 
ATOM     76  C   UNL A   1      34.150  33.804  30.720  1.00  0.00     0.059 A 
ATOM     77  C   UNL A   1      35.748  34.776  29.173  1.00  0.00     0.059 A 
ATOM     78  F   UNL A   1      38.026  34.260  29.381  1.00  0.00    -0.206 F 
ATOM     79  C   UNL A   1      34.439  34.617  29.624  1.00  0.00     0.060 A 
BRANCH  79  80
ATOM     80  S   UNL A   1      33.084  35.498  28.817  1.00  0.00     0.124 S 
ATOM     81  O   UNL A   1      32.319  35.974  29.963  1.00  0.00    -0.237 OA
ATOM     82  O   UNL A   1      33.796  36.520  28.054  1.00  0.00    -0.237 OA
ATOM     83  O   UNL A   1      32.442  34.461  28.014  1.00  0.00    -0.744 OA
ENDBRANCH  79  80
ENDBRANCH  47  72
BRANCH  59  84
ATOM     84  C   UNL A   1      39.813  34.373  36.994  1.00  0.00     0.058 A 
ATOM     85  C   UNL A   1      38.911  34.258  38.063  1.00  0.00     0.135 A 
ATOM     86  C   UNL A   1      40.623  35.520  36.942  1.00  0.00     0.135 A 
ATOM     87  F   UNL A   1      38.109  33.186  38.159  1.00  0.00    -0.206 F 
ATOM     88  C   UNL A   1      38.789  35.258  39.022  1.00  0.00     0.059 A 
ATOM     89  C   UNL A   1      40.542  36.517  37.909  1.00  0.00     0.059 A 
ATOM     90  F   UNL A   1      41.513  35.675  35.948  1.00  0.00    -0.206 F 
ATOM     91  C   UNL A   1      39.608  36.385  38.936  1.00  0.00     0.060 A 
BRANCH  91  92
ATOM     92  S   UNL A   1      39.448  37.670  40.192  1.00  0.00     0.124 S 
ATOM     93  O   UNL A   1      40.680  38.427  39.999  1.00  0.00    -0.237 OA
ATOM     94  O   UNL A   1      38.218  38.347  39.791  1.00  0.00    -0.237 OA
ATOM     95  O   UNL A   1      39.363  36.917  41.441  1.00  0.00    -0.744 OA
ENDBRANCH  91  92
ENDBRANCH  59  84
ENDBRANCH  33  34
ENDBRANCH  25  28
ENDBRANCH  23  24
ENDBRANCH  22  23
ENDBRANCH   1  22
TORSDOF 18
ENDMDL
MODEL 2
REMARK VINA RESULT:     -10.9      1.774      2.319
REMARK SMILES C[C@H]1[C@H](C(=O)NCCCNC(=O)c2ccc(-c3c4nc(c(-c5c(F)cc(S(=O)(=O)[O-])cc5F)c5ccc([nH]5)c(-c5c(F)cc(S(=O)(=O)[O-])cc5F)c5nc(c(-c6c(F)cc(S(=O)(=O)[O-])cc6F)c6ccc3[nH]6)C=C5)C=C4)cc2)CCN1C(=O)CC[NH2+]C1CC1
REMARK SMILES IDX 7 1 6 2 4 3 5 4 3 6 1 7 2 8 81 9 79 10 80 11 82 12 83 13
REMARK SMILES IDX 84 14 85 15 86 16 87 19 88 20 89 21 8 22 9 23 10 24 11 25
REMARK SMILES IDX 12 27 13 28 14 29 78 30 15 31 77 32 16 33 17 34 18 35 71 36
REMARK SMILES IDX 19 37 76 38 70 39 72 40 20 41 75 42 69 43 68 44 21 46 55 47
REMARK SMILES IDX 34 48 54 49 35 50 38 51 53 52 73 53 36 54 37 55 52 57 74 58
REMARK SMILES IDX 39 59 22 60 23 61 32 62 24 63 25 64 31 65 33 66 26 67 27 68
REMARK SMILES IDX 28 69 29 70 30 71 56 72 57 73 66 74 58 75 59 76 65 77 67 78
REMARK SMILES IDX 60 79 61 80 62 81 63 82 64 83 40 84 41 85 50 86 42 87 43 88
REMARK SMILES IDX 49 89 51 90 44 91 45 92 46 93 47 94 48 95
REMARK H PARENT 6 5 86 17 86 18 10 26 72 45 38 56
REMARK Flexibility Score: inf
ROOT
ATOM      1  C   UNL A   1      37.825  22.504  25.600  1.00  0.00     0.117 C 
ENDROOT
BRANCH   1   2
ATOM      2  N   UNL A   1      37.194  22.952  24.372  1.00  0.00    -0.356 N 
ATOM      3  C   UNL A   1      35.910  22.868  23.950  1.00  0.00     0.225 C 
ATOM      4  O   UNL A   1      35.652  23.315  22.829  1.00  0.00    -0.275 OA
ATOM      5  H   UNL A   1      37.804  23.394  23.738  1.00  0.00     0.163 HD
BRANCH   3   6
ATOM      6  C   UNL A   1      34.815  22.221  24.772  1.00  0.00     0.102 C 
ATOM      7  C   UNL A   1      34.615  22.232  27.246  1.00  0.00     0.032 C 
ATOM      8  C   UNL A   1      34.420  23.073  25.985  1.00  0.00     0.094 C 
ATOM      9  N   UNL A   1      33.004  23.374  25.799  1.00  0.00    -0.339 N 
ATOM     10  C   UNL A   1      33.517  21.877  24.037  1.00  0.00     0.037 C 
ATOM     11  C   UNL A   1      32.391  22.393  24.927  1.00  0.00     0.120 C 
BRANCH   9  12
ATOM     12  C   UNL A   1      32.241  24.357  26.399  1.00  0.00     0.228 C 
ATOM     13  O   UNL A   1      31.406  24.070  27.262  1.00  0.00    -0.275 OA
BRANCH  12  14
ATOM     14  C   UNL A   1      32.394  25.804  25.949  1.00  0.00     0.161 C 
BRANCH  14  15
ATOM     15  C   UNL A   1      33.441  25.993  24.850  1.00  0.00     0.270 C 
BRANCH  15  16
ATOM     16  N   UNL A   1      32.944  26.848  23.764  1.00  0.00    -0.343 N 
ATOM     17  H   UNL A   1      33.468  27.723  23.783  1.00  0.00     0.346 HD
ATOM     18  H   UNL A   1      31.946  26.977  23.931  1.00  0.00     0.346 HD
BRANCH  16  19
ATOM     19  C   UNL A   1      33.073  26.265  22.426  1.00  0.00     0.182 C 
ATOM     20  C   UNL A   1      32.585  24.879  22.099  1.00  0.00     0.071 C 
ATOM     21  C   UNL A   1      31.820  26.069  21.607  1.00  0.00     0.071 C 
ENDBRANCH  16  19
ENDBRANCH  15  16
ENDBRANCH  14  15
ENDBRANCH  12  14
ENDBRANCH   9  12
ENDBRANCH   3   6
ENDBRANCH   1   2
BRANCH   1  22
ATOM     22  C   UNL A   1      38.390  23.661  26.409  1.00  0.00     0.042 C 
BRANCH  22  23
ATOM     23  C   UNL A   1      39.785  23.405  26.960  1.00  0.00     0.118 C 
BRANCH  23  24
ATOM     24  N   UNL A   1      40.832  23.939  26.099  1.00  0.00    -0.352 N 
ATOM     25  C   UNL A   1      41.482  25.144  26.142  1.00  0.00     0.251 C 
ATOM     26  H   UNL A   1      41.117  23.338  25.372  1.00  0.00     0.163 HD
ATOM     27  O   UNL A   1      42.165  25.496  25.180  1.00  0.00    -0.269 OA
BRANCH  25  28
ATOM     28  C   UNL A   1      41.357  26.017  27.326  1.00  0.00     0.039 A 
ATOM     29  C   UNL A   1      42.232  27.097  27.467  1.00  0.00     0.014 A 
ATOM     30  C   UNL A   1      40.394  25.762  28.306  1.00  0.00     0.014 A 
ATOM     31  C   UNL A   1      42.101  27.951  28.563  1.00  0.00     0.010 A 
ATOM     32  C   UNL A   1      40.203  26.668  29.343  1.00  0.00     0.010 A 
ATOM     33  C   UNL A   1      41.061  27.765  29.490  1.00  0.00    -0.014 A 
BRANCH  33  34
ATOM     34  C   UNL A   1      40.865  28.708  30.619  1.00  0.00     0.031 A 
ATOM     35  C   UNL A   1      41.699  28.587  31.865  1.00  0.00     0.074 A 
ATOM     36  C   UNL A   1      39.896  29.642  30.538  1.00  0.00     0.049 A 
ATOM     37  N   UNL A   1      41.650  29.295  32.963  1.00  0.00    -0.248 NA
ATOM     38  C   UNL A   1      42.704  27.510  31.893  1.00  0.00     0.031 C 
ATOM     39  C   UNL A   1      38.982  29.814  29.406  1.00  0.00     0.029 A 
ATOM     40  N   UNL A   1      39.515  30.618  31.422  1.00  0.00    -0.354 N 
ATOM     41  C   UNL A   1      42.607  28.750  33.811  1.00  0.00     0.074 A 
ATOM     42  C   UNL A   1      43.175  27.609  33.127  1.00  0.00     0.031 C 
ATOM     43  C   UNL A   1      38.165  30.850  29.653  1.00  0.00     0.029 A 
ATOM     44  C   UNL A   1      38.470  31.390  30.974  1.00  0.00     0.049 A 
ATOM     45  H   UNL A   1      39.949  30.753  32.296  1.00  0.00     0.167 HD
ATOM     46  C   UNL A   1      42.999  29.178  35.035  1.00  0.00     0.037 A 
ATOM     47  C   UNL A   1      37.825  32.416  31.563  1.00  0.00     0.037 A 
ATOM     48  C   UNL A   1      42.435  30.324  35.701  1.00  0.00     0.049 A 
ATOM     49  C   UNL A   1      38.278  32.876  32.921  1.00  0.00     0.074 A 
ATOM     50  C   UNL A   1      42.792  30.871  36.921  1.00  0.00     0.029 A 
ATOM     51  N   UNL A   1      41.393  31.095  35.207  1.00  0.00    -0.354 N 
ATOM     52  N   UNL A   1      39.233  32.391  33.680  1.00  0.00    -0.248 NA
ATOM     53  C   UNL A   1      37.576  34.029  33.499  1.00  0.00     0.031 C 
ATOM     54  C   UNL A   1      41.933  31.943  37.186  1.00  0.00     0.029 A 
ATOM     55  C   UNL A   1      41.078  32.101  36.107  1.00  0.00     0.049 A 
ATOM     56  H   UNL A   1      40.942  30.948  34.345  1.00  0.00     0.167 HD
ATOM     57  C   UNL A   1      39.260  33.193  34.816  1.00  0.00     0.074 A 
ATOM     58  C   UNL A   1      38.241  34.207  34.632  1.00  0.00     0.031 C 
ATOM     59  C   UNL A   1      40.055  33.099  35.912  1.00  0.00     0.037 A 
BRANCH  46  60
ATOM     60  C   UNL A   1      44.093  28.408  35.725  1.00  0.00     0.058 A 
ATOM     61  C   UNL A   1      45.451  28.707  35.517  1.00  0.00     0.135 A 
ATOM     62  C   UNL A   1      43.786  27.376  36.626  1.00  0.00     0.135 A 
ATOM     63  F   UNL A   1      45.805  29.673  34.654  1.00  0.00    -0.206 F 
ATOM     64  C   UNL A   1      46.461  27.990  36.149  1.00  0.00     0.059 A 
ATOM     65  C   UNL A   1      44.780  26.667  37.295  1.00  0.00     0.059 A 
ATOM     66  F   UNL A   1      42.507  27.045  36.865  1.00  0.00    -0.206 F 
ATOM     67  C   UNL A   1      46.116  26.971  37.037  1.00  0.00     0.060 A 
BRANCH  67  68
ATOM     68  S   UNL A   1      47.441  26.054  37.850  1.00  0.00     0.124 S 
ATOM     69  O   UNL A   1      47.016  24.674  37.632  1.00  0.00    -0.237 OA
ATOM     70  O   UNL A   1      48.619  26.479  37.102  1.00  0.00    -0.237 OA
ATOM     71  O   UNL A   1      47.378  26.518  39.233  1.00  0.00    -0.744 OA
ENDBRANCH  67  68
ENDBRANCH  46  60
BRANCH  47  72
ATOM     72  C   UNL A   1      36.698  33.084  30.858  1.00  0.00     0.058 A 
ATOM     73  C   UNL A   1      35.370  32.889  31.265  1.00  0.00     0.135 A 
ATOM     74  C   UNL A   1      36.930  33.950  29.777  1.00  0.00     0.135 A 
ATOM     75  F   UNL A   1      35.096  32.067  32.289  1.00  0.00    -0.206 F 
ATOM     76  C   UNL A   1      34.310  33.515  30.617  1.00  0.00     0.059 A 
ATOM     77  C   UNL A   1      35.889  34.609  29.132  1.00  0.00     0.059 A 
ATOM     78  F   UNL A   1      38.184  34.185  29.361  1.00  0.00    -0.206 F 
ATOM     79  C   UNL A   1      34.581  34.378  29.553  1.00  0.00     0.060 A 
BRANCH  79  80
ATOM     80  S   UNL A   1      33.201  35.226  28.754  1.00  0.00     0.124 S 
ATOM     81  O   UNL A   1      32.477  35.757  29.902  1.00  0.00    -0.237 OA
ATOM     82  O   UNL A   1      33.890  36.210  27.922  1.00  0.00    -0.237 OA
ATOM     83  O   UNL A   1      32.530  34.157  28.020  1.00  0.00    -0.744 OA
ENDBRANCH  79  80
ENDBRANCH  47  72
BRANCH  59  84
ATOM     84  C   UNL A   1      39.869  34.136  36.986  1.00  0.00     0.058 A 
ATOM     85  C   UNL A   1      39.105  33.881  38.135  1.00  0.00     0.135 A 
ATOM     86  C   UNL A   1      40.488  35.392  36.876  1.00  0.00     0.135 A 
ATOM     87  F   UNL A   1      38.488  32.699  38.289  1.00  0.00    -0.206 F 
ATOM     88  C   UNL A   1      38.930  34.847  39.121  1.00  0.00     0.059 A 
ATOM     89  C   UNL A   1      40.353  36.362  37.865  1.00  0.00     0.059 A 
ATOM     90  F   UNL A   1      41.241  35.685  35.804  1.00  0.00    -0.206 F 
ATOM     91  C   UNL A   1      39.557  36.086  38.976  1.00  0.00     0.060 A 
BRANCH  91  92
ATOM     92  S   UNL A   1      39.330  37.327  40.266  1.00  0.00     0.124 S 
ATOM     93  O   UNL A   1      38.597  36.571  41.275  1.00  0.00    -0.237 OA
ATOM     94  O   UNL A   1      40.706  37.675  40.609  1.00  0.00    -0.237 OA
ATOM     95  O   UNL A   1      38.573  38.380  39.596  1.00  0.00    -0.744 OA
ENDBRANCH  91  92
ENDBRANCH  59  84
ENDBRANCH  33  34
ENDBRANCH  25  28
ENDBRANCH  23  24
ENDBRANCH  22  23
ENDBRANCH   1  22
TORSDOF 18
ENDMDL
MODEL 3
REMARK VINA RESULT:     -10.8      5.090     10.923
REMARK SMILES C[C@H]1[C@H](C(=O)NCCCNC(=O)c2ccc(-c3c4nc(c(-c5c(F)cc(S(=O)(=O)[O-])cc5F)c5ccc([nH]5)c(-c5c(F)cc(S(=O)(=O)[O-])cc5F)c5nc(c(-c6c(F)cc(S(=O)(=O)[O-])cc6F)c6ccc3[nH]6)C=C5)C=C4)cc2)CCN1C(=O)CC[NH2+]C1CC1
REMARK SMILES IDX 7 1 6 2 4 3 5 4 3 6 1 7 2 8 81 9 79 10 80 11 82 12 83 13
REMARK SMILES IDX 84 14 85 15 86 16 87 19 88 20 89 21 8 22 9 23 10 24 11 25
REMARK SMILES IDX 12 27 13 28 14 29 78 30 15 31 77 32 16 33 17 34 18 35 71 36
REMARK SMILES IDX 19 37 76 38 70 39 72 40 20 41 75 42 69 43 68 44 21 46 55 47
REMARK SMILES IDX 34 48 54 49 35 50 38 51 53 52 73 53 36 54 37 55 52 57 74 58
REMARK SMILES IDX 39 59 22 60 23 61 32 62 24 63 25 64 31 65 33 66 26 67 27 68
REMARK SMILES IDX 28 69 29 70 30 71 56 72 57 73 66 74 58 75 59 76 65 77 67 78
REMARK SMILES IDX 60 79 61 80 62 81 63 82 64 83 40 84 41 85 50 86 42 87 43 88
REMARK SMILES IDX 49 89 51 90 44 91 45 92 46 93 47 94 48 95
REMARK H PARENT 6 5 86 17 86 18 10 26 72 45 38 56
REMARK Flexibility Score: inf
ROOT
ATOM      1  C   UNL A   1      32.059  28.583  24.905  1.00  0.00     0.117 C 
ENDROOT
BRANCH   1   2
ATOM      2  N   UNL A   1      31.338  27.664  25.765  1.00  0.00    -0.356 N 
ATOM      3  C   UNL A   1      31.117  26.332  25.658  1.00  0.00     0.225 C 
ATOM      4  O   UNL A   1      30.434  25.798  26.536  1.00  0.00    -0.275 OA
ATOM      5  H   UNL A   1      30.943  28.079  26.565  1.00  0.00     0.163 HD
BRANCH   3   6
ATOM      6  C   UNL A   1      31.634  25.504  24.499  1.00  0.00     0.102 C 
ATOM      7  C   UNL A   1      33.828  24.352  24.362  1.00  0.00     0.032 C 
ATOM      8  C   UNL A   1      32.428  24.279  24.971  1.00  0.00     0.094 C 
ATOM      9  N   UNL A   1      31.711  23.126  24.436  1.00  0.00    -0.339 N 
ATOM     10  C   UNL A   1      30.592  24.992  23.501  1.00  0.00     0.037 C 
ATOM     11  C   UNL A   1      30.912  23.516  23.292  1.00  0.00     0.120 C 
BRANCH   9  12
ATOM     12  C   UNL A   1      31.790  21.801  24.821  1.00  0.00     0.228 C 
ATOM     13  O   UNL A   1      31.215  21.404  25.838  1.00  0.00    -0.275 OA
BRANCH  12  14
ATOM     14  C   UNL A   1      32.642  20.835  24.009  1.00  0.00     0.161 C 
BRANCH  14  15
ATOM     15  C   UNL A   1      33.732  20.144  24.832  1.00  0.00     0.270 C 
BRANCH  15  16
ATOM     16  N   UNL A   1      33.188  19.050  25.647  1.00  0.00    -0.343 N 
ATOM     17  H   UNL A   1      32.427  19.424  26.214  1.00  0.00     0.346 HD
ATOM     18  H   UNL A   1      33.963  18.693  26.206  1.00  0.00     0.346 HD
BRANCH  16  19
ATOM     19  C   UNL A   1      32.672  17.917  24.875  1.00  0.00     0.182 C 
ATOM     20  C   UNL A   1      33.558  17.055  24.016  1.00  0.00     0.071 C 
ATOM     21  C   UNL A   1      33.042  16.522  25.317  1.00  0.00     0.071 C 
ENDBRANCH  16  19
ENDBRANCH  15  16
ENDBRANCH  14  15
ENDBRANCH  12  14
ENDBRANCH   9  12
ENDBRANCH   3   6
ENDBRANCH   1   2
BRANCH   1  22
ATOM     22  C   UNL A   1      33.565  28.484  25.095  1.00  0.00     0.042 C 
BRANCH  22  23
ATOM     23  C   UNL A   1      34.007  28.530  26.550  1.00  0.00     0.118 C 
BRANCH  23  24
ATOM     24  N   UNL A   1      33.832  29.848  27.144  1.00  0.00    -0.352 N 
ATOM     25  C   UNL A   1      34.635  30.538  28.014  1.00  0.00     0.251 C 
ATOM     26  H   UNL A   1      33.008  30.317  26.879  1.00  0.00     0.163 HD
ATOM     27  O   UNL A   1      34.192  31.536  28.582  1.00  0.00    -0.269 OA
BRANCH  25  28
ATOM     28  C   UNL A   1      36.016  30.084  28.275  1.00  0.00     0.039 A 
ATOM     29  C   UNL A   1      36.959  30.154  27.248  1.00  0.00     0.014 A 
ATOM     30  C   UNL A   1      36.377  29.572  29.525  1.00  0.00     0.014 A 
ATOM     31  C   UNL A   1      38.276  29.763  27.493  1.00  0.00     0.010 A 
ATOM     32  C   UNL A   1      37.708  29.275  29.795  1.00  0.00     0.010 A 
ATOM     33  C   UNL A   1      38.669  29.355  28.779  1.00  0.00    -0.014 A 
BRANCH  33  34
ATOM     34  C   UNL A   1      40.082  29.007  29.073  1.00  0.00     0.031 A 
ATOM     35  C   UNL A   1      40.999  30.020  29.703  1.00  0.00     0.074 A 
ATOM     36  C   UNL A   1      40.549  27.792  28.723  1.00  0.00     0.049 A 
ATOM     37  N   UNL A   1      42.267  29.910  30.003  1.00  0.00    -0.248 NA
ATOM     38  C   UNL A   1      40.424  31.340  30.012  1.00  0.00     0.031 C 
ATOM     39  C   UNL A   1      39.770  26.751  28.048  1.00  0.00     0.029 A 
ATOM     40  N   UNL A   1      41.789  27.229  28.879  1.00  0.00    -0.354 N 
ATOM     41  C   UNL A   1      42.641  31.142  30.528  1.00  0.00     0.074 A 
ATOM     42  C   UNL A   1      41.485  32.006  30.443  1.00  0.00     0.031 C 
ATOM     43  C   UNL A   1      40.542  25.667  27.874  1.00  0.00     0.029 A 
ATOM     44  C   UNL A   1      41.879  25.948  28.387  1.00  0.00     0.049 A 
ATOM     45  H   UNL A   1      42.544  27.697  29.304  1.00  0.00     0.167 HD
ATOM     46  C   UNL A   1      43.831  31.511  31.061  1.00  0.00     0.037 A 
ATOM     47  C   UNL A   1      42.923  25.098  28.350  1.00  0.00     0.037 A 
ATOM     48  C   UNL A   1      44.973  30.638  31.152  1.00  0.00     0.049 A 
ATOM     49  C   UNL A   1      44.233  25.527  28.948  1.00  0.00     0.074 A 
ATOM     50  C   UNL A   1      46.210  30.896  31.716  1.00  0.00     0.029 A 
ATOM     51  N   UNL A   1      45.021  29.340  30.663  1.00  0.00    -0.354 N 
ATOM     52  N   UNL A   1      44.550  26.673  29.504  1.00  0.00    -0.248 NA
ATOM     53  C   UNL A   1      45.326  24.545  28.927  1.00  0.00     0.031 C 
ATOM     54  C   UNL A   1      47.021  29.771  31.523  1.00  0.00     0.029 A 
ATOM     55  C   UNL A   1      46.272  28.791  30.892  1.00  0.00     0.049 A 
ATOM     56  H   UNL A   1      44.275  28.877  30.217  1.00  0.00     0.167 HD
ATOM     57  C   UNL A   1      45.871  26.543  29.917  1.00  0.00     0.074 A 
ATOM     58  C   UNL A   1      46.285  25.199  29.567  1.00  0.00     0.031 C 
ATOM     59  C   UNL A   1      46.670  27.452  30.530  1.00  0.00     0.037 A 
BRANCH  46  60
ATOM     60  C   UNL A   1      43.952  32.914  31.591  1.00  0.00     0.058 A 
ATOM     61  C   UNL A   1      43.638  33.229  32.924  1.00  0.00     0.135 A 
ATOM     62  C   UNL A   1      44.413  33.955  30.769  1.00  0.00     0.135 A 
ATOM     63  F   UNL A   1      43.177  32.278  33.753  1.00  0.00    -0.206 F 
ATOM     64  C   UNL A   1      43.741  34.528  33.412  1.00  0.00     0.059 A 
ATOM     65  C   UNL A   1      44.556  35.256  31.245  1.00  0.00     0.059 A 
ATOM     66  F   UNL A   1      44.728  33.715  29.486  1.00  0.00    -0.206 F 
ATOM     67  C   UNL A   1      44.202  35.535  32.563  1.00  0.00     0.060 A 
BRANCH  67  68
ATOM     68  S   UNL A   1      44.334  37.213  33.214  1.00  0.00     0.124 S 
ATOM     69  O   UNL A   1      43.059  37.356  33.912  1.00  0.00    -0.237 OA
ATOM     70  O   UNL A   1      45.515  37.126  34.066  1.00  0.00    -0.237 OA
ATOM     71  O   UNL A   1      44.487  38.033  32.016  1.00  0.00    -0.744 OA
ENDBRANCH  67  68
ENDBRANCH  46  60
BRANCH  47  72
ATOM     72  C   UNL A   1      42.757  23.751  27.739  1.00  0.00     0.058 A 
ATOM     73  C   UNL A   1      42.897  23.559  26.356  1.00  0.00     0.135 A 
ATOM     74  C   UNL A   1      42.479  22.624  28.530  1.00  0.00     0.135 A 
ATOM     75  F   UNL A   1      43.157  24.604  25.557  1.00  0.00    -0.206 F 
ATOM     76  C   UNL A   1      42.751  22.303  25.777  1.00  0.00     0.059 A 
ATOM     77  C   UNL A   1      42.358  21.354  27.977  1.00  0.00     0.059 A 
ATOM     78  F   UNL A   1      42.355  22.752  29.860  1.00  0.00    -0.206 F 
ATOM     79  C   UNL A   1      42.486  21.205  26.597  1.00  0.00     0.060 A 
BRANCH  79  80
ATOM     80  S   UNL A   1      42.352  19.570  25.840  1.00  0.00     0.124 S 
ATOM     81  O   UNL A   1      40.950  19.545  25.442  1.00  0.00    -0.237 OA
ATOM     82  O   UNL A   1      43.324  19.657  24.753  1.00  0.00    -0.237 OA
ATOM     83  O   UNL A   1      42.719  18.667  26.926  1.00  0.00    -0.744 OA
ENDBRANCH  79  80
ENDBRANCH  47  72
BRANCH  59  84
ATOM     84  C   UNL A   1      48.066  27.014  30.882  1.00  0.00     0.058 A 
ATOM     85  C   UNL A   1      49.147  27.219  30.011  1.00  0.00     0.135 A 
ATOM     86  C   UNL A   1      48.329  26.406  32.121  1.00  0.00     0.135 A 
ATOM     87  F   UNL A   1      48.952  27.790  28.812  1.00  0.00    -0.206 F 
ATOM     88  C   UNL A   1      50.434  26.803  30.339  1.00  0.00     0.059 A 
ATOM     89  C   UNL A   1      49.614  26.012  32.484  1.00  0.00     0.059 A 
ATOM     90  F   UNL A   1      47.334  26.199  32.998  1.00  0.00    -0.206 F 
ATOM     91  C   UNL A   1      50.657  26.199  31.577  1.00  0.00     0.060 A 
BRANCH  91  92
ATOM     92  S   UNL A   1      52.332  25.674  31.995  1.00  0.00     0.124 S 
ATOM     93  O   UNL A   1      52.126  24.266  32.318  1.00  0.00    -0.237 OA
ATOM     94  O   UNL A   1      53.060  25.941  30.758  1.00  0.00    -0.237 OA
ATOM     95  O   UNL A   1      52.687  26.532  33.122  1.00  0.00    -0.744 OA
ENDBRANCH  91  92
ENDBRANCH  59  84
ENDBRANCH  33  34
ENDBRANCH  25  28
ENDBRANCH  23  24
ENDBRANCH  22  23
ENDBRANCH   1  22
TORSDOF 18
ENDMDL
