MODEL 1
REMARK VINA RESULT:     -10.8      0.000      0.000
REMARK SMILES O=C(NCCCNC(=O)c1ccc(OCc2sccc2Br)cn1)c1ccc(-c2c3nc(c(-c4c(F)cc(S(=O)(=O)[O-])cc4F)c4ccc([nH]4)c(-c4c(F)cc(S(=O)(=O)[O-])cc4F)c4nc(c(-c5c(F)cc(S(=O)(=O)[O-])cc5F)c5ccc2[nH]5)C=C4)C=C3)cc1
REMARK SMILES IDX 5 1 4 2 3 3 1 4 2 5 24 7 25 8 89 9 26 10 88 11 27 12 28 13
REMARK SMILES IDX 29 14 82 15 30 16 87 17 81 18 83 19 31 20 86 21 80 22 79 23
REMARK SMILES IDX 32 25 66 26 45 27 65 28 46 29 49 30 64 31 84 32 47 33 48 34
REMARK SMILES IDX 63 36 85 37 50 38 33 39 34 40 43 41 35 42 36 43 42 44 44 45
REMARK SMILES IDX 37 46 38 47 39 48 40 49 41 50 67 51 68 52 77 53 69 54 70 55
REMARK SMILES IDX 76 56 78 57 71 58 72 59 73 60 74 61 75 62 51 63 52 64 61 65
REMARK SMILES IDX 53 66 54 67 60 68 62 69 55 70 56 71 57 72 58 73 59 74 6 75
REMARK SMILES IDX 7 76 8 77 9 79 10 80 11 81 23 82 12 83 22 84 13 85 14 86
REMARK SMILES IDX 15 87 16 88 17 89 20 90 18 91 19 92 21 93
REMARK H PARENT 3 6 83 24 49 35 7 78
REMARK Flexibility Score: inf
ROOT
ATOM      1  C   UNL A   1      34.073  33.781  28.508  1.00  0.00     0.042 C 
ENDROOT
BRANCH   1   2
ATOM      2  C   UNL A   1      34.663  32.480  29.037  1.00  0.00     0.118 C 
BRANCH   2   3
ATOM      3  N   UNL A   1      34.023  31.297  28.476  1.00  0.00    -0.352 N 
ATOM      4  O   UNL A   1      33.874  29.304  27.447  1.00  0.00    -0.269 OA
ATOM      5  C   UNL A   1      34.574  30.112  28.056  1.00  0.00     0.251 C 
ATOM      6  H   UNL A   1      33.045  31.358  28.383  1.00  0.00     0.163 HD
BRANCH   5   7
ATOM      7  C   UNL A   1      36.002  29.814  28.307  1.00  0.00     0.039 A 
ATOM      8  C   UNL A   1      36.967  30.018  27.317  1.00  0.00     0.014 A 
ATOM      9  C   UNL A   1      36.384  29.350  29.569  1.00  0.00     0.014 A 
ATOM     10  C   UNL A   1      38.284  29.628  27.540  1.00  0.00     0.010 A 
ATOM     11  C   UNL A   1      37.723  29.041  29.819  1.00  0.00     0.010 A 
ATOM     12  C   UNL A   1      38.680  29.150  28.798  1.00  0.00    -0.014 A 
BRANCH  12  13
ATOM     13  C   UNL A   1      40.106  28.829  29.059  1.00  0.00     0.031 A 
ATOM     14  C   UNL A   1      41.047  29.872  29.593  1.00  0.00     0.074 A 
ATOM     15  C   UNL A   1      40.558  27.592  28.774  1.00  0.00     0.049 A 
ATOM     16  N   UNL A   1      42.336  29.791  29.799  1.00  0.00    -0.248 NA
ATOM     17  C   UNL A   1      40.465  31.180  29.929  1.00  0.00     0.031 C 
ATOM     18  C   UNL A   1      39.740  26.500  28.242  1.00  0.00     0.029 A 
ATOM     19  N   UNL A   1      41.813  27.048  28.873  1.00  0.00    -0.354 N 
ATOM     20  C   UNL A   1      42.728  31.041  30.264  1.00  0.00     0.074 A 
ATOM     21  C   UNL A   1      41.540  31.869  30.285  1.00  0.00     0.031 C 
ATOM     22  C   UNL A   1      40.511  25.420  28.063  1.00  0.00     0.029 A 
ATOM     23  C   UNL A   1      41.888  25.759  28.404  1.00  0.00     0.049 A 
ATOM     24  H   UNL A   1      42.585  27.534  29.244  1.00  0.00     0.167 HD
ATOM     25  C   UNL A   1      43.964  31.456  30.638  1.00  0.00     0.037 A 
ATOM     26  C   UNL A   1      42.948  24.948  28.222  1.00  0.00     0.037 A 
ATOM     27  C   UNL A   1      45.136  30.616  30.608  1.00  0.00     0.049 A 
ATOM     28  C   UNL A   1      44.314  25.434  28.608  1.00  0.00     0.074 A 
ATOM     29  C   UNL A   1      46.423  30.924  31.010  1.00  0.00     0.029 A 
ATOM     30  N   UNL A   1      45.167  29.312  30.133  1.00  0.00    -0.354 N 
ATOM     31  N   UNL A   1      44.662  26.604  29.094  1.00  0.00    -0.248 NA
ATOM     32  C   UNL A   1      45.432  24.499  28.429  1.00  0.00     0.031 C 
ATOM     33  C   UNL A   1      47.245  29.830  30.720  1.00  0.00     0.029 A 
ATOM     34  C   UNL A   1      46.459  28.813  30.200  1.00  0.00     0.049 A 
ATOM     35  H   UNL A   1      44.387  28.813  29.797  1.00  0.00     0.167 HD
ATOM     36  C   UNL A   1      46.034  26.538  29.299  1.00  0.00     0.074 A 
ATOM     37  C   UNL A   1      46.454  25.213  28.889  1.00  0.00     0.031 C 
ATOM     38  C   UNL A   1      46.865  27.488  29.794  1.00  0.00     0.037 A 
BRANCH  25  39
ATOM     39  C   UNL A   1      44.116  32.891  31.068  1.00  0.00     0.058 A 
ATOM     40  C   UNL A   1      43.904  33.300  32.394  1.00  0.00     0.135 A 
ATOM     41  C   UNL A   1      44.484  33.875  30.135  1.00  0.00     0.135 A 
ATOM     42  F   UNL A   1      43.546  32.407  33.330  1.00  0.00    -0.206 F 
ATOM     43  C   UNL A   1      43.994  34.639  32.768  1.00  0.00     0.059 A 
ATOM     44  C   UNL A   1      44.611  35.215  30.493  1.00  0.00     0.059 A 
ATOM     45  F   UNL A   1      44.709  33.543  28.854  1.00  0.00    -0.206 F 
ATOM     46  C   UNL A   1      44.337  35.590  31.806  1.00  0.00     0.060 A 
BRANCH  46  47
ATOM     47  S   UNL A   1      44.392  37.328  32.291  1.00  0.00     0.124 S 
ATOM     48  O   UNL A   1      43.937  37.985  31.069  1.00  0.00    -0.237 OA
ATOM     49  O   UNL A   1      43.461  37.369  33.414  1.00  0.00    -0.237 OA
ATOM     50  O   UNL A   1      45.794  37.543  32.634  1.00  0.00    -0.744 OA
ENDBRANCH  46  47
ENDBRANCH  25  39
BRANCH  26  51
ATOM     51  C   UNL A   1      42.731  23.605  27.626  1.00  0.00     0.058 A 
ATOM     52  C   UNL A   1      42.862  23.392  26.248  1.00  0.00     0.135 A 
ATOM     53  C   UNL A   1      42.481  22.488  28.443  1.00  0.00     0.135 A 
ATOM     54  F   UNL A   1      43.095  24.428  25.428  1.00  0.00    -0.206 F 
ATOM     55  C   UNL A   1      42.763  22.117  25.698  1.00  0.00     0.059 A 
ATOM     56  C   UNL A   1      42.406  21.203  27.920  1.00  0.00     0.059 A 
ATOM     57  F   UNL A   1      42.368  22.640  29.772  1.00  0.00    -0.206 F 
ATOM     58  C   UNL A   1      42.550  21.027  26.545  1.00  0.00     0.060 A 
BRANCH  58  59
ATOM     59  S   UNL A   1      42.527  19.369  25.831  1.00  0.00     0.124 S 
ATOM     60  O   UNL A   1      43.091  18.574  26.916  1.00  0.00    -0.237 OA
ATOM     61  O   UNL A   1      41.106  19.171  25.567  1.00  0.00    -0.237 OA
ATOM     62  O   UNL A   1      43.365  19.501  24.643  1.00  0.00    -0.744 OA
ENDBRANCH  58  59
ENDBRANCH  26  51
BRANCH  38  63
ATOM     63  C   UNL A   1      48.317  27.132  29.962  1.00  0.00     0.058 A 
ATOM     64  C   UNL A   1      49.290  27.530  29.036  1.00  0.00     0.135 A 
ATOM     65  C   UNL A   1      48.748  26.473  31.125  1.00  0.00     0.135 A 
ATOM     66  F   UNL A   1      48.932  28.151  27.901  1.00  0.00    -0.206 F 
ATOM     67  C   UNL A   1      50.644  27.293  29.258  1.00  0.00     0.059 A 
ATOM     68  C   UNL A   1      50.096  26.247  31.381  1.00  0.00     0.059 A 
ATOM     69  F   UNL A   1      47.855  26.072  32.046  1.00  0.00    -0.206 F 
ATOM     70  C   UNL A   1      51.037  26.662  30.441  1.00  0.00     0.060 A 
BRANCH  70  71
ATOM     71  S   UNL A   1      52.801  26.441  30.758  1.00  0.00     0.124 S 
ATOM     72  O   UNL A   1      52.798  25.289  31.653  1.00  0.00    -0.237 OA
ATOM     73  O   UNL A   1      53.331  26.203  29.419  1.00  0.00    -0.237 OA
ATOM     74  O   UNL A   1      53.200  27.708  31.366  1.00  0.00    -0.744 OA
ENDBRANCH  70  71
ENDBRANCH  38  63
ENDBRANCH  12  13
ENDBRANCH   5   7
ENDBRANCH   2   3
ENDBRANCH   1   2
BRANCH   1  75
ATOM     75  C   UNL A   1      34.648  35.040  29.143  1.00  0.00     0.118 C 
BRANCH  75  76
ATOM     76  N   UNL A   1      33.617  35.938  29.642  1.00  0.00    -0.351 N 
ATOM     77  C   UNL A   1      33.111  36.052  30.921  1.00  0.00     0.269 C 
ATOM     78  H   UNL A   1      33.226  36.549  28.976  1.00  0.00     0.163 HD
ATOM     79  O   UNL A   1      32.174  36.812  31.144  1.00  0.00    -0.268 OA
BRANCH  77  80
ATOM     80  C   UNL A   1      33.752  35.283  32.020  1.00  0.00     0.128 A 
ATOM     81  C   UNL A   1      34.522  35.963  32.956  1.00  0.00     0.038 A 
ATOM     82  N   UNL A   1      33.596  33.940  32.003  1.00  0.00    -0.247 NA
ATOM     83  C   UNL A   1      35.240  35.217  33.887  1.00  0.00     0.050 A 
ATOM     84  C   UNL A   1      34.310  33.249  32.923  1.00  0.00     0.158 A 
ATOM     85  C   UNL A   1      35.181  33.827  33.846  1.00  0.00     0.138 A 
BRANCH  85  86
ATOM     86  O   UNL A   1      35.920  32.961  34.598  1.00  0.00    -0.486 OA
BRANCH  86  87
ATOM     87  C   UNL A   1      37.057  33.463  35.314  1.00  0.00     0.277 C 
BRANCH  87  88
ATOM     88  C   UNL A   1      38.302  32.717  34.913  1.00  0.00     0.056 A 
ATOM     89  S   UNL A   1      38.817  31.329  35.797  1.00  0.00    -0.144 S 
ATOM     90  C   UNL A   1      39.143  32.924  33.837  1.00  0.00     0.035 A 
ATOM     91  C   UNL A   1      40.168  31.080  34.785  1.00  0.00     0.066 A 
ATOM     92  C   UNL A   1      40.213  31.994  33.757  1.00  0.00     0.028 A 
ATOM     93  Br  UNL A   1      38.961  34.273  32.524  1.00  0.00    -0.049 Br
ENDBRANCH  87  88
ENDBRANCH  86  87
ENDBRANCH  85  86
ENDBRANCH  77  80
ENDBRANCH  75  76
ENDBRANCH   1  75
TORSDOF 16
ENDMDL
MODEL 2
REMARK VINA RESULT:     -10.5      0.822      8.463
REMARK SMILES O=C(NCCCNC(=O)c1ccc(OCc2sccc2Br)cn1)c1ccc(-c2c3nc(c(-c4c(F)cc(S(=O)(=O)[O-])cc4F)c4ccc([nH]4)c(-c4c(F)cc(S(=O)(=O)[O-])cc4F)c4nc(c(-c5c(F)cc(S(=O)(=O)[O-])cc5F)c5ccc2[nH]5)C=C4)C=C3)cc1
REMARK SMILES IDX 5 1 4 2 3 3 1 4 2 5 24 7 25 8 89 9 26 10 88 11 27 12 28 13
REMARK SMILES IDX 29 14 82 15 30 16 87 17 81 18 83 19 31 20 86 21 80 22 79 23
REMARK SMILES IDX 32 25 66 26 45 27 65 28 46 29 49 30 64 31 84 32 47 33 48 34
REMARK SMILES IDX 63 36 85 37 50 38 33 39 34 40 43 41 35 42 36 43 42 44 44 45
REMARK SMILES IDX 37 46 38 47 39 48 40 49 41 50 67 51 68 52 77 53 69 54 70 55
REMARK SMILES IDX 76 56 78 57 71 58 72 59 73 60 74 61 75 62 51 63 52 64 61 65
REMARK SMILES IDX 53 66 54 67 60 68 62 69 55 70 56 71 57 72 58 73 59 74 6 75
REMARK SMILES IDX 7 76 8 77 9 79 10 80 11 81 23 82 12 83 22 84 13 85 14 86
REMARK SMILES IDX 15 87 16 88 17 89 20 90 18 91 19 92 21 93
REMARK H PARENT 3 6 83 24 49 35 7 78
REMARK Flexibility Score: inf
ROOT
ATOM      1  C   UNL A   1      33.949  33.661  28.638  1.00  0.00     0.042 C 
ENDROOT
BRANCH   1   2
ATOM      2  C   UNL A   1      34.786  32.432  28.968  1.00  0.00     0.118 C 
BRANCH   2   3
ATOM      3  N   UNL A   1      34.166  31.189  28.527  1.00  0.00    -0.352 N 
ATOM      4  O   UNL A   1      34.046  29.122  27.654  1.00  0.00    -0.269 OA
ATOM      5  C   UNL A   1      34.743  29.997  28.165  1.00  0.00     0.251 C 
ATOM      6  H   UNL A   1      33.183  31.208  28.482  1.00  0.00     0.163 HD
BRANCH   5   7
ATOM      7  C   UNL A   1      36.192  29.770  28.361  1.00  0.00     0.039 A 
ATOM      8  C   UNL A   1      37.108  30.027  27.338  1.00  0.00     0.014 A 
ATOM      9  C   UNL A   1      36.643  29.320  29.605  1.00  0.00     0.014 A 
ATOM     10  C   UNL A   1      38.451  29.703  27.509  1.00  0.00     0.010 A 
ATOM     11  C   UNL A   1      38.005  29.078  29.803  1.00  0.00     0.010 A 
ATOM     12  C   UNL A   1      38.917  29.240  28.749  1.00  0.00    -0.014 A 
BRANCH  12  13
ATOM     13  C   UNL A   1      40.365  28.989  28.955  1.00  0.00     0.031 A 
ATOM     14  C   UNL A   1      40.981  27.669  28.584  1.00  0.00     0.074 A 
ATOM     15  C   UNL A   1      41.120  29.954  29.516  1.00  0.00     0.049 A 
ATOM     16  N   UNL A   1      42.205  27.248  28.772  1.00  0.00    -0.248 NA
ATOM     17  C   UNL A   1      40.102  26.690  27.927  1.00  0.00     0.031 C 
ATOM     18  C   UNL A   1      40.631  31.271  29.927  1.00  0.00     0.029 A 
ATOM     19  N   UNL A   1      42.449  29.973  29.856  1.00  0.00    -0.354 N 
ATOM     20  C   UNL A   1      42.242  25.948  28.281  1.00  0.00     0.074 A 
ATOM     21  C   UNL A   1      40.907  25.642  27.811  1.00  0.00     0.031 C 
ATOM     22  C   UNL A   1      41.642  31.970  30.459  1.00  0.00     0.029 A 
ATOM     23  C   UNL A   1      42.834  31.129  30.490  1.00  0.00     0.049 A 
ATOM     24  H   UNL A   1      43.067  29.231  29.663  1.00  0.00     0.167 HD
ATOM     25  C   UNL A   1      43.293  25.093  28.229  1.00  0.00     0.037 A 
ATOM     26  C   UNL A   1      44.000  31.467  31.073  1.00  0.00     0.037 A 
ATOM     27  C   UNL A   1      44.615  25.416  28.705  1.00  0.00     0.049 A 
ATOM     28  C   UNL A   1      45.143  30.495  31.038  1.00  0.00     0.074 A 
ATOM     29  C   UNL A   1      45.759  24.639  28.656  1.00  0.00     0.029 A 
ATOM     30  N   UNL A   1      44.966  26.603  29.334  1.00  0.00    -0.354 N 
ATOM     31  N   UNL A   1      45.177  29.287  30.526  1.00  0.00    -0.248 NA
ATOM     32  C   UNL A   1      46.405  30.926  31.653  1.00  0.00     0.031 C 
ATOM     33  C   UNL A   1      46.784  25.329  29.310  1.00  0.00     0.029 A 
ATOM     34  C   UNL A   1      46.300  26.565  29.709  1.00  0.00     0.049 A 
ATOM     35  H   UNL A   1      44.357  27.360  29.493  1.00  0.00     0.167 HD
ATOM     36  C   UNL A   1      46.468  28.821  30.736  1.00  0.00     0.074 A 
ATOM     37  C   UNL A   1      47.187  29.878  31.419  1.00  0.00     0.031 C 
ATOM     38  C   UNL A   1      47.008  27.628  30.383  1.00  0.00     0.037 A 
BRANCH  25  39
ATOM     39  C   UNL A   1      43.041  23.714  27.679  1.00  0.00     0.058 A 
ATOM     40  C   UNL A   1      43.139  23.427  26.308  1.00  0.00     0.135 A 
ATOM     41  C   UNL A   1      42.699  22.658  28.541  1.00  0.00     0.135 A 
ATOM     42  F   UNL A   1      43.457  24.395  25.434  1.00  0.00    -0.206 F 
ATOM     43  C   UNL A   1      42.849  22.161  25.805  1.00  0.00     0.059 A 
ATOM     44  C   UNL A   1      42.437  21.377  28.064  1.00  0.00     0.059 A 
ATOM     45  F   UNL A   1      42.600  22.869  29.863  1.00  0.00    -0.206 F 
ATOM     46  C   UNL A   1      42.489  21.145  26.691  1.00  0.00     0.060 A 
BRANCH  46  47
ATOM     47  S   UNL A   1      42.059  19.525  26.019  1.00  0.00     0.124 S 
ATOM     48  O   UNL A   1      40.632  19.689  25.760  1.00  0.00    -0.237 OA
ATOM     49  O   UNL A   1      42.911  19.441  24.837  1.00  0.00    -0.237 OA
ATOM     50  O   UNL A   1      42.399  18.606  27.101  1.00  0.00    -0.744 OA
ENDBRANCH  46  47
ENDBRANCH  25  39
BRANCH  26  51
ATOM     51  C   UNL A   1      44.109  32.784  31.751  1.00  0.00     0.058 A 
ATOM     52  C   UNL A   1      43.866  32.918  33.124  1.00  0.00     0.135 A 
ATOM     53  C   UNL A   1      44.552  33.919  31.049  1.00  0.00     0.135 A 
ATOM     54  F   UNL A   1      43.435  31.864  33.835  1.00  0.00    -0.206 F 
ATOM     55  C   UNL A   1      44.068  34.127  33.782  1.00  0.00     0.059 A 
ATOM     56  C   UNL A   1      44.788  35.129  31.690  1.00  0.00     0.059 A 
ATOM     57  F   UNL A   1      44.817  33.835  29.735  1.00  0.00    -0.206 F 
ATOM     58  C   UNL A   1      44.544  35.223  33.059  1.00  0.00     0.060 A 
BRANCH  58  59
ATOM     59  S   UNL A   1      44.899  36.756  33.945  1.00  0.00     0.124 S 
ATOM     60  O   UNL A   1      46.357  36.781  33.916  1.00  0.00    -0.237 OA
ATOM     61  O   UNL A   1      44.227  37.750  33.115  1.00  0.00    -0.237 OA
ATOM     62  O   UNL A   1      44.297  36.535  35.256  1.00  0.00    -0.744 OA
ENDBRANCH  58  59
ENDBRANCH  26  51
BRANCH  38  63
ATOM     63  C   UNL A   1      48.463  27.399  30.689  1.00  0.00     0.058 A 
ATOM     64  C   UNL A   1      48.884  26.790  31.879  1.00  0.00     0.135 A 
ATOM     65  C   UNL A   1      49.440  27.700  29.725  1.00  0.00     0.135 A 
ATOM     66  F   UNL A   1      47.994  26.493  32.840  1.00  0.00    -0.206 F 
ATOM     67  C   UNL A   1      50.222  26.481  32.103  1.00  0.00     0.059 A 
ATOM     68  C   UNL A   1      50.779  27.377  29.915  1.00  0.00     0.059 A 
ATOM     69  F   UNL A   1      49.089  28.282  28.566  1.00  0.00    -0.206 F 
ATOM     70  C   UNL A   1      51.161  26.766  31.107  1.00  0.00     0.060 A 
BRANCH  70  71
ATOM     71  S   UNL A   1      52.879  26.278  31.373  1.00  0.00     0.124 S 
ATOM     72  O   UNL A   1      52.722  24.954  31.964  1.00  0.00    -0.237 OA
ATOM     73  O   UNL A   1      53.424  26.308  30.018  1.00  0.00    -0.237 OA
ATOM     74  O   UNL A   1      53.391  27.310  32.270  1.00  0.00    -0.744 OA
ENDBRANCH  70  71
ENDBRANCH  38  63
ENDBRANCH  12  13
ENDBRANCH   5   7
ENDBRANCH   2   3
ENDBRANCH   1   2
BRANCH   1  75
ATOM     75  C   UNL A   1      34.534  34.976  29.135  1.00  0.00     0.118 C 
BRANCH  75  76
ATOM     76  N   UNL A   1      33.521  35.875  29.671  1.00  0.00    -0.351 N 
ATOM     77  C   UNL A   1      33.069  35.995  30.969  1.00  0.00     0.269 C 
ATOM     78  H   UNL A   1      33.102  36.480  29.018  1.00  0.00     0.163 HD
ATOM     79  O   UNL A   1      32.140  36.753  31.227  1.00  0.00    -0.268 OA
BRANCH  77  80
ATOM     80  C   UNL A   1      33.757  35.235  32.045  1.00  0.00     0.128 A 
ATOM     81  C   UNL A   1      34.591  35.917  32.922  1.00  0.00     0.038 A 
ATOM     82  N   UNL A   1      33.575  33.894  32.065  1.00  0.00    -0.247 NA
ATOM     83  C   UNL A   1      35.348  35.175  33.826  1.00  0.00     0.050 A 
ATOM     84  C   UNL A   1      34.328  33.207  32.956  1.00  0.00     0.158 A 
ATOM     85  C   UNL A   1      35.261  33.786  33.816  1.00  0.00     0.138 A 
BRANCH  85  86
ATOM     86  O   UNL A   1      36.025  32.920  34.542  1.00  0.00    -0.486 OA
BRANCH  86  87
ATOM     87  C   UNL A   1      37.061  32.183  33.876  1.00  0.00     0.277 C 
BRANCH  87  88
ATOM     88  C   UNL A   1      38.276  33.048  33.676  1.00  0.00     0.056 A 
ATOM     89  S   UNL A   1      39.436  33.237  34.938  1.00  0.00    -0.144 S 
ATOM     90  C   UNL A   1      38.699  33.725  32.549  1.00  0.00     0.035 A 
ATOM     91  C   UNL A   1      40.424  34.258  33.993  1.00  0.00     0.066 A 
ATOM     92  C   UNL A   1      39.925  34.420  32.721  1.00  0.00     0.028 A 
ATOM     93  Br  UNL A   1      37.815  33.765  30.877  1.00  0.00    -0.049 Br
ENDBRANCH  87  88
ENDBRANCH  86  87
ENDBRANCH  85  86
ENDBRANCH  77  80
ENDBRANCH  75  76
ENDBRANCH   1  75
TORSDOF 16
ENDMDL
MODEL 3
REMARK VINA RESULT:     -10.5      3.537     11.979
REMARK SMILES O=C(NCCCNC(=O)c1ccc(OCc2sccc2Br)cn1)c1ccc(-c2c3nc(c(-c4c(F)cc(S(=O)(=O)[O-])cc4F)c4ccc([nH]4)c(-c4c(F)cc(S(=O)(=O)[O-])cc4F)c4nc(c(-c5c(F)cc(S(=O)(=O)[O-])cc5F)c5ccc2[nH]5)C=C4)C=C3)cc1
REMARK SMILES IDX 5 1 4 2 3 3 1 4 2 5 24 7 25 8 89 9 26 10 88 11 27 12 28 13
REMARK SMILES IDX 29 14 82 15 30 16 87 17 81 18 83 19 31 20 86 21 80 22 79 23
REMARK SMILES IDX 32 25 66 26 45 27 65 28 46 29 49 30 64 31 84 32 47 33 48 34
REMARK SMILES IDX 63 36 85 37 50 38 33 39 34 40 43 41 35 42 36 43 42 44 44 45
REMARK SMILES IDX 37 46 38 47 39 48 40 49 41 50 67 51 68 52 77 53 69 54 70 55
REMARK SMILES IDX 76 56 78 57 71 58 72 59 73 60 74 61 75 62 51 63 52 64 61 65
REMARK SMILES IDX 53 66 54 67 60 68 62 69 55 70 56 71 57 72 58 73 59 74 6 75
REMARK SMILES IDX 7 76 8 77 9 79 10 80 11 81 23 82 12 83 22 84 13 85 14 86
REMARK SMILES IDX 15 87 16 88 17 89 20 90 18 91 19 92 21 93
REMARK H PARENT 3 6 83 24 49 35 7 78
REMARK Flexibility Score: inf
ROOT
ATOM      1  C   UNL A   1      40.949  20.303  26.908  1.00  0.00     0.042 C 
ENDROOT
BRANCH   1   2
ATOM      2  C   UNL A   1      40.471  21.734  27.115  1.00  0.00     0.118 C 
BRANCH   2   3
ATOM      3  N   UNL A   1      39.478  22.149  26.133  1.00  0.00    -0.352 N 
ATOM      4  O   UNL A   1      37.902  23.443  25.188  1.00  0.00    -0.269 OA
ATOM      5  C   UNL A   1      38.840  23.354  25.979  1.00  0.00     0.251 C 
ATOM      6  H   UNL A   1      39.226  21.457  25.479  1.00  0.00     0.163 HD
BRANCH   5   7
ATOM      7  C   UNL A   1      39.255  24.533  26.772  1.00  0.00     0.039 A 
ATOM      8  C   UNL A   1      40.099  25.507  26.230  1.00  0.00     0.014 A 
ATOM      9  C   UNL A   1      38.766  24.680  28.073  1.00  0.00     0.014 A 
ATOM     10  C   UNL A   1      40.563  26.548  27.028  1.00  0.00     0.010 A 
ATOM     11  C   UNL A   1      39.165  25.774  28.845  1.00  0.00     0.010 A 
ATOM     12  C   UNL A   1      40.089  26.702  28.340  1.00  0.00    -0.014 A 
BRANCH  12  13
ATOM     13  C   UNL A   1      40.512  27.869  29.154  1.00  0.00     0.031 A 
ATOM     14  C   UNL A   1      41.799  27.843  29.929  1.00  0.00     0.074 A 
ATOM     15  C   UNL A   1      39.705  28.945  29.219  1.00  0.00     0.049 A 
ATOM     16  N   UNL A   1      42.282  28.734  30.756  1.00  0.00    -0.248 NA
ATOM     17  C   UNL A   1      42.649  26.654  29.764  1.00  0.00     0.031 C 
ATOM     18  C   UNL A   1      38.427  29.081  28.517  1.00  0.00     0.029 A 
ATOM     19  N   UNL A   1      39.827  30.120  29.916  1.00  0.00    -0.354 N 
ATOM     20  C   UNL A   1      43.478  28.208  31.230  1.00  0.00     0.074 A 
ATOM     21  C   UNL A   1      43.633  26.906  30.616  1.00  0.00     0.031 C 
ATOM     22  C   UNL A   1      37.884  30.268  28.817  1.00  0.00     0.029 A 
ATOM     23  C   UNL A   1      38.740  30.950  29.782  1.00  0.00     0.049 A 
ATOM     24  H   UNL A   1      40.615  30.347  30.460  1.00  0.00     0.167 HD
ATOM     25  C   UNL A   1      44.362  28.762  32.096  1.00  0.00     0.037 A 
ATOM     26  C   UNL A   1      38.436  32.110  30.396  1.00  0.00     0.037 A 
ATOM     27  C   UNL A   1      44.189  30.060  32.700  1.00  0.00     0.049 A 
ATOM     28  C   UNL A   1      39.409  32.692  31.378  1.00  0.00     0.074 A 
ATOM     29  C   UNL A   1      45.047  30.732  33.552  1.00  0.00     0.029 A 
ATOM     30  N   UNL A   1      43.076  30.874  32.530  1.00  0.00    -0.354 N 
ATOM     31  N   UNL A   1      40.560  32.206  31.779  1.00  0.00    -0.248 NA
ATOM     32  C   UNL A   1      39.051  33.978  31.991  1.00  0.00     0.031 C 
ATOM     33  C   UNL A   1      44.426  31.922  33.947  1.00  0.00     0.029 A 
ATOM     34  C   UNL A   1      43.210  32.025  33.289  1.00  0.00     0.049 A 
ATOM     35  H   UNL A   1      42.304  30.663  31.957  1.00  0.00     0.167 HD
ATOM     36  C   UNL A   1      41.076  33.136  32.673  1.00  0.00     0.074 A 
ATOM     37  C   UNL A   1      40.112  34.216  32.753  1.00  0.00     0.031 C 
ATOM     38  C   UNL A   1      42.246  33.099  33.356  1.00  0.00     0.037 A 
BRANCH  25  39
ATOM     39  C   UNL A   1      45.570  27.946  32.475  1.00  0.00     0.058 A 
ATOM     40  C   UNL A   1      46.796  28.071  31.802  1.00  0.00     0.135 A 
ATOM     41  C   UNL A   1      45.500  27.025  33.533  1.00  0.00     0.135 A 
ATOM     42  F   UNL A   1      46.924  28.931  30.780  1.00  0.00    -0.206 F 
ATOM     43  C   UNL A   1      47.890  27.272  32.125  1.00  0.00     0.059 A 
ATOM     44  C   UNL A   1      46.590  26.238  33.895  1.00  0.00     0.059 A 
ATOM     45  F   UNL A   1      44.357  26.868  34.220  1.00  0.00    -0.206 F 
ATOM     46  C   UNL A   1      47.772  26.350  33.167  1.00  0.00     0.060 A 
BRANCH  46  47
ATOM     47  S   UNL A   1      49.179  25.280  33.535  1.00  0.00     0.124 S 
ATOM     48  O   UNL A   1      49.878  25.268  32.253  1.00  0.00    -0.237 OA
ATOM     49  O   UNL A   1      49.848  26.001  34.613  1.00  0.00    -0.237 OA
ATOM     50  O   UNL A   1      48.556  24.017  33.922  1.00  0.00    -0.744 OA
ENDBRANCH  46  47
ENDBRANCH  25  39
BRANCH  26  51
ATOM     51  C   UNL A   1      37.137  32.763  30.094  1.00  0.00     0.058 A 
ATOM     52  C   UNL A   1      35.996  32.503  30.863  1.00  0.00     0.135 A 
ATOM     53  C   UNL A   1      37.040  33.736  29.083  1.00  0.00     0.135 A 
ATOM     54  F   UNL A   1      36.038  31.578  31.835  1.00  0.00    -0.206 F 
ATOM     55  C   UNL A   1      34.805  33.190  30.650  1.00  0.00     0.059 A 
ATOM     56  C   UNL A   1      35.869  34.455  28.871  1.00  0.00     0.059 A 
ATOM     57  F   UNL A   1      38.112  34.035  28.333  1.00  0.00    -0.206 F 
ATOM     58  C   UNL A   1      34.756  34.175  29.661  1.00  0.00     0.060 A 
BRANCH  58  59
ATOM     59  S   UNL A   1      33.236  35.130  29.465  1.00  0.00     0.124 S 
ATOM     60  O   UNL A   1      32.529  34.352  28.455  1.00  0.00    -0.237 OA
ATOM     61  O   UNL A   1      32.675  35.089  30.811  1.00  0.00    -0.237 OA
ATOM     62  O   UNL A   1      33.715  36.440  29.033  1.00  0.00    -0.744 OA
ENDBRANCH  58  59
ENDBRANCH  26  51
BRANCH  38  63
ATOM     63  C   UNL A   1      42.587  34.276  34.229  1.00  0.00     0.058 A 
ATOM     64  C   UNL A   1      42.351  34.267  35.611  1.00  0.00     0.135 A 
ATOM     65  C   UNL A   1      43.257  35.384  33.684  1.00  0.00     0.135 A 
ATOM     66  F   UNL A   1      41.702  33.239  36.181  1.00  0.00    -0.206 F 
ATOM     67  C   UNL A   1      42.772  35.314  36.425  1.00  0.00     0.059 A 
ATOM     68  C   UNL A   1      43.710  36.430  34.482  1.00  0.00     0.059 A 
ATOM     69  F   UNL A   1      43.510  35.440  32.366  1.00  0.00    -0.206 F 
ATOM     70  C   UNL A   1      43.463  36.385  35.852  1.00  0.00     0.060 A 
BRANCH  70  71
ATOM     71  S   UNL A   1      44.082  37.693  36.933  1.00  0.00     0.124 S 
ATOM     72  O   UNL A   1      45.385  37.163  37.321  1.00  0.00    -0.237 OA
ATOM     73  O   UNL A   1      44.106  38.848  36.041  1.00  0.00    -0.237 OA
ATOM     74  O   UNL A   1      43.086  37.753  37.999  1.00  0.00    -0.744 OA
ENDBRANCH  70  71
ENDBRANCH  38  63
ENDBRANCH  12  13
ENDBRANCH   5   7
ENDBRANCH   2   3
ENDBRANCH   1   2
BRANCH   1  75
ATOM     75  C   UNL A   1      42.399  20.057  27.303  1.00  0.00     0.118 C 
BRANCH  75  76
ATOM     76  N   UNL A   1      43.038  19.034  26.486  1.00  0.00    -0.351 N 
ATOM     77  C   UNL A   1      43.875  19.190  25.400  1.00  0.00     0.269 C 
ATOM     78  H   UNL A   1      42.847  18.104  26.744  1.00  0.00     0.163 HD
ATOM     79  O   UNL A   1      44.256  18.206  24.774  1.00  0.00    -0.268 OA
BRANCH  77  80
ATOM     80  C   UNL A   1      44.343  20.554  25.041  1.00  0.00     0.128 A 
ATOM     81  C   UNL A   1      45.709  20.797  24.960  1.00  0.00     0.038 A 
ATOM     82  N   UNL A   1      43.396  21.506  24.875  1.00  0.00    -0.247 NA
ATOM     83  C   UNL A   1      46.136  22.110  24.776  1.00  0.00     0.050 A 
ATOM     84  C   UNL A   1      43.850  22.769  24.698  1.00  0.00     0.158 A 
ATOM     85  C   UNL A   1      45.195  23.133  24.693  1.00  0.00     0.138 A 
BRANCH  85  86
ATOM     86  O   UNL A   1      45.456  24.471  24.643  1.00  0.00    -0.486 OA
BRANCH  86  87
ATOM     87  C   UNL A   1      44.599  25.371  25.360  1.00  0.00     0.277 C 
BRANCH  87  88
ATOM     88  C   UNL A   1      45.369  26.085  26.439  1.00  0.00     0.056 A 
ATOM     89  S   UNL A   1      46.816  25.400  27.082  1.00  0.00    -0.144 S 
ATOM     90  C   UNL A   1      45.143  27.320  27.011  1.00  0.00     0.035 A 
ATOM     91  C   UNL A   1      47.066  26.713  28.143  1.00  0.00     0.066 A 
ATOM     92  C   UNL A   1      46.107  27.687  27.987  1.00  0.00     0.028 A 
ATOM     93  Br  UNL A   1      43.727  28.501  26.588  1.00  0.00    -0.049 Br
ENDBRANCH  87  88
ENDBRANCH  86  87
ENDBRANCH  85  86
ENDBRANCH  77  80
ENDBRANCH  75  76
ENDBRANCH   1  75
TORSDOF 16
ENDMDL
