MODEL 1
REMARK VINA RESULT:     -12.2      0.000      0.000
REMARK SMILES Cc1cc(CC(=O)C(=O)NCCCNC(=O)c2ccc(-c3c4nc(c(-c5c(F)cc(S(=O)(=O)[O-])cc5F)c5ccc([nH]5)c(-c5c(F)cc(S(=O)(=O)[O-])cc5F)c5nc(c(-c6c(F)cc(S(=O)(=O)[O-])cc6F)c6ccc3[nH]6)C=C5)C=C4)cc2)cc2cn[nH]c12
REMARK SMILES IDX 12 1 11 2 10 3 8 4 9 5 6 7 7 8 5 9 4 10 1 11 2 12 3 13 88 14
REMARK SMILES IDX 84 15 87 16 83 17 85 18 86 19 13 21 14 22 15 23 16 25 17 26
REMARK SMILES IDX 18 27 82 28 19 29 81 30 20 31 21 32 22 33 75 34 23 35 80 36
REMARK SMILES IDX 74 37 76 38 24 39 79 40 73 41 72 42 25 44 59 45 38 46 58 47
REMARK SMILES IDX 39 48 42 49 57 50 77 51 40 52 41 53 56 55 78 56 43 57 26 58
REMARK SMILES IDX 27 59 36 60 28 61 29 62 35 63 37 64 30 65 31 66 32 67 33 68
REMARK SMILES IDX 34 69 60 70 61 71 70 72 62 73 63 74 69 75 71 76 64 77 65 78
REMARK SMILES IDX 66 79 67 80 68 81 44 82 45 83 54 84 46 85 47 86 53 87 55 88
REMARK SMILES IDX 48 89 49 90 50 91 51 92 52 93
REMARK H PARENT 10 6 87 20 14 24 76 43 42 54
REMARK Flexibility Score: inf
ROOT
ATOM      1  C   UNL A   1      33.214  30.080  27.249  1.00  0.00     0.042 C 
ENDROOT
BRANCH   1   2
ATOM      2  C   UNL A   1      32.419  30.078  25.938  1.00  0.00     0.118 C 
BRANCH   2   3
ATOM      3  N   UNL A   1      33.239  29.706  24.795  1.00  0.00    -0.349 N 
ATOM      4  C   UNL A   1      33.517  28.459  24.284  1.00  0.00     0.287 C 
ATOM      5  O   UNL A   1      34.307  28.330  23.357  1.00  0.00    -0.266 OA
ATOM      6  H   UNL A   1      33.656  30.458  24.316  1.00  0.00     0.163 HD
BRANCH   4   7
ATOM      7  C   UNL A   1      32.839  27.212  24.865  1.00  0.00     0.224 C 
ATOM      8  O   UNL A   1      31.685  26.920  24.566  1.00  0.00    -0.288 OA
BRANCH   7   9
ATOM      9  C   UNL A   1      33.621  26.444  25.902  1.00  0.00     0.122 C 
BRANCH   9  10
ATOM     10  C   UNL A   1      33.909  25.000  25.559  1.00  0.00    -0.039 A 
ATOM     11  C   UNL A   1      36.408  23.097  23.359  1.00  0.00     0.047 C 
ATOM     12  C   UNL A   1      35.281  23.374  24.310  1.00  0.00    -0.025 A 
ATOM     13  C   UNL A   1      34.953  24.694  24.669  1.00  0.00     0.009 A 
ATOM     14  C   UNL A   1      34.509  22.370  24.913  1.00  0.00     0.068 A 
ATOM     15  C   UNL A   1      33.475  22.628  25.804  1.00  0.00     0.020 A 
ATOM     16  N   UNL A   1      34.548  21.003  24.799  1.00  0.00    -0.278 N 
ATOM     17  C   UNL A   1      33.166  23.959  26.141  1.00  0.00     0.016 A 
ATOM     18  C   UNL A   1      32.980  21.351  26.153  1.00  0.00     0.143 A 
ATOM     19  N   UNL A   1      33.641  20.357  25.554  1.00  0.00    -0.183 NA
ATOM     20  H   UNL A   1      35.186  20.534  24.213  1.00  0.00     0.190 HD
ENDBRANCH   9  10
ENDBRANCH   7   9
ENDBRANCH   4   7
ENDBRANCH   2   3
ENDBRANCH   1   2
BRANCH   1  21
ATOM     21  C   UNL A   1      34.252  31.195  27.288  1.00  0.00     0.118 C 
BRANCH  21  22
ATOM     22  N   UNL A   1      34.169  32.000  28.505  1.00  0.00    -0.352 N 
ATOM     23  C   UNL A   1      34.928  31.924  29.657  1.00  0.00     0.251 C 
ATOM     24  H   UNL A   1      33.472  32.695  28.504  1.00  0.00     0.163 HD
ATOM     25  O   UNL A   1      34.516  32.440  30.686  1.00  0.00    -0.269 OA
BRANCH  23  26
ATOM     26  C   UNL A   1      36.227  31.222  29.637  1.00  0.00     0.039 A 
ATOM     27  C   UNL A   1      37.422  31.944  29.534  1.00  0.00     0.014 A 
ATOM     28  C   UNL A   1      36.252  29.830  29.678  1.00  0.00     0.014 A 
ATOM     29  C   UNL A   1      38.628  31.249  29.525  1.00  0.00     0.010 A 
ATOM     30  C   UNL A   1      37.439  29.154  29.818  1.00  0.00     0.010 A 
ATOM     31  C   UNL A   1      38.626  29.853  29.678  1.00  0.00    -0.014 A 
BRANCH  31  32
ATOM     32  C   UNL A   1      39.874  29.116  29.805  1.00  0.00     0.031 A 
ATOM     33  C   UNL A   1      40.278  28.901  31.212  1.00  0.00     0.074 A 
ATOM     34  C   UNL A   1      40.504  28.516  28.772  1.00  0.00     0.049 A 
ATOM     35  N   UNL A   1      41.150  29.576  31.883  1.00  0.00    -0.248 NA
ATOM     36  C   UNL A   1      39.487  27.973  32.038  1.00  0.00     0.031 C 
ATOM     37  C   UNL A   1      40.024  28.362  27.392  1.00  0.00     0.029 A 
ATOM     38  N   UNL A   1      41.688  27.840  28.755  1.00  0.00    -0.354 N 
ATOM     39  C   UNL A   1      41.240  28.934  33.113  1.00  0.00     0.074 A 
ATOM     40  C   UNL A   1      40.035  28.160  33.242  1.00  0.00     0.031 C 
ATOM     41  C   UNL A   1      40.799  27.467  26.736  1.00  0.00     0.029 A 
ATOM     42  C   UNL A   1      41.929  27.131  27.581  1.00  0.00     0.049 A 
ATOM     43  H   UNL A   1      42.319  27.852  29.510  1.00  0.00     0.167 HD
ATOM     44  C   UNL A   1      42.448  28.822  33.733  1.00  0.00     0.037 A 
ATOM     45  C   UNL A   1      43.003  26.349  27.309  1.00  0.00     0.037 A 
ATOM     46  C   UNL A   1      43.419  29.675  33.087  1.00  0.00     0.049 A 
ATOM     47  C   UNL A   1      44.113  26.834  28.166  1.00  0.00     0.074 A 
ATOM     48  C   UNL A   1      43.695  31.023  33.033  1.00  0.00     0.029 A 
ATOM     49  N   UNL A   1      44.030  29.089  32.008  1.00  0.00    -0.354 N 
ATOM     50  N   UNL A   1      44.635  28.027  28.054  1.00  0.00    -0.248 NA
ATOM     51  C   UNL A   1      44.425  26.128  29.403  1.00  0.00     0.031 C 
ATOM     52  C   UNL A   1      44.366  31.246  31.792  1.00  0.00     0.029 A 
ATOM     53  C   UNL A   1      44.527  30.026  31.141  1.00  0.00     0.049 A 
ATOM     54  H   UNL A   1      44.103  28.117  31.875  1.00  0.00     0.167 HD
ATOM     55  C   UNL A   1      44.963  28.376  29.348  1.00  0.00     0.074 A 
ATOM     56  C   UNL A   1      44.981  27.126  30.095  1.00  0.00     0.031 C 
ATOM     57  C   UNL A   1      44.857  29.666  29.777  1.00  0.00     0.037 A 
BRANCH  44  58
ATOM     58  C   UNL A   1      42.906  27.624  34.546  1.00  0.00     0.058 A 
ATOM     59  C   UNL A   1      43.127  27.790  35.932  1.00  0.00     0.135 A 
ATOM     60  C   UNL A   1      43.415  26.426  33.997  1.00  0.00     0.135 A 
ATOM     61  F   UNL A   1      42.692  28.889  36.567  1.00  0.00    -0.206 F 
ATOM     62  C   UNL A   1      43.855  26.871  36.693  1.00  0.00     0.059 A 
ATOM     63  C   UNL A   1      44.099  25.475  34.748  1.00  0.00     0.059 A 
ATOM     64  F   UNL A   1      43.363  26.152  32.691  1.00  0.00    -0.206 F 
ATOM     65  C   UNL A   1      44.347  25.721  36.086  1.00  0.00     0.060 A 
BRANCH  65  66
ATOM     66  S   UNL A   1      45.354  24.573  37.040  1.00  0.00     0.124 S 
ATOM     67  O   UNL A   1      44.720  24.648  38.351  1.00  0.00    -0.237 OA
ATOM     68  O   UNL A   1      45.162  23.326  36.306  1.00  0.00    -0.237 OA
ATOM     69  O   UNL A   1      46.693  25.146  36.951  1.00  0.00    -0.744 OA
ENDBRANCH  65  66
ENDBRANCH  44  58
BRANCH  45  70
ATOM     70  C   UNL A   1      43.056  25.039  26.609  1.00  0.00     0.058 A 
ATOM     71  C   UNL A   1      43.681  24.922  25.352  1.00  0.00     0.135 A 
ATOM     72  C   UNL A   1      42.804  23.835  27.292  1.00  0.00     0.135 A 
ATOM     73  F   UNL A   1      43.954  26.020  24.630  1.00  0.00    -0.206 F 
ATOM     74  C   UNL A   1      44.120  23.694  24.848  1.00  0.00     0.059 A 
ATOM     75  C   UNL A   1      43.226  22.596  26.806  1.00  0.00     0.059 A 
ATOM     76  F   UNL A   1      42.226  23.837  28.503  1.00  0.00    -0.206 F 
ATOM     77  C   UNL A   1      43.918  22.539  25.600  1.00  0.00     0.060 A 
BRANCH  77  78
ATOM     78  S   UNL A   1      44.678  20.989  25.058  1.00  0.00     0.124 S 
ATOM     79  O   UNL A   1      44.600  21.106  23.605  1.00  0.00    -0.237 OA
ATOM     80  O   UNL A   1      46.016  21.086  25.632  1.00  0.00    -0.237 OA
ATOM     81  O   UNL A   1      43.820  19.966  25.648  1.00  0.00    -0.744 OA
ENDBRANCH  77  78
ENDBRANCH  45  70
BRANCH  57  82
ATOM     82  C   UNL A   1      44.967  30.760  28.756  1.00  0.00     0.058 A 
ATOM     83  C   UNL A   1      46.159  31.198  28.156  1.00  0.00     0.135 A 
ATOM     84  C   UNL A   1      43.771  31.339  28.308  1.00  0.00     0.135 A 
ATOM     85  F   UNL A   1      47.338  30.649  28.482  1.00  0.00    -0.206 F 
ATOM     86  C   UNL A   1      46.159  32.184  27.165  1.00  0.00     0.059 A 
ATOM     87  C   UNL A   1      43.744  32.301  27.305  1.00  0.00     0.059 A 
ATOM     88  F   UNL A   1      42.595  30.935  28.820  1.00  0.00    -0.206 F 
ATOM     89  C   UNL A   1      44.944  32.726  26.743  1.00  0.00     0.060 A 
BRANCH  89  90
ATOM     90  S   UNL A   1      44.933  33.952  25.418  1.00  0.00     0.124 S 
ATOM     91  O   UNL A   1      44.374  33.197  24.301  1.00  0.00    -0.237 OA
ATOM     92  O   UNL A   1      44.077  35.001  25.967  1.00  0.00    -0.237 OA
ATOM     93  O   UNL A   1      46.340  34.320  25.279  1.00  0.00    -0.744 OA
ENDBRANCH  89  90
ENDBRANCH  57  82
ENDBRANCH  31  32
ENDBRANCH  23  26
ENDBRANCH  21  22
ENDBRANCH   1  21
TORSDOF 15
ENDMDL
MODEL 2
REMARK VINA RESULT:     -12.2      3.149      9.652
REMARK SMILES Cc1cc(CC(=O)C(=O)NCCCNC(=O)c2ccc(-c3c4nc(c(-c5c(F)cc(S(=O)(=O)[O-])cc5F)c5ccc([nH]5)c(-c5c(F)cc(S(=O)(=O)[O-])cc5F)c5nc(c(-c6c(F)cc(S(=O)(=O)[O-])cc6F)c6ccc3[nH]6)C=C5)C=C4)cc2)cc2cn[nH]c12
REMARK SMILES IDX 12 1 11 2 10 3 8 4 9 5 6 7 7 8 5 9 4 10 1 11 2 12 3 13 88 14
REMARK SMILES IDX 84 15 87 16 83 17 85 18 86 19 13 21 14 22 15 23 16 25 17 26
REMARK SMILES IDX 18 27 82 28 19 29 81 30 20 31 21 32 22 33 75 34 23 35 80 36
REMARK SMILES IDX 74 37 76 38 24 39 79 40 73 41 72 42 25 44 59 45 38 46 58 47
REMARK SMILES IDX 39 48 42 49 57 50 77 51 40 52 41 53 56 55 78 56 43 57 26 58
REMARK SMILES IDX 27 59 36 60 28 61 29 62 35 63 37 64 30 65 31 66 32 67 33 68
REMARK SMILES IDX 34 69 60 70 61 71 70 72 62 73 63 74 69 75 71 76 64 77 65 78
REMARK SMILES IDX 66 79 67 80 68 81 44 82 45 83 54 84 46 85 47 86 53 87 55 88
REMARK SMILES IDX 48 89 49 90 50 91 51 92 52 93
REMARK H PARENT 10 6 87 20 14 24 76 43 42 54
REMARK Flexibility Score: inf
ROOT
ATOM      1  C   UNL A   1      39.626  21.534  26.140  1.00  0.00     0.042 C 
ENDROOT
BRANCH   1   2
ATOM      2  C   UNL A   1      38.581  22.655  26.204  1.00  0.00     0.118 C 
BRANCH   2   3
ATOM      3  N   UNL A   1      37.956  22.902  24.913  1.00  0.00    -0.349 N 
ATOM      4  C   UNL A   1      36.808  22.365  24.378  1.00  0.00     0.287 C 
ATOM      5  O   UNL A   1      36.477  22.629  23.229  1.00  0.00    -0.266 OA
ATOM      6  H   UNL A   1      38.424  23.549  24.338  1.00  0.00     0.163 HD
BRANCH   4   7
ATOM      7  C   UNL A   1      35.922  21.434  25.214  1.00  0.00     0.224 C 
ATOM      8  O   UNL A   1      35.542  20.354  24.772  1.00  0.00    -0.288 OA
BRANCH   7   9
ATOM      9  C   UNL A   1      35.454  21.969  26.545  1.00  0.00     0.122 C 
BRANCH   9  10
ATOM     10  C   UNL A   1      34.259  22.894  26.488  1.00  0.00    -0.039 A 
ATOM     11  C   UNL A   1      33.615  26.575  25.628  1.00  0.00     0.047 C 
ATOM     12  C   UNL A   1      33.373  25.152  26.035  1.00  0.00    -0.025 A 
ATOM     13  C   UNL A   1      34.440  24.237  26.115  1.00  0.00     0.009 A 
ATOM     14  C   UNL A   1      32.104  24.635  26.334  1.00  0.00     0.068 A 
ATOM     15  C   UNL A   1      31.881  23.312  26.697  1.00  0.00     0.020 A 
ATOM     16  N   UNL A   1      30.866  25.225  26.357  1.00  0.00    -0.278 N 
ATOM     17  C   UNL A   1      32.967  22.421  26.775  1.00  0.00     0.016 A 
ATOM     18  C   UNL A   1      30.485  23.233  26.906  1.00  0.00     0.143 A 
ATOM     19  N   UNL A   1      29.861  24.392  26.685  1.00  0.00    -0.183 NA
ATOM     20  H   UNL A   1      30.724  26.177  26.151  1.00  0.00     0.190 HD
ENDBRANCH   9  10
ENDBRANCH   7   9
ENDBRANCH   4   7
ENDBRANCH   2   3
ENDBRANCH   1   2
BRANCH   1  21
ATOM     21  C   UNL A   1      40.879  21.873  26.939  1.00  0.00     0.118 C 
BRANCH  21  22
ATOM     22  N   UNL A   1      42.039  22.124  26.086  1.00  0.00    -0.352 N 
ATOM     23  C   UNL A   1      42.602  23.327  25.706  1.00  0.00     0.251 C 
ATOM     24  H   UNL A   1      42.482  21.320  25.730  1.00  0.00     0.163 HD
ATOM     25  O   UNL A   1      43.351  23.366  24.741  1.00  0.00    -0.269 OA
BRANCH  23  26
ATOM     26  C   UNL A   1      42.296  24.555  26.468  1.00  0.00     0.039 A 
ATOM     27  C   UNL A   1      42.938  24.814  27.684  1.00  0.00     0.014 A 
ATOM     28  C   UNL A   1      41.329  25.435  25.986  1.00  0.00     0.014 A 
ATOM     29  C   UNL A   1      42.630  25.985  28.371  1.00  0.00     0.010 A 
ATOM     30  C   UNL A   1      41.132  26.655  26.583  1.00  0.00     0.010 A 
ATOM     31  C   UNL A   1      41.731  26.904  27.806  1.00  0.00    -0.014 A 
BRANCH  31  32
ATOM     32  C   UNL A   1      41.491  28.194  28.436  1.00  0.00     0.031 A 
ATOM     33  C   UNL A   1      42.541  29.191  28.130  1.00  0.00     0.074 A 
ATOM     34  C   UNL A   1      40.345  28.522  29.069  1.00  0.00     0.049 A 
ATOM     35  N   UNL A   1      43.532  29.533  28.883  1.00  0.00    -0.248 NA
ATOM     36  C   UNL A   1      42.628  29.723  26.760  1.00  0.00     0.031 C 
ATOM     37  C   UNL A   1      39.099  27.744  29.138  1.00  0.00     0.029 A 
ATOM     38  N   UNL A   1      40.018  29.669  29.730  1.00  0.00    -0.354 N 
ATOM     39  C   UNL A   1      44.172  30.560  28.199  1.00  0.00     0.074 A 
ATOM     40  C   UNL A   1      43.754  30.442  26.828  1.00  0.00     0.031 C 
ATOM     41  C   UNL A   1      38.101  28.523  29.613  1.00  0.00     0.029 A 
ATOM     42  C   UNL A   1      38.669  29.783  30.054  1.00  0.00     0.049 A 
ATOM     43  H   UNL A   1      40.681  30.360  29.958  1.00  0.00     0.167 HD
ATOM     44  C   UNL A   1      44.691  31.614  28.890  1.00  0.00     0.037 A 
ATOM     45  C   UNL A   1      38.066  30.827  30.675  1.00  0.00     0.037 A 
ATOM     46  C   UNL A   1      44.718  31.317  30.303  1.00  0.00     0.049 A 
ATOM     47  C   UNL A   1      39.115  31.518  31.464  1.00  0.00     0.074 A 
ATOM     48  C   UNL A   1      45.467  30.533  31.152  1.00  0.00     0.029 A 
ATOM     49  N   UNL A   1      43.540  31.605  30.945  1.00  0.00    -0.354 N 
ATOM     50  N   UNL A   1      39.744  30.960  32.463  1.00  0.00    -0.248 NA
ATOM     51  C   UNL A   1      39.738  32.724  30.928  1.00  0.00     0.031 C 
ATOM     52  C   UNL A   1      44.627  30.233  32.267  1.00  0.00     0.029 A 
ATOM     53  C   UNL A   1      43.404  30.876  32.097  1.00  0.00     0.049 A 
ATOM     54  H   UNL A   1      42.876  32.254  30.618  1.00  0.00     0.167 HD
ATOM     55  C   UNL A   1      41.022  31.477  32.392  1.00  0.00     0.074 A 
ATOM     56  C   UNL A   1      40.912  32.668  31.562  1.00  0.00     0.031 C 
ATOM     57  C   UNL A   1      42.107  30.720  32.723  1.00  0.00     0.037 A 
BRANCH  44  58
ATOM     58  C   UNL A   1      44.693  33.057  28.413  1.00  0.00     0.058 A 
ATOM     59  C   UNL A   1      45.933  33.680  28.146  1.00  0.00     0.135 A 
ATOM     60  C   UNL A   1      43.587  33.931  28.488  1.00  0.00     0.135 A 
ATOM     61  F   UNL A   1      47.058  32.954  28.054  1.00  0.00    -0.206 F 
ATOM     62  C   UNL A   1      46.070  35.067  28.034  1.00  0.00     0.059 A 
ATOM     63  C   UNL A   1      43.693  35.309  28.329  1.00  0.00     0.059 A 
ATOM     64  F   UNL A   1      42.359  33.515  28.812  1.00  0.00    -0.206 F 
ATOM     65  C   UNL A   1      44.942  35.873  28.139  1.00  0.00     0.060 A 
BRANCH  65  66
ATOM     66  S   UNL A   1      45.120  37.664  28.076  1.00  0.00     0.124 S 
ATOM     67  O   UNL A   1      43.929  38.050  27.328  1.00  0.00    -0.237 OA
ATOM     68  O   UNL A   1      45.129  38.014  29.492  1.00  0.00    -0.237 OA
ATOM     69  O   UNL A   1      46.391  37.850  27.382  1.00  0.00    -0.744 OA
ENDBRANCH  65  66
ENDBRANCH  44  58
BRANCH  45  70
ATOM     70  C   UNL A   1      36.745  31.448  30.397  1.00  0.00     0.058 A 
ATOM     71  C   UNL A   1      35.961  31.966  31.446  1.00  0.00     0.135 A 
ATOM     72  C   UNL A   1      36.383  31.846  29.096  1.00  0.00     0.135 A 
ATOM     73  F   UNL A   1      36.231  31.635  32.718  1.00  0.00    -0.206 F 
ATOM     74  C   UNL A   1      34.944  32.901  31.227  1.00  0.00     0.059 A 
ATOM     75  C   UNL A   1      35.368  32.772  28.852  1.00  0.00     0.059 A 
ATOM     76  F   UNL A   1      37.075  31.420  28.028  1.00  0.00    -0.206 F 
ATOM     77  C   UNL A   1      34.678  33.324  29.926  1.00  0.00     0.060 A 
BRANCH  77  78
ATOM     78  S   UNL A   1      33.521  34.690  29.662  1.00  0.00     0.124 S 
ATOM     79  O   UNL A   1      34.382  35.701  29.056  1.00  0.00    -0.237 OA
ATOM     80  O   UNL A   1      32.530  34.087  28.779  1.00  0.00    -0.237 OA
ATOM     81  O   UNL A   1      33.049  35.000  31.009  1.00  0.00    -0.744 OA
ENDBRANCH  77  78
ENDBRANCH  45  70
BRANCH  57  82
ATOM     82  C   UNL A   1      41.911  29.592  33.691  1.00  0.00     0.058 A 
ATOM     83  C   UNL A   1      41.770  28.238  33.347  1.00  0.00     0.135 A 
ATOM     84  C   UNL A   1      41.950  29.908  35.057  1.00  0.00     0.135 A 
ATOM     85  F   UNL A   1      41.789  27.845  32.066  1.00  0.00    -0.206 F 
ATOM     86  C   UNL A   1      41.654  27.244  34.324  1.00  0.00     0.059 A 
ATOM     87  C   UNL A   1      41.865  28.934  36.045  1.00  0.00     0.059 A 
ATOM     88  F   UNL A   1      42.118  31.183  35.448  1.00  0.00    -0.206 F 
ATOM     89  C   UNL A   1      41.708  27.603  35.671  1.00  0.00     0.060 A 
BRANCH  89  90
ATOM     90  S   UNL A   1      41.624  26.316  36.936  1.00  0.00     0.124 S 
ATOM     91  O   UNL A   1      42.866  26.525  37.673  1.00  0.00    -0.237 OA
ATOM     92  O   UNL A   1      40.396  26.657  37.650  1.00  0.00    -0.237 OA
ATOM     93  O   UNL A   1      41.560  25.079  36.161  1.00  0.00    -0.744 OA
ENDBRANCH  89  90
ENDBRANCH  57  82
ENDBRANCH  31  32
ENDBRANCH  23  26
ENDBRANCH  21  22
ENDBRANCH   1  21
TORSDOF 15
ENDMDL
MODEL 3
REMARK VINA RESULT:     -12.2      3.049      9.670
REMARK SMILES Cc1cc(CC(=O)C(=O)NCCCNC(=O)c2ccc(-c3c4nc(c(-c5c(F)cc(S(=O)(=O)[O-])cc5F)c5ccc([nH]5)c(-c5c(F)cc(S(=O)(=O)[O-])cc5F)c5nc(c(-c6c(F)cc(S(=O)(=O)[O-])cc6F)c6ccc3[nH]6)C=C5)C=C4)cc2)cc2cn[nH]c12
REMARK SMILES IDX 12 1 11 2 10 3 8 4 9 5 6 7 7 8 5 9 4 10 1 11 2 12 3 13 88 14
REMARK SMILES IDX 84 15 87 16 83 17 85 18 86 19 13 21 14 22 15 23 16 25 17 26
REMARK SMILES IDX 18 27 82 28 19 29 81 30 20 31 21 32 22 33 75 34 23 35 80 36
REMARK SMILES IDX 74 37 76 38 24 39 79 40 73 41 72 42 25 44 59 45 38 46 58 47
REMARK SMILES IDX 39 48 42 49 57 50 77 51 40 52 41 53 56 55 78 56 43 57 26 58
REMARK SMILES IDX 27 59 36 60 28 61 29 62 35 63 37 64 30 65 31 66 32 67 33 68
REMARK SMILES IDX 34 69 60 70 61 71 70 72 62 73 63 74 69 75 71 76 64 77 65 78
REMARK SMILES IDX 66 79 67 80 68 81 44 82 45 83 54 84 46 85 47 86 53 87 55 88
REMARK SMILES IDX 48 89 49 90 50 91 51 92 52 93
REMARK H PARENT 10 6 87 20 14 24 76 43 42 54
REMARK Flexibility Score: inf
ROOT
ATOM      1  C   UNL A   1      38.909  21.888  25.981  1.00  0.00     0.042 C 
ENDROOT
BRANCH   1   2
ATOM      2  C   UNL A   1      37.851  22.982  25.787  1.00  0.00     0.118 C 
BRANCH   2   3
ATOM      3  N   UNL A   1      37.530  23.198  24.385  1.00  0.00    -0.349 N 
ATOM      4  C   UNL A   1      36.362  22.943  23.704  1.00  0.00     0.287 C 
ATOM      5  O   UNL A   1      36.301  23.112  22.492  1.00  0.00    -0.266 OA
ATOM      6  H   UNL A   1      38.256  23.583  23.843  1.00  0.00     0.163 HD
BRANCH   4   7
ATOM      7  C   UNL A   1      35.118  22.452  24.452  1.00  0.00     0.224 C 
ATOM      8  O   UNL A   1      34.706  21.303  24.314  1.00  0.00    -0.288 OA
BRANCH   7   9
ATOM      9  C   UNL A   1      34.370  23.483  25.261  1.00  0.00     0.122 C 
BRANCH   9  10
ATOM     10  C   UNL A   1      33.988  24.741  24.515  1.00  0.00    -0.039 A 
ATOM     11  C   UNL A   1      32.553  25.617  21.068  1.00  0.00     0.047 C 
ATOM     12  C   UNL A   1      33.097  25.771  22.457  1.00  0.00    -0.025 A 
ATOM     13  C   UNL A   1      33.478  24.644  23.209  1.00  0.00     0.009 A 
ATOM     14  C   UNL A   1      33.239  27.009  23.103  1.00  0.00     0.068 A 
ATOM     15  C   UNL A   1      33.730  27.148  24.396  1.00  0.00     0.020 A 
ATOM     16  N   UNL A   1      32.972  28.288  22.683  1.00  0.00    -0.278 N 
ATOM     17  C   UNL A   1      34.109  26.003  25.121  1.00  0.00     0.016 A 
ATOM     18  C   UNL A   1      33.705  28.541  24.636  1.00  0.00     0.143 A 
ATOM     19  N   UNL A   1      33.230  29.237  23.601  1.00  0.00    -0.183 NA
ATOM     20  H   UNL A   1      32.621  28.493  21.787  1.00  0.00     0.190 HD
ENDBRANCH   9  10
ENDBRANCH   7   9
ENDBRANCH   4   7
ENDBRANCH   2   3
ENDBRANCH   1   2
BRANCH   1  21
ATOM     21  C   UNL A   1      39.968  22.291  27.000  1.00  0.00     0.118 C 
BRANCH  21  22
ATOM     22  N   UNL A   1      41.329  22.142  26.487  1.00  0.00    -0.352 N 
ATOM     23  C   UNL A   1      42.260  23.117  26.182  1.00  0.00     0.251 C 
ATOM     24  H   UNL A   1      41.624  21.215  26.336  1.00  0.00     0.163 HD
ATOM     25  O   UNL A   1      43.210  22.841  25.464  1.00  0.00    -0.269 OA
BRANCH  23  26
ATOM     26  C   UNL A   1      42.101  24.481  26.725  1.00  0.00     0.039 A 
ATOM     27  C   UNL A   1      41.490  25.482  25.961  1.00  0.00     0.014 A 
ATOM     28  C   UNL A   1      42.603  24.776  27.991  1.00  0.00     0.014 A 
ATOM     29  C   UNL A   1      41.350  26.754  26.509  1.00  0.00     0.010 A 
ATOM     30  C   UNL A   1      42.336  25.983  28.587  1.00  0.00     0.010 A 
ATOM     31  C   UNL A   1      41.768  26.992  27.827  1.00  0.00    -0.014 A 
BRANCH  31  32
ATOM     32  C   UNL A   1      41.515  28.273  28.469  1.00  0.00     0.031 A 
ATOM     33  C   UNL A   1      42.559  29.281  28.179  1.00  0.00     0.074 A 
ATOM     34  C   UNL A   1      40.363  28.586  29.100  1.00  0.00     0.049 A 
ATOM     35  N   UNL A   1      43.544  29.623  28.941  1.00  0.00    -0.248 NA
ATOM     36  C   UNL A   1      42.649  29.829  26.815  1.00  0.00     0.031 C 
ATOM     37  C   UNL A   1      39.123  27.798  29.155  1.00  0.00     0.029 A 
ATOM     38  N   UNL A   1      40.024  29.723  29.771  1.00  0.00    -0.354 N 
ATOM     39  C   UNL A   1      44.178  30.662  28.270  1.00  0.00     0.074 A 
ATOM     40  C   UNL A   1      43.768  30.555  26.897  1.00  0.00     0.031 C 
ATOM     41  C   UNL A   1      38.116  28.564  29.633  1.00  0.00     0.029 A 
ATOM     42  C   UNL A   1      38.673  29.823  30.090  1.00  0.00     0.049 A 
ATOM     43  H   UNL A   1      40.681  30.417  30.010  1.00  0.00     0.167 HD
ATOM     44  C   UNL A   1      44.686  31.713  28.975  1.00  0.00     0.037 A 
ATOM     45  C   UNL A   1      38.059  30.856  30.719  1.00  0.00     0.037 A 
ATOM     46  C   UNL A   1      44.708  31.401  30.385  1.00  0.00     0.049 A 
ATOM     47  C   UNL A   1      39.099  31.547  31.520  1.00  0.00     0.074 A 
ATOM     48  C   UNL A   1      45.459  30.614  31.230  1.00  0.00     0.029 A 
ATOM     49  N   UNL A   1      43.525  31.673  31.024  1.00  0.00    -0.354 N 
ATOM     50  N   UNL A   1      39.727  30.983  32.517  1.00  0.00    -0.248 NA
ATOM     51  C   UNL A   1      39.715  32.763  31.000  1.00  0.00     0.031 C 
ATOM     52  C   UNL A   1      44.616  30.295  32.337  1.00  0.00     0.029 A 
ATOM     53  C   UNL A   1      43.389  30.931  32.168  1.00  0.00     0.049 A 
ATOM     54  H   UNL A   1      42.858  32.320  30.701  1.00  0.00     0.167 HD
ATOM     55  C   UNL A   1      41.001  31.510  32.458  1.00  0.00     0.074 A 
ATOM     56  C   UNL A   1      40.887  32.710  31.639  1.00  0.00     0.031 C 
ATOM     57  C   UNL A   1      42.090  30.759  32.785  1.00  0.00     0.037 A 
BRANCH  44  58
ATOM     58  C   UNL A   1      44.680  33.160  28.513  1.00  0.00     0.058 A 
ATOM     59  C   UNL A   1      45.917  33.802  28.279  1.00  0.00     0.135 A 
ATOM     60  C   UNL A   1      43.561  34.020  28.574  1.00  0.00     0.135 A 
ATOM     61  F   UNL A   1      47.053  33.091  28.204  1.00  0.00    -0.206 F 
ATOM     62  C   UNL A   1      46.037  35.191  28.184  1.00  0.00     0.059 A 
ATOM     63  C   UNL A   1      43.653  35.400  28.431  1.00  0.00     0.059 A 
ATOM     64  F   UNL A   1      42.332  33.585  28.868  1.00  0.00    -0.206 F 
ATOM     65  C   UNL A   1      44.897  35.982  28.274  1.00  0.00     0.060 A 
BRANCH  65  66
ATOM     66  S   UNL A   1      45.054  37.776  28.233  1.00  0.00     0.124 S 
ATOM     67  O   UNL A   1      43.934  38.186  29.073  1.00  0.00    -0.237 OA
ATOM     68  O   UNL A   1      46.385  37.973  28.796  1.00  0.00    -0.237 OA
ATOM     69  O   UNL A   1      44.928  38.091  26.813  1.00  0.00    -0.744 OA
ENDBRANCH  65  66
ENDBRANCH  44  58
BRANCH  45  70
ATOM     70  C   UNL A   1      36.735  31.470  30.441  1.00  0.00     0.058 A 
ATOM     71  C   UNL A   1      35.969  32.027  31.484  1.00  0.00     0.135 A 
ATOM     72  C   UNL A   1      36.352  31.822  29.133  1.00  0.00     0.135 A 
ATOM     73  F   UNL A   1      36.260  31.740  32.762  1.00  0.00    -0.206 F 
ATOM     74  C   UNL A   1      34.950  32.956  31.248  1.00  0.00     0.059 A 
ATOM     75  C   UNL A   1      35.334  32.741  28.873  1.00  0.00     0.059 A 
ATOM     76  F   UNL A   1      37.025  31.357  28.069  1.00  0.00    -0.206 F 
ATOM     77  C   UNL A   1      34.663  33.333  29.938  1.00  0.00     0.060 A 
BRANCH  77  78
ATOM     78  S   UNL A   1      33.505  34.692  29.645  1.00  0.00     0.124 S 
ATOM     79  O   UNL A   1      33.011  34.963  30.991  1.00  0.00    -0.237 OA
ATOM     80  O   UNL A   1      34.370  35.714  29.068  1.00  0.00    -0.237 OA
ATOM     81  O   UNL A   1      32.528  34.112  28.728  1.00  0.00    -0.744 OA
ENDBRANCH  77  78
ENDBRANCH  45  70
BRANCH  57  82
ATOM     82  C   UNL A   1      41.899  29.619  33.741  1.00  0.00     0.058 A 
ATOM     83  C   UNL A   1      41.755  28.269  33.381  1.00  0.00     0.135 A 
ATOM     84  C   UNL A   1      41.944  29.918  35.110  1.00  0.00     0.135 A 
ATOM     85  F   UNL A   1      41.768  27.892  32.095  1.00  0.00    -0.206 F 
ATOM     86  C   UNL A   1      41.643  27.263  34.346  1.00  0.00     0.059 A 
ATOM     87  C   UNL A   1      41.863  28.933  36.087  1.00  0.00     0.059 A 
ATOM     88  F   UNL A   1      42.115  31.188  35.515  1.00  0.00    -0.206 F 
ATOM     89  C   UNL A   1      41.703  27.606  35.698  1.00  0.00     0.060 A 
BRANCH  89  90
ATOM     90  S   UNL A   1      41.625  26.304  36.947  1.00  0.00     0.124 S 
ATOM     91  O   UNL A   1      40.384  26.618  37.645  1.00  0.00    -0.237 OA
ATOM     92  O   UNL A   1      41.607  25.090  36.134  1.00  0.00    -0.237 OA
ATOM     93  O   UNL A   1      42.846  26.502  37.725  1.00  0.00    -0.744 OA
ENDBRANCH  89  90
ENDBRANCH  57  82
ENDBRANCH  31  32
ENDBRANCH  23  26
ENDBRANCH  21  22
ENDBRANCH   1  21
TORSDOF 15
ENDMDL
