MODEL 1
REMARK VINA RESULT:     -13.0      0.000      0.000
REMARK SMILES O=C(C[C@H](NC(=O)[C@]12C[C@H]3C[C@H](C[C@H](C3)C1)C2)c1ccc(Cl)cc1Cl)NCCCNC(=O)c1ccc(-c2c3nc(c(-c4c(F)cc(S(=O)(=O)[O-])cc4F)c4ccc([nH]4)c(-c4c(F)cc(S(=O)(=O)[O-])cc4F)c4nc(c(-c5c(F)cc(S(=O)(=O)[O-])cc5F)c5ccc2[nH]5)C=C4)C=C3)cc1
REMARK SMILES IDX 28 1 27 2 26 3 1 4 2 5 3 7 4 8 18 9 19 10 24 11 20 12 23 13
REMARK SMILES IDX 25 14 21 15 22 16 5 17 6 18 7 20 8 21 9 22 16 23 17 24 10 25
REMARK SMILES IDX 14 26 12 27 11 28 15 29 13 30 29 31 30 32 31 33 32 35 33 36
REMARK SMILES IDX 34 37 98 38 35 39 97 40 36 41 37 42 38 43 91 44 39 45 96 46
REMARK SMILES IDX 90 47 92 48 40 49 95 50 89 51 88 52 41 54 75 55 54 56 74 57
REMARK SMILES IDX 55 58 58 59 73 60 93 61 56 62 57 63 72 65 94 66 59 67 42 68
REMARK SMILES IDX 43 69 52 70 44 71 45 72 51 73 53 74 46 75 47 76 48 77 49 78
REMARK SMILES IDX 50 79 76 80 77 81 86 82 78 83 79 84 85 85 87 86 80 87 81 88
REMARK SMILES IDX 82 89 83 90 84 91 60 92 61 93 70 94 62 95 63 96 69 97 71 98
REMARK SMILES IDX 64 99 65 100 66 101 67 102 68 103
REMARK H PARENT 26 6 5 19 30 34 92 53 58 64
REMARK Flexibility Score: inf
ROOT
ATOM      1  C   UNL A   1      35.230  31.810  27.626  1.00  0.00     0.042 C 
ENDROOT
BRANCH   1   2
ATOM      2  C   UNL A   1      34.182  30.712  27.569  1.00  0.00     0.117 C 
BRANCH   2   3
ATOM      3  N   UNL A   1      34.428  29.796  26.481  1.00  0.00    -0.356 N 
ATOM      4  O   UNL A   1      32.673  28.349  26.853  1.00  0.00    -0.275 OA
ATOM      5  C   UNL A   1      33.628  28.722  26.183  1.00  0.00     0.222 C 
ATOM      6  H   UNL A   1      35.219  29.951  25.917  1.00  0.00     0.163 HD
BRANCH   5   7
ATOM      7  C   UNL A   1      34.031  28.055  24.894  1.00  0.00     0.129 C 
BRANCH   7   8
ATOM      8  C   UNL A   1      33.026  26.998  24.414  1.00  0.00     0.123 C 
BRANCH   8   9
ATOM      9  C   UNL A   1      31.767  27.592  23.769  1.00  0.00    -0.006 A 
ATOM     10  C   UNL A   1      31.843  28.566  22.756  1.00  0.00     0.009 A 
ATOM     11  C   UNL A   1      30.479  27.257  24.260  1.00  0.00     0.047 A 
ATOM     12  C   UNL A   1      30.683  29.176  22.256  1.00  0.00     0.021 A 
ATOM     13  C   UNL A   1      29.329  27.890  23.779  1.00  0.00     0.041 A 
ATOM     14  Cl  UNL A   1      30.226  26.080  25.506  1.00  0.00    -0.084 Cl
ATOM     15  C   UNL A   1      29.436  28.841  22.777  1.00  0.00     0.042 A 
ATOM     16  Cl  UNL A   1      28.017  29.616  22.195  1.00  0.00    -0.084 Cl
ENDBRANCH   8   9
BRANCH   8  17
ATOM     17  N   UNL A   1      33.717  26.043  23.539  1.00  0.00    -0.348 N 
ATOM     18  C   UNL A   1      33.921  24.702  23.601  1.00  0.00     0.226 C 
ATOM     19  H   UNL A   1      34.113  26.462  22.741  1.00  0.00     0.164 HD
ATOM     20  O   UNL A   1      34.711  24.269  22.751  1.00  0.00    -0.274 OA
BRANCH  18  21
ATOM     21  C   UNL A   1      33.305  23.739  24.647  1.00  0.00     0.050 C 
ATOM     22  C   UNL A   1      31.816  23.387  24.455  1.00  0.00     0.020 C 
ATOM     23  C   UNL A   1      33.510  24.280  26.084  1.00  0.00     0.020 C 
ATOM     24  C   UNL A   1      34.116  22.406  24.558  1.00  0.00     0.020 C 
ATOM     25  C   UNL A   1      31.330  22.353  25.475  1.00  0.00    -0.010 C 
ATOM     26  C   UNL A   1      32.996  23.266  27.130  1.00  0.00    -0.010 C 
ATOM     27  C   UNL A   1      33.632  21.378  25.592  1.00  0.00    -0.010 C 
ATOM     28  C   UNL A   1      32.152  21.071  25.336  1.00  0.00     0.007 C 
ATOM     29  C   UNL A   1      31.510  22.955  26.879  1.00  0.00     0.007 C 
ATOM     30  C   UNL A   1      33.798  21.962  27.004  1.00  0.00     0.007 C 
ENDBRANCH  18  21
ENDBRANCH   8  17
ENDBRANCH   7   8
ENDBRANCH   5   7
ENDBRANCH   2   3
ENDBRANCH   1   2
BRANCH   1  31
ATOM     31  C   UNL A   1      35.793  32.100  29.012  1.00  0.00     0.118 C 
BRANCH  31  32
ATOM     32  N   UNL A   1      35.551  31.056  30.003  1.00  0.00    -0.352 N 
ATOM     33  C   UNL A   1      36.460  30.153  30.514  1.00  0.00     0.251 C 
ATOM     34  H   UNL A   1      34.632  30.988  30.347  1.00  0.00     0.163 HD
ATOM     35  O   UNL A   1      36.131  29.328  31.357  1.00  0.00    -0.269 OA
BRANCH  33  36
ATOM     36  C   UNL A   1      37.832  30.180  29.975  1.00  0.00     0.039 A 
ATOM     37  C   UNL A   1      38.884  30.505  30.832  1.00  0.00     0.014 A 
ATOM     38  C   UNL A   1      38.072  29.695  28.688  1.00  0.00     0.014 A 
ATOM     39  C   UNL A   1      40.194  30.239  30.431  1.00  0.00     0.010 A 
ATOM     40  C   UNL A   1      39.368  29.347  28.332  1.00  0.00     0.010 A 
ATOM     41  C   UNL A   1      40.441  29.598  29.206  1.00  0.00    -0.014 A 
BRANCH  41  42
ATOM     42  C   UNL A   1      41.803  29.151  28.817  1.00  0.00     0.031 A 
ATOM     43  C   UNL A   1      42.916  30.160  28.734  1.00  0.00     0.074 A 
ATOM     44  C   UNL A   1      42.013  27.874  28.436  1.00  0.00     0.049 A 
ATOM     45  N   UNL A   1      44.129  30.017  28.269  1.00  0.00    -0.248 NA
ATOM     46  C   UNL A   1      42.606  31.523  29.198  1.00  0.00     0.031 C 
ATOM     47  C   UNL A   1      41.000  26.815  28.415  1.00  0.00     0.029 A 
ATOM     48  N   UNL A   1      43.146  27.251  27.975  1.00  0.00    -0.354 N 
ATOM     49  C   UNL A   1      44.713  31.274  28.352  1.00  0.00     0.074 A 
ATOM     50  C   UNL A   1      43.706  32.178  28.861  1.00  0.00     0.031 C 
ATOM     51  C   UNL A   1      41.562  25.672  27.987  1.00  0.00     0.029 A 
ATOM     52  C   UNL A   1      42.962  25.923  27.662  1.00  0.00     0.049 A 
ATOM     53  H   UNL A   1      44.011  27.711  27.877  1.00  0.00     0.167 HD
ATOM     54  C   UNL A   1      45.983  31.638  28.056  1.00  0.00     0.037 A 
ATOM     55  C   UNL A   1      43.821  25.014  27.158  1.00  0.00     0.037 A 
ATOM     56  C   UNL A   1      46.993  30.721  27.599  1.00  0.00     0.049 A 
ATOM     57  C   UNL A   1      45.237  25.435  26.864  1.00  0.00     0.074 A 
ATOM     58  C   UNL A   1      48.328  30.971  27.340  1.00  0.00     0.029 A 
ATOM     59  N   UNL A   1      46.779  29.375  27.342  1.00  0.00    -0.354 N 
ATOM     60  N   UNL A   1      45.789  26.617  27.002  1.00  0.00    -0.248 NA
ATOM     61  C   UNL A   1      46.146  24.402  26.350  1.00  0.00     0.031 C 
ATOM     62  C   UNL A   1      48.915  29.782  26.893  1.00  0.00     0.029 A 
ATOM     63  C   UNL A   1      47.955  28.783  26.914  1.00  0.00     0.049 A 
ATOM     64  H   UNL A   1      45.918  28.909  27.446  1.00  0.00     0.167 HD
ATOM     65  C   UNL A   1      47.115  26.465  26.614  1.00  0.00     0.074 A 
ATOM     66  C   UNL A   1      47.285  25.074  26.247  1.00  0.00     0.031 C 
ATOM     67  C   UNL A   1      48.103  27.391  26.566  1.00  0.00     0.037 A 
BRANCH  54  68
ATOM     68  C   UNL A   1      46.350  33.085  28.234  1.00  0.00     0.058 A 
ATOM     69  C   UNL A   1      46.223  34.010  27.186  1.00  0.00     0.135 A 
ATOM     70  C   UNL A   1      46.823  33.556  29.469  1.00  0.00     0.135 A 
ATOM     71  F   UNL A   1      45.793  33.610  25.978  1.00  0.00    -0.206 F 
ATOM     72  C   UNL A   1      46.586  35.343  27.343  1.00  0.00     0.059 A 
ATOM     73  C   UNL A   1      47.165  34.892  29.658  1.00  0.00     0.059 A 
ATOM     74  F   UNL A   1      46.967  32.714  30.503  1.00  0.00    -0.206 F 
ATOM     75  C   UNL A   1      47.059  35.774  28.584  1.00  0.00     0.060 A 
BRANCH  75  76
ATOM     76  S   UNL A   1      47.532  37.506  28.771  1.00  0.00     0.124 S 
ATOM     77  O   UNL A   1      47.146  37.763  30.154  1.00  0.00    -0.237 OA
ATOM     78  O   UNL A   1      48.966  37.468  28.509  1.00  0.00    -0.237 OA
ATOM     79  O   UNL A   1      46.730  38.188  27.758  1.00  0.00    -0.744 OA
ENDBRANCH  75  76
ENDBRANCH  54  68
BRANCH  55  80
ATOM     80  C   UNL A   1      43.376  23.615  26.922  1.00  0.00     0.058 A 
ATOM     81  C   UNL A   1      43.127  23.150  25.621  1.00  0.00     0.135 A 
ATOM     82  C   UNL A   1      43.204  22.710  27.981  1.00  0.00     0.135 A 
ATOM     83  F   UNL A   1      43.270  23.978  24.575  1.00  0.00    -0.206 F 
ATOM     84  C   UNL A   1      42.709  21.844  25.380  1.00  0.00     0.059 A 
ATOM     85  C   UNL A   1      42.809  21.394  27.763  1.00  0.00     0.059 A 
ATOM     86  F   UNL A   1      43.444  23.100  29.243  1.00  0.00    -0.206 F 
ATOM     87  C   UNL A   1      42.555  20.973  26.457  1.00  0.00     0.060 A 
BRANCH  87  88
ATOM     88  S   UNL A   1      42.063  19.266  26.128  1.00  0.00     0.124 S 
ATOM     89  O   UNL A   1      40.645  19.422  25.827  1.00  0.00    -0.237 OA
ATOM     90  O   UNL A   1      42.921  18.912  25.001  1.00  0.00    -0.237 OA
ATOM     91  O   UNL A   1      42.373  18.581  27.380  1.00  0.00    -0.744 OA
ENDBRANCH  87  88
ENDBRANCH  55  80
BRANCH  67  92
ATOM     92  C   UNL A   1      49.465  26.931  26.132  1.00  0.00     0.058 A 
ATOM     93  C   UNL A   1      50.368  26.354  27.037  1.00  0.00     0.135 A 
ATOM     94  C   UNL A   1      49.841  27.001  24.781  1.00  0.00     0.135 A 
ATOM     95  F   UNL A   1      50.059  26.271  28.340  1.00  0.00    -0.206 F 
ATOM     96  C   UNL A   1      51.605  25.873  26.619  1.00  0.00     0.059 A 
ATOM     97  C   UNL A   1      51.061  26.504  24.337  1.00  0.00     0.059 A 
ATOM     98  F   UNL A   1      49.006  27.535  23.874  1.00  0.00    -0.206 F 
ATOM     99  C   UNL A   1      51.939  25.948  25.265  1.00  0.00     0.060 A 
BRANCH  99 100
ATOM    100  S   UNL A   1      53.525  25.272  24.727  1.00  0.00     0.124 S 
ATOM    101  O   UNL A   1      53.375  23.862  25.073  1.00  0.00    -0.237 OA
ATOM    102  O   UNL A   1      53.528  25.578  23.300  1.00  0.00    -0.237 OA
ATOM    103  O   UNL A   1      54.497  26.015  25.524  1.00  0.00    -0.744 OA
ENDBRANCH  99 100
ENDBRANCH  67  92
ENDBRANCH  41  42
ENDBRANCH  33  36
ENDBRANCH  31  32
ENDBRANCH   1  31
TORSDOF 17
ENDMDL
MODEL 2
REMARK VINA RESULT:     -12.9      6.063     10.604
REMARK SMILES O=C(C[C@H](NC(=O)[C@]12C[C@H]3C[C@H](C[C@H](C3)C1)C2)c1ccc(Cl)cc1Cl)NCCCNC(=O)c1ccc(-c2c3nc(c(-c4c(F)cc(S(=O)(=O)[O-])cc4F)c4ccc([nH]4)c(-c4c(F)cc(S(=O)(=O)[O-])cc4F)c4nc(c(-c5c(F)cc(S(=O)(=O)[O-])cc5F)c5ccc2[nH]5)C=C4)C=C3)cc1
REMARK SMILES IDX 28 1 27 2 26 3 1 4 2 5 3 7 4 8 18 9 19 10 24 11 20 12 23 13
REMARK SMILES IDX 25 14 21 15 22 16 5 17 6 18 7 20 8 21 9 22 16 23 17 24 10 25
REMARK SMILES IDX 14 26 12 27 11 28 15 29 13 30 29 31 30 32 31 33 32 35 33 36
REMARK SMILES IDX 34 37 98 38 35 39 97 40 36 41 37 42 38 43 91 44 39 45 96 46
REMARK SMILES IDX 90 47 92 48 40 49 95 50 89 51 88 52 41 54 75 55 54 56 74 57
REMARK SMILES IDX 55 58 58 59 73 60 93 61 56 62 57 63 72 65 94 66 59 67 42 68
REMARK SMILES IDX 43 69 52 70 44 71 45 72 51 73 53 74 46 75 47 76 48 77 49 78
REMARK SMILES IDX 50 79 76 80 77 81 86 82 78 83 79 84 85 85 87 86 80 87 81 88
REMARK SMILES IDX 82 89 83 90 84 91 60 92 61 93 70 94 62 95 63 96 69 97 71 98
REMARK SMILES IDX 64 99 65 100 66 101 67 102 68 103
REMARK H PARENT 26 6 5 19 30 34 92 53 58 64
REMARK Flexibility Score: inf
ROOT
ATOM      1  C   UNL A   1      33.144  30.898  27.250  1.00  0.00     0.042 C 
ENDROOT
BRANCH   1   2
ATOM      2  C   UNL A   1      33.951  29.613  27.176  1.00  0.00     0.117 C 
BRANCH   2   3
ATOM      3  N   UNL A   1      33.969  29.070  25.839  1.00  0.00    -0.356 N 
ATOM      4  O   UNL A   1      33.171  26.962  26.318  1.00  0.00    -0.275 OA
ATOM      5  C   UNL A   1      33.533  27.811  25.513  1.00  0.00     0.222 C 
ATOM      6  H   UNL A   1      34.316  29.639  25.114  1.00  0.00     0.163 HD
BRANCH   5   7
ATOM      7  C   UNL A   1      33.506  27.587  24.024  1.00  0.00     0.129 C 
BRANCH   7   8
ATOM      8  C   UNL A   1      32.274  26.806  23.546  1.00  0.00     0.123 C 
BRANCH   8   9
ATOM      9  C   UNL A   1      31.116  27.702  23.084  1.00  0.00    -0.006 A 
ATOM     10  C   UNL A   1      31.343  28.912  22.401  1.00  0.00     0.009 A 
ATOM     11  C   UNL A   1      29.778  27.389  23.435  1.00  0.00     0.047 A 
ATOM     12  C   UNL A   1      30.279  29.768  22.084  1.00  0.00     0.021 A 
ATOM     13  C   UNL A   1      28.726  28.261  23.143  1.00  0.00     0.041 A 
ATOM     14  Cl  UNL A   1      29.343  25.939  24.279  1.00  0.00    -0.084 Cl
ATOM     15  C   UNL A   1      28.980  29.443  22.465  1.00  0.00     0.042 A 
ATOM     16  Cl  UNL A   1      27.681  30.510  22.113  1.00  0.00    -0.084 Cl
ENDBRANCH   8   9
BRANCH   8  17
ATOM     17  N   UNL A   1      32.687  25.838  22.523  1.00  0.00    -0.348 N 
ATOM     18  C   UNL A   1      33.242  24.601  22.582  1.00  0.00     0.226 C 
ATOM     19  H   UNL A   1      32.528  26.151  21.603  1.00  0.00     0.164 HD
ATOM     20  O   UNL A   1      33.613  24.157  21.487  1.00  0.00    -0.274 OA
BRANCH  18  21
ATOM     21  C   UNL A   1      33.480  23.774  23.872  1.00  0.00     0.050 C 
ATOM     22  C   UNL A   1      32.321  23.753  24.890  1.00  0.00     0.020 C 
ATOM     23  C   UNL A   1      34.771  24.235  24.593  1.00  0.00     0.020 C 
ATOM     24  C   UNL A   1      33.729  22.300  23.417  1.00  0.00     0.020 C 
ATOM     25  C   UNL A   1      32.613  22.830  26.077  1.00  0.00    -0.010 C 
ATOM     26  C   UNL A   1      35.066  23.336  25.814  1.00  0.00    -0.010 C 
ATOM     27  C   UNL A   1      34.033  21.382  24.611  1.00  0.00    -0.010 C 
ATOM     28  C   UNL A   1      32.840  21.404  25.573  1.00  0.00     0.007 C 
ATOM     29  C   UNL A   1      33.873  23.356  26.785  1.00  0.00     0.007 C 
ATOM     30  C   UNL A   1      35.287  21.893  25.338  1.00  0.00     0.007 C 
ENDBRANCH  18  21
ENDBRANCH   8  17
ENDBRANCH   7   8
ENDBRANCH   5   7
ENDBRANCH   2   3
ENDBRANCH   1   2
BRANCH   1  31
ATOM     31  C   UNL A   1      33.937  32.142  27.630  1.00  0.00     0.118 C 
BRANCH  31  32
ATOM     32  N   UNL A   1      33.133  33.346  27.824  1.00  0.00    -0.352 N 
ATOM     33  C   UNL A   1      33.346  34.365  28.729  1.00  0.00     0.251 C 
ATOM     34  H   UNL A   1      32.347  33.441  27.240  1.00  0.00     0.163 HD
ATOM     35  O   UNL A   1      32.598  35.333  28.783  1.00  0.00    -0.269 OA
BRANCH  33  36
ATOM     36  C   UNL A   1      34.475  34.226  29.666  1.00  0.00     0.039 A 
ATOM     37  C   UNL A   1      34.247  33.637  30.910  1.00  0.00     0.014 A 
ATOM     38  C   UNL A   1      35.771  34.498  29.223  1.00  0.00     0.014 A 
ATOM     39  C   UNL A   1      35.337  33.218  31.675  1.00  0.00     0.010 A 
ATOM     40  C   UNL A   1      36.847  33.997  29.944  1.00  0.00     0.010 A 
ATOM     41  C   UNL A   1      36.641  33.336  31.167  1.00  0.00    -0.014 A 
BRANCH  41  42
ATOM     42  C   UNL A   1      37.811  32.756  31.875  1.00  0.00     0.031 A 
ATOM     43  C   UNL A   1      38.518  31.567  31.285  1.00  0.00     0.074 A 
ATOM     44  C   UNL A   1      38.166  33.225  33.090  1.00  0.00     0.049 A 
ATOM     45  N   UNL A   1      39.450  30.815  31.808  1.00  0.00    -0.248 NA
ATOM     46  C   UNL A   1      38.084  31.142  29.943  1.00  0.00     0.031 C 
ATOM     47  C   UNL A   1      37.520  34.334  33.796  1.00  0.00     0.029 A 
ATOM     48  N   UNL A   1      39.149  32.813  33.957  1.00  0.00    -0.354 N 
ATOM     49  C   UNL A   1      39.691  29.813  30.877  1.00  0.00     0.074 A 
ATOM     50  C   UNL A   1      38.769  30.020  29.782  1.00  0.00     0.031 C 
ATOM     51  C   UNL A   1      38.137  34.529  34.974  1.00  0.00     0.029 A 
ATOM     52  C   UNL A   1      39.193  33.534  35.129  1.00  0.00     0.049 A 
ATOM     53  H   UNL A   1      39.765  32.072  33.759  1.00  0.00     0.167 HD
ATOM     54  C   UNL A   1      40.614  28.824  30.918  1.00  0.00     0.037 A 
ATOM     55  C   UNL A   1      39.985  33.400  36.211  1.00  0.00     0.037 A 
ATOM     56  C   UNL A   1      41.561  28.656  31.987  1.00  0.00     0.049 A 
ATOM     57  C   UNL A   1      41.025  32.311  36.221  1.00  0.00     0.074 A 
ATOM     58  C   UNL A   1      42.585  27.733  32.094  1.00  0.00     0.029 A 
ATOM     59  N   UNL A   1      41.605  29.437  33.133  1.00  0.00    -0.354 N 
ATOM     60  N   UNL A   1      41.277  31.404  35.306  1.00  0.00    -0.248 NA
ATOM     61  C   UNL A   1      41.889  32.225  37.406  1.00  0.00     0.031 C 
ATOM     62  C   UNL A   1      43.227  27.933  33.319  1.00  0.00     0.029 A 
ATOM     63  C   UNL A   1      42.631  29.009  33.958  1.00  0.00     0.049 A 
ATOM     64  H   UNL A   1      40.996  30.185  33.331  1.00  0.00     0.167 HD
ATOM     65  C   UNL A   1      42.342  30.657  35.794  1.00  0.00     0.074 A 
ATOM     66  C   UNL A   1      42.695  31.224  37.080  1.00  0.00     0.031 C 
ATOM     67  C   UNL A   1      42.971  29.597  35.230  1.00  0.00     0.037 A 
BRANCH  54  68
ATOM     68  C   UNL A   1      40.650  27.860  29.765  1.00  0.00     0.058 A 
ATOM     69  C   UNL A   1      41.645  27.932  28.776  1.00  0.00     0.135 A 
ATOM     70  C   UNL A   1      39.687  26.844  29.652  1.00  0.00     0.135 A 
ATOM     71  F   UNL A   1      42.579  28.896  28.826  1.00  0.00    -0.206 F 
ATOM     72  C   UNL A   1      41.663  27.056  27.697  1.00  0.00     0.059 A 
ATOM     73  C   UNL A   1      39.703  25.938  28.596  1.00  0.00     0.059 A 
ATOM     74  F   UNL A   1      38.713  26.732  30.567  1.00  0.00    -0.206 F 
ATOM     75  C   UNL A   1      40.686  26.063  27.613  1.00  0.00     0.060 A 
BRANCH  75  76
ATOM     76  S   UNL A   1      40.720  24.937  26.203  1.00  0.00     0.124 S 
ATOM     77  O   UNL A   1      39.320  24.537  26.118  1.00  0.00    -0.237 OA
ATOM     78  O   UNL A   1      41.200  25.798  25.128  1.00  0.00    -0.237 OA
ATOM     79  O   UNL A   1      41.647  23.892  26.626  1.00  0.00    -0.744 OA
ENDBRANCH  75  76
ENDBRANCH  54  68
BRANCH  55  80
ATOM     80  C   UNL A   1      39.845  34.332  37.362  1.00  0.00     0.058 A 
ATOM     81  C   UNL A   1      40.529  35.558  37.380  1.00  0.00     0.135 A 
ATOM     82  C   UNL A   1      39.020  34.030  38.456  1.00  0.00     0.135 A 
ATOM     83  F   UNL A   1      41.336  35.890  36.361  1.00  0.00    -0.206 F 
ATOM     84  C   UNL A   1      40.413  36.443  38.448  1.00  0.00     0.059 A 
ATOM     85  C   UNL A   1      38.870  34.909  39.524  1.00  0.00     0.059 A 
ATOM     86  F   UNL A   1      38.332  32.878  38.480  1.00  0.00    -0.206 F 
ATOM     87  C   UNL A   1      39.579  36.111  39.515  1.00  0.00     0.060 A 
BRANCH  87  88
ATOM     88  S   UNL A   1      39.393  37.291  40.870  1.00  0.00     0.124 S 
ATOM     89  O   UNL A   1      40.767  37.745  41.053  1.00  0.00    -0.237 OA
ATOM     90  O   UNL A   1      38.467  38.266  40.303  1.00  0.00    -0.237 OA
ATOM     91  O   UNL A   1      38.847  36.475  41.951  1.00  0.00    -0.744 OA
ENDBRANCH  87  88
ENDBRANCH  55  80
BRANCH  67  92
ATOM     92  C   UNL A   1      44.127  28.998  35.979  1.00  0.00     0.058 A 
ATOM     93  C   UNL A   1      45.422  29.528  35.876  1.00  0.00     0.135 A 
ATOM     94  C   UNL A   1      43.921  27.929  36.864  1.00  0.00     0.135 A 
ATOM     95  F   UNL A   1      45.672  30.546  35.038  1.00  0.00    -0.206 F 
ATOM     96  C   UNL A   1      46.477  29.008  36.619  1.00  0.00     0.059 A 
ATOM     97  C   UNL A   1      44.956  27.410  37.635  1.00  0.00     0.059 A 
ATOM     98  F   UNL A   1      42.697  27.395  37.005  1.00  0.00    -0.206 F 
ATOM     99  C   UNL A   1      46.232  27.951  37.499  1.00  0.00     0.060 A 
BRANCH  99 100
ATOM    100  S   UNL A   1      47.600  27.322  38.496  1.00  0.00     0.124 S 
ATOM    101  O   UNL A   1      48.019  28.523  39.211  1.00  0.00    -0.237 OA
ATOM    102  O   UNL A   1      46.950  26.296  39.306  1.00  0.00    -0.237 OA
ATOM    103  O   UNL A   1      48.543  26.822  37.499  1.00  0.00    -0.744 OA
ENDBRANCH  99 100
ENDBRANCH  67  92
ENDBRANCH  41  42
ENDBRANCH  33  36
ENDBRANCH  31  32
ENDBRANCH   1  31
TORSDOF 17
ENDMDL
MODEL 3
REMARK VINA RESULT:     -12.9      6.345     11.733
REMARK SMILES O=C(C[C@H](NC(=O)[C@]12C[C@H]3C[C@H](C[C@H](C3)C1)C2)c1ccc(Cl)cc1Cl)NCCCNC(=O)c1ccc(-c2c3nc(c(-c4c(F)cc(S(=O)(=O)[O-])cc4F)c4ccc([nH]4)c(-c4c(F)cc(S(=O)(=O)[O-])cc4F)c4nc(c(-c5c(F)cc(S(=O)(=O)[O-])cc5F)c5ccc2[nH]5)C=C4)C=C3)cc1
REMARK SMILES IDX 28 1 27 2 26 3 1 4 2 5 3 7 4 8 18 9 19 10 24 11 20 12 23 13
REMARK SMILES IDX 25 14 21 15 22 16 5 17 6 18 7 20 8 21 9 22 16 23 17 24 10 25
REMARK SMILES IDX 14 26 12 27 11 28 15 29 13 30 29 31 30 32 31 33 32 35 33 36
REMARK SMILES IDX 34 37 98 38 35 39 97 40 36 41 37 42 38 43 91 44 39 45 96 46
REMARK SMILES IDX 90 47 92 48 40 49 95 50 89 51 88 52 41 54 75 55 54 56 74 57
REMARK SMILES IDX 55 58 58 59 73 60 93 61 56 62 57 63 72 65 94 66 59 67 42 68
REMARK SMILES IDX 43 69 52 70 44 71 45 72 51 73 53 74 46 75 47 76 48 77 49 78
REMARK SMILES IDX 50 79 76 80 77 81 86 82 78 83 79 84 85 85 87 86 80 87 81 88
REMARK SMILES IDX 82 89 83 90 84 91 60 92 61 93 70 94 62 95 63 96 69 97 71 98
REMARK SMILES IDX 64 99 65 100 66 101 67 102 68 103
REMARK H PARENT 26 6 5 19 30 34 92 53 58 64
REMARK Flexibility Score: inf
ROOT
ATOM      1  C   UNL A   1      39.679  22.553  27.268  1.00  0.00     0.042 C 
ENDROOT
BRANCH   1   2
ATOM      2  C   UNL A   1      38.857  22.277  26.021  1.00  0.00     0.117 C 
BRANCH   2   3
ATOM      3  N   UNL A   1      37.633  23.041  26.008  1.00  0.00    -0.356 N 
ATOM      4  O   UNL A   1      37.105  22.799  23.779  1.00  0.00    -0.275 OA
ATOM      5  C   UNL A   1      36.834  23.198  24.905  1.00  0.00     0.222 C 
ATOM      6  H   UNL A   1      37.353  23.477  26.846  1.00  0.00     0.163 HD
BRANCH   5   7
ATOM      7  C   UNL A   1      35.540  23.893  25.235  1.00  0.00     0.129 C 
BRANCH   7   8
ATOM      8  C   UNL A   1      34.359  23.431  24.368  1.00  0.00     0.123 C 
BRANCH   8   9
ATOM      9  C   UNL A   1      33.033  23.334  25.134  1.00  0.00    -0.006 A 
ATOM     10  C   UNL A   1      32.944  23.647  26.504  1.00  0.00     0.009 A 
ATOM     11  C   UNL A   1      31.874  22.814  24.505  1.00  0.00     0.047 A 
ATOM     12  C   UNL A   1      31.749  23.449  27.210  1.00  0.00     0.021 A 
ATOM     13  C   UNL A   1      30.695  22.590  25.221  1.00  0.00     0.041 A 
ATOM     14  Cl  UNL A   1      31.830  22.380  22.827  1.00  0.00    -0.084 Cl
ATOM     15  C   UNL A   1      30.636  22.913  26.568  1.00  0.00     0.042 A 
ATOM     16  Cl  UNL A   1      29.184  22.631  27.441  1.00  0.00    -0.084 Cl
ENDBRANCH   8   9
BRANCH   8  17
ATOM     17  N   UNL A   1      34.271  24.291  23.182  1.00  0.00    -0.348 N 
ATOM     18  C   UNL A   1      33.807  25.550  22.977  1.00  0.00     0.226 C 
ATOM     19  H   UNL A   1      34.621  23.866  22.366  1.00  0.00     0.164 HD
ATOM     20  O   UNL A   1      33.740  25.879  21.785  1.00  0.00    -0.274 OA
BRANCH  18  21
ATOM     21  C   UNL A   1      33.329  26.531  24.079  1.00  0.00     0.050 C 
ATOM     22  C   UNL A   1      34.083  26.464  25.422  1.00  0.00     0.020 C 
ATOM     23  C   UNL A   1      31.813  26.364  24.346  1.00  0.00     0.020 C 
ATOM     24  C   UNL A   1      33.521  27.972  23.506  1.00  0.00     0.020 C 
ATOM     25  C   UNL A   1      33.606  27.538  26.405  1.00  0.00    -0.010 C 
ATOM     26  C   UNL A   1      31.317  27.418  25.361  1.00  0.00    -0.010 C 
ATOM     27  C   UNL A   1      33.030  29.044  24.491  1.00  0.00    -0.010 C 
ATOM     28  C   UNL A   1      33.825  28.923  25.796  1.00  0.00     0.007 C 
ATOM     29  C   UNL A   1      32.110  27.301  26.674  1.00  0.00     0.007 C 
ATOM     30  C   UNL A   1      31.536  28.822  24.778  1.00  0.00     0.007 C 
ENDBRANCH  18  21
ENDBRANCH   8  17
ENDBRANCH   7   8
ENDBRANCH   5   7
ENDBRANCH   2   3
ENDBRANCH   1   2
BRANCH   1  31
ATOM     31  C   UNL A   1      41.102  23.037  27.015  1.00  0.00     0.118 C 
BRANCH  31  32
ATOM     32  N   UNL A   1      41.240  23.988  25.916  1.00  0.00    -0.352 N 
ATOM     33  C   UNL A   1      41.416  25.353  26.000  1.00  0.00     0.251 C 
ATOM     34  H   UNL A   1      41.204  23.610  25.008  1.00  0.00     0.163 HD
ATOM     35  O   UNL A   1      41.531  26.042  24.994  1.00  0.00    -0.269 OA
BRANCH  33  36
ATOM     36  C   UNL A   1      41.409  25.965  27.341  1.00  0.00     0.039 A 
ATOM     37  C   UNL A   1      42.562  26.607  27.792  1.00  0.00     0.014 A 
ATOM     38  C   UNL A   1      40.207  26.061  28.044  1.00  0.00     0.014 A 
ATOM     39  C   UNL A   1      42.483  27.446  28.905  1.00  0.00     0.010 A 
ATOM     40  C   UNL A   1      40.112  26.967  29.093  1.00  0.00     0.010 A 
ATOM     41  C   UNL A   1      41.243  27.682  29.523  1.00  0.00    -0.014 A 
BRANCH  41  42
ATOM     42  C   UNL A   1      41.088  28.690  30.603  1.00  0.00     0.031 A 
ATOM     43  C   UNL A   1      41.960  28.604  31.825  1.00  0.00     0.074 A 
ATOM     44  C   UNL A   1      40.099  29.605  30.536  1.00  0.00     0.049 A 
ATOM     45  N   UNL A   1      41.886  29.276  32.944  1.00  0.00    -0.248 NA
ATOM     46  C   UNL A   1      43.032  27.595  31.800  1.00  0.00     0.031 C 
ATOM     47  C   UNL A   1      39.148  29.752  29.431  1.00  0.00     0.029 A 
ATOM     48  N   UNL A   1      39.715  30.577  31.428  1.00  0.00    -0.354 N 
ATOM     49  C   UNL A   1      42.876  28.750  33.764  1.00  0.00     0.074 A 
ATOM     50  C   UNL A   1      43.500  27.668  33.036  1.00  0.00     0.031 C 
ATOM     51  C   UNL A   1      38.309  30.766  29.699  1.00  0.00     0.029 A 
ATOM     52  C   UNL A   1      38.631  31.315  31.012  1.00  0.00     0.049 A 
ATOM     53  H   UNL A   1      40.174  30.732  32.284  1.00  0.00     0.167 HD
ATOM     54  C   UNL A   1      43.249  29.150  35.002  1.00  0.00     0.037 A 
ATOM     55  C   UNL A   1      37.963  32.313  31.625  1.00  0.00     0.037 A 
ATOM     56  C   UNL A   1      42.656  30.261  35.698  1.00  0.00     0.049 A 
ATOM     57  C   UNL A   1      38.415  32.761  32.990  1.00  0.00     0.074 A 
ATOM     58  C   UNL A   1      43.007  30.795  36.924  1.00  0.00     0.029 A 
ATOM     59  N   UNL A   1      41.592  31.014  35.222  1.00  0.00    -0.354 N 
ATOM     60  N   UNL A   1      39.391  32.289  33.729  1.00  0.00    -0.248 NA
ATOM     61  C   UNL A   1      37.679  33.875  33.603  1.00  0.00     0.031 C 
ATOM     62  C   UNL A   1      42.133  31.851  37.206  1.00  0.00     0.029 A 
ATOM     63  C   UNL A   1      41.265  32.001  36.136  1.00  0.00     0.049 A 
ATOM     64  H   UNL A   1      41.136  30.868  34.361  1.00  0.00     0.167 HD
ATOM     65  C   UNL A   1      39.402  33.063  34.884  1.00  0.00     0.074 A 
ATOM     66  C   UNL A   1      38.342  34.041  34.740  1.00  0.00     0.031 C 
ATOM     67  C   UNL A   1      40.213  32.973  35.965  1.00  0.00     0.037 A 
BRANCH  54  68
ATOM     68  C   UNL A   1      44.359  28.389  35.673  1.00  0.00     0.058 A 
ATOM     69  C   UNL A   1      44.097  27.300  36.519  1.00  0.00     0.135 A 
ATOM     70  C   UNL A   1      45.700  28.745  35.458  1.00  0.00     0.135 A 
ATOM     71  F   UNL A   1      42.832  26.930  36.774  1.00  0.00    -0.206 F 
ATOM     72  C   UNL A   1      45.123  26.613  37.158  1.00  0.00     0.059 A 
ATOM     73  C   UNL A   1      46.744  28.052  36.064  1.00  0.00     0.059 A 
ATOM     74  F   UNL A   1      46.006  29.779  34.660  1.00  0.00    -0.206 F 
ATOM     75  C   UNL A   1      46.444  26.998  36.926  1.00  0.00     0.060 A 
BRANCH  75  76
ATOM     76  S   UNL A   1      47.764  26.099  37.768  1.00  0.00     0.124 S 
ATOM     77  O   UNL A   1      48.016  26.963  38.916  1.00  0.00    -0.237 OA
ATOM     78  O   UNL A   1      47.130  24.819  38.065  1.00  0.00    -0.237 OA
ATOM     79  O   UNL A   1      48.830  26.051  36.772  1.00  0.00    -0.744 OA
ENDBRANCH  75  76
ENDBRANCH  54  68
BRANCH  55  80
ATOM     80  C   UNL A   1      36.815  32.973  30.947  1.00  0.00     0.058 A 
ATOM     81  C   UNL A   1      35.502  32.773  31.399  1.00  0.00     0.135 A 
ATOM     82  C   UNL A   1      37.003  33.824  29.847  1.00  0.00     0.135 A 
ATOM     83  F   UNL A   1      35.269  31.962  32.443  1.00  0.00    -0.206 F 
ATOM     84  C   UNL A   1      34.414  33.380  30.777  1.00  0.00     0.059 A 
ATOM     85  C   UNL A   1      35.934  34.461  29.223  1.00  0.00     0.059 A 
ATOM     86  F   UNL A   1      38.240  34.062  29.385  1.00  0.00    -0.206 F 
ATOM     87  C   UNL A   1      34.641  34.225  29.691  1.00  0.00     0.060 A 
BRANCH  87  88
ATOM     88  S   UNL A   1      33.227  35.049  28.925  1.00  0.00     0.124 S 
ATOM     89  O   UNL A   1      32.780  34.039  27.972  1.00  0.00    -0.237 OA
ATOM     90  O   UNL A   1      32.351  35.282  30.069  1.00  0.00    -0.237 OA
ATOM     91  O   UNL A   1      33.817  36.251  28.343  1.00  0.00    -0.744 OA
ENDBRANCH  87  88
ENDBRANCH  55  80
BRANCH  67  92
ATOM     92  C   UNL A   1      40.015  33.974  37.066  1.00  0.00     0.058 A 
ATOM     93  C   UNL A   1      40.599  35.249  37.013  1.00  0.00     0.135 A 
ATOM     94  C   UNL A   1      39.173  33.680  38.150  1.00  0.00     0.135 A 
ATOM     95  F   UNL A   1      41.418  35.576  36.001  1.00  0.00    -0.206 F 
ATOM     96  C   UNL A   1      40.363  36.195  38.006  1.00  0.00     0.059 A 
ATOM     97  C   UNL A   1      38.903  34.619  39.140  1.00  0.00     0.059 A 
ATOM     98  F   UNL A   1      38.583  32.477  38.240  1.00  0.00    -0.206 F 
ATOM     99  C   UNL A   1      39.510  35.871  39.062  1.00  0.00     0.060 A 
BRANCH  99 100
ATOM    100  S   UNL A   1      39.170  37.127  40.315  1.00  0.00     0.124 S 
ATOM    101  O   UNL A   1      40.511  37.417  40.811  1.00  0.00    -0.237 OA
ATOM    102  O   UNL A   1      38.540  38.186  39.534  1.00  0.00    -0.237 OA
ATOM    103  O   UNL A   1      38.288  36.438  41.253  1.00  0.00    -0.744 OA
ENDBRANCH  99 100
ENDBRANCH  67  92
ENDBRANCH  41  42
ENDBRANCH  33  36
ENDBRANCH  31  32
ENDBRANCH   1  31
TORSDOF 17
ENDMDL
