MODEL 1
REMARK VINA RESULT:     -10.6      0.000      0.000
REMARK SMILES N#C[C@@H]1CN(C(=O)NCCCC(=O)NCCCNC(=O)c2ccc(-c3c4nc(c(-c5c(F)cc(S(=O)(=O)[O-])cc5F)c5ccc([nH]5)c(-c5c(F)cc(S(=O)(=O)[O-])cc5F)c5nc(c(-c6c(F)cc(S(=O)(=O)[O-])cc6F)c6ccc3[nH]6)C=C5)C=C4)cc2)CCO1
REMARK SMILES IDX 15 1 14 2 12 3 13 4 11 6 10 7 9 8 8 9 6 10 7 11 5 13 3 14
REMARK SMILES IDX 4 15 89 16 88 17 87 18 2 19 1 20 16 21 17 22 18 23 19 24
REMARK SMILES IDX 20 26 21 27 22 28 86 29 23 30 85 31 24 32 25 33 26 34 79 35
REMARK SMILES IDX 27 36 84 37 78 38 80 39 28 40 83 41 77 42 76 43 29 45 63 46
REMARK SMILES IDX 42 47 62 48 43 49 46 50 61 51 81 52 44 53 45 54 60 56 82 57
REMARK SMILES IDX 47 58 30 59 31 60 40 61 32 62 33 63 39 64 41 65 34 66 35 67
REMARK SMILES IDX 36 68 37 69 38 70 64 71 65 72 74 73 66 74 67 75 73 76 75 77
REMARK SMILES IDX 68 78 69 79 70 80 71 81 72 82 48 83 49 84 58 85 50 86 51 87
REMARK SMILES IDX 57 88 59 89 52 90 53 91 54 92 55 93 56 94
REMARK H PARENT 14 5 8 12 18 25 80 44 46 55
REMARK Flexibility Score: inf
ROOT
ATOM      1  C   UNL A   1      41.552  20.818  26.518  1.00  0.00     0.117 C 
ENDROOT
BRANCH   1   2
ATOM      2  N   UNL A   1      42.072  19.544  26.996  1.00  0.00    -0.356 N 
ATOM      3  C   UNL A   1      42.850  18.617  26.377  1.00  0.00     0.220 C 
ATOM      4  O   UNL A   1      43.076  17.555  26.962  1.00  0.00    -0.275 OA
ATOM      5  H   UNL A   1      41.817  19.317  27.918  1.00  0.00     0.163 HD
BRANCH   3   6
ATOM      6  C   UNL A   1      43.428  18.876  25.002  1.00  0.00     0.102 C 
BRANCH   6   7
ATOM      7  C   UNL A   1      44.958  18.831  24.986  1.00  0.00     0.031 C 
BRANCH   7   8
ATOM      8  C   UNL A   1      45.628  20.187  24.789  1.00  0.00     0.118 C 
BRANCH   8   9
ATOM      9  N   UNL A   1      44.709  21.205  24.314  1.00  0.00    -0.338 N 
ATOM     10  C   UNL A   1      44.388  22.452  24.709  1.00  0.00     0.317 C 
ATOM     11  O   UNL A   1      43.401  22.938  24.151  1.00  0.00    -0.249 OA
ATOM     12  H   UNL A   1      44.203  20.918  23.519  1.00  0.00     0.165 HD
BRANCH  10  13
ATOM     13  N   UNL A   1      45.080  23.121  25.674  1.00  0.00    -0.319 N 
ATOM     14  C   UNL A   1      46.279  25.217  26.303  1.00  0.00     0.240 C 
ATOM     15  C   UNL A   1      46.321  23.890  25.538  1.00  0.00     0.169 C 
ATOM     16  O   UNL A   1      45.918  24.992  27.681  1.00  0.00    -0.360 OA
ATOM     17  C   UNL A   1      44.634  24.362  27.802  1.00  0.00     0.183 C 
ATOM     18  C   UNL A   1      44.595  23.021  27.062  1.00  0.00     0.150 C 
BRANCH  14  19
ATOM     19  C   UNL A   1      45.338  26.205  25.634  1.00  0.00     0.096 C 
ATOM     20  N   UNL A   1      44.556  27.025  25.080  1.00  0.00    -0.195 NA
ENDBRANCH  14  19
ENDBRANCH  10  13
ENDBRANCH   8   9
ENDBRANCH   7   8
ENDBRANCH   6   7
ENDBRANCH   3   6
ENDBRANCH   1   2
BRANCH   1  21
ATOM     21  C   UNL A   1      41.202  21.747  27.677  1.00  0.00     0.042 C 
BRANCH  21  22
ATOM     22  C   UNL A   1      40.379  22.968  27.271  1.00  0.00     0.118 C 
BRANCH  22  23
ATOM     23  N   UNL A   1      41.036  23.752  26.240  1.00  0.00    -0.352 N 
ATOM     24  C   UNL A   1      41.201  25.111  26.117  1.00  0.00     0.251 C 
ATOM     25  H   UNL A   1      41.429  23.223  25.508  1.00  0.00     0.163 HD
ATOM     26  O   UNL A   1      41.601  25.547  25.037  1.00  0.00    -0.269 OA
BRANCH  24  27
ATOM     27  C   UNL A   1      40.933  26.060  27.233  1.00  0.00     0.039 A 
ATOM     28  C   UNL A   1      41.750  27.192  27.347  1.00  0.00     0.014 A 
ATOM     29  C   UNL A   1      39.972  25.817  28.219  1.00  0.00     0.014 A 
ATOM     30  C   UNL A   1      41.594  28.077  28.420  1.00  0.00     0.010 A 
ATOM     31  C   UNL A   1      39.764  26.742  29.248  1.00  0.00     0.010 A 
ATOM     32  C   UNL A   1      40.589  27.869  29.377  1.00  0.00    -0.014 A 
BRANCH  32  33
ATOM     33  C   UNL A   1      40.433  28.789  30.538  1.00  0.00     0.031 A 
ATOM     34  C   UNL A   1      41.326  28.649  31.746  1.00  0.00     0.074 A 
ATOM     35  C   UNL A   1      39.481  29.745  30.522  1.00  0.00     0.049 A 
ATOM     36  N   UNL A   1      41.333  29.343  32.858  1.00  0.00    -0.248 NA
ATOM     37  C   UNL A   1      42.328  27.572  31.710  1.00  0.00     0.031 C 
ATOM     38  C   UNL A   1      38.528  29.969  29.434  1.00  0.00     0.029 A 
ATOM     39  N   UNL A   1      39.160  30.707  31.448  1.00  0.00    -0.354 N 
ATOM     40  C   UNL A   1      42.325  28.779  33.654  1.00  0.00     0.074 A 
ATOM     41  C   UNL A   1      42.861  27.653  32.920  1.00  0.00     0.031 C 
ATOM     42  C   UNL A   1      37.753  31.023  29.739  1.00  0.00     0.029 A 
ATOM     43  C   UNL A   1      38.131  31.531  31.057  1.00  0.00     0.049 A 
ATOM     44  H   UNL A   1      39.623  30.799  32.312  1.00  0.00     0.167 HD
ATOM     45  C   UNL A   1      42.771  29.176  34.871  1.00  0.00     0.037 A 
ATOM     46  C   UNL A   1      37.560  32.579  31.682  1.00  0.00     0.037 A 
ATOM     47  C   UNL A   1      42.261  30.315  35.589  1.00  0.00     0.049 A 
ATOM     48  C   UNL A   1      38.075  33.009  33.029  1.00  0.00     0.074 A 
ATOM     49  C   UNL A   1      42.676  30.821  36.808  1.00  0.00     0.029 A 
ATOM     50  N   UNL A   1      41.228  31.130  35.149  1.00  0.00    -0.354 N 
ATOM     51  N   UNL A   1      39.044  32.490  33.746  1.00  0.00    -0.248 NA
ATOM     52  C   UNL A   1      37.427  34.173  33.650  1.00  0.00     0.031 C 
ATOM     53  C   UNL A   1      41.872  31.924  37.122  1.00  0.00     0.029 A 
ATOM     54  C   UNL A   1      40.984  32.128  36.078  1.00  0.00     0.049 A 
ATOM     55  H   UNL A   1      40.740  31.015  34.302  1.00  0.00     0.167 HD
ATOM     56  C   UNL A   1      39.141  33.281  34.885  1.00  0.00     0.074 A 
ATOM     57  C   UNL A   1      38.136  34.317  34.761  1.00  0.00     0.031 C 
ATOM     58  C   UNL A   1      39.988  33.162  35.938  1.00  0.00     0.037 A 
BRANCH  45  59
ATOM     59  C   UNL A   1      43.873  28.367  35.501  1.00  0.00     0.058 A 
ATOM     60  C   UNL A   1      43.598  27.290  36.360  1.00  0.00     0.135 A 
ATOM     61  C   UNL A   1      45.220  28.662  35.234  1.00  0.00     0.135 A 
ATOM     62  F   UNL A   1      42.329  26.972  36.659  1.00  0.00    -0.206 F 
ATOM     63  C   UNL A   1      44.617  26.561  36.964  1.00  0.00     0.059 A 
ATOM     64  C   UNL A   1      46.257  27.928  35.805  1.00  0.00     0.059 A 
ATOM     65  F   UNL A   1      45.542  29.677  34.417  1.00  0.00    -0.206 F 
ATOM     66  C   UNL A   1      45.945  26.892  36.686  1.00  0.00     0.060 A 
BRANCH  66  67
ATOM     67  S   UNL A   1      47.258  25.950  37.491  1.00  0.00     0.124 S 
ATOM     68  O   UNL A   1      48.396  26.243  36.627  1.00  0.00    -0.237 OA
ATOM     69  O   UNL A   1      47.302  26.547  38.823  1.00  0.00    -0.237 OA
ATOM     70  O   UNL A   1      46.768  24.576  37.442  1.00  0.00    -0.744 OA
ENDBRANCH  66  67
ENDBRANCH  45  59
BRANCH  46  71
ATOM     71  C   UNL A   1      36.458  33.326  31.018  1.00  0.00     0.058 A 
ATOM     72  C   UNL A   1      36.712  34.152  29.913  1.00  0.00     0.135 A 
ATOM     73  C   UNL A   1      35.130  33.212  31.458  1.00  0.00     0.135 A 
ATOM     74  F   UNL A   1      37.967  34.300  29.462  1.00  0.00    -0.206 F 
ATOM     75  C   UNL A   1      35.693  34.849  29.273  1.00  0.00     0.059 A 
ATOM     76  C   UNL A   1      34.090  33.881  30.821  1.00  0.00     0.059 A 
ATOM     77  F   UNL A   1      34.833  32.423  32.502  1.00  0.00    -0.206 F 
ATOM     78  C   UNL A   1      34.382  34.704  29.733  1.00  0.00     0.060 A 
BRANCH  78  79
ATOM     79  S   UNL A   1      33.055  35.565  28.860  1.00  0.00     0.124 S 
ATOM     80  O   UNL A   1      32.231  36.033  29.968  1.00  0.00    -0.237 OA
ATOM     81  O   UNL A   1      33.786  36.595  28.128  1.00  0.00    -0.237 OA
ATOM     82  O   UNL A   1      32.466  34.518  28.032  1.00  0.00    -0.744 OA
ENDBRANCH  78  79
ENDBRANCH  46  71
BRANCH  58  83
ATOM     83  C   UNL A   1      39.896  34.196  37.024  1.00  0.00     0.058 A 
ATOM     84  C   UNL A   1      40.528  35.445  36.911  1.00  0.00     0.135 A 
ATOM     85  C   UNL A   1      39.122  33.955  38.171  1.00  0.00     0.135 A 
ATOM     86  F   UNL A   1      41.284  35.724  35.837  1.00  0.00    -0.206 F 
ATOM     87  C   UNL A   1      40.414  36.410  37.907  1.00  0.00     0.059 A 
ATOM     88  C   UNL A   1      38.975  34.914  39.168  1.00  0.00     0.059 A 
ATOM     89  F   UNL A   1      38.488  32.781  38.323  1.00  0.00    -0.206 F 
ATOM     90  C   UNL A   1      39.634  36.134  39.033  1.00  0.00     0.060 A 
BRANCH  90  91
ATOM     91  S   UNL A   1      39.466  37.406  40.304  1.00  0.00     0.124 S 
ATOM     92  O   UNL A   1      38.630  38.390  39.626  1.00  0.00    -0.237 OA
ATOM     93  O   UNL A   1      38.828  36.677  41.396  1.00  0.00    -0.237 OA
ATOM     94  O   UNL A   1      40.844  37.818  40.556  1.00  0.00    -0.744 OA
ENDBRANCH  90  91
ENDBRANCH  58  83
ENDBRANCH  32  33
ENDBRANCH  24  27
ENDBRANCH  22  23
ENDBRANCH  21  22
ENDBRANCH   1  21
TORSDOF 18
ENDMDL
MODEL 2
REMARK VINA RESULT:     -10.6      0.932      2.831
REMARK SMILES N#C[C@@H]1CN(C(=O)NCCCC(=O)NCCCNC(=O)c2ccc(-c3c4nc(c(-c5c(F)cc(S(=O)(=O)[O-])cc5F)c5ccc([nH]5)c(-c5c(F)cc(S(=O)(=O)[O-])cc5F)c5nc(c(-c6c(F)cc(S(=O)(=O)[O-])cc6F)c6ccc3[nH]6)C=C5)C=C4)cc2)CCO1
REMARK SMILES IDX 15 1 14 2 12 3 13 4 11 6 10 7 9 8 8 9 6 10 7 11 5 13 3 14
REMARK SMILES IDX 4 15 89 16 88 17 87 18 2 19 1 20 16 21 17 22 18 23 19 24
REMARK SMILES IDX 20 26 21 27 22 28 86 29 23 30 85 31 24 32 25 33 26 34 79 35
REMARK SMILES IDX 27 36 84 37 78 38 80 39 28 40 83 41 77 42 76 43 29 45 63 46
REMARK SMILES IDX 42 47 62 48 43 49 46 50 61 51 81 52 44 53 45 54 60 56 82 57
REMARK SMILES IDX 47 58 30 59 31 60 40 61 32 62 33 63 39 64 41 65 34 66 35 67
REMARK SMILES IDX 36 68 37 69 38 70 64 71 65 72 74 73 66 74 67 75 73 76 75 77
REMARK SMILES IDX 68 78 69 79 70 80 71 81 72 82 48 83 49 84 58 85 50 86 51 87
REMARK SMILES IDX 57 88 59 89 52 90 53 91 54 92 55 93 56 94
REMARK H PARENT 14 5 8 12 18 25 80 44 46 55
REMARK Flexibility Score: inf
ROOT
ATOM      1  C   UNL A   1      42.270  21.753  27.623  1.00  0.00     0.117 C 
ENDROOT
BRANCH   1   2
ATOM      2  N   UNL A   1      42.883  22.063  28.906  1.00  0.00    -0.356 N 
ATOM      3  C   UNL A   1      43.731  23.064  29.264  1.00  0.00     0.220 C 
ATOM      4  O   UNL A   1      44.202  23.056  30.404  1.00  0.00    -0.275 OA
ATOM      5  H   UNL A   1      42.645  21.446  29.635  1.00  0.00     0.163 HD
BRANCH   3   6
ATOM      6  C   UNL A   1      44.093  24.165  28.291  1.00  0.00     0.102 C 
BRANCH   6   7
ATOM      7  C   UNL A   1      45.573  24.146  27.901  1.00  0.00     0.031 C 
BRANCH   7   8
ATOM      8  C   UNL A   1      45.866  23.474  26.562  1.00  0.00     0.118 C 
BRANCH   8   9
ATOM      9  N   UNL A   1      44.673  23.278  25.759  1.00  0.00    -0.338 N 
ATOM     10  C   UNL A   1      44.264  22.341  24.882  1.00  0.00     0.317 C 
ATOM     11  O   UNL A   1      43.245  22.630  24.248  1.00  0.00    -0.249 OA
ATOM     12  H   UNL A   1      44.010  23.995  25.885  1.00  0.00     0.165 HD
BRANCH  10  13
ATOM     13  N   UNL A   1      44.936  21.173  24.683  1.00  0.00    -0.319 N 
ATOM     14  C   UNL A   1      45.283  18.816  25.427  1.00  0.00     0.240 C 
ATOM     15  C   UNL A   1      45.563  20.301  25.681  1.00  0.00     0.169 C 
ATOM     16  O   UNL A   1      45.647  18.460  24.076  1.00  0.00    -0.360 OA
ATOM     17  C   UNL A   1      44.920  19.228  23.106  1.00  0.00     0.183 C 
ATOM     18  C   UNL A   1      45.151  20.732  23.293  1.00  0.00     0.150 C 
BRANCH  14  19
ATOM     19  C   UNL A   1      43.832  18.475  25.721  1.00  0.00     0.096 C 
ATOM     20  N   UNL A   1      42.627  18.191  25.966  1.00  0.00    -0.195 NA
ENDBRANCH  14  19
ENDBRANCH  10  13
ENDBRANCH   8   9
ENDBRANCH   7   8
ENDBRANCH   6   7
ENDBRANCH   3   6
ENDBRANCH   1   2
BRANCH   1  21
ATOM     21  C   UNL A   1      40.747  21.806  27.705  1.00  0.00     0.042 C 
BRANCH  21  22
ATOM     22  C   UNL A   1      40.131  23.052  27.071  1.00  0.00     0.118 C 
BRANCH  22  23
ATOM     23  N   UNL A   1      41.070  23.745  26.206  1.00  0.00    -0.352 N 
ATOM     24  C   UNL A   1      41.460  25.063  26.182  1.00  0.00     0.251 C 
ATOM     25  H   UNL A   1      41.498  23.178  25.525  1.00  0.00     0.163 HD
ATOM     26  O   UNL A   1      42.103  25.455  25.209  1.00  0.00    -0.269 OA
BRANCH  24  27
ATOM     27  C   UNL A   1      41.150  26.016  27.285  1.00  0.00     0.039 A 
ATOM     28  C   UNL A   1      41.944  27.163  27.408  1.00  0.00     0.014 A 
ATOM     29  C   UNL A   1      40.174  25.762  28.252  1.00  0.00     0.014 A 
ATOM     30  C   UNL A   1      41.748  28.053  28.470  1.00  0.00     0.010 A 
ATOM     31  C   UNL A   1      39.927  26.690  29.269  1.00  0.00     0.010 A 
ATOM     32  C   UNL A   1      40.727  27.834  29.407  1.00  0.00    -0.014 A 
BRANCH  32  33
ATOM     33  C   UNL A   1      40.529  28.760  30.557  1.00  0.00     0.031 A 
ATOM     34  C   UNL A   1      41.397  28.643  31.786  1.00  0.00     0.074 A 
ATOM     35  C   UNL A   1      39.563  29.699  30.512  1.00  0.00     0.049 A 
ATOM     36  N   UNL A   1      41.367  29.345  32.892  1.00  0.00    -0.248 NA
ATOM     37  C   UNL A   1      42.417  27.584  31.781  1.00  0.00     0.031 C 
ATOM     38  C   UNL A   1      38.630  29.899  29.401  1.00  0.00     0.029 A 
ATOM     39  N   UNL A   1      39.204  30.662  31.423  1.00  0.00    -0.354 N 
ATOM     40  C   UNL A   1      42.350  28.804  33.714  1.00  0.00     0.074 A 
ATOM     41  C   UNL A   1      42.922  27.682  33.001  1.00  0.00     0.031 C 
ATOM     42  C   UNL A   1      37.831  30.942  29.681  1.00  0.00     0.029 A 
ATOM     43  C   UNL A   1      38.171  31.466  31.002  1.00  0.00     0.049 A 
ATOM     44  H   UNL A   1      39.646  30.768  32.297  1.00  0.00     0.167 HD
ATOM     45  C   UNL A   1      42.761  29.217  34.938  1.00  0.00     0.037 A 
ATOM     46  C   UNL A   1      37.568  32.508  31.606  1.00  0.00     0.037 A 
ATOM     47  C   UNL A   1      42.217  30.353  35.635  1.00  0.00     0.049 A 
ATOM     48  C   UNL A   1      38.046  32.957  32.962  1.00  0.00     0.074 A 
ATOM     49  C   UNL A   1      42.595  30.875  36.860  1.00  0.00     0.029 A 
ATOM     50  N   UNL A   1      41.180  31.147  35.167  1.00  0.00    -0.354 N 
ATOM     51  N   UNL A   1      39.006  32.459  33.704  1.00  0.00    -0.248 NA
ATOM     52  C   UNL A   1      37.364  34.114  33.559  1.00  0.00     0.031 C 
ATOM     53  C   UNL A   1      41.766  31.966  37.147  1.00  0.00     0.029 A 
ATOM     54  C   UNL A   1      40.898  32.148  36.082  1.00  0.00     0.049 A 
ATOM     55  H   UNL A   1      40.714  31.018  34.309  1.00  0.00     0.167 HD
ATOM     56  C   UNL A   1      39.064  33.261  34.839  1.00  0.00     0.074 A 
ATOM     57  C   UNL A   1      38.045  34.279  34.684  1.00  0.00     0.031 C 
ATOM     58  C   UNL A   1      39.889  33.163  35.911  1.00  0.00     0.037 A 
BRANCH  45  59
ATOM     59  C   UNL A   1      43.863  28.432  35.600  1.00  0.00     0.058 A 
ATOM     60  C   UNL A   1      43.591  27.300  36.384  1.00  0.00     0.135 A 
ATOM     61  C   UNL A   1      45.207  28.806  35.437  1.00  0.00     0.135 A 
ATOM     62  F   UNL A   1      42.324  26.904  36.583  1.00  0.00    -0.206 F 
ATOM     63  C   UNL A   1      44.607  26.591  37.018  1.00  0.00     0.059 A 
ATOM     64  C   UNL A   1      46.242  28.095  36.038  1.00  0.00     0.059 A 
ATOM     65  F   UNL A   1      45.526  29.877  34.693  1.00  0.00    -0.206 F 
ATOM     66  C   UNL A   1      45.930  27.000  36.844  1.00  0.00     0.060 A 
BRANCH  66  67
ATOM     67  S   UNL A   1      47.237  26.084  37.687  1.00  0.00     0.124 S 
ATOM     68  O   UNL A   1      46.522  25.561  38.847  1.00  0.00    -0.237 OA
ATOM     69  O   UNL A   1      47.626  25.096  36.685  1.00  0.00    -0.237 OA
ATOM     70  O   UNL A   1      48.238  27.107  37.973  1.00  0.00    -0.744 OA
ENDBRANCH  66  67
ENDBRANCH  45  59
BRANCH  46  71
ATOM     71  C   UNL A   1      36.469  33.232  30.912  1.00  0.00     0.058 A 
ATOM     72  C   UNL A   1      35.139  33.101  31.341  1.00  0.00     0.135 A 
ATOM     73  C   UNL A   1      36.726  34.081  29.825  1.00  0.00     0.135 A 
ATOM     74  F   UNL A   1      34.843  32.293  32.369  1.00  0.00    -0.206 F 
ATOM     75  C   UNL A   1      34.100  33.778  30.711  1.00  0.00     0.059 A 
ATOM     76  C   UNL A   1      35.707  34.786  29.193  1.00  0.00     0.059 A 
ATOM     77  F   UNL A   1      37.983  34.251  29.386  1.00  0.00    -0.206 F 
ATOM     78  C   UNL A   1      34.395  34.623  29.638  1.00  0.00     0.060 A 
BRANCH  78  79
ATOM     79  S   UNL A   1      33.049  35.545  28.864  1.00  0.00     0.124 S 
ATOM     80  O   UNL A   1      32.378  34.499  28.100  1.00  0.00    -0.237 OA
ATOM     81  O   UNL A   1      32.321  36.057  30.021  1.00  0.00    -0.237 OA
ATOM     82  O   UNL A   1      33.746  36.556  28.075  1.00  0.00    -0.744 OA
ENDBRANCH  78  79
ENDBRANCH  46  71
BRANCH  58  83
ATOM     83  C   UNL A   1      39.755  34.204  36.987  1.00  0.00     0.058 A 
ATOM     84  C   UNL A   1      39.071  33.946  38.185  1.00  0.00     0.135 A 
ATOM     85  C   UNL A   1      40.363  35.462  36.838  1.00  0.00     0.135 A 
ATOM     86  F   UNL A   1      38.467  32.761  38.375  1.00  0.00    -0.206 F 
ATOM     87  C   UNL A   1      38.975  34.903  39.190  1.00  0.00     0.059 A 
ATOM     88  C   UNL A   1      40.301  36.427  37.839  1.00  0.00     0.059 A 
ATOM     89  F   UNL A   1      41.038  35.757  35.716  1.00  0.00    -0.206 F 
ATOM     90  C   UNL A   1      39.595  36.142  39.007  1.00  0.00     0.060 A 
BRANCH  90  91
ATOM     91  S   UNL A   1      39.493  37.366  40.330  1.00  0.00     0.124 S 
ATOM     92  O   UNL A   1      40.896  37.515  40.701  1.00  0.00    -0.237 OA
ATOM     93  O   UNL A   1      38.893  38.512  39.654  1.00  0.00    -0.237 OA
ATOM     94  O   UNL A   1      38.644  36.720  41.326  1.00  0.00    -0.744 OA
ENDBRANCH  90  91
ENDBRANCH  58  83
ENDBRANCH  32  33
ENDBRANCH  24  27
ENDBRANCH  22  23
ENDBRANCH  21  22
ENDBRANCH   1  21
TORSDOF 18
ENDMDL
MODEL 3
REMARK VINA RESULT:     -10.5      3.575     12.348
REMARK SMILES N#C[C@@H]1CN(C(=O)NCCCC(=O)NCCCNC(=O)c2ccc(-c3c4nc(c(-c5c(F)cc(S(=O)(=O)[O-])cc5F)c5ccc([nH]5)c(-c5c(F)cc(S(=O)(=O)[O-])cc5F)c5nc(c(-c6c(F)cc(S(=O)(=O)[O-])cc6F)c6ccc3[nH]6)C=C5)C=C4)cc2)CCO1
REMARK SMILES IDX 15 1 14 2 12 3 13 4 11 6 10 7 9 8 8 9 6 10 7 11 5 13 3 14
REMARK SMILES IDX 4 15 89 16 88 17 87 18 2 19 1 20 16 21 17 22 18 23 19 24
REMARK SMILES IDX 20 26 21 27 22 28 86 29 23 30 85 31 24 32 25 33 26 34 79 35
REMARK SMILES IDX 27 36 84 37 78 38 80 39 28 40 83 41 77 42 76 43 29 45 63 46
REMARK SMILES IDX 42 47 62 48 43 49 46 50 61 51 81 52 44 53 45 54 60 56 82 57
REMARK SMILES IDX 47 58 30 59 31 60 40 61 32 62 33 63 39 64 41 65 34 66 35 67
REMARK SMILES IDX 36 68 37 69 38 70 64 71 65 72 74 73 66 74 67 75 73 76 75 77
REMARK SMILES IDX 68 78 69 79 70 80 71 81 72 82 48 83 49 84 58 85 50 86 51 87
REMARK SMILES IDX 57 88 59 89 52 90 53 91 54 92 55 93 56 94
REMARK H PARENT 14 5 8 12 18 25 80 44 46 55
REMARK Flexibility Score: inf
ROOT
ATOM      1  C   UNL A   1      35.102  34.652  28.602  1.00  0.00     0.117 C 
ENDROOT
BRANCH   1   2
ATOM      2  N   UNL A   1      34.573  36.000  28.449  1.00  0.00    -0.356 N 
ATOM      3  C   UNL A   1      33.568  36.637  29.106  1.00  0.00     0.220 C 
ATOM      4  O   UNL A   1      33.232  37.759  28.720  1.00  0.00    -0.275 OA
ATOM      5  H   UNL A   1      35.016  36.538  27.755  1.00  0.00     0.163 HD
BRANCH   3   6
ATOM      6  C   UNL A   1      32.872  35.989  30.284  1.00  0.00     0.102 C 
BRANCH   6   7
ATOM      7  C   UNL A   1      32.979  36.822  31.564  1.00  0.00     0.031 C 
BRANCH   7   8
ATOM      8  C   UNL A   1      32.765  36.031  32.852  1.00  0.00     0.118 C 
BRANCH   8   9
ATOM      9  N   UNL A   1      33.052  34.617  32.698  1.00  0.00    -0.338 N 
ATOM     10  C   UNL A   1      34.148  33.850  32.854  1.00  0.00     0.317 C 
ATOM     11  O   UNL A   1      34.039  32.694  32.435  1.00  0.00    -0.249 OA
ATOM     12  H   UNL A   1      32.264  34.099  32.415  1.00  0.00     0.165 HD
BRANCH  10  13
ATOM     13  N   UNL A   1      35.303  34.316  33.405  1.00  0.00    -0.319 N 
ATOM     14  C   UNL A   1      37.157  33.900  35.023  1.00  0.00     0.240 C 
ATOM     15  C   UNL A   1      35.701  34.328  34.816  1.00  0.00     0.169 C 
ATOM     16  O   UNL A   1      38.036  34.690  34.196  1.00  0.00    -0.360 OA
ATOM     17  C   UNL A   1      37.722  34.558  32.802  1.00  0.00     0.183 C 
ATOM     18  C   UNL A   1      36.275  34.972  32.511  1.00  0.00     0.150 C 
BRANCH  14  19
ATOM     19  C   UNL A   1      37.332  32.413  34.761  1.00  0.00     0.096 C 
ATOM     20  N   UNL A   1      37.478  31.179  34.544  1.00  0.00    -0.195 NA
ENDBRANCH  14  19
ENDBRANCH  10  13
ENDBRANCH   8   9
ENDBRANCH   7   8
ENDBRANCH   6   7
ENDBRANCH   3   6
ENDBRANCH   1   2
BRANCH   1  21
ATOM     21  C   UNL A   1      34.176  33.615  27.974  1.00  0.00     0.042 C 
BRANCH  21  22
ATOM     22  C   UNL A   1      34.070  32.311  28.765  1.00  0.00     0.118 C 
BRANCH  22  23
ATOM     23  N   UNL A   1      33.693  31.191  27.922  1.00  0.00    -0.352 N 
ATOM     24  C   UNL A   1      34.441  30.149  27.429  1.00  0.00     0.251 C 
ATOM     25  H   UNL A   1      32.743  31.173  27.661  1.00  0.00     0.163 HD
ATOM     26  O   UNL A   1      33.940  29.445  26.552  1.00  0.00    -0.269 OA
BRANCH  24  27
ATOM     27  C   UNL A   1      35.811  29.836  27.922  1.00  0.00     0.039 A 
ATOM     28  C   UNL A   1      35.947  29.342  29.225  1.00  0.00     0.014 A 
ATOM     29  C   UNL A   1      36.963  30.107  27.179  1.00  0.00     0.014 A 
ATOM     30  C   UNL A   1      37.214  29.103  29.768  1.00  0.00     0.010 A 
ATOM     31  C   UNL A   1      38.227  29.796  27.692  1.00  0.00     0.010 A 
ATOM     32  C   UNL A   1      38.371  29.316  29.002  1.00  0.00    -0.014 A 
BRANCH  32  33
ATOM     33  C   UNL A   1      39.725  29.092  29.580  1.00  0.00     0.031 A 
ATOM     34  C   UNL A   1      40.215  29.946  30.723  1.00  0.00     0.074 A 
ATOM     35  C   UNL A   1      40.528  28.133  29.075  1.00  0.00     0.049 A 
ATOM     36  N   UNL A   1      41.367  29.915  31.348  1.00  0.00    -0.248 NA
ATOM     37  C   UNL A   1      39.301  30.989  31.213  1.00  0.00     0.031 C 
ATOM     38  C   UNL A   1      40.194  27.259  27.949  1.00  0.00     0.029 A 
ATOM     39  N   UNL A   1      41.789  27.733  29.443  1.00  0.00    -0.354 N 
ATOM     40  C   UNL A   1      41.318  30.937  32.291  1.00  0.00     0.074 A 
ATOM     41  C   UNL A   1      40.046  31.605  32.119  1.00  0.00     0.031 C 
ATOM     42  C   UNL A   1      41.208  26.403  27.742  1.00  0.00     0.029 A 
ATOM     43  C   UNL A   1      42.278  26.686  28.697  1.00  0.00     0.049 A 
ATOM     44  H   UNL A   1      42.296  28.155  30.174  1.00  0.00     0.167 HD
ATOM     45  C   UNL A   1      42.233  31.274  33.232  1.00  0.00     0.037 A 
ATOM     46  C   UNL A   1      43.449  26.025  28.774  1.00  0.00     0.037 A 
ATOM     47  C   UNL A   1      43.485  30.590  33.427  1.00  0.00     0.049 A 
ATOM     48  C   UNL A   1      44.449  26.410  29.832  1.00  0.00     0.074 A 
ATOM     49  C   UNL A   1      44.460  30.831  34.380  1.00  0.00     0.029 A 
ATOM     50  N   UNL A   1      43.935  29.528  32.657  1.00  0.00    -0.354 N 
ATOM     51  N   UNL A   1      44.365  27.351  30.742  1.00  0.00    -0.248 NA
ATOM     52  C   UNL A   1      45.698  25.637  29.881  1.00  0.00     0.031 C 
ATOM     53  C   UNL A   1      45.513  29.934  34.167  1.00  0.00     0.029 A 
ATOM     54  C   UNL A   1      45.176  29.108  33.106  1.00  0.00     0.049 A 
ATOM     55  H   UNL A   1      43.443  29.130  31.903  1.00  0.00     0.167 HD
ATOM     56  C   UNL A   1      45.535  27.262  31.490  1.00  0.00     0.074 A 
ATOM     57  C   UNL A   1      46.308  26.173  30.929  1.00  0.00     0.031 C 
ATOM     58  C   UNL A   1      45.931  28.014  32.547  1.00  0.00     0.037 A 
BRANCH  45  59
ATOM     59  C   UNL A   1      41.906  32.438  34.130  1.00  0.00     0.058 A 
ATOM     60  C   UNL A   1      41.146  32.274  35.300  1.00  0.00     0.135 A 
ATOM     61  C   UNL A   1      42.368  33.729  33.828  1.00  0.00     0.135 A 
ATOM     62  F   UNL A   1      40.668  31.064  35.631  1.00  0.00    -0.206 F 
ATOM     63  C   UNL A   1      40.821  33.353  36.114  1.00  0.00     0.059 A 
ATOM     64  C   UNL A   1      42.079  34.819  34.644  1.00  0.00     0.059 A 
ATOM     65  F   UNL A   1      43.104  33.943  32.725  1.00  0.00    -0.206 F 
ATOM     66  C   UNL A   1      41.286  34.624  35.775  1.00  0.00     0.060 A 
BRANCH  66  67
ATOM     67  S   UNL A   1      40.841  36.020  36.830  1.00  0.00     0.124 S 
ATOM     68  O   UNL A   1      40.387  35.337  38.037  1.00  0.00    -0.237 OA
ATOM     69  O   UNL A   1      42.104  36.742  36.948  1.00  0.00    -0.237 OA
ATOM     70  O   UNL A   1      39.802  36.704  36.066  1.00  0.00    -0.744 OA
ENDBRANCH  66  67
ENDBRANCH  45  59
BRANCH  46  71
ATOM     71  C   UNL A   1      43.725  24.898  27.844  1.00  0.00     0.058 A 
ATOM     72  C   UNL A   1      44.476  25.097  26.675  1.00  0.00     0.135 A 
ATOM     73  C   UNL A   1      43.266  23.599  28.114  1.00  0.00     0.135 A 
ATOM     74  F   UNL A   1      44.928  26.322  26.370  1.00  0.00    -0.206 F 
ATOM     75  C   UNL A   1      44.753  24.052  25.800  1.00  0.00     0.059 A 
ATOM     76  C   UNL A   1      43.550  22.534  27.266  1.00  0.00     0.059 A 
ATOM     77  F   UNL A   1      42.557  23.354  29.227  1.00  0.00    -0.206 F 
ATOM     78  C   UNL A   1      44.288  22.771  26.106  1.00  0.00     0.060 A 
BRANCH  78  79
ATOM     79  S   UNL A   1      44.704  21.408  24.996  1.00  0.00     0.124 S 
ATOM     80  O   UNL A   1      44.505  22.023  23.689  1.00  0.00    -0.237 OA
ATOM     81  O   UNL A   1      46.087  21.122  25.364  1.00  0.00    -0.237 OA
ATOM     82  O   UNL A   1      43.740  20.374  25.361  1.00  0.00    -0.744 OA
ENDBRANCH  78  79
ENDBRANCH  46  71
BRANCH  58  83
ATOM     83  C   UNL A   1      47.241  27.665  33.195  1.00  0.00     0.058 A 
ATOM     84  C   UNL A   1      48.439  28.295  32.827  1.00  0.00     0.135 A 
ATOM     85  C   UNL A   1      47.290  26.722  34.235  1.00  0.00     0.135 A 
ATOM     86  F   UNL A   1      48.448  29.201  31.835  1.00  0.00    -0.206 F 
ATOM     87  C   UNL A   1      49.644  27.989  33.451  1.00  0.00     0.059 A 
ATOM     88  C   UNL A   1      48.479  26.416  34.889  1.00  0.00     0.059 A 
ATOM     89  F   UNL A   1      46.170  26.097  34.632  1.00  0.00    -0.206 F 
ATOM     90  C   UNL A   1      49.654  27.047  34.483  1.00  0.00     0.060 A 
BRANCH  90  91
ATOM     91  S   UNL A   1      51.217  26.681  35.309  1.00  0.00     0.124 S 
ATOM     92  O   UNL A   1      51.883  25.842  34.318  1.00  0.00    -0.237 OA
ATOM     93  O   UNL A   1      51.790  28.009  35.502  1.00  0.00    -0.237 OA
ATOM     94  O   UNL A   1      50.803  26.001  36.532  1.00  0.00    -0.744 OA
ENDBRANCH  90  91
ENDBRANCH  58  83
ENDBRANCH  32  33
ENDBRANCH  24  27
ENDBRANCH  22  23
ENDBRANCH  21  22
ENDBRANCH   1  21
TORSDOF 18
ENDMDL
