MODEL 1
REMARK VINA RESULT:     -12.7      0.000      0.000
REMARK SMILES COc1ccc(N2C(=O)S[C@@H](CC(=O)Nc3nc(CC(=O)NCCCNC(=O)c4ccc(-c5c6nc(c(-c7c(F)cc(S(=O)(=O)[O-])cc7F)c7ccc([nH]7)c(-c7c(F)cc(S(=O)(=O)[O-])cc7F)c7nc(c(-c8c(F)cc(S(=O)(=O)[O-])cc8F)c8ccc5[nH]8)C=C7)C=C6)cc4)cs3)C2=O)cc1
REMARK SMILES IDX 20 1 21 2 22 3 19 5 18 6 16 7 17 8 96 9 95 10 15 11 13 12
REMARK SMILES IDX 14 13 12 15 11 16 7 17 8 18 97 19 9 20 10 21 98 22 6 23 3 24
REMARK SMILES IDX 4 25 100 26 5 27 99 28 2 29 1 30 23 31 24 32 25 33 26 34
REMARK SMILES IDX 27 35 28 37 29 38 30 39 94 40 31 41 93 42 32 43 33 44 34 45
REMARK SMILES IDX 87 46 35 47 92 48 86 49 88 50 36 51 91 52 85 53 84 54 37 56
REMARK SMILES IDX 71 57 50 58 70 59 51 60 54 61 69 62 89 63 52 64 53 65 68 67
REMARK SMILES IDX 90 68 55 69 38 70 39 71 48 72 40 73 41 74 47 75 49 76 42 77
REMARK SMILES IDX 43 78 44 79 45 80 46 81 72 82 73 83 82 84 74 85 75 86 81 87
REMARK SMILES IDX 83 88 76 89 77 90 78 91 79 92 80 93 56 94 57 95 66 96 58 97
REMARK SMILES IDX 59 98 65 99 67 100 60 101 61 102 62 103 63 104 64 105
REMARK H PARENT 22 4 15 14 26 36 88 55 54 66
REMARK Flexibility Score: inf
ROOT
ATOM      1  C   UNL A   1      37.446  21.749  24.824  1.00  0.00     0.226 C 
ATOM      2  O   UNL A   1      36.875  22.652  24.210  1.00  0.00    -0.275 OA
ATOM      3  N   UNL A   1      38.624  22.040  25.451  1.00  0.00    -0.356 N 
ATOM      4  H   UNL A   1      38.857  22.995  25.491  1.00  0.00     0.163 HD
ENDROOT
BRANCH   1   5
ATOM      5  C   UNL A   1      36.825  20.383  24.975  1.00  0.00     0.157 C 
BRANCH   5   6
ATOM      6  C   UNL A   1      35.355  20.370  25.217  1.00  0.00     0.063 A 
ATOM      7  C   UNL A   1      33.548  21.158  26.223  1.00  0.00     0.189 A 
ATOM      8  N   UNL A   1      34.843  21.287  26.129  1.00  0.00    -0.224 NA
ATOM      9  S   UNL A   1      32.849  19.925  25.276  1.00  0.00    -0.105 S 
ATOM     10  C   UNL A   1      34.397  19.581  24.608  1.00  0.00     0.093 A 
BRANCH   7  11
ATOM     11  N   UNL A   1      32.696  21.803  27.070  1.00  0.00    -0.302 N 
ATOM     12  C   UNL A   1      31.823  22.802  26.763  1.00  0.00     0.227 C 
ATOM     13  O   UNL A   1      31.507  23.591  27.659  1.00  0.00    -0.275 OA
ATOM     14  H   UNL A   1      32.716  21.513  28.010  1.00  0.00     0.172 HD
BRANCH  12  15
ATOM     15  C   UNL A   1      31.073  22.851  25.437  1.00  0.00     0.125 C 
BRANCH  15  16
ATOM     16  C   UNL A   1      31.403  24.018  24.527  1.00  0.00     0.156 C 
ATOM     17  N   UNL A   1      31.321  26.391  24.325  1.00  0.00    -0.240 N 
ATOM     18  C   UNL A   1      32.647  26.179  24.012  1.00  0.00     0.293 C 
ATOM     19  C   UNL A   1      30.702  25.309  24.942  1.00  0.00     0.248 C 
ATOM     20  O   UNL A   1      33.456  26.947  23.519  1.00  0.00    -0.261 OA
ATOM     21  S   UNL A   1      33.139  24.551  24.491  1.00  0.00    -0.050 SA
ATOM     22  O   UNL A   1      29.730  25.339  25.689  1.00  0.00    -0.273 OA
BRANCH  17  23
ATOM     23  C   UNL A   1      30.626  27.608  24.028  1.00  0.00     0.053 A 
ATOM     24  C   UNL A   1      29.610  30.089  23.129  1.00  0.00     0.119 A 
ATOM     25  C   UNL A   1      29.114  28.902  22.605  1.00  0.00     0.048 A 
ATOM     26  C   UNL A   1      30.544  30.050  24.158  1.00  0.00     0.048 A 
ATOM     27  C   UNL A   1      29.628  27.675  23.041  1.00  0.00     0.031 A 
ATOM     28  C   UNL A   1      31.038  28.819  24.611  1.00  0.00     0.031 A 
BRANCH  24  29
ATOM     29  O   UNL A   1      29.107  31.256  22.628  1.00  0.00    -0.497 OA
ATOM     30  C   UNL A   1      28.363  31.048  21.424  1.00  0.00     0.278 C 
ENDBRANCH  24  29
ENDBRANCH  17  23
ENDBRANCH  15  16
ENDBRANCH  12  15
ENDBRANCH   7  11
ENDBRANCH   5   6
ENDBRANCH   1   5
BRANCH   3  31
ATOM     31  C   UNL A   1      39.581  21.136  26.065  1.00  0.00     0.117 C 
BRANCH  31  32
ATOM     32  C   UNL A   1      40.387  21.826  27.161  1.00  0.00     0.042 C 
BRANCH  32  33
ATOM     33  C   UNL A   1      40.266  23.345  27.160  1.00  0.00     0.118 C 
BRANCH  33  34
ATOM     34  N   UNL A   1      41.074  23.974  26.127  1.00  0.00    -0.352 N 
ATOM     35  C   UNL A   1      41.584  25.249  26.086  1.00  0.00     0.251 C 
ATOM     36  H   UNL A   1      41.283  23.408  25.349  1.00  0.00     0.163 HD
ATOM     37  O   UNL A   1      42.108  25.662  25.056  1.00  0.00    -0.269 OA
BRANCH  35  38
ATOM     38  C   UNL A   1      41.476  26.125  27.274  1.00  0.00     0.039 A 
ATOM     39  C   UNL A   1      42.399  27.163  27.431  1.00  0.00     0.014 A 
ATOM     40  C   UNL A   1      40.472  25.927  28.225  1.00  0.00     0.014 A 
ATOM     41  C   UNL A   1      42.276  28.039  28.513  1.00  0.00     0.010 A 
ATOM     42  C   UNL A   1      40.310  26.840  29.263  1.00  0.00     0.010 A 
ATOM     43  C   UNL A   1      41.213  27.902  29.420  1.00  0.00    -0.014 A 
BRANCH  43  44
ATOM     44  C   UNL A   1      41.030  28.857  30.543  1.00  0.00     0.031 A 
ATOM     45  C   UNL A   1      41.936  28.794  31.741  1.00  0.00     0.074 A 
ATOM     46  C   UNL A   1      40.010  29.736  30.512  1.00  0.00     0.049 A 
ATOM     47  N   UNL A   1      41.897  29.494  32.846  1.00  0.00    -0.248 NA
ATOM     48  C   UNL A   1      43.012  27.791  31.703  1.00  0.00     0.031 C 
ATOM     49  C   UNL A   1      39.042  29.872  29.422  1.00  0.00     0.029 A 
ATOM     50  N   UNL A   1      39.615  30.681  31.425  1.00  0.00    -0.354 N 
ATOM     51  C   UNL A   1      42.928  29.005  33.640  1.00  0.00     0.074 A 
ATOM     52  C   UNL A   1      43.541  27.917  32.911  1.00  0.00     0.031 C 
ATOM     53  C   UNL A   1      38.187  30.864  29.715  1.00  0.00     0.029 A 
ATOM     54  C   UNL A   1      38.521  31.410  31.027  1.00  0.00     0.049 A 
ATOM     55  H   UNL A   1      40.073  30.822  32.286  1.00  0.00     0.167 HD
ATOM     56  C   UNL A   1      43.341  29.439  34.856  1.00  0.00     0.037 A 
ATOM     57  C   UNL A   1      37.861  32.406  31.649  1.00  0.00     0.037 A 
ATOM     58  C   UNL A   1      42.743  30.539  35.565  1.00  0.00     0.049 A 
ATOM     59  C   UNL A   1      38.327  32.863  33.004  1.00  0.00     0.074 A 
ATOM     60  C   UNL A   1      43.124  31.096  36.773  1.00  0.00     0.029 A 
ATOM     61  N   UNL A   1      41.631  31.249  35.131  1.00  0.00    -0.354 N 
ATOM     62  N   UNL A   1      39.337  32.427  33.717  1.00  0.00    -0.248 NA
ATOM     63  C   UNL A   1      37.561  33.944  33.638  1.00  0.00     0.031 C 
ATOM     64  C   UNL A   1      42.221  32.119  37.088  1.00  0.00     0.029 A 
ATOM     65  C   UNL A   1      41.300  32.224  36.057  1.00  0.00     0.049 A 
ATOM     66  H   UNL A   1      41.150  31.082  34.289  1.00  0.00     0.167 HD
ATOM     67  C   UNL A   1      39.347  33.199  34.873  1.00  0.00     0.074 A 
ATOM     68  C   UNL A   1      38.243  34.131  34.761  1.00  0.00     0.031 C 
ATOM     69  C   UNL A   1      40.197  33.144  35.929  1.00  0.00     0.037 A 
BRANCH  56  70
ATOM     70  C   UNL A   1      44.491  28.705  35.490  1.00  0.00     0.058 A 
ATOM     71  C   UNL A   1      44.284  27.626  36.366  1.00  0.00     0.135 A 
ATOM     72  C   UNL A   1      45.815  29.096  35.236  1.00  0.00     0.135 A 
ATOM     73  F   UNL A   1      43.037  27.218  36.654  1.00  0.00    -0.206 F 
ATOM     74  C   UNL A   1      45.345  26.997  37.010  1.00  0.00     0.059 A 
ATOM     75  C   UNL A   1      46.893  28.463  35.847  1.00  0.00     0.059 A 
ATOM     76  F   UNL A   1      46.070  30.118  34.404  1.00  0.00    -0.206 F 
ATOM     77  C   UNL A   1      46.645  27.432  36.754  1.00  0.00     0.060 A 
BRANCH  77  78
ATOM     78  S   UNL A   1      48.011  26.643  37.632  1.00  0.00     0.124 S 
ATOM     79  O   UNL A   1      48.472  25.677  36.639  1.00  0.00    -0.237 OA
ATOM     80  O   UNL A   1      48.910  27.763  37.888  1.00  0.00    -0.237 OA
ATOM     81  O   UNL A   1      47.371  26.074  38.813  1.00  0.00    -0.744 OA
ENDBRANCH  77  78
ENDBRANCH  56  70
BRANCH  57  82
ATOM     82  C   UNL A   1      36.720  33.070  30.969  1.00  0.00     0.058 A 
ATOM     83  C   UNL A   1      35.402  32.820  31.379  1.00  0.00     0.135 A 
ATOM     84  C   UNL A   1      36.918  33.991  29.929  1.00  0.00     0.135 A 
ATOM     85  F   UNL A   1      35.164  31.941  32.366  1.00  0.00    -0.206 F 
ATOM     86  C   UNL A   1      34.319  33.457  30.784  1.00  0.00     0.059 A 
ATOM     87  C   UNL A   1      35.852  34.656  29.330  1.00  0.00     0.059 A 
ATOM     88  F   UNL A   1      38.161  34.276  29.510  1.00  0.00    -0.206 F 
ATOM     89  C   UNL A   1      34.556  34.379  29.763  1.00  0.00     0.060 A 
BRANCH  89  90
ATOM     90  S   UNL A   1      33.148  35.256  29.047  1.00  0.00     0.124 S 
ATOM     91  O   UNL A   1      33.796  36.433  28.477  1.00  0.00    -0.237 OA
ATOM     92  O   UNL A   1      32.635  34.283  28.090  1.00  0.00    -0.237 OA
ATOM     93  O   UNL A   1      32.288  35.504  30.200  1.00  0.00    -0.744 OA
ENDBRANCH  89  90
ENDBRANCH  57  82
BRANCH  69  94
ATOM     94  C   UNL A   1      39.983  34.137  37.036  1.00  0.00     0.058 A 
ATOM     95  C   UNL A   1      40.624  35.385  37.039  1.00  0.00     0.135 A 
ATOM     96  C   UNL A   1      39.086  33.855  38.080  1.00  0.00     0.135 A 
ATOM     97  F   UNL A   1      41.497  35.698  36.069  1.00  0.00    -0.206 F 
ATOM     98  C   UNL A   1      40.396  36.315  38.048  1.00  0.00     0.059 A 
ATOM     99  C   UNL A   1      38.826  34.779  39.087  1.00  0.00     0.059 A 
ATOM    100  F   UNL A   1      38.442  32.679  38.117  1.00  0.00    -0.206 F 
ATOM    101  C   UNL A   1      39.494  36.003  39.068  1.00  0.00     0.060 A 
BRANCH 101 102
ATOM    102  S   UNL A   1      39.175  37.233  40.350  1.00  0.00     0.124 S 
ATOM    103  O   UNL A   1      40.514  37.760  40.591  1.00  0.00    -0.237 OA
ATOM    104  O   UNL A   1      38.245  38.145  39.687  1.00  0.00    -0.237 OA
ATOM    105  O   UNL A   1      38.602  36.448  41.438  1.00  0.00    -0.744 OA
ENDBRANCH 101 102
ENDBRANCH  69  94
ENDBRANCH  43  44
ENDBRANCH  35  38
ENDBRANCH  33  34
ENDBRANCH  32  33
ENDBRANCH  31  32
ENDBRANCH   3  31
TORSDOF 19
ENDMDL
MODEL 2
REMARK VINA RESULT:     -12.6      0.686      7.919
REMARK SMILES COc1ccc(N2C(=O)S[C@@H](CC(=O)Nc3nc(CC(=O)NCCCNC(=O)c4ccc(-c5c6nc(c(-c7c(F)cc(S(=O)(=O)[O-])cc7F)c7ccc([nH]7)c(-c7c(F)cc(S(=O)(=O)[O-])cc7F)c7nc(c(-c8c(F)cc(S(=O)(=O)[O-])cc8F)c8ccc5[nH]8)C=C7)C=C6)cc4)cs3)C2=O)cc1
REMARK SMILES IDX 20 1 21 2 22 3 19 5 18 6 16 7 17 8 96 9 95 10 15 11 13 12
REMARK SMILES IDX 14 13 12 15 11 16 7 17 8 18 97 19 9 20 10 21 98 22 6 23 3 24
REMARK SMILES IDX 4 25 100 26 5 27 99 28 2 29 1 30 23 31 24 32 25 33 26 34
REMARK SMILES IDX 27 35 28 37 29 38 30 39 94 40 31 41 93 42 32 43 33 44 34 45
REMARK SMILES IDX 87 46 35 47 92 48 86 49 88 50 36 51 91 52 85 53 84 54 37 56
REMARK SMILES IDX 71 57 50 58 70 59 51 60 54 61 69 62 89 63 52 64 53 65 68 67
REMARK SMILES IDX 90 68 55 69 38 70 39 71 48 72 40 73 41 74 47 75 49 76 42 77
REMARK SMILES IDX 43 78 44 79 45 80 46 81 72 82 73 83 82 84 74 85 75 86 81 87
REMARK SMILES IDX 83 88 76 89 77 90 78 91 79 92 80 93 56 94 57 95 66 96 58 97
REMARK SMILES IDX 59 98 65 99 67 100 60 101 61 102 62 103 63 104 64 105
REMARK H PARENT 22 4 15 14 26 36 88 55 54 66
REMARK Flexibility Score: inf
ROOT
ATOM      1  C   UNL A   1      37.181  21.891  24.425  1.00  0.00     0.226 C 
ATOM      2  O   UNL A   1      36.666  22.428  23.443  1.00  0.00    -0.275 OA
ATOM      3  N   UNL A   1      38.175  22.559  25.080  1.00  0.00    -0.356 N 
ATOM      4  H   UNL A   1      38.308  23.495  24.805  1.00  0.00     0.163 HD
ENDROOT
BRANCH   1   5
ATOM      5  C   UNL A   1      36.668  20.579  24.965  1.00  0.00     0.157 C 
BRANCH   5   6
ATOM      6  C   UNL A   1      35.195  20.503  25.174  1.00  0.00     0.063 A 
ATOM      7  C   UNL A   1      33.325  21.247  26.094  1.00  0.00     0.189 A 
ATOM      8  N   UNL A   1      34.615  21.438  26.024  1.00  0.00    -0.224 NA
ATOM      9  S   UNL A   1      32.714  19.933  25.198  1.00  0.00    -0.105 S 
ATOM     10  C   UNL A   1      34.294  19.635  24.584  1.00  0.00     0.093 A 
BRANCH   7  11
ATOM     11  N   UNL A   1      32.421  21.890  26.887  1.00  0.00    -0.302 N 
ATOM     12  C   UNL A   1      31.666  22.977  26.567  1.00  0.00     0.227 C 
ATOM     13  O   UNL A   1      31.295  23.715  27.485  1.00  0.00    -0.275 OA
ATOM     14  H   UNL A   1      32.301  21.526  27.794  1.00  0.00     0.172 HD
BRANCH  12  15
ATOM     15  C   UNL A   1      31.095  23.191  25.170  1.00  0.00     0.125 C 
BRANCH  15  16
ATOM     16  C   UNL A   1      31.676  24.348  24.383  1.00  0.00     0.156 C 
ATOM     17  N   UNL A   1      31.678  26.720  24.155  1.00  0.00    -0.240 N 
ATOM     18  C   UNL A   1      33.037  26.494  24.223  1.00  0.00     0.293 C 
ATOM     19  C   UNL A   1      30.901  25.649  24.581  1.00  0.00     0.248 C 
ATOM     20  O   UNL A   1      33.958  27.252  23.969  1.00  0.00    -0.261 OA
ATOM     21  S   UNL A   1      33.360  24.865  24.826  1.00  0.00    -0.050 SA
ATOM     22  O   UNL A   1      29.760  25.692  25.029  1.00  0.00    -0.273 OA
BRANCH  17  23
ATOM     23  C   UNL A   1      31.105  27.942  23.672  1.00  0.00     0.053 A 
ATOM     24  C   UNL A   1      29.555  30.162  22.860  1.00  0.00     0.119 A 
ATOM     25  C   UNL A   1      30.208  30.180  24.085  1.00  0.00     0.048 A 
ATOM     26  C   UNL A   1      29.738  29.087  21.998  1.00  0.00     0.048 A 
ATOM     27  C   UNL A   1      30.963  29.074  24.493  1.00  0.00     0.031 A 
ATOM     28  C   UNL A   1      30.516  27.992  22.397  1.00  0.00     0.031 A 
BRANCH  24  29
ATOM     29  O   UNL A   1      28.790  31.248  22.538  1.00  0.00    -0.497 OA
ATOM     30  C   UNL A   1      28.918  32.298  23.501  1.00  0.00     0.278 C 
ENDBRANCH  24  29
ENDBRANCH  17  23
ENDBRANCH  15  16
ENDBRANCH  12  15
ENDBRANCH   7  11
ENDBRANCH   5   6
ENDBRANCH   1   5
BRANCH   3  31
ATOM     31  C   UNL A   1      39.066  22.082  26.123  1.00  0.00     0.117 C 
BRANCH  31  32
ATOM     32  C   UNL A   1      39.521  23.214  27.039  1.00  0.00     0.042 C 
BRANCH  32  33
ATOM     33  C   UNL A   1      39.764  24.536  26.322  1.00  0.00     0.118 C 
BRANCH  33  34
ATOM     34  N   UNL A   1      41.112  24.648  25.787  1.00  0.00    -0.352 N 
ATOM     35  C   UNL A   1      42.136  25.469  26.191  1.00  0.00     0.251 C 
ATOM     36  H   UNL A   1      41.318  24.052  25.030  1.00  0.00     0.163 HD
ATOM     37  O   UNL A   1      43.158  25.544  25.516  1.00  0.00    -0.269 OA
BRANCH  35  38
ATOM     38  C   UNL A   1      41.992  26.277  27.422  1.00  0.00     0.039 A 
ATOM     39  C   UNL A   1      42.466  27.592  27.425  1.00  0.00     0.014 A 
ATOM     40  C   UNL A   1      41.393  25.743  28.566  1.00  0.00     0.014 A 
ATOM     41  C   UNL A   1      42.284  28.390  28.557  1.00  0.00     0.010 A 
ATOM     42  C   UNL A   1      41.150  26.560  29.667  1.00  0.00     0.010 A 
ATOM     43  C   UNL A   1      41.597  27.890  29.675  1.00  0.00    -0.014 A 
BRANCH  43  44
ATOM     44  C   UNL A   1      41.341  28.740  30.865  1.00  0.00     0.031 A 
ATOM     45  C   UNL A   1      40.201  29.721  30.859  1.00  0.00     0.074 A 
ATOM     46  C   UNL A   1      42.171  28.674  31.924  1.00  0.00     0.049 A 
ATOM     47  N   UNL A   1      39.855  30.594  31.771  1.00  0.00    -0.248 NA
ATOM     48  C   UNL A   1      39.355  29.744  29.656  1.00  0.00     0.031 C 
ATOM     49  C   UNL A   1      43.331  27.789  32.036  1.00  0.00     0.029 A 
ATOM     50  N   UNL A   1      42.168  29.369  33.108  1.00  0.00    -0.354 N 
ATOM     51  C   UNL A   1      38.766  31.279  31.246  1.00  0.00     0.074 A 
ATOM     52  C   UNL A   1      38.541  30.756  29.916  1.00  0.00     0.031 C 
ATOM     53  C   UNL A   1      43.907  27.969  33.235  1.00  0.00     0.029 A 
ATOM     54  C   UNL A   1      43.183  29.007  33.961  1.00  0.00     0.049 A 
ATOM     55  H   UNL A   1      41.502  30.061  33.324  1.00  0.00     0.167 HD
ATOM     56  C   UNL A   1      38.008  32.241  31.827  1.00  0.00     0.037 A 
ATOM     57  C   UNL A   1      43.493  29.462  35.191  1.00  0.00     0.037 A 
ATOM     58  C   UNL A   1      38.222  32.739  33.161  1.00  0.00     0.049 A 
ATOM     59  C   UNL A   1      42.647  30.539  35.812  1.00  0.00     0.074 A 
ATOM     60  C   UNL A   1      37.474  33.667  33.864  1.00  0.00     0.029 A 
ATOM     61  N   UNL A   1      39.264  32.353  33.991  1.00  0.00    -0.354 N 
ATOM     62  N   UNL A   1      41.588  31.138  35.324  1.00  0.00    -0.248 NA
ATOM     63  C   UNL A   1      43.043  31.003  37.148  1.00  0.00     0.031 C 
ATOM     64  C   UNL A   1      38.086  33.869  35.107  1.00  0.00     0.029 A 
ATOM     65  C   UNL A   1      39.193  33.039  35.192  1.00  0.00     0.049 A 
ATOM     66  H   UNL A   1      39.953  31.688  33.760  1.00  0.00     0.167 HD
ATOM     67  C   UNL A   1      41.171  32.031  36.304  1.00  0.00     0.074 A 
ATOM     68  C   UNL A   1      42.092  31.890  37.414  1.00  0.00     0.031 C 
ATOM     69  C   UNL A   1      40.118  32.886  36.288  1.00  0.00     0.037 A 
BRANCH  56  70
ATOM     70  C   UNL A   1      36.886  32.816  31.008  1.00  0.00     0.058 A 
ATOM     71  C   UNL A   1      37.117  33.785  30.016  1.00  0.00     0.135 A 
ATOM     72  C   UNL A   1      35.560  32.410  31.227  1.00  0.00     0.135 A 
ATOM     73  F   UNL A   1      38.366  34.219  29.774  1.00  0.00    -0.206 F 
ATOM     74  C   UNL A   1      36.071  34.370  29.312  1.00  0.00     0.059 A 
ATOM     75  C   UNL A   1      34.500  32.962  30.514  1.00  0.00     0.059 A 
ATOM     76  F   UNL A   1      35.282  31.484  32.158  1.00  0.00    -0.206 F 
ATOM     77  C   UNL A   1      34.764  33.961  29.577  1.00  0.00     0.060 A 
BRANCH  77  78
ATOM     78  S   UNL A   1      33.409  34.762  28.693  1.00  0.00     0.124 S 
ATOM     79  O   UNL A   1      32.489  35.061  29.787  1.00  0.00    -0.237 OA
ATOM     80  O   UNL A   1      34.066  35.915  28.086  1.00  0.00    -0.237 OA
ATOM     81  O   UNL A   1      32.961  33.736  27.758  1.00  0.00    -0.744 OA
ENDBRANCH  77  78
ENDBRANCH  56  70
BRANCH  57  82
ATOM     82  C   UNL A   1      44.631  28.859  35.932  1.00  0.00     0.058 A 
ATOM     83  C   UNL A   1      44.423  27.771  36.792  1.00  0.00     0.135 A 
ATOM     84  C   UNL A   1      45.944  29.326  35.771  1.00  0.00     0.135 A 
ATOM     85  F   UNL A   1      43.183  27.295  36.981  1.00  0.00    -0.206 F 
ATOM     86  C   UNL A   1      45.476  27.165  37.467  1.00  0.00     0.059 A 
ATOM     87  C   UNL A   1      47.017  28.725  36.422  1.00  0.00     0.059 A 
ATOM     88  F   UNL A   1      46.196  30.356  34.948  1.00  0.00    -0.206 F 
ATOM     89  C   UNL A   1      46.771  27.647  37.271  1.00  0.00     0.060 A 
BRANCH  89  90
ATOM     90  S   UNL A   1      48.141  26.805  38.096  1.00  0.00     0.124 S 
ATOM     91  O   UNL A   1      48.613  27.840  39.009  1.00  0.00    -0.237 OA
ATOM     92  O   UNL A   1      47.473  25.665  38.714  1.00  0.00    -0.237 OA
ATOM     93  O   UNL A   1      49.041  26.474  36.996  1.00  0.00    -0.744 OA
ENDBRANCH  89  90
ENDBRANCH  57  82
BRANCH  69  94
ATOM     94  C   UNL A   1      39.888  33.717  37.518  1.00  0.00     0.058 A 
ATOM     95  C   UNL A   1      40.490  34.975  37.679  1.00  0.00     0.135 A 
ATOM     96  C   UNL A   1      39.015  33.272  38.524  1.00  0.00     0.135 A 
ATOM     97  F   UNL A   1      41.340  35.440  36.751  1.00  0.00    -0.206 F 
ATOM     98  C   UNL A   1      40.247  35.756  38.804  1.00  0.00     0.059 A 
ATOM     99  C   UNL A   1      38.739  34.047  39.645  1.00  0.00     0.059 A 
ATOM    100  F   UNL A   1      38.408  32.080  38.412  1.00  0.00    -0.206 F 
ATOM    101  C   UNL A   1      39.368  35.284  39.782  1.00  0.00     0.060 A 
BRANCH 101 102
ATOM    102  S   UNL A   1      39.027  36.324  41.217  1.00  0.00     0.124 S 
ATOM    103  O   UNL A   1      38.771  37.616  40.589  1.00  0.00    -0.237 OA
ATOM    104  O   UNL A   1      37.867  35.668  41.813  1.00  0.00    -0.237 OA
ATOM    105  O   UNL A   1      40.257  36.237  41.998  1.00  0.00    -0.744 OA
ENDBRANCH 101 102
ENDBRANCH  69  94
ENDBRANCH  43  44
ENDBRANCH  35  38
ENDBRANCH  33  34
ENDBRANCH  32  33
ENDBRANCH  31  32
ENDBRANCH   3  31
TORSDOF 19
ENDMDL
MODEL 3
REMARK VINA RESULT:     -12.3      1.246      8.168
REMARK SMILES COc1ccc(N2C(=O)S[C@@H](CC(=O)Nc3nc(CC(=O)NCCCNC(=O)c4ccc(-c5c6nc(c(-c7c(F)cc(S(=O)(=O)[O-])cc7F)c7ccc([nH]7)c(-c7c(F)cc(S(=O)(=O)[O-])cc7F)c7nc(c(-c8c(F)cc(S(=O)(=O)[O-])cc8F)c8ccc5[nH]8)C=C7)C=C6)cc4)cs3)C2=O)cc1
REMARK SMILES IDX 20 1 21 2 22 3 19 5 18 6 16 7 17 8 96 9 95 10 15 11 13 12
REMARK SMILES IDX 14 13 12 15 11 16 7 17 8 18 97 19 9 20 10 21 98 22 6 23 3 24
REMARK SMILES IDX 4 25 100 26 5 27 99 28 2 29 1 30 23 31 24 32 25 33 26 34
REMARK SMILES IDX 27 35 28 37 29 38 30 39 94 40 31 41 93 42 32 43 33 44 34 45
REMARK SMILES IDX 87 46 35 47 92 48 86 49 88 50 36 51 91 52 85 53 84 54 37 56
REMARK SMILES IDX 71 57 50 58 70 59 51 60 54 61 69 62 89 63 52 64 53 65 68 67
REMARK SMILES IDX 90 68 55 69 38 70 39 71 48 72 40 73 41 74 47 75 49 76 42 77
REMARK SMILES IDX 43 78 44 79 45 80 46 81 72 82 73 83 82 84 74 85 75 86 81 87
REMARK SMILES IDX 83 88 76 89 77 90 78 91 79 92 80 93 56 94 57 95 66 96 58 97
REMARK SMILES IDX 59 98 65 99 67 100 60 101 61 102 62 103 63 104 64 105
REMARK H PARENT 22 4 15 14 26 36 88 55 54 66
REMARK Flexibility Score: inf
ROOT
ATOM      1  C   UNL A   1      37.996  21.480  25.457  1.00  0.00     0.226 C 
ATOM      2  O   UNL A   1      37.822  20.459  24.789  1.00  0.00    -0.275 OA
ATOM      3  N   UNL A   1      39.260  21.760  25.890  1.00  0.00    -0.356 N 
ATOM      4  H   UNL A   1      39.972  21.199  25.507  1.00  0.00     0.163 HD
ENDROOT
BRANCH   1   5
ATOM      5  C   UNL A   1      36.875  22.456  25.711  1.00  0.00     0.157 C 
BRANCH   5   6
ATOM      6  C   UNL A   1      35.499  21.910  25.548  1.00  0.00     0.063 A 
ATOM      7  C   UNL A   1      33.366  21.822  26.130  1.00  0.00     0.189 A 
ATOM      8  N   UNL A   1      34.510  22.386  26.403  1.00  0.00    -0.224 NA
ATOM      9  S   UNL A   1      33.381  20.667  24.877  1.00  0.00    -0.105 S 
ATOM     10  C   UNL A   1      35.046  21.004  24.607  1.00  0.00     0.093 A 
BRANCH   7  11
ATOM     11  N   UNL A   1      32.183  21.950  26.797  1.00  0.00    -0.302 N 
ATOM     12  C   UNL A   1      31.225  22.898  26.607  1.00  0.00     0.227 C 
ATOM     13  O   UNL A   1      30.493  23.183  27.560  1.00  0.00    -0.275 OA
ATOM     14  H   UNL A   1      32.003  21.281  27.496  1.00  0.00     0.172 HD
BRANCH  12  15
ATOM     15  C   UNL A   1      30.890  23.454  25.227  1.00  0.00     0.125 C 
BRANCH  15  16
ATOM     16  C   UNL A   1      30.631  24.945  25.154  1.00  0.00     0.156 C 
ATOM     17  N   UNL A   1      31.677  27.083  25.029  1.00  0.00    -0.240 N 
ATOM     18  C   UNL A   1      30.794  27.196  23.975  1.00  0.00     0.293 C 
ATOM     19  C   UNL A   1      31.870  25.779  25.471  1.00  0.00     0.248 C 
ATOM     20  O   UNL A   1      30.466  28.189  23.348  1.00  0.00    -0.261 OA
ATOM     21  S   UNL A   1      30.162  25.608  23.529  1.00  0.00    -0.050 SA
ATOM     22  O   UNL A   1      32.854  25.331  26.051  1.00  0.00    -0.273 OA
BRANCH  17  23
ATOM     23  C   UNL A   1      32.329  28.205  25.635  1.00  0.00     0.053 A 
ATOM     24  C   UNL A   1      33.567  30.175  27.242  1.00  0.00     0.119 A 
ATOM     25  C   UNL A   1      34.342  29.265  26.534  1.00  0.00     0.048 A 
ATOM     26  C   UNL A   1      32.186  30.168  27.088  1.00  0.00     0.048 A 
ATOM     27  C   UNL A   1      33.728  28.282  25.750  1.00  0.00     0.031 A 
ATOM     28  C   UNL A   1      31.574  29.199  26.283  1.00  0.00     0.031 A 
BRANCH  24  29
ATOM     29  O   UNL A   1      34.221  31.079  28.031  1.00  0.00    -0.497 OA
ATOM     30  C   UNL A   1      35.618  31.146  27.726  1.00  0.00     0.278 C 
ENDBRANCH  24  29
ENDBRANCH  17  23
ENDBRANCH  15  16
ENDBRANCH  12  15
ENDBRANCH   7  11
ENDBRANCH   5   6
ENDBRANCH   1   5
BRANCH   3  31
ATOM     31  C   UNL A   1      39.700  22.770  26.837  1.00  0.00     0.117 C 
BRANCH  31  32
ATOM     32  C   UNL A   1      40.942  22.322  27.604  1.00  0.00     0.042 C 
BRANCH  32  33
ATOM     33  C   UNL A   1      42.058  23.358  27.640  1.00  0.00     0.118 C 
BRANCH  33  34
ATOM     34  N   UNL A   1      42.175  24.105  26.398  1.00  0.00    -0.352 N 
ATOM     35  C   UNL A   1      41.933  25.437  26.165  1.00  0.00     0.251 C 
ATOM     36  H   UNL A   1      42.469  23.583  25.616  1.00  0.00     0.163 HD
ATOM     37  O   UNL A   1      41.927  25.862  25.014  1.00  0.00    -0.269 OA
BRANCH  35  38
ATOM     38  C   UNL A   1      41.655  26.345  27.299  1.00  0.00     0.039 A 
ATOM     39  C   UNL A   1      40.568  26.070  28.134  1.00  0.00     0.014 A 
ATOM     40  C   UNL A   1      42.462  27.461  27.541  1.00  0.00     0.014 A 
ATOM     41  C   UNL A   1      40.327  26.881  29.246  1.00  0.00     0.010 A 
ATOM     42  C   UNL A   1      42.262  28.226  28.686  1.00  0.00     0.010 A 
ATOM     43  C   UNL A   1      41.190  27.946  29.548  1.00  0.00    -0.014 A 
BRANCH  43  44
ATOM     44  C   UNL A   1      40.986  28.784  30.757  1.00  0.00     0.031 A 
ATOM     45  C   UNL A   1      39.889  29.812  30.786  1.00  0.00     0.074 A 
ATOM     46  C   UNL A   1      41.828  28.664  31.802  1.00  0.00     0.049 A 
ATOM     47  N   UNL A   1      39.593  30.681  31.718  1.00  0.00    -0.248 NA
ATOM     48  C   UNL A   1      39.028  29.892  29.595  1.00  0.00     0.031 C 
ATOM     49  C   UNL A   1      42.951  27.729  31.880  1.00  0.00     0.029 A 
ATOM     50  N   UNL A   1      41.871  29.336  32.998  1.00  0.00    -0.354 N 
ATOM     51  C   UNL A   1      38.526  31.420  31.222  1.00  0.00     0.074 A 
ATOM     52  C   UNL A   1      38.261  30.932  29.886  1.00  0.00     0.031 C 
ATOM     53  C   UNL A   1      43.552  27.862  33.074  1.00  0.00     0.029 A 
ATOM     54  C   UNL A   1      42.881  28.916  33.829  1.00  0.00     0.049 A 
ATOM     55  H   UNL A   1      41.238  30.051  33.237  1.00  0.00     0.167 HD
ATOM     56  C   UNL A   1      37.818  32.403  31.831  1.00  0.00     0.037 A 
ATOM     57  C   UNL A   1      43.228  29.335  35.062  1.00  0.00     0.037 A 
ATOM     58  C   UNL A   1      38.071  32.866  33.170  1.00  0.00     0.049 A 
ATOM     59  C   UNL A   1      42.437  30.434  35.715  1.00  0.00     0.074 A 
ATOM     60  C   UNL A   1      37.373  33.811  33.901  1.00  0.00     0.029 A 
ATOM     61  N   UNL A   1      39.108  32.421  33.978  1.00  0.00    -0.354 N 
ATOM     62  N   UNL A   1      41.397  31.086  35.254  1.00  0.00    -0.248 NA
ATOM     63  C   UNL A   1      42.870  30.857  37.053  1.00  0.00     0.031 C 
ATOM     64  C   UNL A   1      38.010  33.965  35.138  1.00  0.00     0.029 A 
ATOM     65  C   UNL A   1      39.082  33.087  35.192  1.00  0.00     0.049 A 
ATOM     66  H   UNL A   1      39.764  31.733  33.725  1.00  0.00     0.167 HD
ATOM     67  C   UNL A   1      41.032  31.977  36.256  1.00  0.00     0.074 A 
ATOM     68  C   UNL A   1      41.962  31.778  37.350  1.00  0.00     0.031 C 
ATOM     69  C   UNL A   1      40.016  32.876  36.271  1.00  0.00     0.037 A 
BRANCH  56  70
ATOM     70  C   UNL A   1      36.709  33.039  31.039  1.00  0.00     0.058 A 
ATOM     71  C   UNL A   1      36.973  33.900  29.961  1.00  0.00     0.135 A 
ATOM     72  C   UNL A   1      35.366  32.802  31.372  1.00  0.00     0.135 A 
ATOM     73  F   UNL A   1      38.241  34.172  29.607  1.00  0.00    -0.206 F 
ATOM     74  C   UNL A   1      35.949  34.547  29.277  1.00  0.00     0.059 A 
ATOM     75  C   UNL A   1      34.324  33.416  30.683  1.00  0.00     0.059 A 
ATOM     76  F   UNL A   1      35.056  31.984  32.390  1.00  0.00    -0.206 F 
ATOM     77  C   UNL A   1      34.628  34.308  29.655  1.00  0.00     0.060 A 
BRANCH  77  78
ATOM     78  S   UNL A   1      33.308  35.190  28.795  1.00  0.00     0.124 S 
ATOM     79  O   UNL A   1      32.759  34.134  27.950  1.00  0.00    -0.237 OA
ATOM     80  O   UNL A   1      32.454  35.629  29.893  1.00  0.00    -0.237 OA
ATOM     81  O   UNL A   1      34.015  36.255  28.090  1.00  0.00    -0.744 OA
ENDBRANCH  77  78
ENDBRANCH  56  70
BRANCH  57  82
ATOM     82  C   UNL A   1      44.350  28.672  35.776  1.00  0.00     0.058 A 
ATOM     83  C   UNL A   1      44.110  27.570  36.611  1.00  0.00     0.135 A 
ATOM     84  C   UNL A   1      45.678  29.093  35.611  1.00  0.00     0.135 A 
ATOM     85  F   UNL A   1      42.855  27.137  36.802  1.00  0.00    -0.206 F 
ATOM     86  C   UNL A   1      45.147  26.909  37.259  1.00  0.00     0.059 A 
ATOM     87  C   UNL A   1      46.734  28.435  36.235  1.00  0.00     0.059 A 
ATOM     88  F   UNL A   1      45.960  30.133  34.811  1.00  0.00    -0.206 F 
ATOM     89  C   UNL A   1      46.457  27.346  37.060  1.00  0.00     0.060 A 
BRANCH  89  90
ATOM     90  S   UNL A   1      47.802  26.433  37.848  1.00  0.00     0.124 S 
ATOM     91  O   UNL A   1      48.822  27.469  37.977  1.00  0.00    -0.237 OA
ATOM     92  O   UNL A   1      47.183  25.989  39.092  1.00  0.00    -0.237 OA
ATOM     93  O   UNL A   1      48.094  25.374  36.888  1.00  0.00    -0.744 OA
ENDBRANCH  89  90
ENDBRANCH  57  82
BRANCH  69  94
ATOM     94  C   UNL A   1      39.838  33.693  37.519  1.00  0.00     0.058 A 
ATOM     95  C   UNL A   1      38.986  33.279  38.554  1.00  0.00     0.135 A 
ATOM     96  C   UNL A   1      40.569  34.878  37.703  1.00  0.00     0.135 A 
ATOM     97  F   UNL A   1      38.259  32.159  38.423  1.00  0.00    -0.206 F 
ATOM     98  C   UNL A   1      38.851  34.021  39.723  1.00  0.00     0.059 A 
ATOM     99  C   UNL A   1      40.468  35.623  38.873  1.00  0.00     0.059 A 
ATOM    100  F   UNL A   1      41.404  35.311  36.746  1.00  0.00    -0.206 F 
ATOM    101  C   UNL A   1      39.598  35.192  39.874  1.00  0.00     0.060 A 
BRANCH 101 102
ATOM    102  S   UNL A   1      39.447  36.125  41.411  1.00  0.00     0.124 S 
ATOM    103  O   UNL A   1      38.498  35.307  42.159  1.00  0.00    -0.237 OA
ATOM    104  O   UNL A   1      40.817  36.126  41.915  1.00  0.00    -0.237 OA
ATOM    105  O   UNL A   1      38.947  37.424  40.972  1.00  0.00    -0.744 OA
ENDBRANCH 101 102
ENDBRANCH  69  94
ENDBRANCH  43  44
ENDBRANCH  35  38
ENDBRANCH  33  34
ENDBRANCH  32  33
ENDBRANCH  31  32
ENDBRANCH   3  31
TORSDOF 19
ENDMDL
