MODEL 1
REMARK VINA RESULT:     -12.5      0.000      0.000
REMARK SMILES O=C(NCCCNC(=O)[C@H]1C[C@@H]2N=CN=C2C[NH2+]1)c1ccc(-c2c3nc(c(-c4c(F)cc(S(=O)(=O)[O-])cc4F)c4ccc([nH]4)c(-c4c(F)cc(S(=O)(=O)[O-])cc4F)c4nc(c(-c5c(F)cc(S(=O)(=O)[O-])cc5F)c5ccc2[nH]5)C=C4)C=C3)cc1
REMARK SMILES IDX 1 1 2 2 3 3 19 5 20 6 84 7 21 8 83 9 22 10 23 11 24 12 77 13
REMARK SMILES IDX 25 14 82 15 76 16 78 17 26 18 81 19 75 20 74 21 27 23 61 24
REMARK SMILES IDX 40 25 60 26 41 27 44 28 59 29 79 30 42 31 43 32 58 34 80 35
REMARK SMILES IDX 45 36 28 37 29 38 38 39 30 40 31 41 37 42 39 43 32 44 33 45
REMARK SMILES IDX 34 46 35 47 36 48 62 49 63 50 72 51 64 52 65 53 71 54 73 55
REMARK SMILES IDX 66 56 67 57 68 58 69 59 70 60 46 61 47 62 56 63 48 64 49 65
REMARK SMILES IDX 55 66 57 67 50 68 51 69 52 70 53 71 54 72 4 73 5 74 6 75
REMARK SMILES IDX 7 76 8 77 9 79 10 80 11 81 18 82 12 83 17 84 13 87 16 88
REMARK SMILES IDX 14 89 15 90
REMARK H PARENT 3 4 78 22 44 33 7 78 18 85 18 86
REMARK Flexibility Score: inf
ROOT
ATOM      1  O   UNL A   1      33.530  30.828  27.300  1.00  0.00    -0.269 OA
ATOM      2  C   UNL A   1      34.239  31.630  27.915  1.00  0.00     0.251 C 
ATOM      3  N   UNL A   1      33.704  32.878  28.095  1.00  0.00    -0.352 N 
ATOM      4  H   UNL A   1      32.983  33.083  27.457  1.00  0.00     0.163 HD
ENDROOT
BRANCH   2   5
ATOM      5  C   UNL A   1      35.616  31.211  28.308  1.00  0.00     0.039 A 
ATOM      6  C   UNL A   1      36.610  32.023  28.855  1.00  0.00     0.014 A 
ATOM      7  C   UNL A   1      35.924  29.858  28.055  1.00  0.00     0.014 A 
ATOM      8  C   UNL A   1      37.891  31.510  29.090  1.00  0.00     0.010 A 
ATOM      9  C   UNL A   1      37.200  29.347  28.278  1.00  0.00     0.010 A 
ATOM     10  C   UNL A   1      38.195  30.182  28.774  1.00  0.00    -0.014 A 
BRANCH  10  11
ATOM     11  C   UNL A   1      39.537  29.670  29.064  1.00  0.00     0.031 A 
ATOM     12  C   UNL A   1      39.866  29.473  30.506  1.00  0.00     0.074 A 
ATOM     13  C   UNL A   1      40.392  29.221  28.120  1.00  0.00     0.049 A 
ATOM     14  N   UNL A   1      40.794  30.044  31.206  1.00  0.00    -0.248 NA
ATOM     15  C   UNL A   1      39.013  28.562  31.284  1.00  0.00     0.031 C 
ATOM     16  C   UNL A   1      40.125  29.015  26.694  1.00  0.00     0.029 A 
ATOM     17  N   UNL A   1      41.666  28.750  28.268  1.00  0.00    -0.354 N 
ATOM     18  C   UNL A   1      40.765  29.439  32.464  1.00  0.00     0.074 A 
ATOM     19  C   UNL A   1      39.571  28.631  32.494  1.00  0.00     0.031 C 
ATOM     20  C   UNL A   1      41.121  28.273  26.159  1.00  0.00     0.029 A 
ATOM     21  C   UNL A   1      42.153  28.060  27.163  1.00  0.00     0.049 A 
ATOM     22  H   UNL A   1      42.194  28.887  29.086  1.00  0.00     0.167 HD
ATOM     23  C   UNL A   1      41.814  29.502  33.332  1.00  0.00     0.037 A 
ATOM     24  C   UNL A   1      43.286  27.316  27.098  1.00  0.00     0.037 A 
ATOM     25  C   UNL A   1      42.757  30.521  32.957  1.00  0.00     0.049 A 
ATOM     26  C   UNL A   1      44.171  27.745  28.210  1.00  0.00     0.074 A 
ATOM     27  C   UNL A   1      42.701  31.891  32.793  1.00  0.00     0.029 A 
ATOM     28  N   UNL A   1      43.934  30.125  32.372  1.00  0.00    -0.354 N 
ATOM     29  N   UNL A   1      44.756  28.908  28.283  1.00  0.00    -0.248 NA
ATOM     30  C   UNL A   1      44.100  27.007  29.462  1.00  0.00     0.031 C 
ATOM     31  C   UNL A   1      43.582  32.169  31.707  1.00  0.00     0.029 A 
ATOM     32  C   UNL A   1      44.147  30.958  31.306  1.00  0.00     0.049 A 
ATOM     33  H   UNL A   1      44.514  29.385  32.664  1.00  0.00     0.167 HD
ATOM     34  C   UNL A   1      44.741  29.230  29.630  1.00  0.00     0.074 A 
ATOM     35  C   UNL A   1      44.424  27.981  30.315  1.00  0.00     0.031 C 
ATOM     36  C   UNL A   1      44.718  30.530  30.048  1.00  0.00     0.037 A 
BRANCH  23  37
ATOM     37  C   UNL A   1      42.165  28.442  34.351  1.00  0.00     0.058 A 
ATOM     38  C   UNL A   1      42.146  28.764  35.726  1.00  0.00     0.135 A 
ATOM     39  C   UNL A   1      42.792  27.222  34.020  1.00  0.00     0.135 A 
ATOM     40  F   UNL A   1      41.582  29.904  36.156  1.00  0.00    -0.206 F 
ATOM     41  C   UNL A   1      42.772  27.970  36.689  1.00  0.00     0.059 A 
ATOM     42  C   UNL A   1      43.374  26.389  34.970  1.00  0.00     0.059 A 
ATOM     43  F   UNL A   1      42.956  26.834  32.749  1.00  0.00    -0.206 F 
ATOM     44  C   UNL A   1      43.401  26.792  36.296  1.00  0.00     0.060 A 
BRANCH  44  45
ATOM     45  S   UNL A   1      44.315  25.831  37.516  1.00  0.00     0.124 S 
ATOM     46  O   UNL A   1      44.030  24.468  37.081  1.00  0.00    -0.237 OA
ATOM     47  O   UNL A   1      45.683  26.296  37.310  1.00  0.00    -0.237 OA
ATOM     48  O   UNL A   1      43.707  26.232  38.781  1.00  0.00    -0.744 OA
ENDBRANCH  44  45
ENDBRANCH  23  37
BRANCH  24  49
ATOM     49  C   UNL A   1      43.532  26.062  26.334  1.00  0.00     0.058 A 
ATOM     50  C   UNL A   1      44.667  25.913  25.515  1.00  0.00     0.135 A 
ATOM     51  C   UNL A   1      42.812  24.884  26.612  1.00  0.00     0.135 A 
ATOM     52  F   UNL A   1      45.428  26.977  25.214  1.00  0.00    -0.206 F 
ATOM     53  C   UNL A   1      45.093  24.665  25.047  1.00  0.00     0.059 A 
ATOM     54  C   UNL A   1      43.209  23.631  26.146  1.00  0.00     0.059 A 
ATOM     55  F   UNL A   1      41.750  24.897  27.431  1.00  0.00    -0.206 F 
ATOM     56  C   UNL A   1      44.367  23.524  25.386  1.00  0.00     0.060 A 
BRANCH  56  57
ATOM     57  S   UNL A   1      45.010  21.892  24.945  1.00  0.00     0.124 S 
ATOM     58  O   UNL A   1      44.787  21.859  23.505  1.00  0.00    -0.237 OA
ATOM     59  O   UNL A   1      46.402  21.982  25.375  1.00  0.00    -0.237 OA
ATOM     60  O   UNL A   1      44.179  20.978  25.727  1.00  0.00    -0.744 OA
ENDBRANCH  56  57
ENDBRANCH  24  49
BRANCH  36  61
ATOM     61  C   UNL A   1      45.056  31.611  29.058  1.00  0.00     0.058 A 
ATOM     62  C   UNL A   1      46.360  32.054  28.778  1.00  0.00     0.135 A 
ATOM     63  C   UNL A   1      44.022  32.104  28.244  1.00  0.00     0.135 A 
ATOM     64  F   UNL A   1      47.416  31.555  29.437  1.00  0.00    -0.206 F 
ATOM     65  C   UNL A   1      46.618  32.974  27.761  1.00  0.00     0.059 A 
ATOM     66  C   UNL A   1      44.262  32.994  27.202  1.00  0.00     0.059 A 
ATOM     67  F   UNL A   1      42.762  31.672  28.423  1.00  0.00    -0.206 F 
ATOM     68  C   UNL A   1      45.563  33.433  26.973  1.00  0.00     0.060 A 
BRANCH  68  69
ATOM     69  S   UNL A   1      45.912  34.542  25.589  1.00  0.00     0.124 S 
ATOM     70  O   UNL A   1      45.553  35.846  26.145  1.00  0.00    -0.237 OA
ATOM     71  O   UNL A   1      47.342  34.326  25.365  1.00  0.00    -0.237 OA
ATOM     72  O   UNL A   1      45.044  34.053  24.530  1.00  0.00    -0.744 OA
ENDBRANCH  68  69
ENDBRANCH  36  61
ENDBRANCH  10  11
ENDBRANCH   2   5
BRANCH   3  73
ATOM     73  C   UNL A   1      33.965  33.962  29.022  1.00  0.00     0.118 C 
BRANCH  73  74
ATOM     74  C   UNL A   1      32.979  35.127  28.942  1.00  0.00     0.042 C 
BRANCH  74  75
ATOM     75  C   UNL A   1      33.567  36.477  29.382  1.00  0.00     0.118 C 
BRANCH  75  76
ATOM     76  N   UNL A   1      32.895  36.987  30.573  1.00  0.00    -0.351 N 
ATOM     77  C   UNL A   1      32.886  36.542  31.863  1.00  0.00     0.278 C 
ATOM     78  H   UNL A   1      32.353  37.795  30.419  1.00  0.00     0.163 HD
ATOM     79  O   UNL A   1      32.171  37.159  32.660  1.00  0.00    -0.268 OA
BRANCH  77  80
ATOM     80  C   UNL A   1      33.802  35.390  32.322  1.00  0.00     0.275 C 
ATOM     81  C   UNL A   1      34.801  35.875  33.403  1.00  0.00     0.109 C 
ATOM     82  N   UNL A   1      33.028  34.224  32.832  1.00  0.00    -0.331 N 
ATOM     83  C   UNL A   1      35.802  34.788  33.765  1.00  0.00     0.164 C 
ATOM     84  C   UNL A   1      33.867  33.148  33.407  1.00  0.00     0.316 C 
ATOM     85  H   UNL A   1      32.491  33.833  32.058  1.00  0.00     0.347 HD
ATOM     86  H   UNL A   1      32.434  34.570  33.585  1.00  0.00     0.347 HD
ATOM     87  N   UNL A   1      37.088  34.926  33.050  1.00  0.00    -0.264 NA
ATOM     88  C   UNL A   1      35.306  33.500  33.208  1.00  0.00     0.098 C 
ATOM     89  C   UNL A   1      37.199  33.823  32.372  1.00  0.00     0.216 C 
ATOM     90  N   UNL A   1      36.161  32.929  32.427  1.00  0.00    -0.238 NA
ENDBRANCH  77  80
ENDBRANCH  75  76
ENDBRANCH  74  75
ENDBRANCH  73  74
ENDBRANCH   3  73
TORSDOF 13
ENDMDL
MODEL 2
REMARK VINA RESULT:     -12.2      3.321     12.027
REMARK SMILES O=C(NCCCNC(=O)[C@H]1C[C@@H]2N=CN=C2C[NH2+]1)c1ccc(-c2c3nc(c(-c4c(F)cc(S(=O)(=O)[O-])cc4F)c4ccc([nH]4)c(-c4c(F)cc(S(=O)(=O)[O-])cc4F)c4nc(c(-c5c(F)cc(S(=O)(=O)[O-])cc5F)c5ccc2[nH]5)C=C4)C=C3)cc1
REMARK SMILES IDX 1 1 2 2 3 3 19 5 20 6 84 7 21 8 83 9 22 10 23 11 24 12 77 13
REMARK SMILES IDX 25 14 82 15 76 16 78 17 26 18 81 19 75 20 74 21 27 23 61 24
REMARK SMILES IDX 40 25 60 26 41 27 44 28 59 29 79 30 42 31 43 32 58 34 80 35
REMARK SMILES IDX 45 36 28 37 29 38 38 39 30 40 31 41 37 42 39 43 32 44 33 45
REMARK SMILES IDX 34 46 35 47 36 48 62 49 63 50 72 51 64 52 65 53 71 54 73 55
REMARK SMILES IDX 66 56 67 57 68 58 69 59 70 60 46 61 47 62 56 63 48 64 49 65
REMARK SMILES IDX 55 66 57 67 50 68 51 69 52 70 53 71 54 72 4 73 5 74 6 75
REMARK SMILES IDX 7 76 8 77 9 79 10 80 11 81 18 82 12 83 17 84 13 87 16 88
REMARK SMILES IDX 14 89 15 90
REMARK H PARENT 3 4 78 22 44 33 7 78 18 85 18 86
REMARK Flexibility Score: inf
ROOT
ATOM      1  O   UNL A   1      38.575  21.890  25.503  1.00  0.00    -0.269 OA
ATOM      2  C   UNL A   1      39.566  21.856  26.238  1.00  0.00     0.251 C 
ATOM      3  N   UNL A   1      40.107  20.615  26.447  1.00  0.00    -0.352 N 
ATOM      4  H   UNL A   1      39.474  19.883  26.260  1.00  0.00     0.163 HD
ENDROOT
BRANCH   2   5
ATOM      5  C   UNL A   1      40.015  23.119  26.892  1.00  0.00     0.039 A 
ATOM      6  C   UNL A   1      41.128  23.280  27.718  1.00  0.00     0.014 A 
ATOM      7  C   UNL A   1      39.188  24.239  26.660  1.00  0.00     0.014 A 
ATOM      8  C   UNL A   1      41.375  24.510  28.338  1.00  0.00     0.010 A 
ATOM      9  C   UNL A   1      39.425  25.461  27.283  1.00  0.00     0.010 A 
ATOM     10  C   UNL A   1      40.508  25.592  28.146  1.00  0.00    -0.014 A 
BRANCH  10  11
ATOM     11  C   UNL A   1      40.815  26.874  28.785  1.00  0.00     0.031 A 
ATOM     12  C   UNL A   1      41.945  27.648  28.191  1.00  0.00     0.074 A 
ATOM     13  C   UNL A   1      40.045  27.445  29.735  1.00  0.00     0.049 A 
ATOM     14  N   UNL A   1      43.058  28.004  28.749  1.00  0.00    -0.248 NA
ATOM     15  C   UNL A   1      41.845  28.025  26.773  1.00  0.00     0.031 C 
ATOM     16  C   UNL A   1      38.726  27.010  30.201  1.00  0.00     0.029 A 
ATOM     17  N   UNL A   1      40.244  28.613  30.415  1.00  0.00    -0.354 N 
ATOM     18  C   UNL A   1      43.725  28.803  27.818  1.00  0.00     0.074 A 
ATOM     19  C   UNL A   1      42.995  28.675  26.582  1.00  0.00     0.031 C 
ATOM     20  C   UNL A   1      38.160  28.004  30.922  1.00  0.00     0.029 A 
ATOM     21  C   UNL A   1      39.118  29.089  31.076  1.00  0.00     0.049 A 
ATOM     22  H   UNL A   1      41.111  29.079  30.435  1.00  0.00     0.167 HD
ATOM     23  C   UNL A   1      44.728  29.657  28.171  1.00  0.00     0.037 A 
ATOM     24  C   UNL A   1      38.961  30.309  31.652  1.00  0.00     0.037 A 
ATOM     25  C   UNL A   1      45.231  29.374  29.488  1.00  0.00     0.049 A 
ATOM     26  C   UNL A   1      40.314  30.866  31.903  1.00  0.00     0.074 A 
ATOM     27  C   UNL A   1      45.830  28.287  30.093  1.00  0.00     0.029 A 
ATOM     28  N   UNL A   1      44.861  30.212  30.511  1.00  0.00    -0.354 N 
ATOM     29  N   UNL A   1      41.158  30.392  32.776  1.00  0.00    -0.248 NA
ATOM     30  C   UNL A   1      40.893  31.735  30.889  1.00  0.00     0.031 C 
ATOM     31  C   UNL A   1      45.348  28.300  31.434  1.00  0.00     0.029 A 
ATOM     32  C   UNL A   1      44.520  29.414  31.572  1.00  0.00     0.049 A 
ATOM     33  H   UNL A   1      44.845  31.195  30.488  1.00  0.00     0.167 HD
ATOM     34  C   UNL A   1      42.402  30.547  32.189  1.00  0.00     0.074 A 
ATOM     35  C   UNL A   1      42.187  31.472  31.081  1.00  0.00     0.031 C 
ATOM     36  C   UNL A   1      43.436  29.704  32.484  1.00  0.00     0.037 A 
BRANCH  23  37
ATOM     37  C   UNL A   1      45.058  30.951  27.463  1.00  0.00     0.058 A 
ATOM     38  C   UNL A   1      46.328  31.117  26.868  1.00  0.00     0.135 A 
ATOM     39  C   UNL A   1      44.290  32.128  27.596  1.00  0.00     0.135 A 
ATOM     40  F   UNL A   1      47.147  30.067  26.698  1.00  0.00    -0.206 F 
ATOM     41  C   UNL A   1      46.827  32.370  26.506  1.00  0.00     0.059 A 
ATOM     42  C   UNL A   1      44.746  33.378  27.192  1.00  0.00     0.059 A 
ATOM     43  F   UNL A   1      43.103  32.131  28.217  1.00  0.00    -0.206 F 
ATOM     44  C   UNL A   1      46.033  33.498  26.691  1.00  0.00     0.060 A 
BRANCH  44  45
ATOM     45  S   UNL A   1      46.720  35.127  26.340  1.00  0.00     0.124 S 
ATOM     46  O   UNL A   1      45.519  35.955  26.353  1.00  0.00    -0.237 OA
ATOM     47  O   UNL A   1      47.641  35.317  27.455  1.00  0.00    -0.237 OA
ATOM     48  O   UNL A   1      47.353  34.949  25.036  1.00  0.00    -0.744 OA
ENDBRANCH  44  45
ENDBRANCH  23  37
BRANCH  24  49
ATOM     49  C   UNL A   1      37.735  31.152  31.724  1.00  0.00     0.058 A 
ATOM     50  C   UNL A   1      37.129  31.460  32.956  1.00  0.00     0.135 A 
ATOM     51  C   UNL A   1      37.300  31.905  30.617  1.00  0.00     0.135 A 
ATOM     52  F   UNL A   1      37.497  30.810  34.071  1.00  0.00    -0.206 F 
ATOM     53  C   UNL A   1      36.190  32.489  33.092  1.00  0.00     0.059 A 
ATOM     54  C   UNL A   1      36.356  32.926  30.724  1.00  0.00     0.059 A 
ATOM     55  F   UNL A   1      37.853  31.740  29.405  1.00  0.00    -0.206 F 
ATOM     56  C   UNL A   1      35.825  33.231  31.970  1.00  0.00     0.060 A 
BRANCH  56  57
ATOM     57  S   UNL A   1      34.757  34.679  32.165  1.00  0.00     0.124 S 
ATOM     58  O   UNL A   1      34.508  35.059  30.779  1.00  0.00    -0.237 OA
ATOM     59  O   UNL A   1      33.617  34.126  32.890  1.00  0.00    -0.237 OA
ATOM     60  O   UNL A   1      35.584  35.609  32.929  1.00  0.00    -0.744 OA
ENDBRANCH  56  57
ENDBRANCH  24  49
BRANCH  36  61
ATOM     61  C   UNL A   1      43.322  28.823  33.698  1.00  0.00     0.058 A 
ATOM     62  C   UNL A   1      43.669  29.218  35.002  1.00  0.00     0.135 A 
ATOM     63  C   UNL A   1      42.685  27.580  33.552  1.00  0.00     0.135 A 
ATOM     64  F   UNL A   1      44.185  30.432  35.242  1.00  0.00    -0.206 F 
ATOM     65  C   UNL A   1      43.425  28.398  36.104  1.00  0.00     0.059 A 
ATOM     66  C   UNL A   1      42.401  26.763  34.641  1.00  0.00     0.059 A 
ATOM     67  F   UNL A   1      42.275  27.173  32.339  1.00  0.00    -0.206 F 
ATOM     68  C   UNL A   1      42.784  27.174  35.916  1.00  0.00     0.060 A 
BRANCH  68  69
ATOM     69  S   UNL A   1      42.375  26.160  37.354  1.00  0.00     0.124 S 
ATOM     70  O   UNL A   1      42.683  24.813  36.875  1.00  0.00    -0.237 OA
ATOM     71  O   UNL A   1      43.279  26.686  38.378  1.00  0.00    -0.237 OA
ATOM     72  O   UNL A   1      40.966  26.436  37.580  1.00  0.00    -0.744 OA
ENDBRANCH  68  69
ENDBRANCH  36  61
ENDBRANCH  10  11
ENDBRANCH   2   5
BRANCH   3  73
ATOM     73  C   UNL A   1      41.407  20.142  26.880  1.00  0.00     0.118 C 
BRANCH  73  74
ATOM     74  C   UNL A   1      41.999  19.018  26.029  1.00  0.00     0.042 C 
BRANCH  74  75
ATOM     75  C   UNL A   1      43.454  18.669  26.376  1.00  0.00     0.118 C 
BRANCH  75  76
ATOM     76  N   UNL A   1      44.304  18.692  25.189  1.00  0.00    -0.351 N 
ATOM     77  C   UNL A   1      44.864  19.730  24.501  1.00  0.00     0.278 C 
ATOM     78  H   UNL A   1      44.510  17.803  24.820  1.00  0.00     0.163 HD
ATOM     79  O   UNL A   1      45.505  19.442  23.485  1.00  0.00    -0.268 OA
BRANCH  77  80
ATOM     80  C   UNL A   1      44.783  21.178  25.025  1.00  0.00     0.275 C 
ATOM     81  C   UNL A   1      46.030  21.991  24.596  1.00  0.00     0.109 C 
ATOM     82  N   UNL A   1      43.544  21.871  24.574  1.00  0.00    -0.331 N 
ATOM     83  C   UNL A   1      46.032  23.378  25.221  1.00  0.00     0.164 C 
ATOM     84  C   UNL A   1      43.488  23.304  24.942  1.00  0.00     0.316 C 
ATOM     85  H   UNL A   1      42.742  21.400  24.994  1.00  0.00     0.347 HD
ATOM     86  H   UNL A   1      43.534  21.826  23.555  1.00  0.00     0.347 HD
ATOM     87  N   UNL A   1      46.862  23.460  26.442  1.00  0.00    -0.264 NA
ATOM     88  C   UNL A   1      44.678  23.633  25.783  1.00  0.00     0.098 C 
ATOM     89  C   UNL A   1      46.028  23.809  27.375  1.00  0.00     0.216 C 
ATOM     90  N   UNL A   1      44.704  23.928  27.039  1.00  0.00    -0.238 NA
ENDBRANCH  77  80
ENDBRANCH  75  76
ENDBRANCH  74  75
ENDBRANCH  73  74
ENDBRANCH   3  73
TORSDOF 13
ENDMDL
MODEL 3
REMARK VINA RESULT:     -12.1      5.394     11.761
REMARK SMILES O=C(NCCCNC(=O)[C@H]1C[C@@H]2N=CN=C2C[NH2+]1)c1ccc(-c2c3nc(c(-c4c(F)cc(S(=O)(=O)[O-])cc4F)c4ccc([nH]4)c(-c4c(F)cc(S(=O)(=O)[O-])cc4F)c4nc(c(-c5c(F)cc(S(=O)(=O)[O-])cc5F)c5ccc2[nH]5)C=C4)C=C3)cc1
REMARK SMILES IDX 1 1 2 2 3 3 19 5 20 6 84 7 21 8 83 9 22 10 23 11 24 12 77 13
REMARK SMILES IDX 25 14 82 15 76 16 78 17 26 18 81 19 75 20 74 21 27 23 61 24
REMARK SMILES IDX 40 25 60 26 41 27 44 28 59 29 79 30 42 31 43 32 58 34 80 35
REMARK SMILES IDX 45 36 28 37 29 38 38 39 30 40 31 41 37 42 39 43 32 44 33 45
REMARK SMILES IDX 34 46 35 47 36 48 62 49 63 50 72 51 64 52 65 53 71 54 73 55
REMARK SMILES IDX 66 56 67 57 68 58 69 59 70 60 46 61 47 62 56 63 48 64 49 65
REMARK SMILES IDX 55 66 57 67 50 68 51 69 52 70 53 71 54 72 4 73 5 74 6 75
REMARK SMILES IDX 7 76 8 77 9 79 10 80 11 81 18 82 12 83 17 84 13 87 16 88
REMARK SMILES IDX 14 89 15 90
REMARK H PARENT 3 4 78 22 44 33 7 78 18 85 18 86
REMARK Flexibility Score: inf
ROOT
ATOM      1  O   UNL A   1      40.890  21.465  26.164  1.00  0.00    -0.269 OA
ATOM      2  C   UNL A   1      39.914  22.221  26.164  1.00  0.00     0.251 C 
ATOM      3  N   UNL A   1      38.838  21.798  25.431  1.00  0.00    -0.352 N 
ATOM      4  H   UNL A   1      39.074  21.126  24.751  1.00  0.00     0.163 HD
ENDROOT
BRANCH   2   5
ATOM      5  C   UNL A   1      40.028  23.535  26.860  1.00  0.00     0.039 A 
ATOM      6  C   UNL A   1      39.168  24.626  26.726  1.00  0.00     0.014 A 
ATOM      7  C   UNL A   1      41.149  23.669  27.707  1.00  0.00     0.014 A 
ATOM      8  C   UNL A   1      39.453  25.833  27.376  1.00  0.00     0.010 A 
ATOM      9  C   UNL A   1      41.440  24.870  28.347  1.00  0.00     0.010 A 
ATOM     10  C   UNL A   1      40.603  25.965  28.162  1.00  0.00    -0.014 A 
BRANCH  10  11
ATOM     11  C   UNL A   1      40.852  27.232  28.853  1.00  0.00     0.031 A 
ATOM     12  C   UNL A   1      41.960  28.071  28.306  1.00  0.00     0.074 A 
ATOM     13  C   UNL A   1      40.049  27.737  29.814  1.00  0.00     0.049 A 
ATOM     14  N   UNL A   1      43.050  28.447  28.893  1.00  0.00    -0.248 NA
ATOM     15  C   UNL A   1      41.863  28.499  26.902  1.00  0.00     0.031 C 
ATOM     16  C   UNL A   1      38.742  27.235  30.244  1.00  0.00     0.029 A 
ATOM     17  N   UNL A   1      40.194  28.885  30.541  1.00  0.00    -0.354 N 
ATOM     18  C   UNL A   1      43.698  29.306  28.003  1.00  0.00     0.074 A 
ATOM     19  C   UNL A   1      42.989  29.198  26.753  1.00  0.00     0.031 C 
ATOM     20  C   UNL A   1      38.129  28.178  30.994  1.00  0.00     0.029 A 
ATOM     21  C   UNL A   1      39.042  29.292  31.203  1.00  0.00     0.049 A 
ATOM     22  H   UNL A   1      41.042  29.382  30.591  1.00  0.00     0.167 HD
ATOM     23  C   UNL A   1      44.663  30.183  28.402  1.00  0.00     0.037 A 
ATOM     24  C   UNL A   1      38.831  30.482  31.823  1.00  0.00     0.037 A 
ATOM     25  C   UNL A   1      45.160  29.869  29.714  1.00  0.00     0.049 A 
ATOM     26  C   UNL A   1      40.159  31.079  32.114  1.00  0.00     0.074 A 
ATOM     27  C   UNL A   1      45.792  28.782  30.286  1.00  0.00     0.029 A 
ATOM     28  N   UNL A   1      44.745  30.651  30.764  1.00  0.00    -0.354 N 
ATOM     29  N   UNL A   1      41.008  30.604  32.981  1.00  0.00    -0.248 NA
ATOM     30  C   UNL A   1      40.716  32.008  31.143  1.00  0.00     0.031 C 
ATOM     31  C   UNL A   1      45.293  28.725  31.620  1.00  0.00     0.029 A 
ATOM     32  C   UNL A   1      44.421  29.801  31.788  1.00  0.00     0.049 A 
ATOM     33  H   UNL A   1      44.691  31.634  30.777  1.00  0.00     0.167 HD
ATOM     34  C   UNL A   1      42.254  30.828  32.417  1.00  0.00     0.074 A 
ATOM     35  C   UNL A   1      42.018  31.787  31.343  1.00  0.00     0.031 C 
ATOM     36  C   UNL A   1      43.315  30.014  32.694  1.00  0.00     0.037 A 
BRANCH  23  37
ATOM     37  C   UNL A   1      44.952  31.515  27.749  1.00  0.00     0.058 A 
ATOM     38  C   UNL A   1      46.201  31.731  27.126  1.00  0.00     0.135 A 
ATOM     39  C   UNL A   1      44.171  32.671  27.962  1.00  0.00     0.135 A 
ATOM     40  F   UNL A   1      47.030  30.703  26.880  1.00  0.00    -0.206 F 
ATOM     41  C   UNL A   1      46.671  33.007  26.810  1.00  0.00     0.059 A 
ATOM     42  C   UNL A   1      44.597  33.947  27.606  1.00  0.00     0.059 A 
ATOM     43  F   UNL A   1      43.004  32.625  28.617  1.00  0.00    -0.206 F 
ATOM     44  C   UNL A   1      45.866  34.112  27.073  1.00  0.00     0.060 A 
BRANCH  44  45
ATOM     45  S   UNL A   1      46.518  35.767  26.782  1.00  0.00     0.124 S 
ATOM     46  O   UNL A   1      45.299  36.567  26.821  1.00  0.00    -0.237 OA
ATOM     47  O   UNL A   1      47.432  35.938  27.907  1.00  0.00    -0.237 OA
ATOM     48  O   UNL A   1      47.157  35.649  25.475  1.00  0.00    -0.744 OA
ENDBRANCH  44  45
ENDBRANCH  23  37
BRANCH  24  49
ATOM     49  C   UNL A   1      37.573  31.274  31.909  1.00  0.00     0.058 A 
ATOM     50  C   UNL A   1      37.033  31.657  33.151  1.00  0.00     0.135 A 
ATOM     51  C   UNL A   1      37.033  31.913  30.777  1.00  0.00     0.135 A 
ATOM     52  F   UNL A   1      37.501  31.119  34.287  1.00  0.00    -0.206 F 
ATOM     53  C   UNL A   1      36.055  32.653  33.267  1.00  0.00     0.059 A 
ATOM     54  C   UNL A   1      36.049  32.898  30.865  1.00  0.00     0.059 A 
ATOM     55  F   UNL A   1      37.515  31.672  29.549  1.00  0.00    -0.206 F 
ATOM     56  C   UNL A   1      35.584  33.283  32.116  1.00  0.00     0.060 A 
BRANCH  56  57
ATOM     57  S   UNL A   1      34.462  34.694  32.266  1.00  0.00     0.124 S 
ATOM     58  O   UNL A   1      33.319  34.100  32.947  1.00  0.00    -0.237 OA
ATOM     59  O   UNL A   1      35.254  35.636  33.052  1.00  0.00    -0.237 OA
ATOM     60  O   UNL A   1      34.228  35.090  30.879  1.00  0.00    -0.744 OA
ENDBRANCH  56  57
ENDBRANCH  24  49
BRANCH  36  61
ATOM     61  C   UNL A   1      43.220  29.083  33.873  1.00  0.00     0.058 A 
ATOM     62  C   UNL A   1      43.480  29.456  35.203  1.00  0.00     0.135 A 
ATOM     63  C   UNL A   1      42.687  27.802  33.658  1.00  0.00     0.135 A 
ATOM     64  F   UNL A   1      43.890  30.696  35.506  1.00  0.00    -0.206 F 
ATOM     65  C   UNL A   1      43.255  28.580  36.266  1.00  0.00     0.059 A 
ATOM     66  C   UNL A   1      42.423  26.926  34.705  1.00  0.00     0.059 A 
ATOM     67  F   UNL A   1      42.361  27.410  32.414  1.00  0.00    -0.206 F 
ATOM     68  C   UNL A   1      42.720  27.318  36.008  1.00  0.00     0.060 A 
BRANCH  68  69
ATOM     69  S   UNL A   1      42.331  26.224  37.392  1.00  0.00     0.124 S 
ATOM     70  O   UNL A   1      43.276  26.674  38.412  1.00  0.00    -0.237 OA
ATOM     71  O   UNL A   1      40.925  26.537  37.656  1.00  0.00    -0.237 OA
ATOM     72  O   UNL A   1      42.573  24.894  36.858  1.00  0.00    -0.744 OA
ENDBRANCH  68  69
ENDBRANCH  36  61
ENDBRANCH  10  11
ENDBRANCH   2   5
BRANCH   3  73
ATOM     73  C   UNL A   1      37.424  22.121  25.438  1.00  0.00     0.118 C 
BRANCH  73  74
ATOM     74  C   UNL A   1      36.779  22.216  24.055  1.00  0.00     0.042 C 
BRANCH  74  75
ATOM     75  C   UNL A   1      35.250  22.361  24.086  1.00  0.00     0.118 C 
BRANCH  75  76
ATOM     76  N   UNL A   1      34.711  22.033  25.403  1.00  0.00    -0.351 N 
ATOM     77  C   UNL A   1      33.901  21.017  25.817  1.00  0.00     0.278 C 
ATOM     78  H   UNL A   1      34.979  22.655  26.117  1.00  0.00     0.163 HD
ATOM     79  O   UNL A   1      33.561  21.025  27.005  1.00  0.00    -0.268 OA
BRANCH  77  80
ATOM     80  C   UNL A   1      33.514  19.861  24.872  1.00  0.00     0.275 C 
ATOM     81  C   UNL A   1      32.836  18.710  25.657  1.00  0.00     0.109 C 
ATOM     82  N   UNL A   1      32.626  20.314  23.765  1.00  0.00    -0.331 N 
ATOM     83  C   UNL A   1      32.575  17.506  24.763  1.00  0.00     0.164 C 
ATOM     84  C   UNL A   1      32.121  19.214  22.910  1.00  0.00     0.316 C 
ATOM     85  H   UNL A   1      33.151  20.961  23.177  1.00  0.00     0.347 HD
ATOM     86  H   UNL A   1      31.812  20.749  24.197  1.00  0.00     0.347 HD
ATOM     87  N   UNL A   1      33.619  16.466  24.876  1.00  0.00    -0.264 NA
ATOM     88  C   UNL A   1      32.753  17.933  23.349  1.00  0.00     0.098 C 
ATOM     89  C   UNL A   1      34.105  16.366  23.675  1.00  0.00     0.216 C 
ATOM     90  N   UNL A   1      33.624  17.222  22.716  1.00  0.00    -0.238 NA
ENDBRANCH  77  80
ENDBRANCH  75  76
ENDBRANCH  74  75
ENDBRANCH  73  74
ENDBRANCH   3  73
TORSDOF 13
ENDMDL
