MODEL 1
REMARK VINA RESULT:     -11.1      0.000      0.000
REMARK SMILES Cc1cc(Br)cnc1Sc1nc(CC(=O)NCCCNC(=O)c2ccc(-c3c4nc(c(-c5c(F)cc(S(=O)(=O)[O-])cc5F)c5ccc([nH]5)c(-c5c(F)cc(S(=O)(=O)[O-])cc5F)c5nc(c(-c6c(F)cc(S(=O)(=O)[O-])cc6F)c6ccc3[nH]6)C=C5)C=C4)cc2)cs1
REMARK SMILES IDX 18 1 17 2 16 3 14 4 15 5 13 7 12 8 10 9 11 10 90 11 89 12
REMARK SMILES IDX 9 13 8 14 1 15 2 16 3 17 4 18 7 19 5 20 6 21 19 22 20 23
REMARK SMILES IDX 21 24 22 26 23 27 24 28 88 29 25 30 87 31 26 32 27 33 28 34
REMARK SMILES IDX 81 35 29 36 86 37 80 38 82 39 30 40 85 41 79 42 78 43 31 45
REMARK SMILES IDX 65 46 44 47 64 48 45 49 48 50 63 51 83 52 46 53 47 54 62 56
REMARK SMILES IDX 84 57 49 58 32 59 33 60 42 61 34 62 35 63 41 64 43 65 36 66
REMARK SMILES IDX 37 67 38 68 39 69 40 70 66 71 67 72 76 73 68 74 69 75 75 76
REMARK SMILES IDX 77 77 70 78 71 79 72 80 73 81 74 82 50 83 51 84 60 85 52 86
REMARK SMILES IDX 53 87 59 88 61 89 54 90 55 91 56 92 57 93 58 94
REMARK H PARENT 16 6 20 25 82 44 48 55
REMARK Flexibility Score: inf
ROOT
ATOM      1  C   UNL A   1      40.025  21.799  26.949  1.00  0.00     0.042 C 
ENDROOT
BRANCH   1   2
ATOM      2  C   UNL A   1      40.715  20.588  26.326  1.00  0.00     0.117 C 
BRANCH   2   3
ATOM      3  N   UNL A   1      41.428  19.790  27.310  1.00  0.00    -0.356 N 
ATOM      4  C   UNL A   1      42.335  18.792  27.097  1.00  0.00     0.226 C 
ATOM      5  O   UNL A   1      42.779  18.176  28.068  1.00  0.00    -0.275 OA
ATOM      6  H   UNL A   1      41.231  19.995  28.252  1.00  0.00     0.163 HD
BRANCH   4   7
ATOM      7  C   UNL A   1      42.802  18.483  25.691  1.00  0.00     0.157 C 
BRANCH   7   8
ATOM      8  C   UNL A   1      43.965  19.323  25.283  1.00  0.00     0.062 A 
ATOM      9  C   UNL A   1      44.884  21.268  24.738  1.00  0.00     0.156 A 
ATOM     10  N   UNL A   1      43.745  20.669  25.008  1.00  0.00    -0.234 NA
ATOM     11  S   UNL A   1      46.260  20.240  24.694  1.00  0.00    -0.116 S 
ATOM     12  C   UNL A   1      45.280  18.917  25.160  1.00  0.00     0.092 A 
BRANCH   9  13
ATOM     13  S   UNL A   1      45.007  22.952  24.358  1.00  0.00    -0.039 SA
BRANCH  13  14
ATOM     14  C   UNL A   1      45.227  23.832  25.887  1.00  0.00     0.106 A 
ATOM     15  C   UNL A   1      46.163  26.121  25.120  1.00  0.00     0.047 C 
ATOM     16  C   UNL A   1      45.670  25.141  26.140  1.00  0.00    -0.017 A 
ATOM     17  C   UNL A   1      45.686  25.592  27.480  1.00  0.00     0.023 A 
ATOM     18  C   UNL A   1      45.230  24.784  28.508  1.00  0.00     0.036 A 
ATOM     19  N   UNL A   1      44.791  23.047  26.917  1.00  0.00    -0.248 NA
ATOM     20  Br  UNL A   1      45.202  25.402  30.285  1.00  0.00    -0.049 Br
ATOM     21  C   UNL A   1      44.789  23.525  28.181  1.00  0.00     0.128 A 
ENDBRANCH  13  14
ENDBRANCH   9  13
ENDBRANCH   7   8
ENDBRANCH   4   7
ENDBRANCH   2   3
ENDBRANCH   1   2
BRANCH   1  22
ATOM     22  C   UNL A   1      40.978  22.888  27.428  1.00  0.00     0.118 C 
BRANCH  22  23
ATOM     23  N   UNL A   1      41.585  23.621  26.328  1.00  0.00    -0.352 N 
ATOM     24  C   UNL A   1      41.751  24.970  26.148  1.00  0.00     0.251 C 
ATOM     25  H   UNL A   1      41.932  23.060  25.598  1.00  0.00     0.163 HD
ATOM     26  O   UNL A   1      42.128  25.378  25.049  1.00  0.00    -0.269 OA
BRANCH  24  27
ATOM     27  C   UNL A   1      41.483  25.935  27.239  1.00  0.00     0.039 A 
ATOM     28  C   UNL A   1      42.342  27.029  27.387  1.00  0.00     0.014 A 
ATOM     29  C   UNL A   1      40.447  25.739  28.158  1.00  0.00     0.014 A 
ATOM     30  C   UNL A   1      42.148  27.935  28.434  1.00  0.00     0.010 A 
ATOM     31  C   UNL A   1      40.210  26.682  29.158  1.00  0.00     0.010 A 
ATOM     32  C   UNL A   1      41.073  27.776  29.322  1.00  0.00    -0.014 A 
BRANCH  32  33
ATOM     33  C   UNL A   1      40.872  28.711  30.459  1.00  0.00     0.031 A 
ATOM     34  C   UNL A   1      41.738  28.596  31.688  1.00  0.00     0.074 A 
ATOM     35  C   UNL A   1      39.893  29.636  30.407  1.00  0.00     0.049 A 
ATOM     36  N   UNL A   1      41.681  29.271  32.807  1.00  0.00    -0.248 NA
ATOM     37  C   UNL A   1      42.790  27.567  31.663  1.00  0.00     0.031 C 
ATOM     38  C   UNL A   1      38.965  29.826  29.290  1.00  0.00     0.029 A 
ATOM     39  N   UNL A   1      39.512  30.588  31.319  1.00  0.00    -0.354 N 
ATOM     40  C   UNL A   1      42.674  28.739  33.622  1.00  0.00     0.074 A 
ATOM     41  C   UNL A   1      43.284  27.652  32.889  1.00  0.00     0.031 C 
ATOM     42  C   UNL A   1      38.138  30.845  29.573  1.00  0.00     0.029 A 
ATOM     43  C   UNL A   1      38.454  31.361  30.902  1.00  0.00     0.049 A 
ATOM     44  H   UNL A   1      39.955  30.706  32.191  1.00  0.00     0.167 HD
ATOM     45  C   UNL A   1      43.061  29.136  34.859  1.00  0.00     0.037 A 
ATOM     46  C   UNL A   1      37.813  32.371  31.521  1.00  0.00     0.037 A 
ATOM     47  C   UNL A   1      42.476  30.242  35.571  1.00  0.00     0.049 A 
ATOM     48  C   UNL A   1      38.273  32.807  32.886  1.00  0.00     0.074 A 
ATOM     49  C   UNL A   1      42.819  30.747  36.813  1.00  0.00     0.029 A 
ATOM     50  N   UNL A   1      41.432  31.023  35.097  1.00  0.00    -0.354 N 
ATOM     51  N   UNL A   1      39.237  32.315  33.628  1.00  0.00    -0.248 NA
ATOM     52  C   UNL A   1      37.568  33.944  33.495  1.00  0.00     0.031 C 
ATOM     53  C   UNL A   1      41.965  31.817  37.102  1.00  0.00     0.029 A 
ATOM     54  C   UNL A   1      41.117  32.005  36.022  1.00  0.00     0.049 A 
ATOM     55  H   UNL A   1      40.981  30.898  34.231  1.00  0.00     0.167 HD
ATOM     56  C   UNL A   1      39.278  33.105  34.771  1.00  0.00     0.074 A 
ATOM     57  C   UNL A   1      38.245  34.108  34.623  1.00  0.00     0.031 C 
ATOM     58  C   UNL A   1      40.100  33.010  35.847  1.00  0.00     0.037 A 
BRANCH  45  59
ATOM     59  C   UNL A   1      44.179  28.374  35.516  1.00  0.00     0.058 A 
ATOM     60  C   UNL A   1      45.523  28.744  35.340  1.00  0.00     0.135 A 
ATOM     61  C   UNL A   1      43.907  27.276  36.348  1.00  0.00     0.135 A 
ATOM     62  F   UNL A   1      45.841  29.774  34.542  1.00  0.00    -0.206 F 
ATOM     63  C   UNL A   1      46.557  28.034  35.940  1.00  0.00     0.059 A 
ATOM     64  C   UNL A   1      44.925  26.569  36.981  1.00  0.00     0.059 A 
ATOM     65  F   UNL A   1      42.641  26.879  36.552  1.00  0.00    -0.206 F 
ATOM     66  C   UNL A   1      46.249  26.946  36.757  1.00  0.00     0.060 A 
BRANCH  66  67
ATOM     67  S   UNL A   1      47.602  26.033  37.528  1.00  0.00     0.124 S 
ATOM     68  O   UNL A   1      48.704  26.322  36.615  1.00  0.00    -0.237 OA
ATOM     69  O   UNL A   1      47.692  26.655  38.845  1.00  0.00    -0.237 OA
ATOM     70  O   UNL A   1      47.129  24.653  37.522  1.00  0.00    -0.744 OA
ENDBRANCH  66  67
ENDBRANCH  45  59
BRANCH  46  71
ATOM     71  C   UNL A   1      36.688  33.068  30.842  1.00  0.00     0.058 A 
ATOM     72  C   UNL A   1      36.928  33.964  29.790  1.00  0.00     0.135 A 
ATOM     73  C   UNL A   1      35.356  32.851  31.226  1.00  0.00     0.135 A 
ATOM     74  F   UNL A   1      38.186  34.207  29.390  1.00  0.00    -0.206 F 
ATOM     75  C   UNL A   1      35.890  34.641  29.157  1.00  0.00     0.059 A 
ATOM     76  C   UNL A   1      34.299  33.497  30.593  1.00  0.00     0.059 A 
ATOM     77  F   UNL A   1      35.073  31.989  32.215  1.00  0.00    -0.206 F 
ATOM     78  C   UNL A   1      34.578  34.402  29.568  1.00  0.00     0.060 A 
BRANCH  78  79
ATOM     79  S   UNL A   1      33.234  35.259  28.718  1.00  0.00     0.124 S 
ATOM     80  O   UNL A   1      32.662  34.184  27.915  1.00  0.00    -0.237 OA
ATOM     81  O   UNL A   1      32.415  35.730  29.831  1.00  0.00    -0.237 OA
ATOM     82  O   UNL A   1      33.926  36.306  27.971  1.00  0.00    -0.744 OA
ENDBRANCH  78  79
ENDBRANCH  46  71
BRANCH  58  83
ATOM     83  C   UNL A   1      39.954  34.050  36.921  1.00  0.00     0.058 A 
ATOM     84  C   UNL A   1      40.644  35.270  36.870  1.00  0.00     0.135 A 
ATOM     85  C   UNL A   1      39.076  33.835  37.997  1.00  0.00     0.135 A 
ATOM     86  F   UNL A   1      41.498  35.522  35.866  1.00  0.00    -0.206 F 
ATOM     87  C   UNL A   1      40.488  36.234  37.861  1.00  0.00     0.059 A 
ATOM     88  C   UNL A   1      38.886  34.795  38.985  1.00  0.00     0.059 A 
ATOM     89  F   UNL A   1      38.385  32.688  38.086  1.00  0.00    -0.206 F 
ATOM     90  C   UNL A   1      39.606  35.986  38.916  1.00  0.00     0.060 A 
BRANCH  90  91
ATOM     91  S   UNL A   1      39.390  37.254  40.183  1.00  0.00     0.124 S 
ATOM     92  O   UNL A   1      40.753  37.753  40.334  1.00  0.00    -0.237 OA
ATOM     93  O   UNL A   1      38.446  38.172  39.552  1.00  0.00    -0.237 OA
ATOM     94  O   UNL A   1      38.862  36.509  41.322  1.00  0.00    -0.744 OA
ENDBRANCH  90  91
ENDBRANCH  58  83
ENDBRANCH  32  33
ENDBRANCH  24  27
ENDBRANCH  22  23
ENDBRANCH   1  22
TORSDOF 16
ENDMDL
MODEL 2
REMARK VINA RESULT:     -10.9      6.081     11.896
REMARK SMILES Cc1cc(Br)cnc1Sc1nc(CC(=O)NCCCNC(=O)c2ccc(-c3c4nc(c(-c5c(F)cc(S(=O)(=O)[O-])cc5F)c5ccc([nH]5)c(-c5c(F)cc(S(=O)(=O)[O-])cc5F)c5nc(c(-c6c(F)cc(S(=O)(=O)[O-])cc6F)c6ccc3[nH]6)C=C5)C=C4)cc2)cs1
REMARK SMILES IDX 18 1 17 2 16 3 14 4 15 5 13 7 12 8 10 9 11 10 90 11 89 12
REMARK SMILES IDX 9 13 8 14 1 15 2 16 3 17 4 18 7 19 5 20 6 21 19 22 20 23
REMARK SMILES IDX 21 24 22 26 23 27 24 28 88 29 25 30 87 31 26 32 27 33 28 34
REMARK SMILES IDX 81 35 29 36 86 37 80 38 82 39 30 40 85 41 79 42 78 43 31 45
REMARK SMILES IDX 65 46 44 47 64 48 45 49 48 50 63 51 83 52 46 53 47 54 62 56
REMARK SMILES IDX 84 57 49 58 32 59 33 60 42 61 34 62 35 63 41 64 43 65 36 66
REMARK SMILES IDX 37 67 38 68 39 69 40 70 66 71 67 72 76 73 68 74 69 75 75 76
REMARK SMILES IDX 77 77 70 78 71 79 72 80 73 81 74 82 50 83 51 84 60 85 52 86
REMARK SMILES IDX 53 87 59 88 61 89 54 90 55 91 56 92 57 93 58 94
REMARK H PARENT 16 6 20 25 82 44 48 55
REMARK Flexibility Score: inf
ROOT
ATOM      1  C   UNL A   1      33.042  27.974  25.543  1.00  0.00     0.042 C 
ENDROOT
BRANCH   1   2
ATOM      2  C   UNL A   1      31.612  28.482  25.378  1.00  0.00     0.117 C 
BRANCH   2   3
ATOM      3  N   UNL A   1      31.215  28.576  23.983  1.00  0.00    -0.356 N 
ATOM      4  C   UNL A   1      30.535  27.662  23.231  1.00  0.00     0.226 C 
ATOM      5  O   UNL A   1      30.356  27.894  22.033  1.00  0.00    -0.275 OA
ATOM      6  H   UNL A   1      31.470  29.407  23.520  1.00  0.00     0.163 HD
BRANCH   4   7
ATOM      7  C   UNL A   1      29.986  26.409  23.878  1.00  0.00     0.157 C 
BRANCH   7   8
ATOM      8  C   UNL A   1      31.002  25.320  23.956  1.00  0.00     0.062 A 
ATOM      9  C   UNL A   1      31.967  23.609  24.988  1.00  0.00     0.156 A 
ATOM     10  N   UNL A   1      31.073  24.563  25.122  1.00  0.00    -0.234 NA
ATOM     11  S   UNL A   1      32.843  23.626  23.510  1.00  0.00    -0.116 S 
ATOM     12  C   UNL A   1      31.896  24.946  22.972  1.00  0.00     0.092 A 
BRANCH   9  13
ATOM     13  S   UNL A   1      32.324  22.459  26.232  1.00  0.00    -0.039 SA
BRANCH  13  14
ATOM     14  C   UNL A   1      33.060  21.040  25.454  1.00  0.00     0.106 A 
ATOM     15  C   UNL A   1      35.595  21.413  25.824  1.00  0.00     0.047 C 
ATOM     16  C   UNL A   1      34.402  20.642  25.347  1.00  0.00    -0.017 A 
ATOM     17  C   UNL A   1      34.684  19.411  24.711  1.00  0.00     0.023 A 
ATOM     18  C   UNL A   1      33.662  18.597  24.252  1.00  0.00     0.036 A 
ATOM     19  N   UNL A   1      32.067  20.227  24.986  1.00  0.00    -0.248 NA
ATOM     20  Br  UNL A   1      34.034  16.935  23.451  1.00  0.00    -0.049 Br
ATOM     21  C   UNL A   1      32.373  19.041  24.414  1.00  0.00     0.128 A 
ENDBRANCH  13  14
ENDBRANCH   9  13
ENDBRANCH   7   8
ENDBRANCH   4   7
ENDBRANCH   2   3
ENDBRANCH   1   2
BRANCH   1  22
ATOM     22  C   UNL A   1      33.643  28.226  26.922  1.00  0.00     0.118 C 
BRANCH  22  23
ATOM     23  N   UNL A   1      33.521  29.614  27.339  1.00  0.00    -0.352 N 
ATOM     24  C   UNL A   1      34.412  30.422  27.994  1.00  0.00     0.251 C 
ATOM     25  H   UNL A   1      32.662  30.039  27.114  1.00  0.00     0.163 HD
ATOM     26  O   UNL A   1      34.023  31.514  28.412  1.00  0.00    -0.269 OA
BRANCH  24  27
ATOM     27  C   UNL A   1      35.817  30.008  28.213  1.00  0.00     0.039 A 
ATOM     28  C   UNL A   1      36.193  29.567  29.486  1.00  0.00     0.014 A 
ATOM     29  C   UNL A   1      36.782  30.118  27.205  1.00  0.00     0.014 A 
ATOM     30  C   UNL A   1      37.521  29.214  29.741  1.00  0.00     0.010 A 
ATOM     31  C   UNL A   1      38.091  29.697  27.441  1.00  0.00     0.010 A 
ATOM     32  C   UNL A   1      38.479  29.264  28.718  1.00  0.00    -0.014 A 
BRANCH  32  33
ATOM     33  C   UNL A   1      39.902  28.924  28.981  1.00  0.00     0.031 A 
ATOM     34  C   UNL A   1      40.820  29.953  29.588  1.00  0.00     0.074 A 
ATOM     35  C   UNL A   1      40.378  27.710  28.644  1.00  0.00     0.049 A 
ATOM     36  N   UNL A   1      42.102  29.875  29.837  1.00  0.00    -0.248 NA
ATOM     37  C   UNL A   1      40.222  31.252  29.938  1.00  0.00     0.031 C 
ATOM     38  C   UNL A   1      39.600  26.638  28.017  1.00  0.00     0.029 A 
ATOM     39  N   UNL A   1      41.634  27.172  28.775  1.00  0.00    -0.354 N 
ATOM     40  C   UNL A   1      42.465  31.114  30.355  1.00  0.00     0.074 A 
ATOM     41  C   UNL A   1      41.280  31.942  30.335  1.00  0.00     0.031 C 
ATOM     42  C   UNL A   1      40.390  25.566  27.840  1.00  0.00     0.029 A 
ATOM     43  C   UNL A   1      41.736  25.882  28.310  1.00  0.00     0.049 A 
ATOM     44  H   UNL A   1      42.392  27.665  29.167  1.00  0.00     0.167 HD
ATOM     45  C   UNL A   1      43.670  31.518  30.826  1.00  0.00     0.037 A 
ATOM     46  C   UNL A   1      42.794  25.050  28.267  1.00  0.00     0.037 A 
ATOM     47  C   UNL A   1      44.839  30.679  30.877  1.00  0.00     0.049 A 
ATOM     48  C   UNL A   1      44.117  25.514  28.815  1.00  0.00     0.074 A 
ATOM     49  C   UNL A   1      46.097  30.982  31.368  1.00  0.00     0.029 A 
ATOM     50  N   UNL A   1      44.889  29.366  30.430  1.00  0.00    -0.354 N 
ATOM     51  N   UNL A   1      44.433  26.678  29.333  1.00  0.00    -0.248 NA
ATOM     52  C   UNL A   1      45.225  24.549  28.786  1.00  0.00     0.031 C 
ATOM     53  C   UNL A   1      46.915  29.860  31.194  1.00  0.00     0.029 A 
ATOM     54  C   UNL A   1      46.156  28.846  30.633  1.00  0.00     0.049 A 
ATOM     55  H   UNL A   1      44.135  28.877  30.028  1.00  0.00     0.167 HD
ATOM     56  C   UNL A   1      45.763  26.571  29.723  1.00  0.00     0.074 A 
ATOM     57  C   UNL A   1      46.191  25.230  29.386  1.00  0.00     0.031 C 
ATOM     58  C   UNL A   1      46.558  27.500  30.312  1.00  0.00     0.037 A 
BRANCH  45  59
ATOM     59  C   UNL A   1      43.779  32.929  31.335  1.00  0.00     0.058 A 
ATOM     60  C   UNL A   1      44.231  33.974  30.511  1.00  0.00     0.135 A 
ATOM     61  C   UNL A   1      43.408  33.248  32.650  1.00  0.00     0.135 A 
ATOM     62  F   UNL A   1      44.615  33.723  29.251  1.00  0.00    -0.206 F 
ATOM     63  C   UNL A   1      44.340  35.278  30.985  1.00  0.00     0.059 A 
ATOM     64  C   UNL A   1      43.483  34.551  33.136  1.00  0.00     0.059 A 
ATOM     65  F   UNL A   1      42.968  32.289  33.481  1.00  0.00    -0.206 F 
ATOM     66  C   UNL A   1      43.966  35.556  32.300  1.00  0.00     0.060 A 
BRANCH  66  67
ATOM     67  S   UNL A   1      44.116  37.252  32.900  1.00  0.00     0.124 S 
ATOM     68  O   UNL A   1      43.801  38.015  31.696  1.00  0.00    -0.237 OA
ATOM     69  O   UNL A   1      43.113  37.300  33.959  1.00  0.00    -0.237 OA
ATOM     70  O   UNL A   1      45.502  37.332  33.349  1.00  0.00    -0.744 OA
ENDBRANCH  66  67
ENDBRANCH  45  59
BRANCH  46  71
ATOM     71  C   UNL A   1      42.640  23.676  27.719  1.00  0.00     0.058 A 
ATOM     72  C   UNL A   1      42.712  23.441  26.338  1.00  0.00     0.135 A 
ATOM     73  C   UNL A   1      42.423  22.574  28.559  1.00  0.00     0.135 A 
ATOM     74  F   UNL A   1      42.914  24.464  25.493  1.00  0.00    -0.206 F 
ATOM     75  C   UNL A   1      42.550  22.166  25.806  1.00  0.00     0.059 A 
ATOM     76  C   UNL A   1      42.282  21.286  28.053  1.00  0.00     0.059 A 
ATOM     77  F   UNL A   1      42.365  22.744  29.890  1.00  0.00    -0.206 F 
ATOM     78  C   UNL A   1      42.333  21.094  26.673  1.00  0.00     0.060 A 
BRANCH  78  79
ATOM     79  S   UNL A   1      42.157  19.437  25.975  1.00  0.00     0.124 S 
ATOM     80  O   UNL A   1      42.959  19.544  24.761  1.00  0.00    -0.237 OA
ATOM     81  O   UNL A   1      42.708  18.596  27.032  1.00  0.00    -0.237 OA
ATOM     82  O   UNL A   1      40.717  19.312  25.770  1.00  0.00    -0.744 OA
ENDBRANCH  78  79
ENDBRANCH  46  71
BRANCH  58  83
ATOM     83  C   UNL A   1      47.953  27.081  30.681  1.00  0.00     0.058 A 
ATOM     84  C   UNL A   1      48.242  26.469  31.910  1.00  0.00     0.135 A 
ATOM     85  C   UNL A   1      49.007  27.259  29.769  1.00  0.00     0.135 A 
ATOM     86  F   UNL A   1      47.271  26.282  32.816  1.00  0.00    -0.206 F 
ATOM     87  C   UNL A   1      49.535  26.069  32.233  1.00  0.00     0.059 A 
ATOM     88  C   UNL A   1      50.302  26.844  30.063  1.00  0.00     0.059 A 
ATOM     89  F   UNL A   1      48.780  27.830  28.576  1.00  0.00    -0.206 F 
ATOM     90  C   UNL A   1      50.558  26.262  31.303  1.00  0.00     0.060 A 
BRANCH  90  91
ATOM     91  S   UNL A   1      52.227  25.714  31.722  1.00  0.00     0.124 S 
ATOM     92  O   UNL A   1      51.998  24.316  32.072  1.00  0.00    -0.237 OA
ATOM     93  O   UNL A   1      52.956  25.943  30.477  1.00  0.00    -0.237 OA
ATOM     94  O   UNL A   1      52.603  26.587  32.829  1.00  0.00    -0.744 OA
ENDBRANCH  90  91
ENDBRANCH  58  83
ENDBRANCH  32  33
ENDBRANCH  24  27
ENDBRANCH  22  23
ENDBRANCH   1  22
TORSDOF 16
ENDMDL
MODEL 3
REMARK VINA RESULT:     -10.8      5.912     11.859
REMARK SMILES Cc1cc(Br)cnc1Sc1nc(CC(=O)NCCCNC(=O)c2ccc(-c3c4nc(c(-c5c(F)cc(S(=O)(=O)[O-])cc5F)c5ccc([nH]5)c(-c5c(F)cc(S(=O)(=O)[O-])cc5F)c5nc(c(-c6c(F)cc(S(=O)(=O)[O-])cc6F)c6ccc3[nH]6)C=C5)C=C4)cc2)cs1
REMARK SMILES IDX 18 1 17 2 16 3 14 4 15 5 13 7 12 8 10 9 11 10 90 11 89 12
REMARK SMILES IDX 9 13 8 14 1 15 2 16 3 17 4 18 7 19 5 20 6 21 19 22 20 23
REMARK SMILES IDX 21 24 22 26 23 27 24 28 88 29 25 30 87 31 26 32 27 33 28 34
REMARK SMILES IDX 81 35 29 36 86 37 80 38 82 39 30 40 85 41 79 42 78 43 31 45
REMARK SMILES IDX 65 46 44 47 64 48 45 49 48 50 63 51 83 52 46 53 47 54 62 56
REMARK SMILES IDX 84 57 49 58 32 59 33 60 42 61 34 62 35 63 41 64 43 65 36 66
REMARK SMILES IDX 37 67 38 68 39 69 40 70 66 71 67 72 76 73 68 74 69 75 75 76
REMARK SMILES IDX 77 77 70 78 71 79 72 80 73 81 74 82 50 83 51 84 60 85 52 86
REMARK SMILES IDX 53 87 59 88 61 89 54 90 55 91 56 92 57 93 58 94
REMARK H PARENT 16 6 20 25 82 44 48 55
REMARK Flexibility Score: inf
ROOT
ATOM      1  C   UNL A   1      32.632  27.753  25.992  1.00  0.00     0.042 C 
ENDROOT
BRANCH   1   2
ATOM      2  C   UNL A   1      31.575  28.800  25.650  1.00  0.00     0.117 C 
BRANCH   2   3
ATOM      3  N   UNL A   1      31.287  28.852  24.227  1.00  0.00    -0.356 N 
ATOM      4  C   UNL A   1      30.487  28.024  23.492  1.00  0.00     0.226 C 
ATOM      5  O   UNL A   1      30.428  28.186  22.271  1.00  0.00    -0.275 OA
ATOM      6  H   UNL A   1      31.726  29.577  23.727  1.00  0.00     0.163 HD
BRANCH   4   7
ATOM      7  C   UNL A   1      29.668  26.956  24.183  1.00  0.00     0.157 C 
BRANCH   7   8
ATOM      8  C   UNL A   1      30.325  25.618  24.137  1.00  0.00     0.062 A 
ATOM      9  C   UNL A   1      31.093  23.776  25.107  1.00  0.00     0.156 A 
ATOM     10  N   UNL A   1      30.583  24.965  25.338  1.00  0.00    -0.234 NA
ATOM     11  S   UNL A   1      31.391  23.416  23.453  1.00  0.00    -0.116 S 
ATOM     12  C   UNL A   1      30.703  24.918  23.007  1.00  0.00     0.092 A 
BRANCH   9  13
ATOM     13  S   UNL A   1      31.532  22.668  26.362  1.00  0.00    -0.039 SA
BRANCH  13  14
ATOM     14  C   UNL A   1      33.125  21.995  25.950  1.00  0.00     0.106 A 
ATOM     15  C   UNL A   1      32.533  19.807  24.697  1.00  0.00     0.047 C 
ATOM     16  C   UNL A   1      33.478  20.839  25.235  1.00  0.00    -0.017 A 
ATOM     17  C   UNL A   1      34.851  20.587  25.010  1.00  0.00     0.023 A 
ATOM     18  C   UNL A   1      35.817  21.482  25.438  1.00  0.00     0.036 A 
ATOM     19  N   UNL A   1      34.094  22.860  26.371  1.00  0.00    -0.248 NA
ATOM     20  Br  UNL A   1      37.642  21.174  25.094  1.00  0.00    -0.049 Br
ATOM     21  C   UNL A   1      35.395  22.604  26.108  1.00  0.00     0.128 A 
ENDBRANCH  13  14
ENDBRANCH   9  13
ENDBRANCH   7   8
ENDBRANCH   4   7
ENDBRANCH   2   3
ENDBRANCH   1   2
BRANCH   1  22
ATOM     22  C   UNL A   1      33.584  28.163  27.110  1.00  0.00     0.118 C 
BRANCH  22  23
ATOM     23  N   UNL A   1      33.485  29.576  27.437  1.00  0.00    -0.352 N 
ATOM     24  C   UNL A   1      34.401  30.417  28.015  1.00  0.00     0.251 C 
ATOM     25  H   UNL A   1      32.626  29.996  27.205  1.00  0.00     0.163 HD
ATOM     26  O   UNL A   1      34.033  31.538  28.368  1.00  0.00    -0.269 OA
BRANCH  24  27
ATOM     27  C   UNL A   1      35.807  30.003  28.226  1.00  0.00     0.039 A 
ATOM     28  C   UNL A   1      36.190  29.567  29.498  1.00  0.00     0.014 A 
ATOM     29  C   UNL A   1      36.765  30.108  27.212  1.00  0.00     0.014 A 
ATOM     30  C   UNL A   1      37.520  29.214  29.747  1.00  0.00     0.010 A 
ATOM     31  C   UNL A   1      38.075  29.688  27.442  1.00  0.00     0.010 A 
ATOM     32  C   UNL A   1      38.472  29.259  28.718  1.00  0.00    -0.014 A 
BRANCH  32  33
ATOM     33  C   UNL A   1      39.896  28.919  28.973  1.00  0.00     0.031 A 
ATOM     34  C   UNL A   1      40.814  29.945  29.587  1.00  0.00     0.074 A 
ATOM     35  C   UNL A   1      40.373  27.709  28.623  1.00  0.00     0.049 A 
ATOM     36  N   UNL A   1      42.097  29.867  29.831  1.00  0.00    -0.248 NA
ATOM     37  C   UNL A   1      40.214  31.239  29.951  1.00  0.00     0.031 C 
ATOM     38  C   UNL A   1      39.595  26.642  27.988  1.00  0.00     0.029 A 
ATOM     39  N   UNL A   1      41.631  27.173  28.745  1.00  0.00    -0.354 N 
ATOM     40  C   UNL A   1      42.459  31.101  30.359  1.00  0.00     0.074 A 
ATOM     41  C   UNL A   1      41.272  31.927  30.352  1.00  0.00     0.031 C 
ATOM     42  C   UNL A   1      40.387  25.574  27.798  1.00  0.00     0.029 A 
ATOM     43  C   UNL A   1      41.733  25.888  28.267  1.00  0.00     0.049 A 
ATOM     44  H   UNL A   1      42.389  27.664  29.139  1.00  0.00     0.167 HD
ATOM     45  C   UNL A   1      43.665  31.503  30.830  1.00  0.00     0.037 A 
ATOM     46  C   UNL A   1      42.793  25.058  28.213  1.00  0.00     0.037 A 
ATOM     47  C   UNL A   1      44.835  30.666  30.870  1.00  0.00     0.049 A 
ATOM     48  C   UNL A   1      44.117  25.520  28.761  1.00  0.00     0.074 A 
ATOM     49  C   UNL A   1      46.094  30.966  31.360  1.00  0.00     0.029 A 
ATOM     50  N   UNL A   1      44.886  29.358  30.411  1.00  0.00    -0.354 N 
ATOM     51  N   UNL A   1      44.432  26.679  29.289  1.00  0.00    -0.248 NA
ATOM     52  C   UNL A   1      45.227  24.557  28.719  1.00  0.00     0.031 C 
ATOM     53  C   UNL A   1      46.914  29.848  31.173  1.00  0.00     0.029 A 
ATOM     54  C   UNL A   1      46.156  28.838  30.605  1.00  0.00     0.049 A 
ATOM     55  H   UNL A   1      44.132  28.871  30.006  1.00  0.00     0.167 HD
ATOM     56  C   UNL A   1      45.763  26.571  29.674  1.00  0.00     0.074 A 
ATOM     57  C   UNL A   1      46.193  25.234  29.323  1.00  0.00     0.031 C 
ATOM     58  C   UNL A   1      46.559  27.495  30.269  1.00  0.00     0.037 A 
BRANCH  45  59
ATOM     59  C   UNL A   1      43.773  32.909  31.353  1.00  0.00     0.058 A 
ATOM     60  C   UNL A   1      43.547  33.210  32.707  1.00  0.00     0.135 A 
ATOM     61  C   UNL A   1      44.129  33.966  30.500  1.00  0.00     0.135 A 
ATOM     62  F   UNL A   1      43.187  32.241  33.562  1.00  0.00    -0.206 F 
ATOM     63  C   UNL A   1      43.638  34.511  33.188  1.00  0.00     0.059 A 
ATOM     64  C   UNL A   1      44.254  35.272  30.966  1.00  0.00     0.059 A 
ATOM     65  F   UNL A   1      44.358  33.736  29.197  1.00  0.00    -0.206 F 
ATOM     66  C   UNL A   1      43.990  35.537  32.309  1.00  0.00     0.060 A 
BRANCH  66  67
ATOM     67  S   UNL A   1      44.104  37.221  32.949  1.00  0.00     0.124 S 
ATOM     68  O   UNL A   1      42.919  37.289  33.800  1.00  0.00    -0.237 OA
ATOM     69  O   UNL A   1      45.384  37.206  33.649  1.00  0.00    -0.237 OA
ATOM     70  O   UNL A   1      44.060  38.045  31.746  1.00  0.00    -0.744 OA
ENDBRANCH  66  67
ENDBRANCH  45  59
BRANCH  46  71
ATOM     71  C   UNL A   1      42.640  23.689  27.652  1.00  0.00     0.058 A 
ATOM     72  C   UNL A   1      42.413  22.589  28.492  1.00  0.00     0.135 A 
ATOM     73  C   UNL A   1      42.715  23.453  26.271  1.00  0.00     0.135 A 
ATOM     74  F   UNL A   1      42.339  22.764  29.821  1.00  0.00    -0.206 F 
ATOM     75  C   UNL A   1      42.289  21.299  27.986  1.00  0.00     0.059 A 
ATOM     76  C   UNL A   1      42.569  22.176  25.739  1.00  0.00     0.059 A 
ATOM     77  F   UNL A   1      42.912  24.476  25.423  1.00  0.00    -0.206 F 
ATOM     78  C   UNL A   1      42.371  21.102  26.607  1.00  0.00     0.060 A 
BRANCH  78  79
ATOM     79  S   UNL A   1      42.175  19.428  25.958  1.00  0.00     0.124 S 
ATOM     80  O   UNL A   1      42.656  18.623  27.075  1.00  0.00    -0.237 OA
ATOM     81  O   UNL A   1      40.740  19.364  25.696  1.00  0.00    -0.237 OA
ATOM     82  O   UNL A   1      43.023  19.429  24.769  1.00  0.00    -0.744 OA
ENDBRANCH  78  79
ENDBRANCH  46  71
BRANCH  58  83
ATOM     83  C   UNL A   1      47.956  27.076  30.630  1.00  0.00     0.058 A 
ATOM     84  C   UNL A   1      49.019  27.183  29.722  1.00  0.00     0.135 A 
ATOM     85  C   UNL A   1      48.238  26.600  31.922  1.00  0.00     0.135 A 
ATOM     86  F   UNL A   1      48.801  27.628  28.475  1.00  0.00    -0.206 F 
ATOM     87  C   UNL A   1      50.313  26.810  30.073  1.00  0.00     0.059 A 
ATOM     88  C   UNL A   1      49.528  26.245  32.301  1.00  0.00     0.059 A 
ATOM     89  F   UNL A   1      47.257  26.489  32.831  1.00  0.00    -0.206 F 
ATOM     90  C   UNL A   1      50.556  26.340  31.366  1.00  0.00     0.060 A 
BRANCH  90  91
ATOM     91  S   UNL A   1      52.243  25.884  31.820  1.00  0.00     0.124 S 
ATOM     92  O   UNL A   1      52.963  26.146  30.578  1.00  0.00    -0.237 OA
ATOM     93  O   UNL A   1      52.530  26.796  32.923  1.00  0.00    -0.237 OA
ATOM     94  O   UNL A   1      52.125  24.477  32.194  1.00  0.00    -0.744 OA
ENDBRANCH  90  91
ENDBRANCH  58  83
ENDBRANCH  32  33
ENDBRANCH  24  27
ENDBRANCH  22  23
ENDBRANCH   1  22
TORSDOF 16
ENDMDL
