MODEL 1
REMARK VINA RESULT:     -11.5      0.000      0.000
REMARK SMILES O=C(NCCCNC(=O)[C@@H]1CSc2ccccc21)c1ccc(-c2c3nc(c(-c4c(F)cc(S(=O)(=O)[O-])cc4F)c4ccc([nH]4)c(-c4c(F)cc(S(=O)(=O)[O-])cc4F)c4nc(c(-c5c(F)cc(S(=O)(=O)[O-])cc5F)c5ccc2[nH]5)C=C4)C=C3)cc1
REMARK SMILES IDX 1 1 2 2 3 3 19 5 20 6 84 7 21 8 83 9 22 10 23 11 24 12 77 13
REMARK SMILES IDX 25 14 82 15 76 16 78 17 26 18 81 19 75 20 74 21 27 23 61 24
REMARK SMILES IDX 40 25 60 26 41 27 44 28 59 29 79 30 42 31 43 32 58 34 80 35
REMARK SMILES IDX 45 36 28 37 29 38 38 39 30 40 31 41 37 42 39 43 32 44 33 45
REMARK SMILES IDX 34 46 35 47 36 48 62 49 63 50 72 51 64 52 65 53 71 54 73 55
REMARK SMILES IDX 66 56 67 57 68 58 69 59 70 60 46 61 47 62 56 63 48 64 49 65
REMARK SMILES IDX 55 66 57 67 50 68 51 69 52 70 53 71 54 72 4 73 5 74 6 75
REMARK SMILES IDX 7 76 8 77 9 79 10 80 11 81 18 82 12 83 13 84 17 85 14 86
REMARK SMILES IDX 16 87 15 88
REMARK H PARENT 3 4 78 22 44 33 7 78
REMARK Flexibility Score: inf
ROOT
ATOM      1  O   UNL A   1      34.024  31.808  28.582  1.00  0.00    -0.269 OA
ATOM      2  C   UNL A   1      34.308  30.670  28.197  1.00  0.00     0.251 C 
ATOM      3  N   UNL A   1      33.330  29.903  27.625  1.00  0.00    -0.352 N 
ATOM      4  H   UNL A   1      32.512  30.392  27.381  1.00  0.00     0.163 HD
ENDROOT
BRANCH   2   5
ATOM      5  C   UNL A   1      35.687  30.161  28.357  1.00  0.00     0.039 A 
ATOM      6  C   UNL A   1      36.105  29.707  29.613  1.00  0.00     0.014 A 
ATOM      7  C   UNL A   1      36.597  30.206  27.297  1.00  0.00     0.014 A 
ATOM      8  C   UNL A   1      37.421  29.278  29.798  1.00  0.00     0.010 A 
ATOM      9  C   UNL A   1      37.879  29.697  27.458  1.00  0.00     0.010 A 
ATOM     10  C   UNL A   1      38.315  29.265  28.719  1.00  0.00    -0.014 A 
BRANCH  10  11
ATOM     11  C   UNL A   1      39.750  28.929  28.891  1.00  0.00     0.031 A 
ATOM     12  C   UNL A   1      40.681  29.982  29.431  1.00  0.00     0.074 A 
ATOM     13  C   UNL A   1      40.226  27.728  28.521  1.00  0.00     0.049 A 
ATOM     14  N   UNL A   1      41.987  29.986  29.491  1.00  0.00    -0.248 NA
ATOM     15  C   UNL A   1      40.051  31.212  29.939  1.00  0.00     0.031 C 
ATOM     16  C   UNL A   1      39.427  26.622  27.997  1.00  0.00     0.029 A 
ATOM     17  N   UNL A   1      41.509  27.243  28.524  1.00  0.00    -0.354 N 
ATOM     18  C   UNL A   1      42.335  31.226  30.012  1.00  0.00     0.074 A 
ATOM     19  C   UNL A   1      41.106  31.967  30.202  1.00  0.00     0.031 C 
ATOM     20  C   UNL A   1      40.233  25.575  27.757  1.00  0.00     0.029 A 
ATOM     21  C   UNL A   1      41.610  25.954  28.063  1.00  0.00     0.049 A 
ATOM     22  H   UNL A   1      42.283  27.769  28.830  1.00  0.00     0.167 HD
ATOM     23  C   UNL A   1      43.564  31.701  30.327  1.00  0.00     0.037 A 
ATOM     24  C   UNL A   1      42.695  25.173  27.897  1.00  0.00     0.037 A 
ATOM     25  C   UNL A   1      44.779  30.948  30.168  1.00  0.00     0.049 A 
ATOM     26  C   UNL A   1      44.054  25.724  28.228  1.00  0.00     0.074 A 
ATOM     27  C   UNL A   1      46.076  31.325  30.465  1.00  0.00     0.029 A 
ATOM     28  N   UNL A   1      44.842  29.650  29.680  1.00  0.00    -0.354 N 
ATOM     29  N   UNL A   1      44.375  26.912  28.683  1.00  0.00    -0.248 NA
ATOM     30  C   UNL A   1      45.199  24.830  28.012  1.00  0.00     0.031 C 
ATOM     31  C   UNL A   1      46.927  30.261  30.135  1.00  0.00     0.029 A 
ATOM     32  C   UNL A   1      46.155  29.211  29.662  1.00  0.00     0.049 A 
ATOM     33  H   UNL A   1      44.066  29.120  29.387  1.00  0.00     0.167 HD
ATOM     34  C   UNL A   1      45.759  26.909  28.815  1.00  0.00     0.074 A 
ATOM     35  C   UNL A   1      46.211  25.592  28.407  1.00  0.00     0.031 C 
ATOM     36  C   UNL A   1      46.582  27.903  29.231  1.00  0.00     0.037 A 
BRANCH  23  37
ATOM     37  C   UNL A   1      43.631  33.102  30.867  1.00  0.00     0.058 A 
ATOM     38  C   UNL A   1      43.798  34.210  30.019  1.00  0.00     0.135 A 
ATOM     39  C   UNL A   1      43.580  33.339  32.251  1.00  0.00     0.135 A 
ATOM     40  F   UNL A   1      43.875  34.036  28.690  1.00  0.00    -0.206 F 
ATOM     41  C   UNL A   1      43.968  35.494  30.524  1.00  0.00     0.059 A 
ATOM     42  C   UNL A   1      43.720  34.621  32.776  1.00  0.00     0.059 A 
ATOM     43  F   UNL A   1      43.424  32.317  33.107  1.00  0.00    -0.206 F 
ATOM     44  C   UNL A   1      43.940  35.688  31.905  1.00  0.00     0.060 A 
BRANCH  44  45
ATOM     45  S   UNL A   1      44.215  37.351  32.551  1.00  0.00     0.124 S 
ATOM     46  O   UNL A   1      44.033  38.160  31.349  1.00  0.00    -0.237 OA
ATOM     47  O   UNL A   1      43.169  37.474  33.561  1.00  0.00    -0.237 OA
ATOM     48  O   UNL A   1      45.577  37.292  33.069  1.00  0.00    -0.744 OA
ENDBRANCH  44  45
ENDBRANCH  23  37
BRANCH  24  49
ATOM     49  C   UNL A   1      42.523  23.775  27.426  1.00  0.00     0.058 A 
ATOM     50  C   UNL A   1      42.621  23.471  26.061  1.00  0.00     0.135 A 
ATOM     51  C   UNL A   1      42.328  22.715  28.324  1.00  0.00     0.135 A 
ATOM     52  F   UNL A   1      42.796  24.455  25.167  1.00  0.00    -0.206 F 
ATOM     53  C   UNL A   1      42.547  22.162  25.601  1.00  0.00     0.059 A 
ATOM     54  C   UNL A   1      42.268  21.395  27.890  1.00  0.00     0.059 A 
ATOM     55  F   UNL A   1      42.239  22.957  29.642  1.00  0.00    -0.206 F 
ATOM     56  C   UNL A   1      42.383  21.128  26.525  1.00  0.00     0.060 A 
BRANCH  56  57
ATOM     57  S   UNL A   1      42.399  19.425  25.923  1.00  0.00     0.124 S 
ATOM     58  O   UNL A   1      42.907  18.706  27.085  1.00  0.00    -0.237 OA
ATOM     59  O   UNL A   1      40.992  19.205  25.600  1.00  0.00    -0.237 OA
ATOM     60  O   UNL A   1      43.297  19.484  24.774  1.00  0.00    -0.744 OA
ENDBRANCH  56  57
ENDBRANCH  24  49
BRANCH  36  61
ATOM     61  C   UNL A   1      48.053  27.598  29.264  1.00  0.00     0.058 A 
ATOM     62  C   UNL A   1      48.642  26.962  30.367  1.00  0.00     0.135 A 
ATOM     63  C   UNL A   1      48.876  27.925  28.175  1.00  0.00     0.135 A 
ATOM     64  F   UNL A   1      47.898  26.635  31.436  1.00  0.00    -0.206 F 
ATOM     65  C   UNL A   1      50.005  26.690  30.405  1.00  0.00     0.059 A 
ATOM     66  C   UNL A   1      50.238  27.641  28.181  1.00  0.00     0.059 A 
ATOM     67  F   UNL A   1      48.357  28.522  27.091  1.00  0.00    -0.206 F 
ATOM     68  C   UNL A   1      50.796  27.039  29.308  1.00  0.00     0.060 A 
BRANCH  68  69
ATOM     69  S   UNL A   1      52.564  26.678  29.366  1.00  0.00     0.124 S 
ATOM     70  O   UNL A   1      53.136  28.021  29.384  1.00  0.00    -0.237 OA
ATOM     71  O   UNL A   1      52.691  25.919  30.606  1.00  0.00    -0.237 OA
ATOM     72  O   UNL A   1      52.794  25.914  28.143  1.00  0.00    -0.744 OA
ENDBRANCH  68  69
ENDBRANCH  36  61
ENDBRANCH  10  11
ENDBRANCH   2   5
BRANCH   3  73
ATOM     73  C   UNL A   1      33.307  28.477  27.320  1.00  0.00     0.118 C 
BRANCH  73  74
ATOM     74  C   UNL A   1      31.891  27.916  27.276  1.00  0.00     0.042 C 
BRANCH  74  75
ATOM     75  C   UNL A   1      31.722  26.741  26.328  1.00  0.00     0.117 C 
BRANCH  75  76
ATOM     76  N   UNL A   1      31.424  25.499  27.022  1.00  0.00    -0.355 N 
ATOM     77  C   UNL A   1      31.594  24.204  26.621  1.00  0.00     0.228 C 
ATOM     78  H   UNL A   1      31.039  25.609  27.922  1.00  0.00     0.163 HD
ATOM     79  O   UNL A   1      31.294  23.317  27.421  1.00  0.00    -0.274 OA
BRANCH  77  80
ATOM     80  C   UNL A   1      32.153  23.914  25.232  1.00  0.00     0.120 C 
ATOM     81  C   UNL A   1      31.357  22.776  24.556  1.00  0.00     0.093 C 
ATOM     82  C   UNL A   1      33.611  23.509  25.275  1.00  0.00    -0.021 A 
ATOM     83  S   UNL A   1      32.436  21.329  24.337  1.00  0.00    -0.125 SA
ATOM     84  C   UNL A   1      33.876  22.211  24.840  1.00  0.00     0.011 A 
ATOM     85  C   UNL A   1      34.665  24.311  25.714  1.00  0.00     0.006 A 
ATOM     86  C   UNL A   1      35.170  21.706  24.830  1.00  0.00     0.015 A 
ATOM     87  C   UNL A   1      35.968  23.811  25.712  1.00  0.00     0.000 A 
ATOM     88  C   UNL A   1      36.221  22.512  25.268  1.00  0.00     0.001 A 
ENDBRANCH  77  80
ENDBRANCH  75  76
ENDBRANCH  74  75
ENDBRANCH  73  74
ENDBRANCH   3  73
TORSDOF 13
ENDMDL
MODEL 2
REMARK VINA RESULT:     -11.4      2.915      5.503
REMARK SMILES O=C(NCCCNC(=O)[C@@H]1CSc2ccccc21)c1ccc(-c2c3nc(c(-c4c(F)cc(S(=O)(=O)[O-])cc4F)c4ccc([nH]4)c(-c4c(F)cc(S(=O)(=O)[O-])cc4F)c4nc(c(-c5c(F)cc(S(=O)(=O)[O-])cc5F)c5ccc2[nH]5)C=C4)C=C3)cc1
REMARK SMILES IDX 1 1 2 2 3 3 19 5 20 6 84 7 21 8 83 9 22 10 23 11 24 12 77 13
REMARK SMILES IDX 25 14 82 15 76 16 78 17 26 18 81 19 75 20 74 21 27 23 61 24
REMARK SMILES IDX 40 25 60 26 41 27 44 28 59 29 79 30 42 31 43 32 58 34 80 35
REMARK SMILES IDX 45 36 28 37 29 38 38 39 30 40 31 41 37 42 39 43 32 44 33 45
REMARK SMILES IDX 34 46 35 47 36 48 62 49 63 50 72 51 64 52 65 53 71 54 73 55
REMARK SMILES IDX 66 56 67 57 68 58 69 59 70 60 46 61 47 62 56 63 48 64 49 65
REMARK SMILES IDX 55 66 57 67 50 68 51 69 52 70 53 71 54 72 4 73 5 74 6 75
REMARK SMILES IDX 7 76 8 77 9 79 10 80 11 81 18 82 12 83 13 84 17 85 14 86
REMARK SMILES IDX 16 87 15 88
REMARK H PARENT 3 4 78 22 44 33 7 78
REMARK Flexibility Score: inf
ROOT
ATOM      1  O   UNL A   1      33.672  29.869  27.426  1.00  0.00    -0.269 OA
ATOM      2  C   UNL A   1      34.460  30.518  28.120  1.00  0.00     0.251 C 
ATOM      3  N   UNL A   1      34.029  31.681  28.698  1.00  0.00    -0.352 N 
ATOM      4  H   UNL A   1      33.055  31.814  28.680  1.00  0.00     0.163 HD
ENDROOT
BRANCH   2   5
ATOM      5  C   UNL A   1      35.843  30.031  28.315  1.00  0.00     0.039 A 
ATOM      6  C   UNL A   1      36.197  29.460  29.543  1.00  0.00     0.014 A 
ATOM      7  C   UNL A   1      36.814  30.209  27.326  1.00  0.00     0.014 A 
ATOM      8  C   UNL A   1      37.513  29.048  29.767  1.00  0.00     0.010 A 
ATOM      9  C   UNL A   1      38.100  29.720  27.516  1.00  0.00     0.010 A 
ATOM     10  C   UNL A   1      38.472  29.170  28.752  1.00  0.00    -0.014 A 
BRANCH  10  11
ATOM     11  C   UNL A   1      39.903  28.855  28.980  1.00  0.00     0.031 A 
ATOM     12  C   UNL A   1      40.792  29.915  29.576  1.00  0.00     0.074 A 
ATOM     13  C   UNL A   1      40.415  27.669  28.612  1.00  0.00     0.049 A 
ATOM     14  N   UNL A   1      42.094  29.939  29.692  1.00  0.00    -0.248 NA
ATOM     15  C   UNL A   1      40.120  31.125  30.075  1.00  0.00     0.031 C 
ATOM     16  C   UNL A   1      39.658  26.558  28.038  1.00  0.00     0.029 A 
ATOM     17  N   UNL A   1      41.705  27.205  28.664  1.00  0.00    -0.354 N 
ATOM     18  C   UNL A   1      42.398  31.177  30.247  1.00  0.00     0.074 A 
ATOM     19  C   UNL A   1      41.150  31.893  30.395  1.00  0.00     0.031 C 
ATOM     20  C   UNL A   1      40.492  25.528  27.816  1.00  0.00     0.029 A 
ATOM     21  C   UNL A   1      41.848  25.925  28.187  1.00  0.00     0.049 A 
ATOM     22  H   UNL A   1      42.456  27.739  29.010  1.00  0.00     0.167 HD
ATOM     23  C   UNL A   1      43.603  31.666  30.622  1.00  0.00     0.037 A 
ATOM     24  C   UNL A   1      42.952  25.165  28.056  1.00  0.00     0.037 A 
ATOM     25  C   UNL A   1      44.837  30.936  30.504  1.00  0.00     0.049 A 
ATOM     26  C   UNL A   1      44.286  25.733  28.454  1.00  0.00     0.074 A 
ATOM     27  C   UNL A   1      46.114  31.329  30.862  1.00  0.00     0.029 A 
ATOM     28  N   UNL A   1      44.944  29.647  29.999  1.00  0.00    -0.354 N 
ATOM     29  N   UNL A   1      44.567  26.919  28.940  1.00  0.00    -0.248 NA
ATOM     30  C   UNL A   1      45.454  24.862  28.274  1.00  0.00     0.031 C 
ATOM     31  C   UNL A   1      46.996  30.286  30.553  1.00  0.00     0.029 A 
ATOM     32  C   UNL A   1      46.263  29.231  30.031  1.00  0.00     0.049 A 
ATOM     33  H   UNL A   1      44.190  29.109  29.665  1.00  0.00     0.167 HD
ATOM     34  C   UNL A   1      45.943  26.936  29.132  1.00  0.00     0.074 A 
ATOM     35  C   UNL A   1      46.435  25.634  28.724  1.00  0.00     0.031 C 
ATOM     36  C   UNL A   1      46.731  27.937  29.599  1.00  0.00     0.037 A 
BRANCH  23  37
ATOM     37  C   UNL A   1      43.623  33.060  31.186  1.00  0.00     0.058 A 
ATOM     38  C   UNL A   1      43.728  34.187  30.356  1.00  0.00     0.135 A 
ATOM     39  C   UNL A   1      43.590  33.270  32.574  1.00  0.00     0.135 A 
ATOM     40  F   UNL A   1      43.786  34.041  29.022  1.00  0.00    -0.206 F 
ATOM     41  C   UNL A   1      43.855  35.469  30.880  1.00  0.00     0.059 A 
ATOM     42  C   UNL A   1      43.686  34.548  33.121  1.00  0.00     0.059 A 
ATOM     43  F   UNL A   1      43.493  32.228  33.414  1.00  0.00    -0.206 F 
ATOM     44  C   UNL A   1      43.846  35.637  32.265  1.00  0.00     0.060 A 
BRANCH  44  45
ATOM     45  S   UNL A   1      44.064  37.299  32.935  1.00  0.00     0.124 S 
ATOM     46  O   UNL A   1      43.987  38.111  31.725  1.00  0.00    -0.237 OA
ATOM     47  O   UNL A   1      42.935  37.420  33.852  1.00  0.00    -0.237 OA
ATOM     48  O   UNL A   1      45.377  37.238  33.569  1.00  0.00    -0.744 OA
ENDBRANCH  44  45
ENDBRANCH  23  37
BRANCH  24  49
ATOM     49  C   UNL A   1      42.825  23.772  27.557  1.00  0.00     0.058 A 
ATOM     50  C   UNL A   1      42.670  22.709  28.457  1.00  0.00     0.135 A 
ATOM     51  C   UNL A   1      42.785  23.484  26.184  1.00  0.00     0.135 A 
ATOM     52  F   UNL A   1      42.712  22.938  29.778  1.00  0.00    -0.206 F 
ATOM     53  C   UNL A   1      42.465  21.407  28.016  1.00  0.00     0.059 A 
ATOM     54  C   UNL A   1      42.564  22.192  25.719  1.00  0.00     0.059 A 
ATOM     55  F   UNL A   1      42.919  24.471  25.285  1.00  0.00    -0.206 F 
ATOM     56  C   UNL A   1      42.401  21.160  26.643  1.00  0.00     0.060 A 
BRANCH  56  57
ATOM     57  S   UNL A   1      42.026  19.483  26.087  1.00  0.00     0.124 S 
ATOM     58  O   UNL A   1      42.436  18.690  27.240  1.00  0.00    -0.237 OA
ATOM     59  O   UNL A   1      40.589  19.559  25.842  1.00  0.00    -0.237 OA
ATOM     60  O   UNL A   1      42.851  19.333  24.892  1.00  0.00    -0.744 OA
ENDBRANCH  56  57
ENDBRANCH  24  49
BRANCH  36  61
ATOM     61  C   UNL A   1      48.204  27.656  29.690  1.00  0.00     0.058 A 
ATOM     62  C   UNL A   1      49.066  27.920  28.615  1.00  0.00     0.135 A 
ATOM     63  C   UNL A   1      48.761  27.136  30.869  1.00  0.00     0.135 A 
ATOM     64  F   UNL A   1      48.580  28.411  27.464  1.00  0.00    -0.206 F 
ATOM     65  C   UNL A   1      50.427  27.649  28.693  1.00  0.00     0.059 A 
ATOM     66  C   UNL A   1      50.124  26.879  30.978  1.00  0.00     0.059 A 
ATOM     67  F   UNL A   1      47.980  26.878  31.929  1.00  0.00    -0.206 F 
ATOM     68  C   UNL A   1      50.946  27.122  29.878  1.00  0.00     0.060 A 
BRANCH  68  69
ATOM     69  S   UNL A   1      52.716  26.776  29.970  1.00  0.00     0.124 S 
ATOM     70  O   UNL A   1      52.992  26.306  28.617  1.00  0.00    -0.237 OA
ATOM     71  O   UNL A   1      53.274  28.080  30.314  1.00  0.00    -0.237 OA
ATOM     72  O   UNL A   1      52.809  25.765  31.019  1.00  0.00    -0.744 OA
ENDBRANCH  68  69
ENDBRANCH  36  61
ENDBRANCH  10  11
ENDBRANCH   2   5
BRANCH   3  73
ATOM     73  C   UNL A   1      34.783  32.753  29.338  1.00  0.00     0.118 C 
BRANCH  73  74
ATOM     74  C   UNL A   1      34.752  32.657  30.857  1.00  0.00     0.042 C 
BRANCH  74  75
ATOM     75  C   UNL A   1      35.277  33.895  31.565  1.00  0.00     0.117 C 
BRANCH  75  76
ATOM     76  N   UNL A   1      36.585  34.306  31.083  1.00  0.00    -0.355 N 
ATOM     77  C   UNL A   1      37.795  34.312  31.717  1.00  0.00     0.228 C 
ATOM     78  H   UNL A   1      36.600  34.631  30.153  1.00  0.00     0.163 HD
ATOM     79  O   UNL A   1      38.775  34.678  31.067  1.00  0.00    -0.274 OA
BRANCH  77  80
ATOM     80  C   UNL A   1      37.885  33.860  33.171  1.00  0.00     0.120 C 
ATOM     81  C   UNL A   1      38.853  34.767  33.960  1.00  0.00     0.093 C 
ATOM     82  C   UNL A   1      38.370  32.431  33.296  1.00  0.00    -0.021 A 
ATOM     83  S   UNL A   1      40.301  33.801  34.483  1.00  0.00    -0.125 SA
ATOM     84  C   UNL A   1      39.592  32.278  33.949  1.00  0.00     0.011 A 
ATOM     85  C   UNL A   1      37.708  31.302  32.811  1.00  0.00     0.006 A 
ATOM     86  C   UNL A   1      40.158  31.023  34.131  1.00  0.00     0.015 A 
ATOM     87  C   UNL A   1      38.271  30.037  32.985  1.00  0.00     0.000 A 
ATOM     88  C   UNL A   1      39.492  29.897  33.646  1.00  0.00     0.001 A 
ENDBRANCH  77  80
ENDBRANCH  75  76
ENDBRANCH  74  75
ENDBRANCH  73  74
ENDBRANCH   3  73
TORSDOF 13
ENDMDL
MODEL 3
REMARK VINA RESULT:     -11.2      5.764     11.778
REMARK SMILES O=C(NCCCNC(=O)[C@@H]1CSc2ccccc21)c1ccc(-c2c3nc(c(-c4c(F)cc(S(=O)(=O)[O-])cc4F)c4ccc([nH]4)c(-c4c(F)cc(S(=O)(=O)[O-])cc4F)c4nc(c(-c5c(F)cc(S(=O)(=O)[O-])cc5F)c5ccc2[nH]5)C=C4)C=C3)cc1
REMARK SMILES IDX 1 1 2 2 3 3 19 5 20 6 84 7 21 8 83 9 22 10 23 11 24 12 77 13
REMARK SMILES IDX 25 14 82 15 76 16 78 17 26 18 81 19 75 20 74 21 27 23 61 24
REMARK SMILES IDX 40 25 60 26 41 27 44 28 59 29 79 30 42 31 43 32 58 34 80 35
REMARK SMILES IDX 45 36 28 37 29 38 38 39 30 40 31 41 37 42 39 43 32 44 33 45
REMARK SMILES IDX 34 46 35 47 36 48 62 49 63 50 72 51 64 52 65 53 71 54 73 55
REMARK SMILES IDX 66 56 67 57 68 58 69 59 70 60 46 61 47 62 56 63 48 64 49 65
REMARK SMILES IDX 55 66 57 67 50 68 51 69 52 70 53 71 54 72 4 73 5 74 6 75
REMARK SMILES IDX 7 76 8 77 9 79 10 80 11 81 18 82 12 83 13 84 17 85 14 86
REMARK SMILES IDX 16 87 15 88
REMARK H PARENT 3 4 78 22 44 33 7 78
REMARK Flexibility Score: inf
ROOT
ATOM      1  O   UNL A   1      39.524  24.228  26.230  1.00  0.00    -0.269 OA
ATOM      2  C   UNL A   1      40.446  25.044  26.321  1.00  0.00     0.251 C 
ATOM      3  N   UNL A   1      41.420  25.049  25.361  1.00  0.00    -0.352 N 
ATOM      4  H   UNL A   1      41.207  24.530  24.553  1.00  0.00     0.163 HD
ENDROOT
BRANCH   2   5
ATOM      5  C   UNL A   1      40.480  25.993  27.454  1.00  0.00     0.039 A 
ATOM      6  C   UNL A   1      39.688  25.739  28.580  1.00  0.00     0.014 A 
ATOM      7  C   UNL A   1      41.224  27.174  27.380  1.00  0.00     0.014 A 
ATOM      8  C   UNL A   1      39.662  26.654  29.635  1.00  0.00     0.010 A 
ATOM      9  C   UNL A   1      41.266  28.040  28.466  1.00  0.00     0.010 A 
ATOM     10  C   UNL A   1      40.455  27.807  29.587  1.00  0.00    -0.014 A 
BRANCH  10  11
ATOM     11  C   UNL A   1      40.374  28.862  30.627  1.00  0.00     0.031 A 
ATOM     12  C   UNL A   1      41.332  28.811  31.788  1.00  0.00     0.074 A 
ATOM     13  C   UNL A   1      39.430  29.817  30.568  1.00  0.00     0.049 A 
ATOM     14  N   UNL A   1      41.332  29.503  32.898  1.00  0.00    -0.248 NA
ATOM     15  C   UNL A   1      42.416  27.820  31.696  1.00  0.00     0.031 C 
ATOM     16  C   UNL A   1      38.454  29.982  29.492  1.00  0.00     0.029 A 
ATOM     17  N   UNL A   1      39.136  30.828  31.446  1.00  0.00    -0.354 N 
ATOM     18  C   UNL A   1      42.392  29.009  33.648  1.00  0.00     0.074 A 
ATOM     19  C   UNL A   1      42.980  27.925  32.889  1.00  0.00     0.031 C 
ATOM     20  C   UNL A   1      37.686  31.051  29.759  1.00  0.00     0.029 A 
ATOM     21  C   UNL A   1      38.084  31.615  31.046  1.00  0.00     0.049 A 
ATOM     22  H   UNL A   1      39.632  30.976  32.283  1.00  0.00     0.167 HD
ATOM     23  C   UNL A   1      42.851  29.431  34.849  1.00  0.00     0.037 A 
ATOM     24  C   UNL A   1      37.502  32.665  31.656  1.00  0.00     0.037 A 
ATOM     25  C   UNL A   1      42.285  30.530  35.583  1.00  0.00     0.049 A 
ATOM     26  C   UNL A   1      38.009  33.105  33.001  1.00  0.00     0.074 A 
ATOM     27  C   UNL A   1      42.677  31.051  36.803  1.00  0.00     0.029 A 
ATOM     28  N   UNL A   1      41.206  31.291  35.152  1.00  0.00    -0.354 N 
ATOM     29  N   UNL A   1      38.986  32.605  33.719  1.00  0.00    -0.248 NA
ATOM     30  C   UNL A   1      37.324  34.246  33.623  1.00  0.00     0.031 C 
ATOM     31  C   UNL A   1      41.821  32.114  37.120  1.00  0.00     0.029 A 
ATOM     32  C   UNL A   1      40.916  32.274  36.082  1.00  0.00     0.049 A 
ATOM     33  H   UNL A   1      40.719  31.151  34.309  1.00  0.00     0.167 HD
ATOM     34  C   UNL A   1      39.041  33.373  34.877  1.00  0.00     0.074 A 
ATOM     35  C   UNL A   1      38.007  34.384  34.752  1.00  0.00     0.031 C 
ATOM     36  C   UNL A   1      39.867  33.255  35.946  1.00  0.00     0.037 A 
BRANCH  23  37
ATOM     37  C   UNL A   1      44.021  28.684  35.428  1.00  0.00     0.058 A 
ATOM     38  C   UNL A   1      43.841  27.603  36.307  1.00  0.00     0.135 A 
ATOM     39  C   UNL A   1      45.337  29.084  35.144  1.00  0.00     0.135 A 
ATOM     40  F   UNL A   1      42.603  27.194  36.629  1.00  0.00    -0.206 F 
ATOM     41  C   UNL A   1      44.919  26.981  36.926  1.00  0.00     0.059 A 
ATOM     42  C   UNL A   1      46.433  28.456  35.732  1.00  0.00     0.059 A 
ATOM     43  F   UNL A   1      45.567  30.112  34.313  1.00  0.00    -0.206 F 
ATOM     44  C   UNL A   1      46.211  27.423  36.642  1.00  0.00     0.060 A 
BRANCH  44  45
ATOM     45  S   UNL A   1      47.599  26.643  37.492  1.00  0.00     0.124 S 
ATOM     46  O   UNL A   1      48.638  26.710  36.469  1.00  0.00    -0.237 OA
ATOM     47  O   UNL A   1      47.791  27.514  38.648  1.00  0.00    -0.237 OA
ATOM     48  O   UNL A   1      47.101  25.306  37.796  1.00  0.00    -0.744 OA
ENDBRANCH  44  45
ENDBRANCH  23  37
BRANCH  24  49
ATOM     49  C   UNL A   1      36.398  33.386  30.973  1.00  0.00     0.058 A 
ATOM     50  C   UNL A   1      35.089  33.307  31.467  1.00  0.00     0.135 A 
ATOM     51  C   UNL A   1      36.636  34.217  29.868  1.00  0.00     0.135 A 
ATOM     52  F   UNL A   1      34.815  32.516  32.515  1.00  0.00    -0.206 F 
ATOM     53  C   UNL A   1      34.052  34.037  30.898  1.00  0.00     0.059 A 
ATOM     54  C   UNL A   1      35.618  34.971  29.293  1.00  0.00     0.059 A 
ATOM     55  F   UNL A   1      37.876  34.333  29.368  1.00  0.00    -0.206 F 
ATOM     56  C   UNL A   1      34.330  34.877  29.818  1.00  0.00     0.060 A 
BRANCH  56  57
ATOM     57  S   UNL A   1      32.995  35.902  29.160  1.00  0.00     0.124 S 
ATOM     58  O   UNL A   1      32.358  34.989  28.219  1.00  0.00    -0.237 OA
ATOM     59  O   UNL A   1      32.231  36.216  30.364  1.00  0.00    -0.237 OA
ATOM     60  O   UNL A   1      33.703  37.032  28.564  1.00  0.00    -0.744 OA
ENDBRANCH  56  57
ENDBRANCH  24  49
BRANCH  36  61
ATOM     61  C   UNL A   1      39.680  34.244  37.062  1.00  0.00     0.058 A 
ATOM     62  C   UNL A   1      40.205  35.543  36.982  1.00  0.00     0.135 A 
ATOM     63  C   UNL A   1      38.953  33.897  38.211  1.00  0.00     0.135 A 
ATOM     64  F   UNL A   1      40.914  35.920  35.905  1.00  0.00    -0.206 F 
ATOM     65  C   UNL A   1      40.044  36.455  38.018  1.00  0.00     0.059 A 
ATOM     66  C   UNL A   1      38.759  34.801  39.250  1.00  0.00     0.059 A 
ATOM     67  F   UNL A   1      38.420  32.671  38.329  1.00  0.00    -0.206 F 
ATOM     68  C   UNL A   1      39.323  36.073  39.152  1.00  0.00     0.060 A 
BRANCH  68  69
ATOM     69  S   UNL A   1      39.118  37.266  40.490  1.00  0.00     0.124 S 
ATOM     70  O   UNL A   1      40.485  37.744  40.669  1.00  0.00    -0.237 OA
ATOM     71  O   UNL A   1      38.182  38.227  39.915  1.00  0.00    -0.237 OA
ATOM     72  O   UNL A   1      38.586  36.460  41.584  1.00  0.00    -0.744 OA
ENDBRANCH  68  69
ENDBRANCH  36  61
ENDBRANCH  10  11
ENDBRANCH   2   5
BRANCH   3  73
ATOM     73  C   UNL A   1      42.724  25.704  25.342  1.00  0.00     0.118 C 
BRANCH  73  74
ATOM     74  C   UNL A   1      43.718  25.042  26.287  1.00  0.00     0.042 C 
BRANCH  74  75
ATOM     75  C   UNL A   1      45.009  24.603  25.617  1.00  0.00     0.117 C 
BRANCH  75  76
ATOM     76  N   UNL A   1      44.780  23.852  24.395  1.00  0.00    -0.355 N 
ATOM     77  C   UNL A   1      44.617  22.509  24.205  1.00  0.00     0.228 C 
ATOM     78  H   UNL A   1      44.736  24.396  23.575  1.00  0.00     0.163 HD
ATOM     79  O   UNL A   1      44.394  22.120  23.058  1.00  0.00    -0.274 OA
BRANCH  77  80
ATOM     80  C   UNL A   1      44.698  21.564  25.400  1.00  0.00     0.120 C 
ATOM     81  C   UNL A   1      45.644  20.384  25.092  1.00  0.00     0.093 C 
ATOM     82  C   UNL A   1      43.345  20.999  25.775  1.00  0.00    -0.021 A 
ATOM     83  S   UNL A   1      44.689  18.837  25.046  1.00  0.00    -0.125 SA
ATOM     84  C   UNL A   1      43.223  19.617  25.636  1.00  0.00     0.011 A 
ATOM     85  C   UNL A   1      42.249  21.740  26.222  1.00  0.00     0.006 A 
ATOM     86  C   UNL A   1      42.035  18.964  25.941  1.00  0.00     0.015 A 
ATOM     87  C   UNL A   1      41.050  21.093  26.527  1.00  0.00     0.000 A 
ATOM     88  C   UNL A   1      40.944  19.708  26.389  1.00  0.00     0.001 A 
ENDBRANCH  77  80
ENDBRANCH  75  76
ENDBRANCH  74  75
ENDBRANCH  73  74
ENDBRANCH   3  73
TORSDOF 13
ENDMDL
