MODEL 1
REMARK VINA RESULT:     -12.2      0.000      0.000
REMARK SMILES C[C@H](C(=O)NCCCNC(=O)c1ccc(-c2c3nc(c(-c4c(F)cc(S(=O)(=O)[O-])cc4F)c4ccc([nH]4)c(-c4c(F)cc(S(=O)(=O)[O-])cc4F)c4nc(c(-c5c(F)cc(S(=O)(=O)[O-])cc5F)c5ccc2[nH]5)C=C4)C=C3)cc1)c1ccc(-c2ccccc2)c(F)c1
REMARK SMILES IDX 7 1 6 2 5 3 3 4 4 5 2 7 1 8 78 9 79 10 90 11 80 12 88 13
REMARK SMILES IDX 81 14 89 15 82 16 83 17 87 18 84 19 86 20 85 21 8 22 9 23
REMARK SMILES IDX 10 24 11 26 12 27 13 28 77 29 14 30 76 31 15 32 16 33 17 34
REMARK SMILES IDX 70 35 18 36 75 37 69 38 71 39 19 40 74 41 68 42 67 43 20 45
REMARK SMILES IDX 54 46 33 47 53 48 34 49 37 50 52 51 72 52 35 53 36 54 51 56
REMARK SMILES IDX 73 57 38 58 21 59 22 60 31 61 23 62 24 63 30 64 32 65 25 66
REMARK SMILES IDX 26 67 27 68 28 69 29 70 55 71 56 72 65 73 57 74 58 75 64 76
REMARK SMILES IDX 66 77 59 78 60 79 61 80 62 81 63 82 39 83 40 84 49 85 41 86
REMARK SMILES IDX 42 87 48 88 50 89 43 90 44 91 45 92 46 93 47 94
REMARK H PARENT 5 6 9 25 71 44 37 55
REMARK Flexibility Score: inf
ROOT
ATOM      1  C   UNL A   1      33.851  28.090  25.491  1.00  0.00     0.042 C 
ENDROOT
BRANCH   1   2
ATOM      2  C   UNL A   1      32.881  27.088  24.888  1.00  0.00     0.117 C 
BRANCH   2   3
ATOM      3  N   UNL A   1      33.464  26.329  23.794  1.00  0.00    -0.356 N 
ATOM      4  C   UNL A   1      33.125  25.117  23.272  1.00  0.00     0.227 C 
ATOM      5  O   UNL A   1      33.737  24.747  22.266  1.00  0.00    -0.274 OA
ATOM      6  H   UNL A   1      34.232  26.762  23.358  1.00  0.00     0.163 HD
BRANCH   4   7
ATOM      7  C   UNL A   1      32.026  24.242  23.882  1.00  0.00     0.105 C 
ATOM      8  C   UNL A   1      30.661  24.533  23.248  1.00  0.00     0.023 C 
BRANCH   7   9
ATOM      9  C   UNL A   1      32.335  22.752  23.978  1.00  0.00    -0.033 A 
ATOM     10  C   UNL A   1      32.100  21.853  22.930  1.00  0.00     0.005 A 
ATOM     11  C   UNL A   1      32.872  22.235  25.168  1.00  0.00     0.044 A 
ATOM     12  C   UNL A   1      32.309  20.479  23.092  1.00  0.00     0.012 A 
ATOM     13  C   UNL A   1      33.105  20.865  25.313  1.00  0.00     0.131 A 
ATOM     14  C   UNL A   1      32.813  19.955  24.291  1.00  0.00     0.017 A 
ATOM     15  F   UNL A   1      33.626  20.438  26.475  1.00  0.00    -0.206 F 
BRANCH  14  16
ATOM     16  C   UNL A   1      33.007  18.505  24.440  1.00  0.00    -0.015 A 
ATOM     17  C   UNL A   1      32.576  17.837  25.600  1.00  0.00     0.009 A 
ATOM     18  C   UNL A   1      33.663  17.751  23.453  1.00  0.00     0.009 A 
ATOM     19  C   UNL A   1      32.803  16.470  25.774  1.00  0.00     0.001 A 
ATOM     20  C   UNL A   1      33.891  16.383  23.625  1.00  0.00     0.001 A 
ATOM     21  C   UNL A   1      33.464  15.744  24.787  1.00  0.00     0.000 A 
ENDBRANCH  14  16
ENDBRANCH   7   9
ENDBRANCH   4   7
ENDBRANCH   2   3
ENDBRANCH   1   2
BRANCH   1  22
ATOM     22  C   UNL A   1      33.724  28.241  26.998  1.00  0.00     0.118 C 
BRANCH  22  23
ATOM     23  N   UNL A   1      33.568  29.627  27.415  1.00  0.00    -0.352 N 
ATOM     24  C   UNL A   1      34.445  30.445  28.083  1.00  0.00     0.251 C 
ATOM     25  H   UNL A   1      32.703  30.039  27.184  1.00  0.00     0.163 HD
ATOM     26  O   UNL A   1      34.054  31.531  28.507  1.00  0.00    -0.269 OA
BRANCH  24  27
ATOM     27  C   UNL A   1      35.843  30.017  28.310  1.00  0.00     0.039 A 
ATOM     28  C   UNL A   1      36.768  30.142  27.271  1.00  0.00     0.014 A 
ATOM     29  C   UNL A   1      36.243  29.482  29.538  1.00  0.00     0.014 A 
ATOM     30  C   UNL A   1      38.102  29.783  27.484  1.00  0.00     0.010 A 
ATOM     31  C   UNL A   1      37.586  29.223  29.779  1.00  0.00     0.010 A 
ATOM     32  C   UNL A   1      38.529  29.349  28.749  1.00  0.00    -0.014 A 
BRANCH  32  33
ATOM     33  C   UNL A   1      39.947  28.984  29.008  1.00  0.00     0.031 A 
ATOM     34  C   UNL A   1      40.888  30.001  29.599  1.00  0.00     0.074 A 
ATOM     35  C   UNL A   1      40.402  27.764  28.659  1.00  0.00     0.049 A 
ATOM     36  N   UNL A   1      42.169  29.900  29.842  1.00  0.00    -0.248 NA
ATOM     37  C   UNL A   1      40.320  31.318  29.931  1.00  0.00     0.031 C 
ATOM     38  C   UNL A   1      39.601  26.706  28.038  1.00  0.00     0.029 A 
ATOM     39  N   UNL A   1      41.652  27.209  28.771  1.00  0.00    -0.354 N 
ATOM     40  C   UNL A   1      42.562  31.141  30.332  1.00  0.00     0.074 A 
ATOM     41  C   UNL A   1      41.397  31.997  30.295  1.00  0.00     0.031 C 
ATOM     42  C   UNL A   1      40.371  25.622  27.855  1.00  0.00     0.029 A 
ATOM     43  C   UNL A   1      41.728  25.917  28.303  1.00  0.00     0.049 A 
ATOM     44  H   UNL A   1      42.422  27.690  29.151  1.00  0.00     0.167 HD
ATOM     45  C   UNL A   1      43.775  31.526  30.795  1.00  0.00     0.037 A 
ATOM     46  C   UNL A   1      42.773  25.070  28.240  1.00  0.00     0.037 A 
ATOM     47  C   UNL A   1      44.923  30.659  30.855  1.00  0.00     0.049 A 
ATOM     48  C   UNL A   1      44.114  25.519  28.759  1.00  0.00     0.074 A 
ATOM     49  C   UNL A   1      46.180  30.930  31.364  1.00  0.00     0.029 A 
ATOM     50  N   UNL A   1      44.955  29.353  30.386  1.00  0.00    -0.354 N 
ATOM     51  N   UNL A   1      44.451  26.676  29.280  1.00  0.00    -0.248 NA
ATOM     52  C   UNL A   1      45.212  24.547  28.691  1.00  0.00     0.031 C 
ATOM     53  C   UNL A   1      46.988  29.809  31.153  1.00  0.00     0.029 A 
ATOM     54  C   UNL A   1      46.217  28.814  30.574  1.00  0.00     0.049 A 
ATOM     55  H   UNL A   1      44.193  28.879  29.981  1.00  0.00     0.167 HD
ATOM     56  C   UNL A   1      45.791  26.554  29.639  1.00  0.00     0.074 A 
ATOM     57  C   UNL A   1      46.197  25.212  29.279  1.00  0.00     0.031 C 
ATOM     58  C   UNL A   1      46.605  27.470  30.221  1.00  0.00     0.037 A 
BRANCH  45  59
ATOM     59  C   UNL A   1      43.924  32.950  31.264  1.00  0.00     0.058 A 
ATOM     60  C   UNL A   1      43.705  33.318  32.603  1.00  0.00     0.135 A 
ATOM     61  C   UNL A   1      44.308  33.959  30.367  1.00  0.00     0.135 A 
ATOM     62  F   UNL A   1      43.320  32.399  33.503  1.00  0.00    -0.206 F 
ATOM     63  C   UNL A   1      43.820  34.638  33.023  1.00  0.00     0.059 A 
ATOM     64  C   UNL A   1      44.465  35.281  30.773  1.00  0.00     0.059 A 
ATOM     65  F   UNL A   1      44.533  33.666  29.076  1.00  0.00    -0.206 F 
ATOM     66  C   UNL A   1      44.200  35.614  32.100  1.00  0.00     0.060 A 
BRANCH  66  67
ATOM     67  S   UNL A   1      44.337  37.324  32.660  1.00  0.00     0.124 S 
ATOM     68  O   UNL A   1      43.153  37.449  33.505  1.00  0.00    -0.237 OA
ATOM     69  O   UNL A   1      45.617  37.321  33.361  1.00  0.00    -0.237 OA
ATOM     70  O   UNL A   1      44.306  38.092  31.420  1.00  0.00    -0.744 OA
ENDBRANCH  66  67
ENDBRANCH  45  59
BRANCH  46  71
ATOM     71  C   UNL A   1      42.586  23.697  27.699  1.00  0.00     0.058 A 
ATOM     72  C   UNL A   1      42.605  23.459  26.316  1.00  0.00     0.135 A 
ATOM     73  C   UNL A   1      42.402  22.594  28.547  1.00  0.00     0.135 A 
ATOM     74  F   UNL A   1      42.771  24.481  25.463  1.00  0.00    -0.206 F 
ATOM     75  C   UNL A   1      42.433  22.182  25.792  1.00  0.00     0.059 A 
ATOM     76  C   UNL A   1      42.256  21.303  28.048  1.00  0.00     0.059 A 
ATOM     77  F   UNL A   1      42.392  22.763  29.878  1.00  0.00    -0.206 F 
ATOM     78  C   UNL A   1      42.264  21.109  26.667  1.00  0.00     0.060 A 
BRANCH  78  79
ATOM     79  S   UNL A   1      42.097  19.449  25.977  1.00  0.00     0.124 S 
ATOM     80  O   UNL A   1      42.910  19.547  24.771  1.00  0.00    -0.237 OA
ATOM     81  O   UNL A   1      42.639  18.617  27.047  1.00  0.00    -0.237 OA
ATOM     82  O   UNL A   1      40.659  19.319  25.760  1.00  0.00    -0.744 OA
ENDBRANCH  78  79
ENDBRANCH  46  71
BRANCH  58  83
ATOM     83  C   UNL A   1      48.006  27.037  30.561  1.00  0.00     0.058 A 
ATOM     84  C   UNL A   1      49.096  27.309  29.720  1.00  0.00     0.135 A 
ATOM     85  C   UNL A   1      48.264  26.380  31.776  1.00  0.00     0.135 A 
ATOM     86  F   UNL A   1      48.906  27.930  28.546  1.00  0.00    -0.206 F 
ATOM     87  C   UNL A   1      50.388  26.918  30.058  1.00  0.00     0.059 A 
ATOM     88  C   UNL A   1      49.552  26.009  32.149  1.00  0.00     0.059 A 
ATOM     89  F   UNL A   1      47.260  26.106  32.625  1.00  0.00    -0.206 F 
ATOM     90  C   UNL A   1      50.607  26.270  31.276  1.00  0.00     0.060 A 
BRANCH  90  91
ATOM     91  S   UNL A   1      52.291  25.791  31.713  1.00  0.00     0.124 S 
ATOM     92  O   UNL A   1      52.590  26.721  32.797  1.00  0.00    -0.237 OA
ATOM     93  O   UNL A   1      52.126  24.393  32.104  1.00  0.00    -0.237 OA
ATOM     94  O   UNL A   1      53.037  26.005  30.477  1.00  0.00    -0.744 OA
ENDBRANCH  90  91
ENDBRANCH  58  83
ENDBRANCH  32  33
ENDBRANCH  24  27
ENDBRANCH  22  23
ENDBRANCH   1  22
TORSDOF 15
ENDMDL
MODEL 2
REMARK VINA RESULT:     -12.1      3.344      4.068
REMARK SMILES C[C@H](C(=O)NCCCNC(=O)c1ccc(-c2c3nc(c(-c4c(F)cc(S(=O)(=O)[O-])cc4F)c4ccc([nH]4)c(-c4c(F)cc(S(=O)(=O)[O-])cc4F)c4nc(c(-c5c(F)cc(S(=O)(=O)[O-])cc5F)c5ccc2[nH]5)C=C4)C=C3)cc1)c1ccc(-c2ccccc2)c(F)c1
REMARK SMILES IDX 7 1 6 2 5 3 3 4 4 5 2 7 1 8 78 9 79 10 90 11 80 12 88 13
REMARK SMILES IDX 81 14 89 15 82 16 83 17 87 18 84 19 86 20 85 21 8 22 9 23
REMARK SMILES IDX 10 24 11 26 12 27 13 28 77 29 14 30 76 31 15 32 16 33 17 34
REMARK SMILES IDX 70 35 18 36 75 37 69 38 71 39 19 40 74 41 68 42 67 43 20 45
REMARK SMILES IDX 54 46 33 47 53 48 34 49 37 50 52 51 72 52 35 53 36 54 51 56
REMARK SMILES IDX 73 57 38 58 21 59 22 60 31 61 23 62 24 63 30 64 32 65 25 66
REMARK SMILES IDX 26 67 27 68 28 69 29 70 55 71 56 72 65 73 57 74 58 75 64 76
REMARK SMILES IDX 66 77 59 78 60 79 61 80 62 81 63 82 39 83 40 84 49 85 41 86
REMARK SMILES IDX 42 87 48 88 50 89 43 90 44 91 45 92 46 93 47 94
REMARK H PARENT 5 6 9 25 71 44 37 55
REMARK Flexibility Score: inf
ROOT
ATOM      1  C   UNL A   1      33.768  28.054  24.815  1.00  0.00     0.042 C 
ENDROOT
BRANCH   1   2
ATOM      2  C   UNL A   1      32.330  27.947  24.335  1.00  0.00     0.117 C 
BRANCH   2   3
ATOM      3  N   UNL A   1      32.218  27.302  23.037  1.00  0.00    -0.356 N 
ATOM      4  C   UNL A   1      32.009  25.996  22.709  1.00  0.00     0.227 C 
ATOM      5  O   UNL A   1      31.855  25.736  21.511  1.00  0.00    -0.274 OA
ATOM      6  H   UNL A   1      32.308  27.909  22.268  1.00  0.00     0.163 HD
BRANCH   4   7
ATOM      7  C   UNL A   1      31.947  24.887  23.762  1.00  0.00     0.105 C 
ATOM      8  C   UNL A   1      30.988  23.767  23.342  1.00  0.00     0.023 C 
BRANCH   7   9
ATOM      9  C   UNL A   1      33.290  24.366  24.264  1.00  0.00    -0.033 A 
ATOM     10  C   UNL A   1      33.659  24.384  25.615  1.00  0.00     0.005 A 
ATOM     11  C   UNL A   1      34.215  23.848  23.345  1.00  0.00     0.044 A 
ATOM     12  C   UNL A   1      34.936  23.983  26.022  1.00  0.00     0.012 A 
ATOM     13  C   UNL A   1      35.479  23.423  23.762  1.00  0.00     0.131 A 
ATOM     14  C   UNL A   1      35.876  23.498  25.103  1.00  0.00     0.017 A 
ATOM     15  F   UNL A   1      36.314  22.934  22.832  1.00  0.00    -0.206 F 
BRANCH  14  16
ATOM     16  C   UNL A   1      37.217  23.100  25.556  1.00  0.00    -0.015 A 
ATOM     17  C   UNL A   1      37.686  21.790  25.353  1.00  0.00     0.009 A 
ATOM     18  C   UNL A   1      38.052  23.998  26.241  1.00  0.00     0.009 A 
ATOM     19  C   UNL A   1      38.937  21.388  25.827  1.00  0.00     0.001 A 
ATOM     20  C   UNL A   1      39.304  23.598  26.716  1.00  0.00     0.001 A 
ATOM     21  C   UNL A   1      39.744  22.292  26.512  1.00  0.00     0.000 A 
ENDBRANCH  14  16
ENDBRANCH   7   9
ENDBRANCH   4   7
ENDBRANCH   2   3
ENDBRANCH   1   2
BRANCH   1  22
ATOM     22  C   UNL A   1      33.901  28.419  26.284  1.00  0.00     0.118 C 
BRANCH  22  23
ATOM     23  N   UNL A   1      33.711  29.841  26.532  1.00  0.00    -0.352 N 
ATOM     24  C   UNL A   1      34.407  30.687  27.360  1.00  0.00     0.251 C 
ATOM     25  H   UNL A   1      32.971  30.258  26.033  1.00  0.00     0.163 HD
ATOM     26  O   UNL A   1      33.972  31.818  27.570  1.00  0.00    -0.269 OA
BRANCH  24  27
ATOM     27  C   UNL A   1      35.657  30.237  28.010  1.00  0.00     0.039 A 
ATOM     28  C   UNL A   1      36.875  30.448  27.359  1.00  0.00     0.014 A 
ATOM     29  C   UNL A   1      35.634  29.597  29.253  1.00  0.00     0.014 A 
ATOM     30  C   UNL A   1      38.068  30.068  27.980  1.00  0.00     0.010 A 
ATOM     31  C   UNL A   1      36.824  29.314  29.911  1.00  0.00     0.010 A 
ATOM     32  C   UNL A   1      38.055  29.526  29.275  1.00  0.00    -0.014 A 
BRANCH  32  33
ATOM     33  C   UNL A   1      39.312  29.136  29.967  1.00  0.00     0.031 A 
ATOM     34  C   UNL A   1      39.745  29.872  31.208  1.00  0.00     0.074 A 
ATOM     35  C   UNL A   1      40.090  28.165  29.450  1.00  0.00     0.049 A 
ATOM     36  N   UNL A   1      40.833  29.727  31.919  1.00  0.00    -0.248 NA
ATOM     37  C   UNL A   1      38.851  30.935  31.697  1.00  0.00     0.031 C 
ATOM     38  C   UNL A   1      39.804  27.408  28.229  1.00  0.00     0.029 A 
ATOM     39  N   UNL A   1      41.288  27.652  29.883  1.00  0.00    -0.354 N 
ATOM     40  C   UNL A   1      40.764  30.690  32.920  1.00  0.00     0.074 A 
ATOM     41  C   UNL A   1      39.558  31.453  32.689  1.00  0.00     0.031 C 
ATOM     42  C   UNL A   1      40.780  26.507  28.031  1.00  0.00     0.029 A 
ATOM     43  C   UNL A   1      41.783  26.649  29.082  1.00  0.00     0.049 A 
ATOM     44  H   UNL A   1      41.750  27.972  30.691  1.00  0.00     0.167 HD
ATOM     45  C   UNL A   1      41.614  30.904  33.953  1.00  0.00     0.037 A 
ATOM     46  C   UNL A   1      42.916  25.929  29.181  1.00  0.00     0.037 A 
ATOM     47  C   UNL A   1      42.798  30.120  34.193  1.00  0.00     0.049 A 
ATOM     48  C   UNL A   1      43.848  26.184  30.337  1.00  0.00     0.074 A 
ATOM     49  C   UNL A   1      43.692  30.212  35.244  1.00  0.00     0.029 A 
ATOM     50  N   UNL A   1      43.256  29.103  33.367  1.00  0.00    -0.354 N 
ATOM     51  N   UNL A   1      43.734  27.056  31.311  1.00  0.00    -0.248 NA
ATOM     52  C   UNL A   1      45.056  25.352  30.412  1.00  0.00     0.031 C 
ATOM     53  C   UNL A   1      44.720  29.290  35.026  1.00  0.00     0.029 A 
ATOM     54  C   UNL A   1      44.432  28.575  33.873  1.00  0.00     0.049 A 
ATOM     55  H   UNL A   1      42.810  28.800  32.543  1.00  0.00     0.167 HD
ATOM     56  C   UNL A   1      44.835  26.848  32.137  1.00  0.00     0.074 A 
ATOM     57  C   UNL A   1      45.598  25.767  31.549  1.00  0.00     0.031 C 
ATOM     58  C   UNL A   1      45.176  27.489  33.283  1.00  0.00     0.037 A 
BRANCH  45  59
ATOM     59  C   UNL A   1      41.297  32.035  34.895  1.00  0.00     0.058 A 
ATOM     60  C   UNL A   1      40.425  31.872  35.985  1.00  0.00     0.135 A 
ATOM     61  C   UNL A   1      41.887  33.296  34.718  1.00  0.00     0.135 A 
ATOM     62  F   UNL A   1      39.818  30.693  36.197  1.00  0.00    -0.206 F 
ATOM     63  C   UNL A   1      40.118  32.928  36.837  1.00  0.00     0.059 A 
ATOM     64  C   UNL A   1      41.623  34.357  35.579  1.00  0.00     0.059 A 
ATOM     65  F   UNL A   1      42.731  33.510  33.695  1.00  0.00    -0.206 F 
ATOM     66  C   UNL A   1      40.722  34.168  36.625  1.00  0.00     0.060 A 
BRANCH  66  67
ATOM     67  S   UNL A   1      40.306  35.530  37.734  1.00  0.00     0.124 S 
ATOM     68  O   UNL A   1      41.548  35.685  38.483  1.00  0.00    -0.237 OA
ATOM     69  O   UNL A   1      39.992  36.607  36.799  1.00  0.00    -0.237 OA
ATOM     70  O   UNL A   1      39.174  35.015  38.496  1.00  0.00    -0.744 OA
ENDBRANCH  66  67
ENDBRANCH  45  59
BRANCH  46  71
ATOM     71  C   UNL A   1      43.216  24.871  28.179  1.00  0.00     0.058 A 
ATOM     72  C   UNL A   1      43.859  25.184  26.971  1.00  0.00     0.135 A 
ATOM     73  C   UNL A   1      42.884  23.527  28.411  1.00  0.00     0.135 A 
ATOM     74  F   UNL A   1      44.191  26.455  26.699  1.00  0.00    -0.206 F 
ATOM     75  C   UNL A   1      44.148  24.208  26.023  1.00  0.00     0.059 A 
ATOM     76  C   UNL A   1      43.189  22.528  27.491  1.00  0.00     0.059 A 
ATOM     77  F   UNL A   1      42.283  23.170  29.557  1.00  0.00    -0.206 F 
ATOM     78  C   UNL A   1      43.813  22.881  26.295  1.00  0.00     0.060 A 
BRANCH  78  79
ATOM     79  S   UNL A   1      44.243  21.615  25.080  1.00  0.00     0.124 S 
ATOM     80  O   UNL A   1      43.228  20.602  25.339  1.00  0.00    -0.237 OA
ATOM     81  O   UNL A   1      44.114  22.344  23.822  1.00  0.00    -0.237 OA
ATOM     82  O   UNL A   1      45.608  21.249  25.447  1.00  0.00    -0.744 OA
ENDBRANCH  78  79
ENDBRANCH  46  71
BRANCH  58  83
ATOM     83  C   UNL A   1      46.400  27.005  34.013  1.00  0.00     0.058 A 
ATOM     84  C   UNL A   1      47.676  27.532  33.762  1.00  0.00     0.135 A 
ATOM     85  C   UNL A   1      46.281  26.028  35.015  1.00  0.00     0.135 A 
ATOM     86  F   UNL A   1      47.848  28.465  32.813  1.00  0.00    -0.206 F 
ATOM     87  C   UNL A   1      48.795  27.086  34.459  1.00  0.00     0.059 A 
ATOM     88  C   UNL A   1      47.380  25.590  35.746  1.00  0.00     0.059 A 
ATOM     89  F   UNL A   1      45.081  25.497  35.305  1.00  0.00    -0.206 F 
ATOM     90  C   UNL A   1      48.637  26.116  35.451  1.00  0.00     0.060 A 
BRANCH  90  91
ATOM     91  S   UNL A   1      50.092  25.564  36.364  1.00  0.00     0.124 S 
ATOM     92  O   UNL A   1      49.779  24.158  36.596  1.00  0.00    -0.237 OA
ATOM     93  O   UNL A   1      51.172  25.826  35.416  1.00  0.00    -0.237 OA
ATOM     94  O   UNL A   1      50.091  26.412  37.552  1.00  0.00    -0.744 OA
ENDBRANCH  90  91
ENDBRANCH  58  83
ENDBRANCH  32  33
ENDBRANCH  24  27
ENDBRANCH  22  23
ENDBRANCH   1  22
TORSDOF 15
ENDMDL
MODEL 3
REMARK VINA RESULT:     -12.1      1.941      2.521
REMARK SMILES C[C@H](C(=O)NCCCNC(=O)c1ccc(-c2c3nc(c(-c4c(F)cc(S(=O)(=O)[O-])cc4F)c4ccc([nH]4)c(-c4c(F)cc(S(=O)(=O)[O-])cc4F)c4nc(c(-c5c(F)cc(S(=O)(=O)[O-])cc5F)c5ccc2[nH]5)C=C4)C=C3)cc1)c1ccc(-c2ccccc2)c(F)c1
REMARK SMILES IDX 7 1 6 2 5 3 3 4 4 5 2 7 1 8 78 9 79 10 90 11 80 12 88 13
REMARK SMILES IDX 81 14 89 15 82 16 83 17 87 18 84 19 86 20 85 21 8 22 9 23
REMARK SMILES IDX 10 24 11 26 12 27 13 28 77 29 14 30 76 31 15 32 16 33 17 34
REMARK SMILES IDX 70 35 18 36 75 37 69 38 71 39 19 40 74 41 68 42 67 43 20 45
REMARK SMILES IDX 54 46 33 47 53 48 34 49 37 50 52 51 72 52 35 53 36 54 51 56
REMARK SMILES IDX 73 57 38 58 21 59 22 60 31 61 23 62 24 63 30 64 32 65 25 66
REMARK SMILES IDX 26 67 27 68 28 69 29 70 55 71 56 72 65 73 57 74 58 75 64 76
REMARK SMILES IDX 66 77 59 78 60 79 61 80 62 81 63 82 39 83 40 84 49 85 41 86
REMARK SMILES IDX 42 87 48 88 50 89 43 90 44 91 45 92 46 93 47 94
REMARK H PARENT 5 6 9 25 71 44 37 55
REMARK Flexibility Score: inf
ROOT
ATOM      1  C   UNL A   1      33.019  27.303  26.538  1.00  0.00     0.042 C 
ENDROOT
BRANCH   1   2
ATOM      2  C   UNL A   1      31.766  27.416  25.687  1.00  0.00     0.117 C 
BRANCH   2   3
ATOM      3  N   UNL A   1      30.627  26.724  26.269  1.00  0.00    -0.356 N 
ATOM      4  C   UNL A   1      30.148  25.466  26.056  1.00  0.00     0.227 C 
ATOM      5  O   UNL A   1      29.210  25.095  26.768  1.00  0.00    -0.274 OA
ATOM      6  H   UNL A   1      30.118  27.251  26.924  1.00  0.00     0.163 HD
BRANCH   4   7
ATOM      7  C   UNL A   1      30.741  24.532  24.998  1.00  0.00     0.105 C 
ATOM      8  C   UNL A   1      30.396  24.999  23.579  1.00  0.00     0.023 C 
BRANCH   7   9
ATOM      9  C   UNL A   1      32.216  24.180  25.168  1.00  0.00    -0.033 A 
ATOM     10  C   UNL A   1      33.154  24.298  24.134  1.00  0.00     0.005 A 
ATOM     11  C   UNL A   1      32.672  23.707  26.408  1.00  0.00     0.044 A 
ATOM     12  C   UNL A   1      34.477  23.876  24.305  1.00  0.00     0.012 A 
ATOM     13  C   UNL A   1      34.001  23.314  26.580  1.00  0.00     0.131 A 
ATOM     14  C   UNL A   1      34.928  23.370  25.532  1.00  0.00     0.017 A 
ATOM     15  F   UNL A   1      34.373  22.875  27.793  1.00  0.00    -0.206 F 
BRANCH  14  16
ATOM     16  C   UNL A   1      36.320  22.917  25.678  1.00  0.00    -0.015 A 
ATOM     17  C   UNL A   1      37.311  23.785  26.169  1.00  0.00     0.009 A 
ATOM     18  C   UNL A   1      36.710  21.624  25.294  1.00  0.00     0.009 A 
ATOM     19  C   UNL A   1      38.645  23.381  26.261  1.00  0.00     0.001 A 
ATOM     20  C   UNL A   1      38.044  21.218  25.386  1.00  0.00     0.001 A 
ATOM     21  C   UNL A   1      39.012  22.098  25.866  1.00  0.00     0.000 A 
ENDBRANCH  14  16
ENDBRANCH   7   9
ENDBRANCH   4   7
ENDBRANCH   2   3
ENDBRANCH   1   2
BRANCH   1  22
ATOM     22  C   UNL A   1      34.055  28.378  26.255  1.00  0.00     0.118 C 
BRANCH  22  23
ATOM     23  N   UNL A   1      33.780  29.626  26.952  1.00  0.00    -0.352 N 
ATOM     24  C   UNL A   1      34.545  30.305  27.868  1.00  0.00     0.251 C 
ATOM     25  H   UNL A   1      32.915  30.045  26.735  1.00  0.00     0.163 HD
ATOM     26  O   UNL A   1      34.052  31.250  28.483  1.00  0.00    -0.269 OA
BRANCH  24  27
ATOM     27  C   UNL A   1      35.941  29.893  28.131  1.00  0.00     0.039 A 
ATOM     28  C   UNL A   1      36.897  30.057  27.126  1.00  0.00     0.014 A 
ATOM     29  C   UNL A   1      36.309  29.333  29.358  1.00  0.00     0.014 A 
ATOM     30  C   UNL A   1      38.229  29.713  27.374  1.00  0.00     0.010 A 
ATOM     31  C   UNL A   1      37.648  29.088  29.636  1.00  0.00     0.010 A 
ATOM     32  C   UNL A   1      38.622  29.254  28.641  1.00  0.00    -0.014 A 
BRANCH  32  33
ATOM     33  C   UNL A   1      40.036  28.904  28.937  1.00  0.00     0.031 A 
ATOM     34  C   UNL A   1      40.947  29.927  29.563  1.00  0.00     0.074 A 
ATOM     35  C   UNL A   1      40.515  27.692  28.593  1.00  0.00     0.049 A 
ATOM     36  N   UNL A   1      42.222  29.840  29.841  1.00  0.00    -0.248 NA
ATOM     37  C   UNL A   1      40.354  31.235  29.889  1.00  0.00     0.031 C 
ATOM     38  C   UNL A   1      39.746  26.630  27.941  1.00  0.00     0.029 A 
ATOM     39  N   UNL A   1      41.769  27.152  28.735  1.00  0.00    -0.354 N 
ATOM     40  C   UNL A   1      42.586  31.081  30.352  1.00  0.00     0.074 A 
ATOM     41  C   UNL A   1      41.412  31.923  30.289  1.00  0.00     0.031 C 
ATOM     42  C   UNL A   1      40.534  25.556  27.771  1.00  0.00     0.029 A 
ATOM     43  C   UNL A   1      41.874  25.865  28.260  1.00  0.00     0.049 A 
ATOM     44  H   UNL A   1      42.522  27.639  29.140  1.00  0.00     0.167 HD
ATOM     45  C   UNL A   1      43.780  31.478  30.852  1.00  0.00     0.037 A 
ATOM     46  C   UNL A   1      42.930  25.031  28.220  1.00  0.00     0.037 A 
ATOM     47  C   UNL A   1      44.936  30.624  30.938  1.00  0.00     0.049 A 
ATOM     48  C   UNL A   1      44.250  25.492  28.781  1.00  0.00     0.074 A 
ATOM     49  C   UNL A   1      46.175  30.906  31.485  1.00  0.00     0.029 A 
ATOM     50  N   UNL A   1      44.998  29.322  30.460  1.00  0.00    -0.354 N 
ATOM     51  N   UNL A   1      44.559  26.648  29.319  1.00  0.00    -0.248 NA
ATOM     52  C   UNL A   1      45.361  24.533  28.736  1.00  0.00     0.031 C 
ATOM     53  C   UNL A   1      47.003  29.796  31.288  1.00  0.00     0.029 A 
ATOM     54  C   UNL A   1      46.261  28.796  30.679  1.00  0.00     0.049 A 
ATOM     55  H   UNL A   1      44.253  28.843  30.030  1.00  0.00     0.167 HD
ATOM     56  C   UNL A   1      45.889  26.540  29.716  1.00  0.00     0.074 A 
ATOM     57  C   UNL A   1      46.321  25.206  29.357  1.00  0.00     0.031 C 
ATOM     58  C   UNL A   1      46.675  27.460  30.328  1.00  0.00     0.037 A 
BRANCH  45  59
ATOM     59  C   UNL A   1      43.898  32.899  31.336  1.00  0.00     0.058 A 
ATOM     60  C   UNL A   1      43.640  33.253  32.671  1.00  0.00     0.135 A 
ATOM     61  C   UNL A   1      44.293  33.920  30.457  1.00  0.00     0.135 A 
ATOM     62  F   UNL A   1      43.245  32.322  33.555  1.00  0.00    -0.206 F 
ATOM     63  C   UNL A   1      43.728  34.572  33.105  1.00  0.00     0.059 A 
ATOM     64  C   UNL A   1      44.422  35.241  30.877  1.00  0.00     0.059 A 
ATOM     65  F   UNL A   1      44.555  33.641  29.170  1.00  0.00    -0.206 F 
ATOM     66  C   UNL A   1      44.118  35.559  32.200  1.00  0.00     0.060 A 
BRANCH  66  67
ATOM     67  S   UNL A   1      44.218  37.267  32.777  1.00  0.00     0.124 S 
ATOM     68  O   UNL A   1      45.523  37.278  33.430  1.00  0.00    -0.237 OA
ATOM     69  O   UNL A   1      44.128  38.022  31.531  1.00  0.00    -0.237 OA
ATOM     70  O   UNL A   1      43.070  37.393  33.668  1.00  0.00    -0.744 OA
ENDBRANCH  66  67
ENDBRANCH  45  59
BRANCH  46  71
ATOM     71  C   UNL A   1      42.775  23.660  27.663  1.00  0.00     0.058 A 
ATOM     72  C   UNL A   1      42.496  22.570  28.502  1.00  0.00     0.135 A 
ATOM     73  C   UNL A   1      42.884  23.411  26.286  1.00  0.00     0.135 A 
ATOM     74  F   UNL A   1      42.388  22.754  29.827  1.00  0.00    -0.206 F 
ATOM     75  C   UNL A   1      42.346  21.281  28.000  1.00  0.00     0.059 A 
ATOM     76  C   UNL A   1      42.710  22.136  25.756  1.00  0.00     0.059 A 
ATOM     77  F   UNL A   1      43.133  24.421  25.438  1.00  0.00    -0.206 F 
ATOM     78  C   UNL A   1      42.450  21.075  26.624  1.00  0.00     0.060 A 
BRANCH  78  79
ATOM     79  S   UNL A   1      42.199  19.408  25.978  1.00  0.00     0.124 S 
ATOM     80  O   UNL A   1      43.018  19.432  24.772  1.00  0.00    -0.237 OA
ATOM     81  O   UNL A   1      42.695  18.579  27.072  1.00  0.00    -0.237 OA
ATOM     82  O   UNL A   1      40.757  19.346  25.760  1.00  0.00    -0.744 OA
ENDBRANCH  78  79
ENDBRANCH  46  71
BRANCH  58  83
ATOM     83  C   UNL A   1      48.071  27.041  30.704  1.00  0.00     0.058 A 
ATOM     84  C   UNL A   1      49.173  27.284  29.870  1.00  0.00     0.135 A 
ATOM     85  C   UNL A   1      48.311  26.429  31.945  1.00  0.00     0.135 A 
ATOM     86  F   UNL A   1      49.001  27.863  28.672  1.00  0.00    -0.206 F 
ATOM     87  C   UNL A   1      50.461  26.907  30.241  1.00  0.00     0.059 A 
ATOM     88  C   UNL A   1      49.594  26.073  32.351  1.00  0.00     0.059 A 
ATOM     89  F   UNL A   1      47.295  26.184  32.788  1.00  0.00    -0.206 F 
ATOM     90  C   UNL A   1      50.661  26.304  31.485  1.00  0.00     0.060 A 
BRANCH  90  91
ATOM     91  S   UNL A   1      52.339  25.842  31.964  1.00  0.00     0.124 S 
ATOM     92  O   UNL A   1      53.069  26.056  30.719  1.00  0.00    -0.237 OA
ATOM     93  O   UNL A   1      52.627  26.789  33.039  1.00  0.00    -0.237 OA
ATOM     94  O   UNL A   1      52.203  24.451  32.383  1.00  0.00    -0.744 OA
ENDBRANCH  90  91
ENDBRANCH  58  83
ENDBRANCH  32  33
ENDBRANCH  24  27
ENDBRANCH  22  23
ENDBRANCH   1  22
TORSDOF 15
ENDMDL
