MODEL 1
REMARK VINA RESULT:     -12.1      0.000      0.000
REMARK SMILES C[C@@H]1Oc2c(C(=O)NCCCNC(=O)c3ccc(-c4c5nc(c(-c6c(F)cc(S(=O)(=O)[O-])cc6F)c6ccc([nH]6)c(-c6c(F)cc(S(=O)(=O)[O-])cc6F)c6nc(c(-c7c(F)cc(S(=O)(=O)[O-])cc7F)c7ccc4[nH]7)C=C6)C=C5)cc3)cccc2[C@@H]1C
REMARK SMILES IDX 12 1 13 2 14 3 11 5 10 6 9 7 8 8 6 9 7 10 5 12 1 13 2 14
REMARK SMILES IDX 3 15 85 16 4 17 84 18 86 19 83 20 81 21 82 22 15 23 16 24
REMARK SMILES IDX 80 25 17 26 79 27 18 28 19 29 20 30 73 31 21 32 78 33 72 34
REMARK SMILES IDX 74 35 22 36 77 37 71 38 70 39 23 41 57 42 36 43 56 44 37 45
REMARK SMILES IDX 40 46 55 47 75 48 38 49 39 50 54 52 76 53 41 54 24 55 25 56
REMARK SMILES IDX 34 57 26 58 27 59 33 60 35 61 28 62 29 63 30 64 31 65 32 66
REMARK SMILES IDX 58 67 59 68 68 69 60 70 61 71 67 72 69 73 62 74 63 75 64 76
REMARK SMILES IDX 65 77 66 78 42 79 43 80 52 81 44 82 45 83 51 84 53 85 46 86
REMARK SMILES IDX 47 87 48 88 49 89 50 90
REMARK H PARENT 12 4 8 11 74 40 40 51
REMARK Flexibility Score: inf
ROOT
ATOM      1  N   UNL A   1      40.960  24.030  26.047  1.00  0.00    -0.352 N 
ATOM      2  C   UNL A   1      41.252  25.373  26.040  1.00  0.00     0.251 C 
ATOM      3  O   UNL A   1      41.628  25.899  24.998  1.00  0.00    -0.269 OA
ATOM      4  H   UNL A   1      41.258  23.542  25.246  1.00  0.00     0.163 HD
ENDROOT
BRANCH   1   5
ATOM      5  C   UNL A   1      40.285  23.207  27.045  1.00  0.00     0.118 C 
BRANCH   5   6
ATOM      6  C   UNL A   1      38.996  22.593  26.504  1.00  0.00     0.042 C 
BRANCH   6   7
ATOM      7  C   UNL A   1      37.989  23.642  26.037  1.00  0.00     0.118 C 
BRANCH   7   8
ATOM      8  N   UNL A   1      37.661  23.454  24.637  1.00  0.00    -0.352 N 
ATOM      9  C   UNL A   1      36.579  22.938  23.966  1.00  0.00     0.255 C 
ATOM     10  O   UNL A   1      36.686  22.933  22.738  1.00  0.00    -0.269 OA
ATOM     11  H   UNL A   1      38.372  23.766  24.032  1.00  0.00     0.163 HD
BRANCH   9  12
ATOM     12  C   UNL A   1      35.327  22.452  24.628  1.00  0.00     0.082 A 
ATOM     13  C   UNL A   1      32.988  26.528  25.367  1.00  0.00     0.053 C 
ATOM     14  C   UNL A   1      33.549  25.273  26.025  1.00  0.00     0.177 C 
ATOM     15  O   UNL A   1      34.580  24.734  25.166  1.00  0.00    -0.489 OA
ATOM     16  C   UNL A   1      32.532  24.158  26.355  1.00  0.00     0.060 C 
ATOM     17  C   UNL A   1      34.463  23.369  25.230  1.00  0.00     0.136 A 
ATOM     18  C   UNL A   1      33.320  22.971  25.921  1.00  0.00     0.001 A 
ATOM     19  C   UNL A   1      31.197  24.208  25.618  1.00  0.00     0.017 C 
ATOM     20  C   UNL A   1      32.991  21.634  26.053  1.00  0.00     0.008 A 
ATOM     21  C   UNL A   1      34.925  21.108  24.679  1.00  0.00     0.018 A 
ATOM     22  C   UNL A   1      33.791  20.699  25.406  1.00  0.00     0.001 A 
ENDBRANCH   9  12
ENDBRANCH   7   8
ENDBRANCH   6   7
ENDBRANCH   5   6
ENDBRANCH   1   5
BRANCH   2  23
ATOM     23  C   UNL A   1      41.100  26.185  27.268  1.00  0.00     0.039 A 
ATOM     24  C   UNL A   1      40.106  25.897  28.203  1.00  0.00     0.014 A 
ATOM     25  C   UNL A   1      41.994  27.235  27.508  1.00  0.00     0.014 A 
ATOM     26  C   UNL A   1      39.897  26.752  29.278  1.00  0.00     0.010 A 
ATOM     27  C   UNL A   1      41.845  28.035  28.646  1.00  0.00     0.010 A 
ATOM     28  C   UNL A   1      40.768  27.828  29.520  1.00  0.00    -0.014 A 
BRANCH  28  29
ATOM     29  C   UNL A   1      40.530  28.702  30.699  1.00  0.00     0.031 A 
ATOM     30  C   UNL A   1      41.408  28.610  31.918  1.00  0.00     0.074 A 
ATOM     31  C   UNL A   1      39.553  29.630  30.639  1.00  0.00     0.049 A 
ATOM     32  N   UNL A   1      41.377  29.330  33.011  1.00  0.00    -0.248 NA
ATOM     33  C   UNL A   1      42.455  27.575  31.917  1.00  0.00     0.031 C 
ATOM     34  C   UNL A   1      38.639  29.814  29.508  1.00  0.00     0.029 A 
ATOM     35  N   UNL A   1      39.183  30.611  31.524  1.00  0.00    -0.354 N 
ATOM     36  C   UNL A   1      42.388  28.834  33.827  1.00  0.00     0.074 A 
ATOM     37  C   UNL A   1      42.988  27.723  33.123  1.00  0.00     0.031 C 
ATOM     38  C   UNL A   1      37.862  30.882  29.739  1.00  0.00     0.029 A 
ATOM     39  C   UNL A   1      38.170  31.417  31.059  1.00  0.00     0.049 A 
ATOM     40  H   UNL A   1      39.603  30.727  32.406  1.00  0.00     0.167 HD
ATOM     41  C   UNL A   1      42.790  29.279  35.042  1.00  0.00     0.037 A 
ATOM     42  C   UNL A   1      37.549  32.466  31.633  1.00  0.00     0.037 A 
ATOM     43  C   UNL A   1      42.194  30.397  35.728  1.00  0.00     0.049 A 
ATOM     44  C   UNL A   1      37.979  32.908  33.002  1.00  0.00     0.074 A 
ATOM     45  C   UNL A   1      42.540  30.934  36.956  1.00  0.00     0.029 A 
ATOM     46  N   UNL A   1      41.130  31.150  35.248  1.00  0.00    -0.354 N 
ATOM     47  N   UNL A   1      38.948  32.435  33.751  1.00  0.00    -0.248 NA
ATOM     48  C   UNL A   1      37.232  34.016  33.612  1.00  0.00     0.031 C 
ATOM     49  C   UNL A   1      41.654  31.977  37.242  1.00  0.00     0.029 A 
ATOM     50  C   UNL A   1      40.793  32.130  36.168  1.00  0.00     0.049 A 
ATOM     51  H   UNL A   1      40.683  31.008  34.383  1.00  0.00     0.167 HD
ATOM     52  C   UNL A   1      38.939  33.200  34.911  1.00  0.00     0.074 A 
ATOM     53  C   UNL A   1      37.878  34.175  34.760  1.00  0.00     0.031 C 
ATOM     54  C   UNL A   1      39.738  33.100  36.001  1.00  0.00     0.037 A 
BRANCH  41  55
ATOM     55  C   UNL A   1      43.925  28.557  35.719  1.00  0.00     0.058 A 
ATOM     56  C   UNL A   1      43.698  27.493  36.606  1.00  0.00     0.135 A 
ATOM     57  C   UNL A   1      45.258  28.890  35.428  1.00  0.00     0.135 A 
ATOM     58  F   UNL A   1      42.444  27.140  36.931  1.00  0.00    -0.206 F 
ATOM     59  C   UNL A   1      44.750  26.800  37.197  1.00  0.00     0.059 A 
ATOM     60  C   UNL A   1      46.327  28.192  35.986  1.00  0.00     0.059 A 
ATOM     61  F   UNL A   1      45.536  29.898  34.586  1.00  0.00    -0.206 F 
ATOM     62  C   UNL A   1      46.061  27.155  36.877  1.00  0.00     0.060 A 
BRANCH  62  63
ATOM     63  S   UNL A   1      47.410  26.235  37.647  1.00  0.00     0.124 S 
ATOM     64  O   UNL A   1      48.464  27.246  37.691  1.00  0.00    -0.237 OA
ATOM     65  O   UNL A   1      46.836  25.864  38.937  1.00  0.00    -0.237 OA
ATOM     66  O   UNL A   1      47.643  25.129  36.724  1.00  0.00    -0.744 OA
ENDBRANCH  62  63
ENDBRANCH  41  55
BRANCH  42  67
ATOM     67  C   UNL A   1      36.461  33.167  30.899  1.00  0.00     0.058 A 
ATOM     68  C   UNL A   1      35.123  33.040  31.295  1.00  0.00     0.135 A 
ATOM     69  C   UNL A   1      36.745  34.020  29.819  1.00  0.00     0.135 A 
ATOM     70  F   UNL A   1      34.799  32.233  32.317  1.00  0.00    -0.206 F 
ATOM     71  C   UNL A   1      34.102  33.732  30.649  1.00  0.00     0.059 A 
ATOM     72  C   UNL A   1      35.747  34.745  29.176  1.00  0.00     0.059 A 
ATOM     73  F   UNL A   1      38.012  34.188  29.410  1.00  0.00    -0.206 F 
ATOM     74  C   UNL A   1      34.427  34.590  29.595  1.00  0.00     0.060 A 
BRANCH  74  75
ATOM     75  S   UNL A   1      33.103  35.533  28.810  1.00  0.00     0.124 S 
ATOM     76  O   UNL A   1      33.856  36.542  28.074  1.00  0.00    -0.237 OA
ATOM     77  O   UNL A   1      32.442  34.513  28.003  1.00  0.00    -0.237 OA
ATOM     78  O   UNL A   1      32.325  36.028  29.941  1.00  0.00    -0.744 OA
ENDBRANCH  74  75
ENDBRANCH  42  67
BRANCH  54  79
ATOM     79  C   UNL A   1      39.523  34.081  37.120  1.00  0.00     0.058 A 
ATOM     80  C   UNL A   1      38.811  33.731  38.277  1.00  0.00     0.135 A 
ATOM     81  C   UNL A   1      40.124  35.350  37.076  1.00  0.00     0.135 A 
ATOM     82  F   UNL A   1      38.210  32.535  38.365  1.00  0.00    -0.206 F 
ATOM     83  C   UNL A   1      38.701  34.606  39.352  1.00  0.00     0.059 A 
ATOM     84  C   UNL A   1      40.050  36.230  38.151  1.00  0.00     0.059 A 
ATOM     85  F   UNL A   1      40.823  35.731  35.994  1.00  0.00    -0.206 F 
ATOM     86  C   UNL A   1      39.335  35.849  39.285  1.00  0.00     0.060 A 
BRANCH  86  87
ATOM     87  S   UNL A   1      39.243  36.941  40.719  1.00  0.00     0.124 S 
ATOM     88  O   UNL A   1      38.550  36.098  41.688  1.00  0.00    -0.237 OA
ATOM     89  O   UNL A   1      40.650  37.204  40.999  1.00  0.00    -0.237 OA
ATOM     90  O   UNL A   1      38.481  38.086  40.229  1.00  0.00    -0.744 OA
ENDBRANCH  86  87
ENDBRANCH  54  79
ENDBRANCH  28  29
ENDBRANCH   2  23
TORSDOF 13
ENDMDL
MODEL 2
REMARK VINA RESULT:     -12.1      5.381     11.449
REMARK SMILES C[C@@H]1Oc2c(C(=O)NCCCNC(=O)c3ccc(-c4c5nc(c(-c6c(F)cc(S(=O)(=O)[O-])cc6F)c6ccc([nH]6)c(-c6c(F)cc(S(=O)(=O)[O-])cc6F)c6nc(c(-c7c(F)cc(S(=O)(=O)[O-])cc7F)c7ccc4[nH]7)C=C6)C=C5)cc3)cccc2[C@@H]1C
REMARK SMILES IDX 12 1 13 2 14 3 11 5 10 6 9 7 8 8 6 9 7 10 5 12 1 13 2 14
REMARK SMILES IDX 3 15 85 16 4 17 84 18 86 19 83 20 81 21 82 22 15 23 16 24
REMARK SMILES IDX 80 25 17 26 79 27 18 28 19 29 20 30 73 31 21 32 78 33 72 34
REMARK SMILES IDX 74 35 22 36 77 37 71 38 70 39 23 41 57 42 36 43 56 44 37 45
REMARK SMILES IDX 40 46 55 47 75 48 38 49 39 50 54 52 76 53 41 54 24 55 25 56
REMARK SMILES IDX 34 57 26 58 27 59 33 60 35 61 28 62 29 63 30 64 31 65 32 66
REMARK SMILES IDX 58 67 59 68 68 69 60 70 61 71 67 72 69 73 62 74 63 75 64 76
REMARK SMILES IDX 65 77 66 78 42 79 43 80 52 81 44 82 45 83 51 84 53 85 46 86
REMARK SMILES IDX 47 87 48 88 49 89 50 90
REMARK H PARENT 12 4 8 11 74 40 40 51
REMARK Flexibility Score: inf
ROOT
ATOM      1  N   UNL A   1      33.864  31.091  28.046  1.00  0.00    -0.352 N 
ATOM      2  C   UNL A   1      34.471  29.861  27.960  1.00  0.00     0.251 C 
ATOM      3  O   UNL A   1      33.805  28.887  27.622  1.00  0.00    -0.269 OA
ATOM      4  H   UNL A   1      32.881  31.066  28.008  1.00  0.00     0.163 HD
ENDROOT
BRANCH   1   5
ATOM      5  C   UNL A   1      34.435  32.427  28.185  1.00  0.00     0.118 C 
BRANCH   5   6
ATOM      6  C   UNL A   1      34.722  32.778  29.643  1.00  0.00     0.042 C 
BRANCH   6   7
ATOM      7  C   UNL A   1      35.736  33.911  29.792  1.00  0.00     0.118 C 
BRANCH   7   8
ATOM      8  N   UNL A   1      35.583  34.575  31.071  1.00  0.00    -0.352 N 
ATOM      9  C   UNL A   1      35.995  34.298  32.352  1.00  0.00     0.255 C 
ATOM     10  O   UNL A   1      35.641  35.120  33.199  1.00  0.00    -0.269 OA
ATOM     11  H   UNL A   1      35.069  35.412  31.008  1.00  0.00     0.163 HD
BRANCH   9  12
ATOM     12  C   UNL A   1      36.847  33.126  32.731  1.00  0.00     0.082 A 
ATOM     13  C   UNL A   1      40.776  35.278  34.333  1.00  0.00     0.053 C 
ATOM     14  C   UNL A   1      40.225  34.262  33.339  1.00  0.00     0.177 C 
ATOM     15  O   UNL A   1      38.820  34.539  33.142  1.00  0.00    -0.489 OA
ATOM     16  C   UNL A   1      40.400  32.773  33.712  1.00  0.00     0.060 C 
ATOM     17  C   UNL A   1      38.197  33.322  33.030  1.00  0.00     0.136 A 
ATOM     18  C   UNL A   1      39.056  32.264  33.320  1.00  0.00     0.001 A 
ATOM     19  C   UNL A   1      40.680  32.462  35.179  1.00  0.00     0.017 C 
ATOM     20  C   UNL A   1      38.608  30.955  33.316  1.00  0.00     0.008 A 
ATOM     21  C   UNL A   1      36.384  31.806  32.834  1.00  0.00     0.018 A 
ATOM     22  C   UNL A   1      37.255  30.730  33.091  1.00  0.00     0.001 A 
ENDBRANCH   9  12
ENDBRANCH   7   8
ENDBRANCH   6   7
ENDBRANCH   5   6
ENDBRANCH   1   5
BRANCH   2  23
ATOM     23  C   UNL A   1      35.913  29.707  28.254  1.00  0.00     0.039 A 
ATOM     24  C   UNL A   1      36.877  29.961  27.278  1.00  0.00     0.014 A 
ATOM     25  C   UNL A   1      36.313  29.338  29.543  1.00  0.00     0.014 A 
ATOM     26  C   UNL A   1      38.214  29.680  27.535  1.00  0.00     0.010 A 
ATOM     27  C   UNL A   1      37.670  29.155  29.831  1.00  0.00     0.010 A 
ATOM     28  C   UNL A   1      38.630  29.282  28.816  1.00  0.00    -0.014 A 
BRANCH  28  29
ATOM     29  C   UNL A   1      40.074  29.023  29.062  1.00  0.00     0.031 A 
ATOM     30  C   UNL A   1      40.692  27.698  28.704  1.00  0.00     0.074 A 
ATOM     31  C   UNL A   1      40.843  30.017  29.550  1.00  0.00     0.049 A 
ATOM     32  N   UNL A   1      41.942  27.321  28.799  1.00  0.00    -0.248 NA
ATOM     33  C   UNL A   1      39.795  26.658  28.174  1.00  0.00     0.031 C 
ATOM     34  C   UNL A   1      40.354  31.345  29.933  1.00  0.00     0.029 A 
ATOM     35  N   UNL A   1      42.194  30.085  29.781  1.00  0.00    -0.354 N 
ATOM     36  C   UNL A   1      41.981  26.005  28.352  1.00  0.00     0.074 A 
ATOM     37  C   UNL A   1      40.623  25.632  28.025  1.00  0.00     0.031 C 
ATOM     38  C   UNL A   1      41.395  32.113  30.285  1.00  0.00     0.029 A 
ATOM     39  C   UNL A   1      42.616  31.317  30.223  1.00  0.00     0.049 A 
ATOM     40  H   UNL A   1      42.802  29.325  29.642  1.00  0.00     0.167 HD
ATOM     41  C   UNL A   1      43.055  25.191  28.209  1.00  0.00     0.037 A 
ATOM     42  C   UNL A   1      43.845  31.759  30.551  1.00  0.00     0.037 A 
ATOM     43  C   UNL A   1      44.407  25.579  28.524  1.00  0.00     0.049 A 
ATOM     44  C   UNL A   1      45.012  30.822  30.432  1.00  0.00     0.074 A 
ATOM     45  C   UNL A   1      45.565  24.831  28.400  1.00  0.00     0.029 A 
ATOM     46  N   UNL A   1      44.783  26.817  29.025  1.00  0.00    -0.354 N 
ATOM     47  N   UNL A   1      45.031  29.585  29.993  1.00  0.00    -0.248 NA
ATOM     48  C   UNL A   1      46.323  31.329  30.859  1.00  0.00     0.031 C 
ATOM     49  C   UNL A   1      46.633  25.597  28.873  1.00  0.00     0.029 A 
ATOM     50  C   UNL A   1      46.152  26.844  29.238  1.00  0.00     0.049 A 
ATOM     51  H   UNL A   1      44.169  27.565  29.202  1.00  0.00     0.167 HD
ATOM     52  C   UNL A   1      46.355  29.174  30.072  1.00  0.00     0.074 A 
ATOM     53  C   UNL A   1      47.111  30.297  30.590  1.00  0.00     0.031 C 
ATOM     54  C   UNL A   1      46.894  27.973  29.747  1.00  0.00     0.037 A 
BRANCH  41  55
ATOM     55  C   UNL A   1      42.821  23.796  27.695  1.00  0.00     0.058 A 
ATOM     56  C   UNL A   1      42.584  22.719  28.564  1.00  0.00     0.135 A 
ATOM     57  C   UNL A   1      42.769  23.542  26.314  1.00  0.00     0.135 A 
ATOM     58  F   UNL A   1      42.636  22.900  29.893  1.00  0.00    -0.206 F 
ATOM     59  C   UNL A   1      42.325  21.438  28.085  1.00  0.00     0.059 A 
ATOM     60  C   UNL A   1      42.483  22.275  25.811  1.00  0.00     0.059 A 
ATOM     61  F   UNL A   1      42.986  24.533  25.435  1.00  0.00    -0.206 F 
ATOM     62  C   UNL A   1      42.273  21.227  26.706  1.00  0.00     0.060 A 
BRANCH  62  63
ATOM     63  S   UNL A   1      41.926  19.561  26.106  1.00  0.00     0.124 S 
ATOM     64  O   UNL A   1      40.496  19.645  25.823  1.00  0.00    -0.237 OA
ATOM     65  O   UNL A   1      42.797  19.463  24.939  1.00  0.00    -0.237 OA
ATOM     66  O   UNL A   1      42.292  18.708  27.232  1.00  0.00    -0.744 OA
ENDBRANCH  62  63
ENDBRANCH  41  55
BRANCH  42  67
ATOM     67  C   UNL A   1      44.022  33.162  31.014  1.00  0.00     0.058 A 
ATOM     68  C   UNL A   1      44.283  34.197  30.105  1.00  0.00     0.135 A 
ATOM     69  C   UNL A   1      43.881  33.503  32.369  1.00  0.00     0.135 A 
ATOM     70  F   UNL A   1      44.433  33.921  28.800  1.00  0.00    -0.206 F 
ATOM     71  C   UNL A   1      44.399  35.520  30.520  1.00  0.00     0.059 A 
ATOM     72  C   UNL A   1      43.964  34.821  32.805  1.00  0.00     0.059 A 
ATOM     73  F   UNL A   1      43.616  32.553  33.278  1.00  0.00    -0.206 F 
ATOM     74  C   UNL A   1      44.228  35.823  31.873  1.00  0.00     0.060 A 
BRANCH  74  75
ATOM     75  S   UNL A   1      44.314  37.551  32.388  1.00  0.00     0.124 S 
ATOM     76  O   UNL A   1      43.894  38.242  31.174  1.00  0.00    -0.237 OA
ATOM     77  O   UNL A   1      43.371  37.584  33.501  1.00  0.00    -0.237 OA
ATOM     78  O   UNL A   1      45.716  37.723  32.758  1.00  0.00    -0.744 OA
ENDBRANCH  74  75
ENDBRANCH  42  67
BRANCH  54  79
ATOM     79  C   UNL A   1      48.378  27.802  29.914  1.00  0.00     0.058 A 
ATOM     80  C   UNL A   1      48.927  27.236  31.074  1.00  0.00     0.135 A 
ATOM     81  C   UNL A   1      49.251  28.114  28.859  1.00  0.00     0.135 A 
ATOM     82  F   UNL A   1      48.137  26.929  32.115  1.00  0.00    -0.206 F 
ATOM     83  C   UNL A   1      50.290  26.986  31.183  1.00  0.00     0.059 A 
ATOM     84  C   UNL A   1      50.614  27.847  28.936  1.00  0.00     0.059 A 
ATOM     85  F   UNL A   1      48.775  28.651  27.723  1.00  0.00    -0.206 F 
ATOM     86  C   UNL A   1      51.124  27.283  30.103  1.00  0.00     0.060 A 
BRANCH  86  87
ATOM     87  S   UNL A   1      52.879  26.883  30.236  1.00  0.00     0.124 S 
ATOM     88  O   UNL A   1      53.458  28.188  30.537  1.00  0.00    -0.237 OA
ATOM     89  O   UNL A   1      52.894  25.915  31.328  1.00  0.00    -0.237 OA
ATOM     90  O   UNL A   1      53.207  26.341  28.920  1.00  0.00    -0.744 OA
ENDBRANCH  86  87
ENDBRANCH  54  79
ENDBRANCH  28  29
ENDBRANCH   2  23
TORSDOF 13
ENDMDL
MODEL 3
REMARK VINA RESULT:     -12.1      4.035     11.191
REMARK SMILES C[C@@H]1Oc2c(C(=O)NCCCNC(=O)c3ccc(-c4c5nc(c(-c6c(F)cc(S(=O)(=O)[O-])cc6F)c6ccc([nH]6)c(-c6c(F)cc(S(=O)(=O)[O-])cc6F)c6nc(c(-c7c(F)cc(S(=O)(=O)[O-])cc7F)c7ccc4[nH]7)C=C6)C=C5)cc3)cccc2[C@@H]1C
REMARK SMILES IDX 12 1 13 2 14 3 11 5 10 6 9 7 8 8 6 9 7 10 5 12 1 13 2 14
REMARK SMILES IDX 3 15 85 16 4 17 84 18 86 19 83 20 81 21 82 22 15 23 16 24
REMARK SMILES IDX 80 25 17 26 79 27 18 28 19 29 20 30 73 31 21 32 78 33 72 34
REMARK SMILES IDX 74 35 22 36 77 37 71 38 70 39 23 41 57 42 36 43 56 44 37 45
REMARK SMILES IDX 40 46 55 47 75 48 38 49 39 50 54 52 76 53 41 54 24 55 25 56
REMARK SMILES IDX 34 57 26 58 27 59 33 60 35 61 28 62 29 63 30 64 31 65 32 66
REMARK SMILES IDX 58 67 59 68 68 69 60 70 61 71 67 72 69 73 62 74 63 75 64 76
REMARK SMILES IDX 65 77 66 78 42 79 43 80 52 81 44 82 45 83 51 84 53 85 46 86
REMARK SMILES IDX 47 87 48 88 49 89 50 90
REMARK H PARENT 12 4 8 11 74 40 40 51
REMARK Flexibility Score: inf
ROOT
ATOM      1  N   UNL A   1      33.661  31.322  27.634  1.00  0.00    -0.352 N 
ATOM      2  C   UNL A   1      34.380  30.240  27.186  1.00  0.00     0.251 C 
ATOM      3  O   UNL A   1      33.932  29.564  26.265  1.00  0.00    -0.269 OA
ATOM      4  H   UNL A   1      32.735  31.366  27.302  1.00  0.00     0.163 HD
ENDROOT
BRANCH   1   5
ATOM      5  C   UNL A   1      34.041  32.416  28.523  1.00  0.00     0.118 C 
BRANCH   5   6
ATOM      6  C   UNL A   1      35.137  33.290  27.919  1.00  0.00     0.042 C 
BRANCH   6   7
ATOM      7  C   UNL A   1      35.172  34.696  28.517  1.00  0.00     0.118 C 
BRANCH   7   8
ATOM      8  N   UNL A   1      33.857  35.306  28.475  1.00  0.00    -0.352 N 
ATOM      9  C   UNL A   1      33.063  35.939  29.399  1.00  0.00     0.255 C 
ATOM     10  O   UNL A   1      31.969  36.315  28.972  1.00  0.00    -0.269 OA
ATOM     11  H   UNL A   1      33.441  35.256  27.584  1.00  0.00     0.163 HD
BRANCH   9  12
ATOM     12  C   UNL A   1      33.468  36.216  30.814  1.00  0.00     0.082 A 
ATOM     13  C   UNL A   1      35.452  32.077  32.068  1.00  0.00     0.053 C 
ATOM     14  C   UNL A   1      34.383  33.106  32.417  1.00  0.00     0.177 C 
ATOM     15  O   UNL A   1      34.083  33.868  31.225  1.00  0.00    -0.489 OA
ATOM     16  C   UNL A   1      34.718  34.079  33.568  1.00  0.00     0.060 C 
ATOM     17  C   UNL A   1      33.881  35.162  31.633  1.00  0.00     0.136 A 
ATOM     18  C   UNL A   1      34.203  35.346  32.976  1.00  0.00     0.001 A 
ATOM     19  C   UNL A   1      36.192  34.225  33.935  1.00  0.00     0.017 C 
ATOM     20  C   UNL A   1      34.120  36.593  33.569  1.00  0.00     0.008 A 
ATOM     21  C   UNL A   1      33.489  37.490  31.401  1.00  0.00     0.018 A 
ATOM     22  C   UNL A   1      33.779  37.675  32.766  1.00  0.00     0.001 A 
ENDBRANCH   9  12
ENDBRANCH   7   8
ENDBRANCH   6   7
ENDBRANCH   5   6
ENDBRANCH   1   5
BRANCH   2  23
ATOM     23  C   UNL A   1      35.687  29.898  27.789  1.00  0.00     0.039 A 
ATOM     24  C   UNL A   1      35.768  29.370  29.078  1.00  0.00     0.014 A 
ATOM     25  C   UNL A   1      36.854  30.074  27.038  1.00  0.00     0.014 A 
ATOM     26  C   UNL A   1      37.009  29.184  29.674  1.00  0.00     0.010 A 
ATOM     27  C   UNL A   1      38.101  29.788  27.604  1.00  0.00     0.010 A 
ATOM     28  C   UNL A   1      38.193  29.382  28.943  1.00  0.00    -0.014 A 
BRANCH  28  29
ATOM     29  C   UNL A   1      39.503  29.140  29.606  1.00  0.00     0.031 A 
ATOM     30  C   UNL A   1      39.887  29.890  30.853  1.00  0.00     0.074 A 
ATOM     31  C   UNL A   1      40.319  28.188  29.111  1.00  0.00     0.049 A 
ATOM     32  N   UNL A   1      40.962  29.767  31.589  1.00  0.00    -0.248 NA
ATOM     33  C   UNL A   1      38.948  30.915  31.339  1.00  0.00     0.031 C 
ATOM     34  C   UNL A   1      40.052  27.395  27.908  1.00  0.00     0.029 A 
ATOM     35  N   UNL A   1      41.518  27.700  29.567  1.00  0.00    -0.354 N 
ATOM     36  C   UNL A   1      40.835  30.697  32.614  1.00  0.00     0.074 A 
ATOM     37  C   UNL A   1      39.598  31.409  32.384  1.00  0.00     0.031 C 
ATOM     38  C   UNL A   1      41.020  26.479  27.760  1.00  0.00     0.029 A 
ATOM     39  C   UNL A   1      42.013  26.662  28.812  1.00  0.00     0.049 A 
ATOM     40  H   UNL A   1      41.980  28.059  30.358  1.00  0.00     0.167 HD
ATOM     41  C   UNL A   1      41.665  30.921  33.661  1.00  0.00     0.037 A 
ATOM     42  C   UNL A   1      43.143  25.941  28.943  1.00  0.00     0.037 A 
ATOM     43  C   UNL A   1      42.889  30.194  33.890  1.00  0.00     0.049 A 
ATOM     44  C   UNL A   1      44.071  26.243  30.084  1.00  0.00     0.074 A 
ATOM     45  C   UNL A   1      43.790  30.337  34.930  1.00  0.00     0.029 A 
ATOM     46  N   UNL A   1      43.383  29.190  33.068  1.00  0.00    -0.354 N 
ATOM     47  N   UNL A   1      43.926  27.117  31.052  1.00  0.00    -0.248 NA
ATOM     48  C   UNL A   1      45.320  25.472  30.151  1.00  0.00     0.031 C 
ATOM     49  C   UNL A   1      44.854  29.458  34.711  1.00  0.00     0.029 A 
ATOM     50  C   UNL A   1      44.588  28.723  33.566  1.00  0.00     0.049 A 
ATOM     51  H   UNL A   1      42.941  28.859  32.253  1.00  0.00     0.167 HD
ATOM     52  C   UNL A   1      45.054  26.988  31.853  1.00  0.00     0.074 A 
ATOM     53  C   UNL A   1      45.867  25.943  31.264  1.00  0.00     0.031 C 
ATOM     54  C   UNL A   1      45.384  27.676  32.973  1.00  0.00     0.037 A 
BRANCH  41  55
ATOM     55  C   UNL A   1      41.289  31.998  34.644  1.00  0.00     0.058 A 
ATOM     56  C   UNL A   1      41.710  33.327  34.479  1.00  0.00     0.135 A 
ATOM     57  C   UNL A   1      40.443  31.713  35.729  1.00  0.00     0.135 A 
ATOM     58  F   UNL A   1      42.531  33.655  33.468  1.00  0.00    -0.206 F 
ATOM     59  C   UNL A   1      41.326  34.329  35.364  1.00  0.00     0.059 A 
ATOM     60  C   UNL A   1      40.022  32.705  36.611  1.00  0.00     0.059 A 
ATOM     61  F   UNL A   1      40.007  30.460  35.936  1.00  0.00    -0.206 F 
ATOM     62  C   UNL A   1      40.477  34.008  36.426  1.00  0.00     0.060 A 
BRANCH  62  63
ATOM     63  S   UNL A   1      39.983  35.326  37.556  1.00  0.00     0.124 S 
ATOM     64  O   UNL A   1      41.112  35.355  38.482  1.00  0.00    -0.237 OA
ATOM     65  O   UNL A   1      39.867  36.474  36.663  1.00  0.00    -0.237 OA
ATOM     66  O   UNL A   1      38.725  34.841  38.118  1.00  0.00    -0.744 OA
ENDBRANCH  62  63
ENDBRANCH  41  55
BRANCH  42  67
ATOM     67  C   UNL A   1      43.443  24.860  27.965  1.00  0.00     0.058 A 
ATOM     68  C   UNL A   1      44.169  25.124  26.796  1.00  0.00     0.135 A 
ATOM     69  C   UNL A   1      43.054  23.532  28.208  1.00  0.00     0.135 A 
ATOM     70  F   UNL A   1      44.557  26.377  26.516  1.00  0.00    -0.206 F 
ATOM     71  C   UNL A   1      44.500  24.112  25.900  1.00  0.00     0.059 A 
ATOM     72  C   UNL A   1      43.398  22.499  27.343  1.00  0.00     0.059 A 
ATOM     73  F   UNL A   1      42.370  23.224  29.321  1.00  0.00    -0.206 F 
ATOM     74  C   UNL A   1      44.118  22.800  26.188  1.00  0.00     0.060 A 
BRANCH  74  75
ATOM     75  S   UNL A   1      44.612  21.487  25.052  1.00  0.00     0.124 S 
ATOM     76  O   UNL A   1      43.625  20.455  25.347  1.00  0.00    -0.237 OA
ATOM     77  O   UNL A   1      44.483  22.143  23.755  1.00  0.00    -0.237 OA
ATOM     78  O   UNL A   1      45.981  21.185  25.460  1.00  0.00    -0.744 OA
ENDBRANCH  74  75
ENDBRANCH  42  67
BRANCH  54  79
ATOM     79  C   UNL A   1      46.671  27.315  33.664  1.00  0.00     0.058 A 
ATOM     80  C   UNL A   1      46.731  26.283  34.612  1.00  0.00     0.135 A 
ATOM     81  C   UNL A   1      47.873  27.942  33.296  1.00  0.00     0.135 A 
ATOM     82  F   UNL A   1      45.610  25.660  35.004  1.00  0.00    -0.206 F 
ATOM     83  C   UNL A   1      47.940  25.886  35.173  1.00  0.00     0.059 A 
ATOM     84  C   UNL A   1      49.096  27.541  33.824  1.00  0.00     0.059 A 
ATOM     85  F   UNL A   1      47.870  28.931  32.386  1.00  0.00    -0.206 F 
ATOM     86  C   UNL A   1      49.118  26.512  34.763  1.00  0.00     0.060 A 
BRANCH  86  87
ATOM     87  S   UNL A   1      50.685  25.932  35.448  1.00  0.00     0.124 S 
ATOM     88  O   UNL A   1      51.431  27.179  35.578  1.00  0.00    -0.237 OA
ATOM     89  O   UNL A   1      50.264  25.311  36.699  1.00  0.00    -0.237 OA
ATOM     90  O   UNL A   1      51.181  25.009  34.431  1.00  0.00    -0.744 OA
ENDBRANCH  86  87
ENDBRANCH  54  79
ENDBRANCH  28  29
ENDBRANCH   2  23
TORSDOF 13
ENDMDL
