MODEL 1
REMARK VINA RESULT:      -9.9      0.000      0.000
REMARK SMILES C[C@H](O)[C@H](C)[NH2+]C1(C(=O)NCCCNC(=O)c2ccc(-c3c4nc(c(-c5c(F)cc(S(=O)(=O)[O-])cc5F)c5ccc([nH]5)c(-c5c(F)cc(S(=O)(=O)[O-])cc5F)c5nc(c(-c6c(F)cc(S(=O)(=O)[O-])cc6F)c6ccc3[nH]6)C=C5)C=C4)cc2)CC1
REMARK SMILES IDX 11 1 10 2 8 3 9 4 7 6 83 7 84 8 6 9 4 12 5 13 2 14 1 15 3 16
REMARK SMILES IDX 12 18 13 19 14 20 15 21 16 23 17 24 18 25 82 26 19 27 81 28
REMARK SMILES IDX 20 29 21 30 22 31 75 32 23 33 80 34 74 35 76 36 24 37 79 38
REMARK SMILES IDX 73 39 72 40 25 42 59 43 38 44 58 45 39 46 42 47 57 48 77 49
REMARK SMILES IDX 40 50 41 51 56 53 78 54 43 55 26 56 27 57 36 58 28 59 29 60
REMARK SMILES IDX 35 61 37 62 30 63 31 64 32 65 33 66 34 67 60 68 61 69 70 70
REMARK SMILES IDX 62 71 63 72 69 73 71 74 64 75 65 76 66 77 67 78 68 79 44 80
REMARK SMILES IDX 45 81 54 82 46 83 47 84 53 85 55 86 48 87 49 88 50 89 51 90
REMARK SMILES IDX 52 91
REMARK H PARENT 10 5 6 10 6 11 3 17 14 22 76 41 42 52
REMARK Flexibility Score: inf
ROOT
ATOM      1  C   UNL A   1      46.018  23.252  25.997  1.00  0.00     0.118 C 
ENDROOT
BRANCH   1   2
ATOM      2  N   UNL A   1      45.361  22.932  24.746  1.00  0.00    -0.351 N 
ATOM      3  C   UNL A   1      44.941  21.769  24.164  1.00  0.00     0.281 C 
ATOM      4  O   UNL A   1      44.482  21.867  23.020  1.00  0.00    -0.268 OA
ATOM      5  H   UNL A   1      45.177  23.726  24.193  1.00  0.00     0.163 HD
BRANCH   3   6
ATOM      6  C   UNL A   1      44.907  20.397  24.839  1.00  0.00     0.176 C 
ATOM      7  C   UNL A   1      46.228  19.664  25.034  1.00  0.00     0.086 C 
ATOM      8  C   UNL A   1      45.169  19.076  24.156  1.00  0.00     0.086 C 
BRANCH   6   9
ATOM      9  N   UNL A   1      44.059  20.461  26.074  1.00  0.00    -0.329 N 
ATOM     10  H   UNL A   1      44.264  19.627  26.624  1.00  0.00     0.347 HD
ATOM     11  H   UNL A   1      44.306  21.354  26.500  1.00  0.00     0.347 HD
BRANCH   9  12
ATOM     12  C   UNL A   1      42.595  20.529  25.920  1.00  0.00     0.208 C 
ATOM     13  C   UNL A   1      42.074  19.556  26.996  1.00  0.00     0.078 C 
BRANCH  12  14
ATOM     14  C   UNL A   1      41.924  21.928  26.098  1.00  0.00     0.169 C 
ATOM     15  C   UNL A   1      40.397  21.833  26.228  1.00  0.00     0.045 C 
BRANCH  14  16
ATOM     16  O   UNL A   1      42.183  22.807  24.999  1.00  0.00    -0.387 OA
ATOM     17  H   UNL A   1      42.589  23.624  25.328  1.00  0.00     0.211 HD
ENDBRANCH  14  16
ENDBRANCH  12  14
ENDBRANCH   9  12
ENDBRANCH   6   9
ENDBRANCH   3   6
ENDBRANCH   1   2
BRANCH   1  18
ATOM     18  C   UNL A   1      45.174  24.200  26.840  1.00  0.00     0.042 C 
BRANCH  18  19
ATOM     19  C   UNL A   1      44.906  25.542  26.165  1.00  0.00     0.118 C 
BRANCH  19  20
ATOM     20  N   UNL A   1      43.669  25.540  25.390  1.00  0.00    -0.352 N 
ATOM     21  C   UNL A   1      42.412  25.966  25.731  1.00  0.00     0.251 C 
ATOM     22  H   UNL A   1      43.752  25.176  24.479  1.00  0.00     0.163 HD
ATOM     23  O   UNL A   1      41.458  25.667  25.012  1.00  0.00    -0.269 OA
BRANCH  21  24
ATOM     24  C   UNL A   1      42.195  26.767  26.953  1.00  0.00     0.039 A 
ATOM     25  C   UNL A   1      42.764  28.040  27.041  1.00  0.00     0.014 A 
ATOM     26  C   UNL A   1      41.459  26.254  28.025  1.00  0.00     0.014 A 
ATOM     27  C   UNL A   1      42.544  28.820  28.180  1.00  0.00     0.010 A 
ATOM     28  C   UNL A   1      41.170  27.063  29.119  1.00  0.00     0.010 A 
ATOM     29  C   UNL A   1      41.719  28.351  29.214  1.00  0.00    -0.014 A 
BRANCH  29  30
ATOM     30  C   UNL A   1      41.427  29.183  30.410  1.00  0.00     0.031 A 
ATOM     31  C   UNL A   1      42.260  29.031  31.655  1.00  0.00     0.074 A 
ATOM     32  C   UNL A   1      40.376  30.025  30.397  1.00  0.00     0.049 A 
ATOM     33  N   UNL A   1      42.118  29.609  32.820  1.00  0.00    -0.248 NA
ATOM     34  C   UNL A   1      43.384  28.082  31.591  1.00  0.00     0.031 C 
ATOM     35  C   UNL A   1      39.466  30.226  29.266  1.00  0.00     0.029 A 
ATOM     36  N   UNL A   1      39.886  30.863  31.367  1.00  0.00    -0.354 N 
ATOM     37  C   UNL A   1      43.120  29.084  33.629  1.00  0.00     0.074 A 
ATOM     38  C   UNL A   1      43.827  28.100  32.839  1.00  0.00     0.031 C 
ATOM     39  C   UNL A   1      38.544  31.143  29.600  1.00  0.00     0.029 A 
ATOM     40  C   UNL A   1      38.769  31.566  30.979  1.00  0.00     0.049 A 
ATOM     41  H   UNL A   1      40.295  30.953  32.258  1.00  0.00     0.167 HD
ATOM     42  C   UNL A   1      43.438  29.411  34.904  1.00  0.00     0.037 A 
ATOM     43  C   UNL A   1      38.007  32.444  31.659  1.00  0.00     0.037 A 
ATOM     44  C   UNL A   1      42.742  30.409  35.675  1.00  0.00     0.049 A 
ATOM     45  C   UNL A   1      38.377  32.789  33.077  1.00  0.00     0.074 A 
ATOM     46  C   UNL A   1      43.018  30.853  36.956  1.00  0.00     0.029 A 
ATOM     47  N   UNL A   1      41.630  31.115  35.239  1.00  0.00    -0.354 N 
ATOM     48  N   UNL A   1      39.365  32.328  33.806  1.00  0.00    -0.248 NA
ATOM     49  C   UNL A   1      37.534  33.779  33.761  1.00  0.00     0.031 C 
ATOM     50  C   UNL A   1      42.043  31.791  37.313  1.00  0.00     0.029 A 
ATOM     51  C   UNL A   1      41.196  31.977  36.232  1.00  0.00     0.049 A 
ATOM     52  H   UNL A   1      41.211  31.019  34.353  1.00  0.00     0.167 HD
ATOM     53  C   UNL A   1      39.283  32.997  35.023  1.00  0.00     0.074 A 
ATOM     54  C   UNL A   1      38.155  33.900  34.927  1.00  0.00     0.031 C 
ATOM     55  C   UNL A   1      40.075  32.878  36.119  1.00  0.00     0.037 A 
BRANCH  42  56
ATOM     56  C   UNL A   1      44.589  28.681  35.546  1.00  0.00     0.058 A 
ATOM     57  C   UNL A   1      44.401  27.487  36.261  1.00  0.00     0.135 A 
ATOM     58  C   UNL A   1      45.900  29.166  35.420  1.00  0.00     0.135 A 
ATOM     59  F   UNL A   1      43.166  26.984  36.426  1.00  0.00    -0.206 F 
ATOM     60  C   UNL A   1      45.465  26.821  36.859  1.00  0.00     0.059 A 
ATOM     61  C   UNL A   1      46.985  28.498  35.983  1.00  0.00     0.059 A 
ATOM     62  F   UNL A   1      46.140  30.302  34.746  1.00  0.00    -0.206 F 
ATOM     63  C   UNL A   1      46.754  27.335  36.715  1.00  0.00     0.060 A 
BRANCH  63  64
ATOM     64  S   UNL A   1      48.124  26.457  37.498  1.00  0.00     0.124 S 
ATOM     65  O   UNL A   1      49.251  26.882  36.673  1.00  0.00    -0.237 OA
ATOM     66  O   UNL A   1      48.098  26.988  38.856  1.00  0.00    -0.237 OA
ATOM     67  O   UNL A   1      47.748  25.053  37.369  1.00  0.00    -0.744 OA
ENDBRANCH  63  64
ENDBRANCH  42  56
BRANCH  43  68
ATOM     68  C   UNL A   1      36.832  33.075  30.998  1.00  0.00     0.058 A 
ATOM     69  C   UNL A   1      35.524  32.714  31.353  1.00  0.00     0.135 A 
ATOM     70  C   UNL A   1      36.993  34.062  30.012  1.00  0.00     0.135 A 
ATOM     71  F   UNL A   1      35.318  31.771  32.285  1.00  0.00    -0.206 F 
ATOM     72  C   UNL A   1      34.416  33.297  30.744  1.00  0.00     0.059 A 
ATOM     73  C   UNL A   1      35.901  34.680  29.410  1.00  0.00     0.059 A 
ATOM     74  F   UNL A   1      38.224  34.457  29.649  1.00  0.00    -0.206 F 
ATOM     75  C   UNL A   1      34.616  34.283  29.776  1.00  0.00     0.060 A 
BRANCH  75  76
ATOM     76  S   UNL A   1      33.171  35.069  29.032  1.00  0.00     0.124 S 
ATOM     77  O   UNL A   1      33.735  36.325  28.549  1.00  0.00    -0.237 OA
ATOM     78  O   UNL A   1      32.792  34.103  28.005  1.00  0.00    -0.237 OA
ATOM     79  O   UNL A   1      32.238  35.183  30.149  1.00  0.00    -0.744 OA
ENDBRANCH  75  76
ENDBRANCH  43  68
BRANCH  55  80
ATOM     80  C   UNL A   1      39.781  33.778  37.288  1.00  0.00     0.058 A 
ATOM     81  C   UNL A   1      38.906  33.398  38.317  1.00  0.00     0.135 A 
ATOM     82  C   UNL A   1      40.429  35.019  37.405  1.00  0.00     0.135 A 
ATOM     83  F   UNL A   1      38.255  32.224  38.253  1.00  0.00    -0.206 F 
ATOM     84  C   UNL A   1      38.661  34.228  39.407  1.00  0.00     0.059 A 
ATOM     85  C   UNL A   1      40.224  35.851  38.500  1.00  0.00     0.059 A 
ATOM     86  F   UNL A   1      41.286  35.427  36.455  1.00  0.00    -0.206 F 
ATOM     87  C   UNL A   1      39.327  35.452  39.490  1.00  0.00     0.060 A 
BRANCH  87  88
ATOM     88  S   UNL A   1      39.025  36.506  40.925  1.00  0.00     0.124 S 
ATOM     89  O   UNL A   1      40.367  36.637  41.481  1.00  0.00    -0.237 OA
ATOM     90  O   UNL A   1      38.472  37.711  40.315  1.00  0.00    -0.237 OA
ATOM     91  O   UNL A   1      38.086  35.729  41.728  1.00  0.00    -0.744 OA
ENDBRANCH  87  88
ENDBRANCH  55  80
ENDBRANCH  29  30
ENDBRANCH  21  24
ENDBRANCH  19  20
ENDBRANCH  18  19
ENDBRANCH   1  18
TORSDOF 17
ENDMDL
MODEL 2
REMARK VINA RESULT:      -9.7      3.340     11.835
REMARK SMILES C[C@H](O)[C@H](C)[NH2+]C1(C(=O)NCCCNC(=O)c2ccc(-c3c4nc(c(-c5c(F)cc(S(=O)(=O)[O-])cc5F)c5ccc([nH]5)c(-c5c(F)cc(S(=O)(=O)[O-])cc5F)c5nc(c(-c6c(F)cc(S(=O)(=O)[O-])cc6F)c6ccc3[nH]6)C=C5)C=C4)cc2)CC1
REMARK SMILES IDX 11 1 10 2 8 3 9 4 7 6 83 7 84 8 6 9 4 12 5 13 2 14 1 15 3 16
REMARK SMILES IDX 12 18 13 19 14 20 15 21 16 23 17 24 18 25 82 26 19 27 81 28
REMARK SMILES IDX 20 29 21 30 22 31 75 32 23 33 80 34 74 35 76 36 24 37 79 38
REMARK SMILES IDX 73 39 72 40 25 42 59 43 38 44 58 45 39 46 42 47 57 48 77 49
REMARK SMILES IDX 40 50 41 51 56 53 78 54 43 55 26 56 27 57 36 58 28 59 29 60
REMARK SMILES IDX 35 61 37 62 30 63 31 64 32 65 33 66 34 67 60 68 61 69 70 70
REMARK SMILES IDX 62 71 63 72 69 73 71 74 64 75 65 76 66 77 67 78 68 79 44 80
REMARK SMILES IDX 45 81 54 82 46 83 47 84 53 85 55 86 48 87 49 88 50 89 51 90
REMARK SMILES IDX 52 91
REMARK H PARENT 10 5 6 10 6 11 3 17 14 22 76 41 42 52
REMARK Flexibility Score: inf
ROOT
ATOM      1  C   UNL A   1      34.850  32.541  30.389  1.00  0.00     0.118 C 
ENDROOT
BRANCH   1   2
ATOM      2  N   UNL A   1      36.197  33.017  30.631  1.00  0.00    -0.351 N 
ATOM      3  C   UNL A   1      36.764  33.822  31.578  1.00  0.00     0.281 C 
ATOM      4  O   UNL A   1      37.961  34.088  31.422  1.00  0.00    -0.268 OA
ATOM      5  H   UNL A   1      36.846  32.689  29.967  1.00  0.00     0.163 HD
BRANCH   3   6
ATOM      6  C   UNL A   1      36.072  34.333  32.843  1.00  0.00     0.176 C 
ATOM      7  C   UNL A   1      36.807  34.189  34.169  1.00  0.00     0.086 C 
ATOM      8  C   UNL A   1      35.514  33.470  33.949  1.00  0.00     0.086 C 
BRANCH   6   9
ATOM      9  N   UNL A   1      35.523  35.707  32.599  1.00  0.00    -0.329 N 
ATOM     10  H   UNL A   1      36.111  36.362  33.114  1.00  0.00     0.347 HD
ATOM     11  H   UNL A   1      35.528  35.800  31.583  1.00  0.00     0.347 HD
BRANCH   9  12
ATOM     12  C   UNL A   1      34.126  35.985  32.979  1.00  0.00     0.208 C 
ATOM     13  C   UNL A   1      34.026  37.521  32.882  1.00  0.00     0.078 C 
BRANCH  12  14
ATOM     14  C   UNL A   1      33.007  35.324  32.114  1.00  0.00     0.169 C 
ATOM     15  C   UNL A   1      32.550  36.226  30.959  1.00  0.00     0.045 C 
BRANCH  14  16
ATOM     16  O   UNL A   1      31.835  35.013  32.874  1.00  0.00    -0.387 OA
ATOM     17  H   UNL A   1      31.711  35.684  33.565  1.00  0.00     0.211 HD
ENDBRANCH  14  16
ENDBRANCH  12  14
ENDBRANCH   9  12
ENDBRANCH   6   9
ENDBRANCH   3   6
ENDBRANCH   1   2
BRANCH   1  18
ATOM     18  C   UNL A   1      34.209  33.265  29.211  1.00  0.00     0.042 C 
BRANCH  18  19
ATOM     19  C   UNL A   1      34.748  32.820  27.855  1.00  0.00     0.118 C 
BRANCH  19  20
ATOM     20  N   UNL A   1      34.074  31.628  27.350  1.00  0.00    -0.352 N 
ATOM     21  C   UNL A   1      34.521  30.336  27.250  1.00  0.00     0.251 C 
ATOM     22  H   UNL A   1      33.155  31.776  27.032  1.00  0.00     0.163 HD
ATOM     23  O   UNL A   1      33.875  29.525  26.585  1.00  0.00    -0.269 OA
BRANCH  21  24
ATOM     24  C   UNL A   1      35.768  29.917  27.921  1.00  0.00     0.039 A 
ATOM     25  C   UNL A   1      36.985  30.073  27.252  1.00  0.00     0.014 A 
ATOM     26  C   UNL A   1      35.738  29.343  29.195  1.00  0.00     0.014 A 
ATOM     27  C   UNL A   1      38.176  29.707  27.886  1.00  0.00     0.010 A 
ATOM     28  C   UNL A   1      36.929  29.060  29.857  1.00  0.00     0.010 A 
ATOM     29  C   UNL A   1      38.160  29.228  29.206  1.00  0.00    -0.014 A 
BRANCH  29  30
ATOM     30  C   UNL A   1      39.416  28.883  29.920  1.00  0.00     0.031 A 
ATOM     31  C   UNL A   1      39.818  29.648  31.152  1.00  0.00     0.074 A 
ATOM     32  C   UNL A   1      40.226  27.928  29.421  1.00  0.00     0.049 A 
ATOM     33  N   UNL A   1      40.909  29.548  31.869  1.00  0.00    -0.248 NA
ATOM     34  C   UNL A   1      38.885  30.683  31.626  1.00  0.00     0.031 C 
ATOM     35  C   UNL A   1      39.968  27.148  28.208  1.00  0.00     0.029 A 
ATOM     36  N   UNL A   1      41.435  27.455  29.867  1.00  0.00    -0.354 N 
ATOM     37  C   UNL A   1      40.799  30.513  32.864  1.00  0.00     0.074 A 
ATOM     38  C   UNL A   1      39.564  31.226  32.624  1.00  0.00     0.031 C 
ATOM     39  C   UNL A   1      40.976  26.282  28.018  1.00  0.00     0.029 A 
ATOM     40  C   UNL A   1      41.971  26.470  29.070  1.00  0.00     0.049 A 
ATOM     41  H   UNL A   1      41.878  27.790  30.680  1.00  0.00     0.167 HD
ATOM     42  C   UNL A   1      41.638  30.765  33.896  1.00  0.00     0.037 A 
ATOM     43  C   UNL A   1      43.136  25.801  29.169  1.00  0.00     0.037 A 
ATOM     44  C   UNL A   1      42.855  30.034  34.138  1.00  0.00     0.049 A 
ATOM     45  C   UNL A   1      44.055  26.100  30.323  1.00  0.00     0.074 A 
ATOM     46  C   UNL A   1      43.749  30.174  35.186  1.00  0.00     0.029 A 
ATOM     47  N   UNL A   1      43.353  29.028  33.322  1.00  0.00    -0.354 N 
ATOM     48  N   UNL A   1      43.906  26.974  31.290  1.00  0.00    -0.248 NA
ATOM     49  C   UNL A   1      45.295  25.317  30.405  1.00  0.00     0.031 C 
ATOM     50  C   UNL A   1      44.811  29.288  34.976  1.00  0.00     0.029 A 
ATOM     51  C   UNL A   1      44.550  28.553  33.831  1.00  0.00     0.049 A 
ATOM     52  H   UNL A   1      42.918  28.699  32.502  1.00  0.00     0.167 HD
ATOM     53  C   UNL A   1      45.017  26.822  32.114  1.00  0.00     0.074 A 
ATOM     54  C   UNL A   1      45.823  25.767  31.536  1.00  0.00     0.031 C 
ATOM     55  C   UNL A   1      45.338  27.493  33.249  1.00  0.00     0.037 A 
BRANCH  42  56
ATOM     56  C   UNL A   1      41.269  31.878  34.841  1.00  0.00     0.058 A 
ATOM     57  C   UNL A   1      40.469  31.651  35.974  1.00  0.00     0.135 A 
ATOM     58  C   UNL A   1      41.744  33.182  34.630  1.00  0.00     0.135 A 
ATOM     59  F   UNL A   1      39.975  30.426  36.219  1.00  0.00    -0.206 F 
ATOM     60  C   UNL A   1      40.122  32.683  36.839  1.00  0.00     0.059 A 
ATOM     61  C   UNL A   1      41.437  34.224  35.501  1.00  0.00     0.059 A 
ATOM     62  F   UNL A   1      42.514  33.457  33.565  1.00  0.00    -0.206 F 
ATOM     63  C   UNL A   1      40.611  33.967  36.594  1.00  0.00     0.060 A 
BRANCH  63  64
ATOM     64  S   UNL A   1      40.152  35.294  37.729  1.00  0.00     0.124 S 
ATOM     65  O   UNL A   1      38.912  34.774  38.298  1.00  0.00    -0.237 OA
ATOM     66  O   UNL A   1      41.295  35.339  38.634  1.00  0.00    -0.237 OA
ATOM     67  O   UNL A   1      40.003  36.453  36.855  1.00  0.00    -0.744 OA
ENDBRANCH  63  64
ENDBRANCH  42  56
BRANCH  43  68
ATOM     68  C   UNL A   1      43.485  24.765  28.159  1.00  0.00     0.058 A 
ATOM     69  C   UNL A   1      42.984  23.459  28.262  1.00  0.00     0.135 A 
ATOM     70  C   UNL A   1      44.311  25.064  27.064  1.00  0.00     0.135 A 
ATOM     71  F   UNL A   1      42.196  23.122  29.294  1.00  0.00    -0.206 F 
ATOM     72  C   UNL A   1      43.301  22.480  27.324  1.00  0.00     0.059 A 
ATOM     73  C   UNL A   1      44.619  24.111  26.098  1.00  0.00     0.059 A 
ATOM     74  F   UNL A   1      44.802  26.303  26.909  1.00  0.00    -0.206 F 
ATOM     75  C   UNL A   1      44.117  22.818  26.243  1.00  0.00     0.060 A 
BRANCH  75  76
ATOM     76  S   UNL A   1      44.478  21.555  25.005  1.00  0.00     0.124 S 
ATOM     77  O   UNL A   1      45.896  21.308  25.242  1.00  0.00    -0.237 OA
ATOM     78  O   UNL A   1      43.569  20.479  25.391  1.00  0.00    -0.237 OA
ATOM     79  O   UNL A   1      44.154  22.216  23.744  1.00  0.00    -0.744 OA
ENDBRANCH  75  76
ENDBRANCH  43  68
BRANCH  55  80
ATOM     80  C   UNL A   1      46.589  27.076  33.972  1.00  0.00     0.058 A 
ATOM     81  C   UNL A   1      47.831  27.675  33.713  1.00  0.00     0.135 A 
ATOM     82  C   UNL A   1      46.532  26.095  34.975  1.00  0.00     0.135 A 
ATOM     83  F   UNL A   1      47.944  28.615  32.760  1.00  0.00    -0.206 F 
ATOM     84  C   UNL A   1      48.978  27.299  34.406  1.00  0.00     0.059 A 
ATOM     85  C   UNL A   1      47.659  25.725  35.702  1.00  0.00     0.059 A 
ATOM     86  F   UNL A   1      45.367  25.496  35.272  1.00  0.00    -0.206 F 
ATOM     87  C   UNL A   1      48.881  26.325  35.401  1.00  0.00     0.060 A 
BRANCH  87  88
ATOM     88  S   UNL A   1      50.370  25.867  36.314  1.00  0.00     0.124 S 
ATOM     89  O   UNL A   1      50.149  24.443  36.542  1.00  0.00    -0.237 OA
ATOM     90  O   UNL A   1      51.431  26.200  35.368  1.00  0.00    -0.237 OA
ATOM     91  O   UNL A   1      50.312  26.710  37.504  1.00  0.00    -0.744 OA
ENDBRANCH  87  88
ENDBRANCH  55  80
ENDBRANCH  29  30
ENDBRANCH  21  24
ENDBRANCH  19  20
ENDBRANCH  18  19
ENDBRANCH   1  18
TORSDOF 17
ENDMDL
MODEL 3
REMARK VINA RESULT:      -9.6      6.958     13.112
REMARK SMILES C[C@H](O)[C@H](C)[NH2+]C1(C(=O)NCCCNC(=O)c2ccc(-c3c4nc(c(-c5c(F)cc(S(=O)(=O)[O-])cc5F)c5ccc([nH]5)c(-c5c(F)cc(S(=O)(=O)[O-])cc5F)c5nc(c(-c6c(F)cc(S(=O)(=O)[O-])cc6F)c6ccc3[nH]6)C=C5)C=C4)cc2)CC1
REMARK SMILES IDX 11 1 10 2 8 3 9 4 7 6 83 7 84 8 6 9 4 12 5 13 2 14 1 15 3 16
REMARK SMILES IDX 12 18 13 19 14 20 15 21 16 23 17 24 18 25 82 26 19 27 81 28
REMARK SMILES IDX 20 29 21 30 22 31 75 32 23 33 80 34 74 35 76 36 24 37 79 38
REMARK SMILES IDX 73 39 72 40 25 42 59 43 38 44 58 45 39 46 42 47 57 48 77 49
REMARK SMILES IDX 40 50 41 51 56 53 78 54 43 55 26 56 27 57 36 58 28 59 29 60
REMARK SMILES IDX 35 61 37 62 30 63 31 64 32 65 33 66 34 67 60 68 61 69 70 70
REMARK SMILES IDX 62 71 63 72 69 73 71 74 64 75 65 76 66 77 67 78 68 79 44 80
REMARK SMILES IDX 45 81 54 82 46 83 47 84 53 85 55 86 48 87 49 88 50 89 51 90
REMARK SMILES IDX 52 91
REMARK H PARENT 10 5 6 10 6 11 3 17 14 22 76 41 42 52
REMARK Flexibility Score: inf
ROOT
ATOM      1  C   UNL A   1      33.562  29.459  26.331  1.00  0.00     0.118 C 
ENDROOT
BRANCH   1   2
ATOM      2  N   UNL A   1      33.859  29.412  24.913  1.00  0.00    -0.351 N 
ATOM      3  C   UNL A   1      33.760  28.443  23.954  1.00  0.00     0.281 C 
ATOM      4  O   UNL A   1      34.195  28.739  22.835  1.00  0.00    -0.268 OA
ATOM      5  H   UNL A   1      34.207  30.264  24.564  1.00  0.00     0.163 HD
BRANCH   3   6
ATOM      6  C   UNL A   1      33.085  27.082  24.129  1.00  0.00     0.176 C 
ATOM      7  C   UNL A   1      33.817  26.018  24.936  1.00  0.00     0.086 C 
ATOM      8  C   UNL A   1      33.532  25.791  23.486  1.00  0.00     0.086 C 
BRANCH   6   9
ATOM      9  N   UNL A   1      31.654  27.275  24.534  1.00  0.00    -0.329 N 
ATOM     10  H   UNL A   1      31.366  26.433  25.031  1.00  0.00     0.347 HD
ATOM     11  H   UNL A   1      31.664  28.138  25.078  1.00  0.00     0.347 HD
BRANCH   9  12
ATOM     12  C   UNL A   1      30.652  27.524  23.483  1.00  0.00     0.208 C 
ATOM     13  C   UNL A   1      29.516  26.540  23.829  1.00  0.00     0.078 C 
BRANCH  12  14
ATOM     14  C   UNL A   1      30.083  28.973  23.369  1.00  0.00     0.169 C 
ATOM     15  C   UNL A   1      28.698  29.009  22.707  1.00  0.00     0.045 C 
BRANCH  14  16
ATOM     16  O   UNL A   1      30.924  29.836  22.597  1.00  0.00    -0.387 OA
ATOM     17  H   UNL A   1      31.830  29.798  22.943  1.00  0.00     0.211 HD
ENDBRANCH  14  16
ENDBRANCH  12  14
ENDBRANCH   9  12
ENDBRANCH   6   9
ENDBRANCH   3   6
ENDBRANCH   1   2
BRANCH   1  18
ATOM     18  C   UNL A   1      34.769  29.046  27.164  1.00  0.00     0.042 C 
BRANCH  18  19
ATOM     19  C   UNL A   1      35.529  30.226  27.762  1.00  0.00     0.118 C 
BRANCH  19  20
ATOM     20  N   UNL A   1      35.492  30.233  29.221  1.00  0.00    -0.352 N 
ATOM     21  C   UNL A   1      36.456  29.885  30.131  1.00  0.00     0.251 C 
ATOM     22  H   UNL A   1      34.641  30.535  29.612  1.00  0.00     0.163 HD
ATOM     23  O   UNL A   1      36.147  29.746  31.315  1.00  0.00    -0.269 OA
BRANCH  21  24
ATOM     24  C   UNL A   1      37.853  29.667  29.701  1.00  0.00     0.039 A 
ATOM     25  C   UNL A   1      38.815  29.337  30.658  1.00  0.00     0.014 A 
ATOM     26  C   UNL A   1      38.222  29.818  28.361  1.00  0.00     0.014 A 
ATOM     27  C   UNL A   1      40.134  29.100  30.262  1.00  0.00     0.010 A 
ATOM     28  C   UNL A   1      39.514  29.499  27.957  1.00  0.00     0.010 A 
ATOM     29  C   UNL A   1      40.487  29.148  28.903  1.00  0.00    -0.014 A 
BRANCH  29  30
ATOM     30  C   UNL A   1      41.871  28.848  28.452  1.00  0.00     0.031 A 
ATOM     31  C   UNL A   1      42.241  27.451  28.033  1.00  0.00     0.074 A 
ATOM     32  C   UNL A   1      42.807  29.817  28.483  1.00  0.00     0.049 A 
ATOM     33  N   UNL A   1      43.409  26.976  27.681  1.00  0.00    -0.248 NA
ATOM     34  C   UNL A   1      41.164  26.448  28.037  1.00  0.00     0.031 C 
ATOM     35  C   UNL A   1      42.581  31.199  28.915  1.00  0.00     0.029 A 
ATOM     36  N   UNL A   1      44.139  29.787  28.156  1.00  0.00    -0.354 N 
ATOM     37  C   UNL A   1      43.209  25.621  27.438  1.00  0.00     0.074 A 
ATOM     38  C   UNL A   1      41.823  25.339  27.738  1.00  0.00     0.031 C 
ATOM     39  C   UNL A   1      43.729  31.887  28.805  1.00  0.00     0.029 A 
ATOM     40  C   UNL A   1      44.780  30.991  28.336  1.00  0.00     0.049 A 
ATOM     41  H   UNL A   1      44.594  28.980  27.824  1.00  0.00     0.167 HD
ATOM     42  C   UNL A   1      44.094  24.702  26.983  1.00  0.00     0.037 A 
ATOM     43  C   UNL A   1      46.071  31.331  28.153  1.00  0.00     0.037 A 
ATOM     44  C   UNL A   1      45.467  24.998  26.666  1.00  0.00     0.049 A 
ATOM     45  C   UNL A   1      47.037  30.293  27.650  1.00  0.00     0.074 A 
ATOM     46  C   UNL A   1      46.432  24.151  26.148  1.00  0.00     0.029 A 
ATOM     47  N   UNL A   1      46.073  26.234  26.840  1.00  0.00    -0.354 N 
ATOM     48  N   UNL A   1      46.818  29.031  27.367  1.00  0.00    -0.248 NA
ATOM     49  C   UNL A   1      48.424  30.726  27.433  1.00  0.00     0.031 C 
ATOM     50  C   UNL A   1      47.633  24.863  26.056  1.00  0.00     0.029 A 
ATOM     51  C   UNL A   1      47.403  26.168  26.459  1.00  0.00     0.049 A 
ATOM     52  H   UNL A   1      45.624  27.040  27.183  1.00  0.00     0.167 HD
ATOM     53  C   UNL A   1      48.030  28.528  26.907  1.00  0.00     0.074 A 
ATOM     54  C   UNL A   1      48.976  29.624  26.941  1.00  0.00     0.031 C 
ATOM     55  C   UNL A   1      48.332  27.273  26.489  1.00  0.00     0.037 A 
BRANCH  42  56
ATOM     56  C   UNL A   1      43.603  23.290  26.802  1.00  0.00     0.058 A 
ATOM     57  C   UNL A   1      43.364  22.748  25.528  1.00  0.00     0.135 A 
ATOM     58  C   UNL A   1      43.398  22.457  27.914  1.00  0.00     0.135 A 
ATOM     59  F   UNL A   1      43.530  23.502  24.430  1.00  0.00    -0.206 F 
ATOM     60  C   UNL A   1      42.902  21.446  25.365  1.00  0.00     0.059 A 
ATOM     61  C   UNL A   1      42.967  21.140  27.773  1.00  0.00     0.059 A 
ATOM     62  F   UNL A   1      43.612  22.920  29.155  1.00  0.00    -0.206 F 
ATOM     63  C   UNL A   1      42.706  20.650  26.495  1.00  0.00     0.060 A 
BRANCH  63  64
ATOM     64  S   UNL A   1      42.108  18.962  26.265  1.00  0.00     0.124 S 
ATOM     65  O   UNL A   1      42.236  18.421  27.615  1.00  0.00    -0.237 OA
ATOM     66  O   UNL A   1      40.743  19.177  25.796  1.00  0.00    -0.237 OA
ATOM     67  O   UNL A   1      43.026  18.406  25.277  1.00  0.00    -0.744 OA
ENDBRANCH  63  64
ENDBRANCH  42  56
BRANCH  43  68
ATOM     68  C   UNL A   1      46.516  32.726  28.425  1.00  0.00     0.058 A 
ATOM     69  C   UNL A   1      46.490  33.701  27.417  1.00  0.00     0.135 A 
ATOM     70  C   UNL A   1      46.960  33.115  29.698  1.00  0.00     0.135 A 
ATOM     71  F   UNL A   1      46.080  33.377  26.181  1.00  0.00    -0.206 F 
ATOM     72  C   UNL A   1      46.901  35.009  27.656  1.00  0.00     0.059 A 
ATOM     73  C   UNL A   1      47.349  34.422  29.970  1.00  0.00     0.059 A 
ATOM     74  F   UNL A   1      46.988  32.224  30.702  1.00  0.00    -0.206 F 
ATOM     75  C   UNL A   1      47.326  35.360  28.939  1.00  0.00     0.060 A 
BRANCH  75  76
ATOM     76  S   UNL A   1      47.808  37.072  29.251  1.00  0.00     0.124 S 
ATOM     77  O   UNL A   1      49.179  37.087  28.753  1.00  0.00    -0.237 OA
ATOM     78  O   UNL A   1      46.832  37.814  28.458  1.00  0.00    -0.237 OA
ATOM     79  O   UNL A   1      47.659  37.205  30.697  1.00  0.00    -0.744 OA
ENDBRANCH  75  76
ENDBRANCH  43  68
BRANCH  55  80
ATOM     80  C   UNL A   1      49.728  27.024  25.988  1.00  0.00     0.058 A 
ATOM     81  C   UNL A   1      50.750  26.566  26.833  1.00  0.00     0.135 A 
ATOM     82  C   UNL A   1      50.032  27.199  24.628  1.00  0.00     0.135 A 
ATOM     83  F   UNL A   1      50.515  26.387  28.143  1.00  0.00    -0.206 F 
ATOM     84  C   UNL A   1      52.033  26.316  26.353  1.00  0.00     0.059 A 
ATOM     85  C   UNL A   1      51.298  26.925  24.120  1.00  0.00     0.059 A 
ATOM     86  F   UNL A   1      49.089  27.625  23.772  1.00  0.00    -0.206 F 
ATOM     87  C   UNL A   1      52.295  26.496  24.994  1.00  0.00     0.060 A 
BRANCH  87  88
ATOM     88  S   UNL A   1      53.955  26.138  24.378  1.00  0.00     0.124 S 
ATOM     89  O   UNL A   1      54.753  27.128  25.092  1.00  0.00    -0.237 OA
ATOM     90  O   UNL A   1      54.148  24.751  24.791  1.00  0.00    -0.237 OA
ATOM     91  O   UNL A   1      53.836  26.346  22.938  1.00  0.00    -0.744 OA
ENDBRANCH  87  88
ENDBRANCH  55  80
ENDBRANCH  29  30
ENDBRANCH  21  24
ENDBRANCH  19  20
ENDBRANCH  18  19
ENDBRANCH   1  18
TORSDOF 17
ENDMDL
