MODEL 1
REMARK VINA RESULT:     -10.7      0.000      0.000
REMARK SMILES CC[NH+](CC)[C@@H](C(=O)NCCCNC(=O)c1ccc(-c2c3nc(c(-c4c(F)cc(S(=O)(=O)[O-])cc4F)c4ccc([nH]4)c(-c4c(F)cc(S(=O)(=O)[O-])cc4F)c4nc(c(-c5c(F)cc(S(=O)(=O)[O-])cc5F)c5ccc2[nH]5)C=C4)C=C3)cc1)c1ccc(C2CC2)cc1
REMARK SMILES IDX 11 1 10 2 9 3 7 4 8 5 6 7 3 8 2 10 1 11 4 12 5 13 82 14
REMARK SMILES IDX 83 15 90 16 84 17 89 18 85 19 86 20 87 21 88 22 12 23 13 24
REMARK SMILES IDX 14 25 15 27 16 28 17 29 81 30 18 31 80 32 19 33 20 34 21 35
REMARK SMILES IDX 74 36 22 37 79 38 73 39 75 40 23 41 78 42 72 43 71 44 24 46
REMARK SMILES IDX 58 47 37 48 57 49 38 50 41 51 56 52 76 53 39 54 40 55 55 57
REMARK SMILES IDX 77 58 42 59 25 60 26 61 35 62 27 63 28 64 34 65 36 66 29 67
REMARK SMILES IDX 30 68 31 69 32 70 33 71 59 72 60 73 69 74 61 75 62 76 68 77
REMARK SMILES IDX 70 78 63 79 64 80 65 81 66 82 67 83 43 84 44 85 53 86 45 87
REMARK SMILES IDX 46 88 52 89 54 90 47 91 48 92 49 93 50 94 51 95
REMARK H PARENT 9 6 3 9 13 26 75 45 41 56
REMARK Flexibility Score: inf
ROOT
ATOM      1  C   UNL A   1      33.355  27.495  25.446  1.00  0.00     0.042 C 
ENDROOT
BRANCH   1   2
ATOM      2  C   UNL A   1      33.987  26.245  24.804  1.00  0.00     0.118 C 
BRANCH   2   3
ATOM      3  N   UNL A   1      34.326  25.183  25.740  1.00  0.00    -0.351 N 
ATOM      4  C   UNL A   1      33.928  23.883  25.909  1.00  0.00     0.283 C 
ATOM      5  O   UNL A   1      34.396  23.342  26.919  1.00  0.00    -0.268 OA
ATOM      6  H   UNL A   1      34.996  25.464  26.405  1.00  0.00     0.163 HD
BRANCH   4   7
ATOM      7  C   UNL A   1      32.950  23.161  24.925  1.00  0.00     0.305 C 
BRANCH   7   8
ATOM      8  N   UNL A   1      31.520  23.184  25.380  1.00  0.00    -0.321 N 
ATOM      9  H   UNL A   1      31.222  22.306  24.954  1.00  0.00     0.349 HD
BRANCH   8  10
ATOM     10  C   UNL A   1      31.236  22.963  26.802  1.00  0.00     0.259 C 
ATOM     11  C   UNL A   1      29.738  22.873  27.087  1.00  0.00     0.071 C 
ENDBRANCH   8  10
BRANCH   8  12
ATOM     12  C   UNL A   1      30.683  24.231  24.800  1.00  0.00     0.259 C 
ATOM     13  C   UNL A   1      30.705  24.362  23.273  1.00  0.00     0.071 C 
ENDBRANCH   8  12
ENDBRANCH   7   8
BRANCH   7  14
ATOM     14  C   UNL A   1      33.385  21.728  24.530  1.00  0.00     0.019 A 
ATOM     15  C   UNL A   1      32.420  20.810  24.082  1.00  0.00     0.011 A 
ATOM     16  C   UNL A   1      34.667  21.224  24.808  1.00  0.00     0.011 A 
ATOM     17  C   UNL A   1      32.699  19.433  24.043  1.00  0.00     0.004 A 
ATOM     18  C   UNL A   1      34.939  19.851  24.759  1.00  0.00     0.004 A 
ATOM     19  C   UNL A   1      33.943  18.919  24.449  1.00  0.00    -0.045 A 
BRANCH  19  20
ATOM     20  C   UNL A   1      34.153  17.429  24.619  1.00  0.00     0.019 C 
ATOM     21  C   UNL A   1      33.052  16.427  24.341  1.00  0.00     0.009 C 
ATOM     22  C   UNL A   1      34.173  16.578  23.362  1.00  0.00     0.009 C 
ENDBRANCH  19  20
ENDBRANCH   7  14
ENDBRANCH   4   7
ENDBRANCH   2   3
ENDBRANCH   1   2
BRANCH   1  23
ATOM     23  C   UNL A   1      33.902  27.943  26.806  1.00  0.00     0.118 C 
BRANCH  23  24
ATOM     24  N   UNL A   1      33.614  29.337  27.088  1.00  0.00    -0.352 N 
ATOM     25  C   UNL A   1      34.364  30.256  27.784  1.00  0.00     0.251 C 
ATOM     26  H   UNL A   1      32.759  29.672  26.731  1.00  0.00     0.163 HD
ATOM     27  O   UNL A   1      33.847  31.324  28.105  1.00  0.00    -0.269 OA
BRANCH  25  28
ATOM     28  C   UNL A   1      35.775  29.983  28.164  1.00  0.00     0.039 A 
ATOM     29  C   UNL A   1      36.770  30.135  27.191  1.00  0.00     0.014 A 
ATOM     30  C   UNL A   1      36.120  29.493  29.428  1.00  0.00     0.014 A 
ATOM     31  C   UNL A   1      38.104  29.824  27.489  1.00  0.00     0.010 A 
ATOM     32  C   UNL A   1      37.460  29.216  29.736  1.00  0.00     0.010 A 
ATOM     33  C   UNL A   1      38.466  29.368  28.766  1.00  0.00    -0.014 A 
BRANCH  33  34
ATOM     34  C   UNL A   1      39.885  29.037  29.085  1.00  0.00     0.031 A 
ATOM     35  C   UNL A   1      40.778  30.050  29.753  1.00  0.00     0.074 A 
ATOM     36  C   UNL A   1      40.383  27.828  28.755  1.00  0.00     0.049 A 
ATOM     37  N   UNL A   1      42.042  29.948  30.083  1.00  0.00    -0.248 NA
ATOM     38  C   UNL A   1      40.178  31.352  30.082  1.00  0.00     0.031 C 
ATOM     39  C   UNL A   1      39.641  26.763  28.081  1.00  0.00     0.029 A 
ATOM     40  N   UNL A   1      41.638  27.295  28.934  1.00  0.00    -0.354 N 
ATOM     41  C   UNL A   1      42.391  31.171  30.647  1.00  0.00     0.074 A 
ATOM     42  C   UNL A   1      41.214  32.011  30.582  1.00  0.00     0.031 C 
ATOM     43  C   UNL A   1      40.449  25.703  27.909  1.00  0.00     0.029 A 
ATOM     44  C   UNL A   1      41.774  26.021  28.436  1.00  0.00     0.049 A 
ATOM     45  H   UNL A   1      42.371  27.782  29.377  1.00  0.00     0.167 HD
ATOM     46  C   UNL A   1      43.576  31.554  31.183  1.00  0.00     0.037 A 
ATOM     47  C   UNL A   1      42.843  25.200  28.399  1.00  0.00     0.037 A 
ATOM     48  C   UNL A   1      44.742  30.712  31.273  1.00  0.00     0.049 A 
ATOM     49  C   UNL A   1      44.148  25.648  29.001  1.00  0.00     0.074 A 
ATOM     50  C   UNL A   1      45.968  30.999  31.852  1.00  0.00     0.029 A 
ATOM     51  N   UNL A   1      44.834  29.424  30.770  1.00  0.00    -0.354 N 
ATOM     52  N   UNL A   1      44.440  26.787  29.582  1.00  0.00    -0.248 NA
ATOM     53  C   UNL A   1      45.269  24.697  28.947  1.00  0.00     0.031 C 
ATOM     54  C   UNL A   1      46.811  29.897  31.668  1.00  0.00     0.029 A 
ATOM     55  C   UNL A   1      46.098  28.909  31.010  1.00  0.00     0.049 A 
ATOM     56  H   UNL A   1      44.106  28.943  30.311  1.00  0.00     0.167 HD
ATOM     57  C   UNL A   1      45.767  26.679  29.984  1.00  0.00     0.074 A 
ATOM     58  C   UNL A   1      46.219  25.362  29.591  1.00  0.00     0.031 C 
ATOM     59  C   UNL A   1      46.539  27.593  30.623  1.00  0.00     0.037 A 
BRANCH  46  60
ATOM     60  C   UNL A   1      43.678  32.952  31.728  1.00  0.00     0.058 A 
ATOM     61  C   UNL A   1      43.909  34.052  30.889  1.00  0.00     0.135 A 
ATOM     62  C   UNL A   1      43.484  33.202  33.096  1.00  0.00     0.135 A 
ATOM     63  F   UNL A   1      44.111  33.868  29.573  1.00  0.00    -0.206 F 
ATOM     64  C   UNL A   1      43.967  35.350  31.388  1.00  0.00     0.059 A 
ATOM     65  C   UNL A   1      43.514  34.493  33.615  1.00  0.00     0.059 A 
ATOM     66  F   UNL A   1      43.255  32.186  33.943  1.00  0.00    -0.206 F 
ATOM     67  C   UNL A   1      43.770  35.561  32.753  1.00  0.00     0.060 A 
BRANCH  67  68
ATOM     68  S   UNL A   1      43.836  37.250  33.389  1.00  0.00     0.124 S 
ATOM     69  O   UNL A   1      44.047  38.012  32.160  1.00  0.00    -0.237 OA
ATOM     70  O   UNL A   1      42.521  37.403  34.006  1.00  0.00    -0.237 OA
ATOM     71  O   UNL A   1      44.960  37.223  34.314  1.00  0.00    -0.744 OA
ENDBRANCH  67  68
ENDBRANCH  46  60
BRANCH  47  72
ATOM     72  C   UNL A   1      42.724  23.855  27.775  1.00  0.00     0.058 A 
ATOM     73  C   UNL A   1      42.515  22.711  28.558  1.00  0.00     0.135 A 
ATOM     74  C   UNL A   1      42.820  23.689  26.384  1.00  0.00     0.135 A 
ATOM     75  F   UNL A   1      42.427  22.818  29.893  1.00  0.00    -0.206 F 
ATOM     76  C   UNL A   1      42.420  21.446  27.987  1.00  0.00     0.059 A 
ATOM     77  C   UNL A   1      42.705  22.438  25.789  1.00  0.00     0.059 A 
ATOM     78  F   UNL A   1      43.007  24.756  25.592  1.00  0.00    -0.206 F 
ATOM     79  C   UNL A   1      42.516  21.320  26.600  1.00  0.00     0.060 A 
BRANCH  79  80
ATOM     80  S   UNL A   1      42.344  19.681  25.861  1.00  0.00     0.124 S 
ATOM     81  O   UNL A   1      43.315  19.744  24.776  1.00  0.00    -0.237 OA
ATOM     82  O   UNL A   1      42.687  18.802  26.975  1.00  0.00    -0.237 OA
ATOM     83  O   UNL A   1      40.942  19.644  25.455  1.00  0.00    -0.744 OA
ENDBRANCH  79  80
ENDBRANCH  47  72
BRANCH  59  84
ATOM     84  C   UNL A   1      47.947  27.193  30.967  1.00  0.00     0.058 A 
ATOM     85  C   UNL A   1      48.239  26.444  32.119  1.00  0.00     0.135 A 
ATOM     86  C   UNL A   1      49.010  27.519  30.111  1.00  0.00     0.135 A 
ATOM     87  F   UNL A   1      47.259  26.113  32.974  1.00  0.00    -0.206 F 
ATOM     88  C   UNL A   1      49.539  26.049  32.418  1.00  0.00     0.059 A 
ATOM     89  C   UNL A   1      50.315  27.115  30.379  1.00  0.00     0.059 A 
ATOM     90  F   UNL A   1      48.784  28.227  28.993  1.00  0.00    -0.206 F 
ATOM     91  C   UNL A   1      50.570  26.390  31.542  1.00  0.00     0.060 A 
BRANCH  91  92
ATOM     92  S   UNL A   1      52.249  25.842  31.921  1.00  0.00     0.124 S 
ATOM     93  O   UNL A   1      52.913  26.014  30.634  1.00  0.00    -0.237 OA
ATOM     94  O   UNL A   1      52.654  26.772  32.972  1.00  0.00    -0.237 OA
ATOM     95  O   UNL A   1      52.065  24.460  32.354  1.00  0.00    -0.744 OA
ENDBRANCH  91  92
ENDBRANCH  59  84
ENDBRANCH  33  34
ENDBRANCH  25  28
ENDBRANCH  23  24
ENDBRANCH   1  23
TORSDOF 18
ENDMDL
MODEL 2
REMARK VINA RESULT:     -10.6      3.221      9.440
REMARK SMILES CC[NH+](CC)[C@@H](C(=O)NCCCNC(=O)c1ccc(-c2c3nc(c(-c4c(F)cc(S(=O)(=O)[O-])cc4F)c4ccc([nH]4)c(-c4c(F)cc(S(=O)(=O)[O-])cc4F)c4nc(c(-c5c(F)cc(S(=O)(=O)[O-])cc5F)c5ccc2[nH]5)C=C4)C=C3)cc1)c1ccc(C2CC2)cc1
REMARK SMILES IDX 11 1 10 2 9 3 7 4 8 5 6 7 3 8 2 10 1 11 4 12 5 13 82 14
REMARK SMILES IDX 83 15 90 16 84 17 89 18 85 19 86 20 87 21 88 22 12 23 13 24
REMARK SMILES IDX 14 25 15 27 16 28 17 29 81 30 18 31 80 32 19 33 20 34 21 35
REMARK SMILES IDX 74 36 22 37 79 38 73 39 75 40 23 41 78 42 72 43 71 44 24 46
REMARK SMILES IDX 58 47 37 48 57 49 38 50 41 51 56 52 76 53 39 54 40 55 55 57
REMARK SMILES IDX 77 58 42 59 25 60 26 61 35 62 27 63 28 64 34 65 36 66 29 67
REMARK SMILES IDX 30 68 31 69 32 70 33 71 59 72 60 73 69 74 61 75 62 76 68 77
REMARK SMILES IDX 70 78 63 79 64 80 65 81 66 82 67 83 43 84 44 85 53 86 45 87
REMARK SMILES IDX 46 88 52 89 54 90 47 91 48 92 49 93 50 94 51 95
REMARK H PARENT 9 6 3 9 13 26 75 45 41 56
REMARK Flexibility Score: inf
ROOT
ATOM      1  C   UNL A   1      35.029  23.250  26.504  1.00  0.00     0.042 C 
ENDROOT
BRANCH   1   2
ATOM      2  C   UNL A   1      33.826  23.882  25.777  1.00  0.00     0.118 C 
BRANCH   2   3
ATOM      3  N   UNL A   1      32.534  23.622  26.396  1.00  0.00    -0.351 N 
ATOM      4  C   UNL A   1      31.379  24.342  26.557  1.00  0.00     0.283 C 
ATOM      5  O   UNL A   1      30.528  23.775  27.252  1.00  0.00    -0.268 OA
ATOM      6  H   UNL A   1      32.477  22.721  26.790  1.00  0.00     0.163 HD
BRANCH   4   7
ATOM      7  C   UNL A   1      31.171  25.761  25.935  1.00  0.00     0.305 C 
BRANCH   7   8
ATOM      8  N   UNL A   1      31.171  25.761  24.434  1.00  0.00    -0.321 N 
ATOM      9  H   UNL A   1      32.180  25.713  24.293  1.00  0.00     0.349 HD
BRANCH   8  10
ATOM     10  C   UNL A   1      30.691  24.564  23.736  1.00  0.00     0.259 C 
ATOM     11  C   UNL A   1      31.753  23.964  22.816  1.00  0.00     0.071 C 
ENDBRANCH   8  10
BRANCH   8  12
ATOM     12  C   UNL A   1      30.723  26.997  23.797  1.00  0.00     0.259 C 
ATOM     13  C   UNL A   1      29.215  27.144  23.562  1.00  0.00     0.071 C 
ENDBRANCH   8  12
ENDBRANCH   7   8
BRANCH   7  14
ATOM     14  C   UNL A   1      32.125  26.847  26.491  1.00  0.00     0.019 A 
ATOM     15  C   UNL A   1      31.603  27.893  27.271  1.00  0.00     0.011 A 
ATOM     16  C   UNL A   1      33.460  26.967  26.072  1.00  0.00     0.011 A 
ATOM     17  C   UNL A   1      32.351  29.061  27.503  1.00  0.00     0.004 A 
ATOM     18  C   UNL A   1      34.202  28.130  26.315  1.00  0.00     0.004 A 
ATOM     19  C   UNL A   1      33.640  29.231  26.969  1.00  0.00    -0.045 A 
BRANCH  19  20
ATOM     20  C   UNL A   1      34.340  30.572  27.032  1.00  0.00     0.019 C 
ATOM     21  C   UNL A   1      34.010  31.599  28.096  1.00  0.00     0.009 C 
ATOM     22  C   UNL A   1      35.281  30.816  28.199  1.00  0.00     0.009 C 
ENDBRANCH  19  20
ENDBRANCH   7  14
ENDBRANCH   4   7
ENDBRANCH   2   3
ENDBRANCH   1   2
BRANCH   1  23
ATOM     23  C   UNL A   1      36.430  23.694  26.067  1.00  0.00     0.118 C 
BRANCH  23  24
ATOM     24  N   UNL A   1      37.383  22.600  26.069  1.00  0.00    -0.352 N 
ATOM     25  C   UNL A   1      38.750  22.639  26.227  1.00  0.00     0.251 C 
ATOM     26  H   UNL A   1      36.999  21.704  25.938  1.00  0.00     0.163 HD
ATOM     27  O   UNL A   1      39.405  21.630  25.975  1.00  0.00    -0.269 OA
BRANCH  25  28
ATOM     28  C   UNL A   1      39.447  23.870  26.682  1.00  0.00     0.039 A 
ATOM     29  C   UNL A   1      39.592  24.087  28.057  1.00  0.00     0.014 A 
ATOM     30  C   UNL A   1      39.875  24.854  25.783  1.00  0.00     0.014 A 
ATOM     31  C   UNL A   1      40.184  25.266  28.529  1.00  0.00     0.010 A 
ATOM     32  C   UNL A   1      40.499  26.017  26.255  1.00  0.00     0.010 A 
ATOM     33  C   UNL A   1      40.652  26.242  27.634  1.00  0.00    -0.014 A 
BRANCH  33  34
ATOM     34  C   UNL A   1      41.282  27.497  28.134  1.00  0.00     0.031 A 
ATOM     35  C   UNL A   1      42.781  27.660  28.126  1.00  0.00     0.074 A 
ATOM     36  C   UNL A   1      40.510  28.490  28.619  1.00  0.00     0.049 A 
ATOM     37  N   UNL A   1      43.505  28.669  28.544  1.00  0.00    -0.248 NA
ATOM     38  C   UNL A   1      43.569  26.539  27.591  1.00  0.00     0.031 C 
ATOM     39  C   UNL A   1      39.050  28.457  28.712  1.00  0.00     0.029 A 
ATOM     40  N   UNL A   1      40.846  29.720  29.134  1.00  0.00    -0.354 N 
ATOM     41  C   UNL A   1      44.830  28.302  28.333  1.00  0.00     0.074 A 
ATOM     42  C   UNL A   1      44.810  26.964  27.782  1.00  0.00     0.031 C 
ATOM     43  C   UNL A   1      38.616  29.612  29.245  1.00  0.00     0.029 A 
ATOM     44  C   UNL A   1      39.766  30.459  29.555  1.00  0.00     0.049 A 
ATOM     45  H   UNL A   1      41.776  30.041  29.197  1.00  0.00     0.167 HD
ATOM     46  C   UNL A   1      45.959  29.019  28.562  1.00  0.00     0.037 A 
ATOM     47  C   UNL A   1      39.703  31.676  30.132  1.00  0.00     0.037 A 
ATOM     48  C   UNL A   1      45.981  30.361  29.086  1.00  0.00     0.049 A 
ATOM     49  C   UNL A   1      40.970  32.452  30.376  1.00  0.00     0.074 A 
ATOM     50  C   UNL A   1      47.077  31.183  29.296  1.00  0.00     0.029 A 
ATOM     51  N   UNL A   1      44.865  31.078  29.485  1.00  0.00    -0.354 N 
ATOM     52  N   UNL A   1      42.208  32.110  30.115  1.00  0.00    -0.248 NA
ATOM     53  C   UNL A   1      40.830  33.782  30.988  1.00  0.00     0.031 C 
ATOM     54  C   UNL A   1      46.625  32.384  29.855  1.00  0.00     0.029 A 
ATOM     55  C   UNL A   1      45.245  32.325  29.956  1.00  0.00     0.049 A 
ATOM     56  H   UNL A   1      43.937  30.750  29.440  1.00  0.00     0.167 HD
ATOM     57  C   UNL A   1      42.991  33.191  30.506  1.00  0.00     0.074 A 
ATOM     58  C   UNL A   1      42.087  34.202  31.012  1.00  0.00     0.031 C 
ATOM     59  C   UNL A   1      44.339  33.330  30.451  1.00  0.00     0.037 A 
BRANCH  46  60
ATOM     60  C   UNL A   1      47.277  28.369  28.240  1.00  0.00     0.058 A 
ATOM     61  C   UNL A   1      47.994  27.645  29.204  1.00  0.00     0.135 A 
ATOM     62  C   UNL A   1      47.800  28.422  26.937  1.00  0.00     0.135 A 
ATOM     63  F   UNL A   1      47.543  27.571  30.467  1.00  0.00    -0.206 F 
ATOM     64  C   UNL A   1      49.195  27.014  28.897  1.00  0.00     0.059 A 
ATOM     65  C   UNL A   1      48.988  27.779  26.601  1.00  0.00     0.059 A 
ATOM     66  F   UNL A   1      47.153  29.097  25.976  1.00  0.00    -0.206 F 
ATOM     67  C   UNL A   1      49.686  27.088  27.592  1.00  0.00     0.060 A 
BRANCH  67  68
ATOM     68  S   UNL A   1      51.240  26.256  27.202  1.00  0.00     0.124 S 
ATOM     69  O   UNL A   1      51.581  26.869  25.920  1.00  0.00    -0.237 OA
ATOM     70  O   UNL A   1      52.090  26.636  28.328  1.00  0.00    -0.237 OA
ATOM     71  O   UNL A   1      50.871  24.849  27.147  1.00  0.00    -0.744 OA
ENDBRANCH  67  68
ENDBRANCH  46  60
BRANCH  47  72
ATOM     72  C   UNL A   1      38.384  32.248  30.513  1.00  0.00     0.058 A 
ATOM     73  C   UNL A   1      37.740  31.854  31.695  1.00  0.00     0.135 A 
ATOM     74  C   UNL A   1      37.742  33.196  29.702  1.00  0.00     0.135 A 
ATOM     75  F   UNL A   1      38.309  30.942  32.498  1.00  0.00    -0.206 F 
ATOM     76  C   UNL A   1      36.498  32.368  32.053  1.00  0.00     0.059 A 
ATOM     77  C   UNL A   1      36.512  33.742  30.051  1.00  0.00     0.059 A 
ATOM     78  F   UNL A   1      38.325  33.615  28.568  1.00  0.00    -0.206 F 
ATOM     79  C   UNL A   1      35.891  33.313  31.223  1.00  0.00     0.060 A 
BRANCH  79  80
ATOM     80  S   UNL A   1      34.302  34.013  31.718  1.00  0.00     0.124 S 
ATOM     81  O   UNL A   1      33.728  32.919  32.493  1.00  0.00    -0.237 OA
ATOM     82  O   UNL A   1      34.706  35.192  32.479  1.00  0.00    -0.237 OA
ATOM     83  O   UNL A   1      33.650  34.295  30.443  1.00  0.00    -0.744 OA
ENDBRANCH  79  80
ENDBRANCH  47  72
BRANCH  59  84
ATOM     84  C   UNL A   1      44.922  34.634  30.919  1.00  0.00     0.058 A 
ATOM     85  C   UNL A   1      45.072  35.728  30.052  1.00  0.00     0.135 A 
ATOM     86  C   UNL A   1      45.290  34.808  32.263  1.00  0.00     0.135 A 
ATOM     87  F   UNL A   1      44.742  35.612  28.757  1.00  0.00    -0.206 F 
ATOM     88  C   UNL A   1      45.583  36.943  30.497  1.00  0.00     0.059 A 
ATOM     89  C   UNL A   1      45.783  36.022  32.735  1.00  0.00     0.059 A 
ATOM     90  F   UNL A   1      45.160  33.796  33.136  1.00  0.00    -0.206 F 
ATOM     91  C   UNL A   1      45.936  37.080  31.841  1.00  0.00     0.060 A 
BRANCH  91  92
ATOM     92  S   UNL A   1      46.566  38.672  32.416  1.00  0.00     0.124 S 
ATOM     93  O   UNL A   1      45.387  39.239  33.061  1.00  0.00    -0.237 OA
ATOM     94  O   UNL A   1      47.649  38.277  33.312  1.00  0.00    -0.237 OA
ATOM     95  O   UNL A   1      46.990  39.334  31.186  1.00  0.00    -0.744 OA
ENDBRANCH  91  92
ENDBRANCH  59  84
ENDBRANCH  33  34
ENDBRANCH  25  28
ENDBRANCH  23  24
ENDBRANCH   1  23
TORSDOF 18
ENDMDL
MODEL 3
REMARK VINA RESULT:     -10.6      4.821     10.452
REMARK SMILES CC[NH+](CC)[C@@H](C(=O)NCCCNC(=O)c1ccc(-c2c3nc(c(-c4c(F)cc(S(=O)(=O)[O-])cc4F)c4ccc([nH]4)c(-c4c(F)cc(S(=O)(=O)[O-])cc4F)c4nc(c(-c5c(F)cc(S(=O)(=O)[O-])cc5F)c5ccc2[nH]5)C=C4)C=C3)cc1)c1ccc(C2CC2)cc1
REMARK SMILES IDX 11 1 10 2 9 3 7 4 8 5 6 7 3 8 2 10 1 11 4 12 5 13 82 14
REMARK SMILES IDX 83 15 90 16 84 17 89 18 85 19 86 20 87 21 88 22 12 23 13 24
REMARK SMILES IDX 14 25 15 27 16 28 17 29 81 30 18 31 80 32 19 33 20 34 21 35
REMARK SMILES IDX 74 36 22 37 79 38 73 39 75 40 23 41 78 42 72 43 71 44 24 46
REMARK SMILES IDX 58 47 37 48 57 49 38 50 41 51 56 52 76 53 39 54 40 55 55 57
REMARK SMILES IDX 77 58 42 59 25 60 26 61 35 62 27 63 28 64 34 65 36 66 29 67
REMARK SMILES IDX 30 68 31 69 32 70 33 71 59 72 60 73 69 74 61 75 62 76 68 77
REMARK SMILES IDX 70 78 63 79 64 80 65 81 66 82 67 83 43 84 44 85 53 86 45 87
REMARK SMILES IDX 46 88 52 89 54 90 47 91 48 92 49 93 50 94 51 95
REMARK H PARENT 9 6 3 9 13 26 75 45 41 56
REMARK Flexibility Score: inf
ROOT
ATOM      1  C   UNL A   1      37.825  23.943  26.126  1.00  0.00     0.042 C 
ENDROOT
BRANCH   1   2
ATOM      2  C   UNL A   1      37.353  22.826  25.175  1.00  0.00     0.118 C 
BRANCH   2   3
ATOM      3  N   UNL A   1      36.490  23.271  24.091  1.00  0.00    -0.351 N 
ATOM      4  C   UNL A   1      35.149  23.525  23.968  1.00  0.00     0.283 C 
ATOM      5  O   UNL A   1      34.793  23.791  22.814  1.00  0.00    -0.268 OA
ATOM      6  H   UNL A   1      36.983  23.423  23.252  1.00  0.00     0.163 HD
BRANCH   4   7
ATOM      7  C   UNL A   1      34.159  23.460  25.177  1.00  0.00     0.305 C 
BRANCH   7   8
ATOM      8  N   UNL A   1      33.528  22.110  25.359  1.00  0.00    -0.321 N 
ATOM      9  H   UNL A   1      32.553  22.397  25.264  1.00  0.00     0.349 HD
BRANCH   8  10
ATOM     10  C   UNL A   1      33.677  21.120  24.288  1.00  0.00     0.259 C 
ATOM     11  C   UNL A   1      32.613  20.026  24.358  1.00  0.00     0.071 C 
ENDBRANCH   8  10
BRANCH   8  12
ATOM     12  C   UNL A   1      33.658  21.520  26.689  1.00  0.00     0.259 C 
ATOM     13  C   UNL A   1      34.205  22.429  27.796  1.00  0.00     0.071 C 
ENDBRANCH   8  12
ENDBRANCH   7   8
BRANCH   7  14
ATOM     14  C   UNL A   1      33.091  24.581  25.188  1.00  0.00     0.019 A 
ATOM     15  C   UNL A   1      31.768  24.280  24.820  1.00  0.00     0.011 A 
ATOM     16  C   UNL A   1      33.421  25.938  25.334  1.00  0.00     0.011 A 
ATOM     17  C   UNL A   1      30.863  25.302  24.487  1.00  0.00     0.004 A 
ATOM     18  C   UNL A   1      32.510  26.951  25.009  1.00  0.00     0.004 A 
ATOM     19  C   UNL A   1      31.238  26.657  24.507  1.00  0.00    -0.045 A 
BRANCH  19  20
ATOM     20  C   UNL A   1      30.333  27.725  23.932  1.00  0.00     0.019 C 
ATOM     21  C   UNL A   1      30.825  29.132  23.661  1.00  0.00     0.009 C 
ATOM     22  C   UNL A   1      30.616  28.194  22.516  1.00  0.00     0.009 C 
ENDBRANCH  19  20
ENDBRANCH   7  14
ENDBRANCH   4   7
ENDBRANCH   2   3
ENDBRANCH   1   2
BRANCH   1  23
ATOM     23  C   UNL A   1      39.107  23.694  26.928  1.00  0.00     0.118 C 
BRANCH  23  24
ATOM     24  N   UNL A   1      40.304  24.009  26.172  1.00  0.00    -0.352 N 
ATOM     25  C   UNL A   1      41.143  25.093  26.285  1.00  0.00     0.251 C 
ATOM     26  H   UNL A   1      40.551  23.355  25.478  1.00  0.00     0.163 HD
ATOM     27  O   UNL A   1      41.978  25.293  25.405  1.00  0.00    -0.269 OA
BRANCH  25  28
ATOM     28  C   UNL A   1      41.055  26.030  27.436  1.00  0.00     0.039 A 
ATOM     29  C   UNL A   1      40.023  25.851  28.365  1.00  0.00     0.014 A 
ATOM     30  C   UNL A   1      41.910  27.130  27.563  1.00  0.00     0.014 A 
ATOM     31  C   UNL A   1      39.865  26.751  29.427  1.00  0.00     0.010 A 
ATOM     32  C   UNL A   1      41.772  28.009  28.646  1.00  0.00     0.010 A 
ATOM     33  C   UNL A   1      40.742  27.836  29.585  1.00  0.00    -0.014 A 
BRANCH  33  34
ATOM     34  C   UNL A   1      40.575  28.795  30.715  1.00  0.00     0.031 A 
ATOM     35  C   UNL A   1      41.419  28.672  31.958  1.00  0.00     0.074 A 
ATOM     36  C   UNL A   1      39.646  29.770  30.638  1.00  0.00     0.049 A 
ATOM     37  N   UNL A   1      41.395  29.398  33.049  1.00  0.00    -0.248 NA
ATOM     38  C   UNL A   1      42.409  27.585  31.984  1.00  0.00     0.031 C 
ATOM     39  C   UNL A   1      38.742  29.988  29.509  1.00  0.00     0.029 A 
ATOM     40  N   UNL A   1      39.301  30.755  31.533  1.00  0.00    -0.354 N 
ATOM     41  C   UNL A   1      42.356  28.851  33.893  1.00  0.00     0.074 A 
ATOM     42  C   UNL A   1      42.920  27.711  33.201  1.00  0.00     0.031 C 
ATOM     43  C   UNL A   1      37.952  31.042  29.775  1.00  0.00     0.029 A 
ATOM     44  C   UNL A   1      38.273  31.560  31.103  1.00  0.00     0.049 A 
ATOM     45  H   UNL A   1      39.749  30.872  32.403  1.00  0.00     0.167 HD
ATOM     46  C   UNL A   1      42.745  29.268  35.124  1.00  0.00     0.037 A 
ATOM     47  C   UNL A   1      37.652  32.593  31.707  1.00  0.00     0.037 A 
ATOM     48  C   UNL A   1      42.204  30.417  35.805  1.00  0.00     0.049 A 
ATOM     49  C   UNL A   1      38.101  33.037  33.074  1.00  0.00     0.074 A 
ATOM     50  C   UNL A   1      42.579  30.945  37.030  1.00  0.00     0.029 A 
ATOM     51  N   UNL A   1      41.175  31.213  35.328  1.00  0.00    -0.354 N 
ATOM     52  N   UNL A   1      39.052  32.542  33.829  1.00  0.00    -0.248 NA
ATOM     53  C   UNL A   1      37.397  34.184  33.667  1.00  0.00     0.031 C 
ATOM     54  C   UNL A   1      41.753  32.041  37.308  1.00  0.00     0.029 A 
ATOM     55  C   UNL A   1      40.890  32.217  36.239  1.00  0.00     0.049 A 
ATOM     56  H   UNL A   1      40.714  31.086  34.466  1.00  0.00     0.167 HD
ATOM     57  C   UNL A   1      39.077  33.332  34.974  1.00  0.00     0.074 A 
ATOM     58  C   UNL A   1      38.054  34.343  34.808  1.00  0.00     0.031 C 
ATOM     59  C   UNL A   1      39.876  33.226  36.064  1.00  0.00     0.037 A 
BRANCH  46  60
ATOM     60  C   UNL A   1      43.819  28.480  35.822  1.00  0.00     0.058 A 
ATOM     61  C   UNL A   1      45.179  28.774  35.645  1.00  0.00     0.135 A 
ATOM     62  C   UNL A   1      43.481  27.457  36.724  1.00  0.00     0.135 A 
ATOM     63  F   UNL A   1      45.556  29.736  34.787  1.00  0.00    -0.206 F 
ATOM     64  C   UNL A   1      46.170  28.068  36.319  1.00  0.00     0.059 A 
ATOM     65  C   UNL A   1      44.455  26.753  37.427  1.00  0.00     0.059 A 
ATOM     66  F   UNL A   1      42.195  27.137  36.934  1.00  0.00    -0.206 F 
ATOM     67  C   UNL A   1      45.799  27.057  37.208  1.00  0.00     0.060 A 
BRANCH  67  68
ATOM     68  S   UNL A   1      47.093  26.155  38.085  1.00  0.00     0.124 S 
ATOM     69  O   UNL A   1      46.553  26.123  39.442  1.00  0.00    -0.237 OA
ATOM     70  O   UNL A   1      47.111  24.873  37.384  1.00  0.00    -0.237 OA
ATOM     71  O   UNL A   1      48.275  26.984  37.899  1.00  0.00    -0.744 OA
ENDBRANCH  67  68
ENDBRANCH  46  60
BRANCH  47  72
ATOM     72  C   UNL A   1      36.537  33.293  31.016  1.00  0.00     0.058 A 
ATOM     73  C   UNL A   1      35.208  33.121  31.431  1.00  0.00     0.135 A 
ATOM     74  C   UNL A   1      36.777  34.145  29.928  1.00  0.00     0.135 A 
ATOM     75  F   UNL A   1      34.927  32.307  32.461  1.00  0.00    -0.206 F 
ATOM     76  C   UNL A   1      34.154  33.756  30.782  1.00  0.00     0.059 A 
ATOM     77  C   UNL A   1      35.743  34.809  29.277  1.00  0.00     0.059 A 
ATOM     78  F   UNL A   1      38.033  34.353  29.502  1.00  0.00    -0.206 F 
ATOM     79  C   UNL A   1      34.433  34.599  29.705  1.00  0.00     0.060 A 
BRANCH  79  80
ATOM     80  S   UNL A   1      33.065  35.459  28.897  1.00  0.00     0.124 S 
ATOM     81  O   UNL A   1      32.454  34.381  28.129  1.00  0.00    -0.237 OA
ATOM     82  O   UNL A   1      32.293  35.950  30.035  1.00  0.00    -0.237 OA
ATOM     83  O   UNL A   1      33.737  36.493  28.115  1.00  0.00    -0.744 OA
ENDBRANCH  79  80
ENDBRANCH  47  72
BRANCH  59  84
ATOM     84  C   UNL A   1      39.703  34.247  37.154  1.00  0.00     0.058 A 
ATOM     85  C   UNL A   1      38.961  33.969  38.313  1.00  0.00     0.135 A 
ATOM     86  C   UNL A   1      40.329  35.501  37.062  1.00  0.00     0.135 A 
ATOM     87  F   UNL A   1      38.337  32.788  38.447  1.00  0.00    -0.206 F 
ATOM     88  C   UNL A   1      38.829  34.905  39.334  1.00  0.00     0.059 A 
ATOM     89  C   UNL A   1      40.229  36.444  38.082  1.00  0.00     0.059 A 
ATOM     90  F   UNL A   1      41.057  35.815  35.979  1.00  0.00    -0.206 F 
ATOM     91  C   UNL A   1      39.467  36.140  39.208  1.00  0.00     0.060 A 
BRANCH  91  92
ATOM     92  S   UNL A   1      39.319  37.335  40.555  1.00  0.00     0.124 S 
ATOM     93  O   UNL A   1      38.804  36.499  41.634  1.00  0.00    -0.237 OA
ATOM     94  O   UNL A   1      40.693  37.801  40.715  1.00  0.00    -0.237 OA
ATOM     95  O   UNL A   1      38.386  38.326  40.027  1.00  0.00    -0.744 OA
ENDBRANCH  91  92
ENDBRANCH  59  84
ENDBRANCH  33  34
ENDBRANCH  25  28
ENDBRANCH  23  24
ENDBRANCH   1  23
TORSDOF 18
ENDMDL
