MODEL 1
REMARK VINA RESULT:     -11.8      0.000      0.000
REMARK SMILES C/C=C/C=C/C=C/C(=O)O[C@H]1C=C(C=O)[C@@](O)(C(=O)NCCCNC(=O)c2ccc(-c3c4nc(c(-c5c(F)cc(S(=O)(=O)[O-])cc5F)c5ccc([nH]5)c(-c5c(F)cc(S(=O)(=O)[O-])cc5F)c5nc(c(-c6c(F)cc(S(=O)(=O)[O-])cc6F)c6ccc3[nH]6)C=C5)C=C4)cc2)[C@]2(C)CCCC(C)(C)[C@@H]12
REMARK SMILES IDX 21 1 20 2 18 3 19 4 16 6 11 7 12 8 101 9 13 10 93 11 98 12
REMARK SMILES IDX 95 13 94 14 97 15 99 16 100 17 96 18 10 19 8 20 9 21 7 22
REMARK SMILES IDX 6 23 5 24 4 25 3 26 1 27 2 28 14 29 15 30 17 31 22 33 23 34
REMARK SMILES IDX 24 35 25 36 26 38 27 39 28 40 92 41 29 42 91 43 30 44 31 45
REMARK SMILES IDX 32 46 85 47 33 48 90 49 84 50 86 51 34 52 89 53 83 54 82 55
REMARK SMILES IDX 35 57 69 58 48 59 68 60 49 61 52 62 67 63 87 64 50 65 51 66
REMARK SMILES IDX 66 68 88 69 53 70 36 71 37 72 46 73 38 74 39 75 45 76 47 77
REMARK SMILES IDX 40 78 41 79 42 80 43 81 44 82 70 83 71 84 80 85 72 86 73 87
REMARK SMILES IDX 79 88 81 89 74 90 75 91 76 92 77 93 78 94 54 95 55 96 64 97
REMARK SMILES IDX 56 98 57 99 63 100 65 101 58 102 59 103 60 104 61 105 62 106
REMARK H PARENT 20 5 17 32 24 37 86 56 52 67
REMARK Flexibility Score: inf
ROOT
ATOM      1  C   UNL A   1      38.147  22.685  25.874  1.00  0.00     0.117 C 
ENDROOT
BRANCH   1   2
ATOM      2  N   UNL A   1      37.327  21.535  25.541  1.00  0.00    -0.353 N 
ATOM      3  C   UNL A   1      36.001  21.471  25.194  1.00  0.00     0.257 C 
ATOM      4  O   UNL A   1      35.546  20.361  24.903  1.00  0.00    -0.271 OA
ATOM      5  H   UNL A   1      37.792  20.669  25.569  1.00  0.00     0.163 HD
BRANCH   3   6
ATOM      6  C   UNL A   1      35.121  22.760  25.184  1.00  0.00     0.176 C 
ATOM      7  C   UNL A   1      33.022  24.846  25.883  1.00  0.00     0.204 C 
ATOM      8  C   UNL A   1      34.189  24.340  26.685  1.00  0.00     0.028 C 
ATOM      9  C   UNL A   1      33.155  24.261  24.374  1.00  0.00     0.049 C 
ATOM     10  C   UNL A   1      34.565  23.058  26.552  1.00  0.00     0.033 C 
ATOM     11  C   UNL A   1      33.894  22.808  24.169  1.00  0.00     0.017 C 
ATOM     12  C   UNL A   1      32.138  24.695  23.254  1.00  0.00    -0.028 C 
ATOM     13  C   UNL A   1      34.402  22.742  22.697  1.00  0.00     0.011 C 
ATOM     14  C   UNL A   1      32.983  21.555  24.319  1.00  0.00     0.016 C 
ATOM     15  C   UNL A   1      32.753  24.397  21.847  1.00  0.00     0.007 C 
ATOM     16  C   UNL A   1      30.749  24.052  23.333  1.00  0.00     0.011 C 
ATOM     17  C   UNL A   1      31.935  26.229  23.316  1.00  0.00     0.011 C 
ATOM     18  C   UNL A   1      33.298  22.983  21.679  1.00  0.00     0.001 C 
BRANCH   7  19
ATOM     19  O   UNL A   1      31.808  24.733  26.650  1.00  0.00    -0.455 OA
BRANCH  19  20
ATOM     20  C   UNL A   1      30.846  25.733  26.559  1.00  0.00     0.331 C 
ATOM     21  O   UNL A   1      29.651  25.475  26.465  1.00  0.00    -0.247 OA
BRANCH  20  22
ATOM     22  C   UNL A   1      31.288  27.140  26.832  1.00  0.00     0.093 C 
ATOM     23  C   UNL A   1      31.156  28.161  25.955  1.00  0.00     0.007 C 
BRANCH  23  24
ATOM     24  C   UNL A   1      32.063  29.319  25.987  1.00  0.00     0.000 C 
ATOM     25  C   UNL A   1      32.923  29.521  27.008  1.00  0.00    -0.000 C 
BRANCH  25  26
ATOM     26  C   UNL A   1      33.644  30.760  27.264  1.00  0.00    -0.005 C 
ATOM     27  C   UNL A   1      35.759  32.036  27.801  1.00  0.00     0.035 C 
ATOM     28  C   UNL A   1      34.968  30.796  27.507  1.00  0.00    -0.030 C 
ENDBRANCH  25  26
ENDBRANCH  23  24
ENDBRANCH  20  22
ENDBRANCH  19  20
ENDBRANCH   7  19
BRANCH  10  29
ATOM     29  C   UNL A   1      33.721  22.059  27.271  1.00  0.00     0.259 C 
ATOM     30  O   UNL A   1      32.892  22.354  28.126  1.00  0.00    -0.298 OA
ENDBRANCH  10  29
BRANCH   6  31
ATOM     31  O   UNL A   1      35.998  23.892  24.956  1.00  0.00    -0.375 OA
ATOM     32  H   UNL A   1      36.521  23.740  24.153  1.00  0.00     0.212 HD
ENDBRANCH   6  31
ENDBRANCH   3   6
ENDBRANCH   1   2
BRANCH   1  33
ATOM     33  C   UNL A   1      39.458  22.330  26.578  1.00  0.00     0.042 C 
BRANCH  33  34
ATOM     34  C   UNL A   1      40.118  23.543  27.197  1.00  0.00     0.118 C 
BRANCH  34  35
ATOM     35  N   UNL A   1      40.837  24.319  26.190  1.00  0.00    -0.352 N 
ATOM     36  C   UNL A   1      41.078  25.662  26.136  1.00  0.00     0.251 C 
ATOM     37  H   UNL A   1      41.202  23.798  25.440  1.00  0.00     0.163 HD
ATOM     38  O   UNL A   1      41.473  26.163  25.076  1.00  0.00    -0.269 OA
BRANCH  36  39
ATOM     39  C   UNL A   1      40.863  26.501  27.326  1.00  0.00     0.039 A 
ATOM     40  C   UNL A   1      39.888  26.131  28.254  1.00  0.00     0.014 A 
ATOM     41  C   UNL A   1      41.619  27.662  27.516  1.00  0.00     0.014 A 
ATOM     42  C   UNL A   1      39.709  26.899  29.404  1.00  0.00     0.010 A 
ATOM     43  C   UNL A   1      41.503  28.372  28.702  1.00  0.00     0.010 A 
ATOM     44  C   UNL A   1      40.538  28.005  29.650  1.00  0.00    -0.014 A 
BRANCH  44  45
ATOM     45  C   UNL A   1      40.413  28.812  30.886  1.00  0.00     0.031 A 
ATOM     46  C   UNL A   1      39.399  29.921  30.947  1.00  0.00     0.074 A 
ATOM     47  C   UNL A   1      41.267  28.603  31.905  1.00  0.00     0.049 A 
ATOM     48  N   UNL A   1      39.218  30.820  31.878  1.00  0.00    -0.248 NA
ATOM     49  C   UNL A   1      38.491  30.057  29.796  1.00  0.00     0.031 C 
ATOM     50  C   UNL A   1      42.315  27.580  31.936  1.00  0.00     0.029 A 
ATOM     51  N   UNL A   1      41.403  29.252  33.105  1.00  0.00    -0.354 N 
ATOM     52  C   UNL A   1      38.192  31.636  31.419  1.00  0.00     0.074 A 
ATOM     53  C   UNL A   1      37.825  31.160  30.103  1.00  0.00     0.031 C 
ATOM     54  C   UNL A   1      42.975  27.661  33.101  1.00  0.00     0.029 A 
ATOM     55  C   UNL A   1      42.432  28.770  33.878  1.00  0.00     0.049 A 
ATOM     56  H   UNL A   1      40.818  29.993  33.386  1.00  0.00     0.167 HD
ATOM     57  C   UNL A   1      37.595  32.675  32.049  1.00  0.00     0.037 A 
ATOM     58  C   UNL A   1      42.896  29.189  35.072  1.00  0.00     0.037 A 
ATOM     59  C   UNL A   1      37.954  33.123  33.368  1.00  0.00     0.049 A 
ATOM     60  C   UNL A   1      42.227  30.356  35.745  1.00  0.00     0.074 A 
ATOM     61  C   UNL A   1      37.376  34.130  34.120  1.00  0.00     0.029 A 
ATOM     62  N   UNL A   1      38.985  32.593  34.132  1.00  0.00    -0.354 N 
ATOM     63  N   UNL A   1      41.218  31.082  35.324  1.00  0.00    -0.248 NA
ATOM     64  C   UNL A   1      42.753  30.760  37.055  1.00  0.00     0.031 C 
ATOM     65  C   UNL A   1      38.089  34.243  35.317  1.00  0.00     0.029 A 
ATOM     66  C   UNL A   1      39.074  33.267  35.336  1.00  0.00     0.049 A 
ATOM     67  H   UNL A   1      39.566  31.848  33.856  1.00  0.00     0.167 HD
ATOM     68  C   UNL A   1      40.968  32.006  36.331  1.00  0.00     0.074 A 
ATOM     69  C   UNL A   1      41.928  31.745  37.384  1.00  0.00     0.031 C 
ATOM     70  C   UNL A   1      40.026  32.980  36.381  1.00  0.00     0.037 A 
BRANCH  57  71
ATOM     71  C   UNL A   1      36.495  33.398  31.320  1.00  0.00     0.058 A 
ATOM     72  C   UNL A   1      36.764  34.265  30.249  1.00  0.00     0.135 A 
ATOM     73  C   UNL A   1      35.152  33.194  31.674  1.00  0.00     0.135 A 
ATOM     74  F   UNL A   1      38.032  34.511  29.879  1.00  0.00    -0.206 F 
ATOM     75  C   UNL A   1      35.744  34.925  29.573  1.00  0.00     0.059 A 
ATOM     76  C   UNL A   1      34.112  33.819  30.991  1.00  0.00     0.059 A 
ATOM     77  F   UNL A   1      34.837  32.377  32.692  1.00  0.00    -0.206 F 
ATOM     78  C   UNL A   1      34.420  34.695  29.951  1.00  0.00     0.060 A 
BRANCH  78  79
ATOM     79  S   UNL A   1      33.108  35.555  29.058  1.00  0.00     0.124 S 
ATOM     80  O   UNL A   1      32.286  36.049  30.159  1.00  0.00    -0.237 OA
ATOM     81  O   UNL A   1      33.850  36.570  28.317  1.00  0.00    -0.237 OA
ATOM     82  O   UNL A   1      32.503  34.504  28.246  1.00  0.00    -0.744 OA
ENDBRANCH  78  79
ENDBRANCH  57  71
BRANCH  58  83
ATOM     83  C   UNL A   1      44.043  28.489  35.707  1.00  0.00     0.058 A 
ATOM     84  C   UNL A   1      45.356  28.950  35.531  1.00  0.00     0.135 A 
ATOM     85  C   UNL A   1      43.850  27.360  36.520  1.00  0.00     0.135 A 
ATOM     86  F   UNL A   1      45.591  30.023  34.761  1.00  0.00    -0.206 F 
ATOM     87  C   UNL A   1      46.438  28.309  36.123  1.00  0.00     0.059 A 
ATOM     88  C   UNL A   1      44.915  26.717  37.144  1.00  0.00     0.059 A 
ATOM     89  F   UNL A   1      42.612  26.890  36.737  1.00  0.00    -0.206 F 
ATOM     90  C   UNL A   1      46.207  27.194  36.930  1.00  0.00     0.060 A 
BRANCH  90  91
ATOM     91  S   UNL A   1      47.617  26.400  37.733  1.00  0.00     0.124 S 
ATOM     92  O   UNL A   1      48.199  27.513  38.471  1.00  0.00    -0.237 OA
ATOM     93  O   UNL A   1      46.968  25.367  38.535  1.00  0.00    -0.237 OA
ATOM     94  O   UNL A   1      48.405  25.904  36.609  1.00  0.00    -0.744 OA
ENDBRANCH  90  91
ENDBRANCH  58  83
BRANCH  70  95
ATOM     95  C   UNL A   1      39.945  33.811  37.632  1.00  0.00     0.058 A 
ATOM     96  C   UNL A   1      40.689  34.990  37.785  1.00  0.00     0.135 A 
ATOM     97  C   UNL A   1      39.043  33.463  38.651  1.00  0.00     0.135 A 
ATOM     98  F   UNL A   1      41.571  35.361  36.843  1.00  0.00    -0.206 F 
ATOM     99  C   UNL A   1      40.545  35.795  38.911  1.00  0.00     0.059 A 
ATOM    100  C   UNL A   1      38.863  34.268  39.772  1.00  0.00     0.059 A 
ATOM    101  F   UNL A   1      38.302  32.348  38.548  1.00  0.00    -0.206 F 
ATOM    102  C   UNL A   1      39.623  35.430  39.894  1.00  0.00     0.060 A 
BRANCH 102 103
ATOM    103  S   UNL A   1      39.399  36.519  41.315  1.00  0.00     0.124 S 
ATOM    104  O   UNL A   1      38.428  35.773  42.109  1.00  0.00    -0.237 OA
ATOM    105  O   UNL A   1      40.748  36.591  41.868  1.00  0.00    -0.237 OA
ATOM    106  O   UNL A   1      38.905  37.758  40.721  1.00  0.00    -0.744 OA
ENDBRANCH 102 103
ENDBRANCH  70  95
ENDBRANCH  44  45
ENDBRANCH  36  39
ENDBRANCH  34  35
ENDBRANCH  33  34
ENDBRANCH   1  33
TORSDOF 20
ENDMDL
MODEL 2
REMARK VINA RESULT:     -11.7      6.444     11.597
REMARK SMILES C/C=C/C=C/C=C/C(=O)O[C@H]1C=C(C=O)[C@@](O)(C(=O)NCCCNC(=O)c2ccc(-c3c4nc(c(-c5c(F)cc(S(=O)(=O)[O-])cc5F)c5ccc([nH]5)c(-c5c(F)cc(S(=O)(=O)[O-])cc5F)c5nc(c(-c6c(F)cc(S(=O)(=O)[O-])cc6F)c6ccc3[nH]6)C=C5)C=C4)cc2)[C@]2(C)CCCC(C)(C)[C@@H]12
REMARK SMILES IDX 21 1 20 2 18 3 19 4 16 6 11 7 12 8 101 9 13 10 93 11 98 12
REMARK SMILES IDX 95 13 94 14 97 15 99 16 100 17 96 18 10 19 8 20 9 21 7 22
REMARK SMILES IDX 6 23 5 24 4 25 3 26 1 27 2 28 14 29 15 30 17 31 22 33 23 34
REMARK SMILES IDX 24 35 25 36 26 38 27 39 28 40 92 41 29 42 91 43 30 44 31 45
REMARK SMILES IDX 32 46 85 47 33 48 90 49 84 50 86 51 34 52 89 53 83 54 82 55
REMARK SMILES IDX 35 57 69 58 48 59 68 60 49 61 52 62 67 63 87 64 50 65 51 66
REMARK SMILES IDX 66 68 88 69 53 70 36 71 37 72 46 73 38 74 39 75 45 76 47 77
REMARK SMILES IDX 40 78 41 79 42 80 43 81 44 82 70 83 71 84 80 85 72 86 73 87
REMARK SMILES IDX 79 88 81 89 74 90 75 91 76 92 77 93 78 94 54 95 55 96 64 97
REMARK SMILES IDX 56 98 57 99 63 100 65 101 58 102 59 103 60 104 61 105 62 106
REMARK H PARENT 20 5 17 32 24 37 86 56 52 67
REMARK Flexibility Score: inf
ROOT
ATOM      1  C   UNL A   1      33.022  30.092  27.255  1.00  0.00     0.117 C 
ENDROOT
BRANCH   1   2
ATOM      2  N   UNL A   1      32.158  30.079  26.088  1.00  0.00    -0.353 N 
ATOM      3  C   UNL A   1      31.790  29.035  25.278  1.00  0.00     0.257 C 
ATOM      4  O   UNL A   1      30.992  29.280  24.369  1.00  0.00    -0.271 OA
ATOM      5  H   UNL A   1      31.779  30.952  25.841  1.00  0.00     0.163 HD
BRANCH   3   6
ATOM      6  C   UNL A   1      32.378  27.608  25.508  1.00  0.00     0.176 C 
ATOM      7  C   UNL A   1      33.868  24.986  25.118  1.00  0.00     0.204 C 
ATOM      8  C   UNL A   1      34.389  26.394  25.190  1.00  0.00     0.028 C 
ATOM      9  C   UNL A   1      32.299  25.006  25.537  1.00  0.00     0.049 C 
ATOM     10  C   UNL A   1      33.635  27.394  24.705  1.00  0.00     0.033 C 
ATOM     11  C   UNL A   1      31.429  26.363  25.214  1.00  0.00     0.017 C 
ATOM     12  C   UNL A   1      31.485  23.665  25.663  1.00  0.00    -0.028 C 
ATOM     13  C   UNL A   1      30.203  26.375  26.176  1.00  0.00     0.011 C 
ATOM     14  C   UNL A   1      30.805  26.447  23.791  1.00  0.00     0.016 C 
ATOM     15  C   UNL A   1      30.201  23.912  26.520  1.00  0.00     0.007 C 
ATOM     16  C   UNL A   1      31.077  23.009  24.339  1.00  0.00     0.011 C 
ATOM     17  C   UNL A   1      32.329  22.628  26.446  1.00  0.00     0.011 C 
ATOM     18  C   UNL A   1      29.364  25.109  26.080  1.00  0.00     0.001 C 
BRANCH   7  19
ATOM     19  O   UNL A   1      34.337  24.344  23.917  1.00  0.00    -0.455 OA
BRANCH  19  20
ATOM     20  C   UNL A   1      35.175  23.239  24.014  1.00  0.00     0.331 C 
ATOM     21  O   UNL A   1      36.388  23.356  24.158  1.00  0.00    -0.247 OA
BRANCH  20  22
ATOM     22  C   UNL A   1      34.528  21.898  24.195  1.00  0.00     0.093 C 
ATOM     23  C   UNL A   1      34.983  20.943  25.037  1.00  0.00     0.007 C 
BRANCH  23  24
ATOM     24  C   UNL A   1      34.720  19.516  24.790  1.00  0.00     0.000 C 
ATOM     25  C   UNL A   1      33.525  19.083  24.333  1.00  0.00    -0.000 C 
BRANCH  25  26
ATOM     26  C   UNL A   1      33.083  17.696  24.327  1.00  0.00    -0.005 C 
ATOM     27  C   UNL A   1      32.862  15.424  25.413  1.00  0.00     0.035 C 
ATOM     28  C   UNL A   1      33.272  16.866  25.371  1.00  0.00    -0.030 C 
ENDBRANCH  25  26
ENDBRANCH  23  24
ENDBRANCH  20  22
ENDBRANCH  19  20
ENDBRANCH   7  19
BRANCH  10  29
ATOM     29  C   UNL A   1      33.632  27.540  23.221  1.00  0.00     0.259 C 
ATOM     30  O   UNL A   1      34.236  28.423  22.619  1.00  0.00    -0.298 OA
ENDBRANCH  10  29
BRANCH   6  31
ATOM     31  O   UNL A   1      32.870  27.546  26.871  1.00  0.00    -0.375 OA
ATOM     32  H   UNL A   1      33.817  27.757  26.883  1.00  0.00     0.212 HD
ENDBRANCH   6  31
ENDBRANCH   3   6
ENDBRANCH   1   2
BRANCH   1  33
ATOM     33  C   UNL A   1      34.489  30.388  26.938  1.00  0.00     0.042 C 
BRANCH  33  34
ATOM     34  C   UNL A   1      35.429  29.702  27.907  1.00  0.00     0.118 C 
BRANCH  34  35
ATOM     35  N   UNL A   1      35.406  30.358  29.211  1.00  0.00    -0.352 N 
ATOM     36  C   UNL A   1      36.390  30.454  30.154  1.00  0.00     0.251 C 
ATOM     37  H   UNL A   1      34.557  30.796  29.446  1.00  0.00     0.163 HD
ATOM     38  O   UNL A   1      36.096  30.818  31.299  1.00  0.00    -0.269 OA
BRANCH  36  39
ATOM     39  C   UNL A   1      37.781  30.120  29.809  1.00  0.00     0.039 A 
ATOM     40  C   UNL A   1      38.668  29.761  30.825  1.00  0.00     0.014 A 
ATOM     41  C   UNL A   1      38.209  30.174  28.479  1.00  0.00     0.014 A 
ATOM     42  C   UNL A   1      39.976  29.403  30.499  1.00  0.00     0.010 A 
ATOM     43  C   UNL A   1      39.481  29.730  28.148  1.00  0.00     0.010 A 
ATOM     44  C   UNL A   1      40.379  29.353  29.155  1.00  0.00    -0.014 A 
BRANCH  44  45
ATOM     45  C   UNL A   1      41.743  28.925  28.768  1.00  0.00     0.031 A 
ATOM     46  C   UNL A   1      42.841  29.949  28.666  1.00  0.00     0.074 A 
ATOM     47  C   UNL A   1      41.965  27.643  28.424  1.00  0.00     0.049 A 
ATOM     48  N   UNL A   1      44.062  29.805  28.223  1.00  0.00    -0.248 NA
ATOM     49  C   UNL A   1      42.511  31.321  29.088  1.00  0.00     0.031 C 
ATOM     50  C   UNL A   1      40.962  26.574  28.448  1.00  0.00     0.029 A 
ATOM     51  N   UNL A   1      43.099  27.022  27.969  1.00  0.00    -0.354 N 
ATOM     52  C   UNL A   1      44.639  31.067  28.296  1.00  0.00     0.074 A 
ATOM     53  C   UNL A   1      43.620  31.975  28.775  1.00  0.00     0.031 C 
ATOM     54  C   UNL A   1      41.531  25.429  28.041  1.00  0.00     0.029 A 
ATOM     55  C   UNL A   1      42.920  25.691  27.681  1.00  0.00     0.049 A 
ATOM     56  H   UNL A   1      43.960  27.487  27.859  1.00  0.00     0.167 HD
ATOM     57  C   UNL A   1      45.911  31.429  28.010  1.00  0.00     0.037 A 
ATOM     58  C   UNL A   1      43.777  24.787  27.166  1.00  0.00     0.037 A 
ATOM     59  C   UNL A   1      46.922  30.510  27.558  1.00  0.00     0.049 A 
ATOM     60  C   UNL A   1      45.182  25.216  26.841  1.00  0.00     0.074 A 
ATOM     61  C   UNL A   1      48.256  30.762  27.293  1.00  0.00     0.029 A 
ATOM     62  N   UNL A   1      46.710  29.162  27.303  1.00  0.00    -0.354 N 
ATOM     63  N   UNL A   1      45.730  26.402  26.971  1.00  0.00    -0.248 NA
ATOM     64  C   UNL A   1      46.085  24.190  26.305  1.00  0.00     0.031 C 
ATOM     65  C   UNL A   1      48.839  29.579  26.829  1.00  0.00     0.029 A 
ATOM     66  C   UNL A   1      47.883  28.576  26.861  1.00  0.00     0.049 A 
ATOM     67  H   UNL A   1      45.852  28.694  27.418  1.00  0.00     0.167 HD
ATOM     68  C   UNL A   1      47.051  26.255  26.563  1.00  0.00     0.074 A 
ATOM     69  C   UNL A   1      47.220  24.866  26.188  1.00  0.00     0.031 C 
ATOM     70  C   UNL A   1      48.036  27.185  26.509  1.00  0.00     0.037 A 
BRANCH  57  71
ATOM     71  C   UNL A   1      46.282  32.878  28.176  1.00  0.00     0.058 A 
ATOM     72  C   UNL A   1      46.144  33.801  27.127  1.00  0.00     0.135 A 
ATOM     73  C   UNL A   1      46.746  33.357  29.412  1.00  0.00     0.135 A 
ATOM     74  F   UNL A   1      45.721  33.394  25.919  1.00  0.00    -0.206 F 
ATOM     75  C   UNL A   1      46.480  35.140  27.288  1.00  0.00     0.059 A 
ATOM     76  C   UNL A   1      47.058  34.700  29.605  1.00  0.00     0.059 A 
ATOM     77  F   UNL A   1      46.899  32.519  30.449  1.00  0.00    -0.206 F 
ATOM     78  C   UNL A   1      46.936  35.581  28.531  1.00  0.00     0.060 A 
BRANCH  78  79
ATOM     79  S   UNL A   1      47.361  37.325  28.723  1.00  0.00     0.124 S 
ATOM     80  O   UNL A   1      47.180  37.509  30.160  1.00  0.00    -0.237 OA
ATOM     81  O   UNL A   1      48.741  37.363  28.249  1.00  0.00    -0.237 OA
ATOM     82  O   UNL A   1      46.389  38.008  27.877  1.00  0.00    -0.744 OA
ENDBRANCH  78  79
ENDBRANCH  57  71
BRANCH  58  83
ATOM     83  C   UNL A   1      43.331  23.386  26.943  1.00  0.00     0.058 A 
ATOM     84  C   UNL A   1      43.071  22.911  25.649  1.00  0.00     0.135 A 
ATOM     85  C   UNL A   1      43.176  22.490  28.012  1.00  0.00     0.135 A 
ATOM     86  F   UNL A   1      43.202  23.731  24.595  1.00  0.00    -0.206 F 
ATOM     87  C   UNL A   1      42.657  21.603  25.423  1.00  0.00     0.059 A 
ATOM     88  C   UNL A   1      42.789  21.169  27.809  1.00  0.00     0.059 A 
ATOM     89  F   UNL A   1      43.432  22.889  29.268  1.00  0.00    -0.206 F 
ATOM     90  C   UNL A   1      42.521  20.738  26.511  1.00  0.00     0.060 A 
BRANCH  90  91
ATOM     91  S   UNL A   1      42.031  19.028  26.200  1.00  0.00     0.124 S 
ATOM     92  O   UNL A   1      40.628  19.187  25.839  1.00  0.00    -0.237 OA
ATOM     93  O   UNL A   1      42.932  18.645  25.117  1.00  0.00    -0.237 OA
ATOM     94  O   UNL A   1      42.285  18.369  27.477  1.00  0.00    -0.744 OA
ENDBRANCH  90  91
ENDBRANCH  58  83
BRANCH  70  95
ATOM     95  C   UNL A   1      49.403  26.733  26.076  1.00  0.00     0.058 A 
ATOM     96  C   UNL A   1      49.861  26.920  24.763  1.00  0.00     0.135 A 
ATOM     97  C   UNL A   1      50.293  26.185  27.013  1.00  0.00     0.135 A 
ATOM     98  F   UNL A   1      49.045  27.432  23.828  1.00  0.00    -0.206 F 
ATOM     99  C   UNL A   1      51.157  26.573  24.393  1.00  0.00     0.059 A 
ATOM    100  C   UNL A   1      51.601  25.857  26.671  1.00  0.00     0.059 A 
ATOM    101  F   UNL A   1      49.905  25.993  28.284  1.00  0.00    -0.206 F 
ATOM    102  C   UNL A   1      52.022  26.050  25.356  1.00  0.00     0.060 A 
BRANCH 102 103
ATOM    103  S   UNL A   1      53.719  25.669  24.877  1.00  0.00     0.124 S 
ATOM    104  O   UNL A   1      53.732  24.213  24.975  1.00  0.00    -0.237 OA
ATOM    105  O   UNL A   1      53.791  26.214  23.526  1.00  0.00    -0.237 OA
ATOM    106  O   UNL A   1      54.521  26.372  25.874  1.00  0.00    -0.744 OA
ENDBRANCH 102 103
ENDBRANCH  70  95
ENDBRANCH  44  45
ENDBRANCH  36  39
ENDBRANCH  34  35
ENDBRANCH  33  34
ENDBRANCH   1  33
TORSDOF 20
ENDMDL
MODEL 3
REMARK VINA RESULT:     -11.7      1.181      2.122
REMARK SMILES C/C=C/C=C/C=C/C(=O)O[C@H]1C=C(C=O)[C@@](O)(C(=O)NCCCNC(=O)c2ccc(-c3c4nc(c(-c5c(F)cc(S(=O)(=O)[O-])cc5F)c5ccc([nH]5)c(-c5c(F)cc(S(=O)(=O)[O-])cc5F)c5nc(c(-c6c(F)cc(S(=O)(=O)[O-])cc6F)c6ccc3[nH]6)C=C5)C=C4)cc2)[C@]2(C)CCCC(C)(C)[C@@H]12
REMARK SMILES IDX 21 1 20 2 18 3 19 4 16 6 11 7 12 8 101 9 13 10 93 11 98 12
REMARK SMILES IDX 95 13 94 14 97 15 99 16 100 17 96 18 10 19 8 20 9 21 7 22
REMARK SMILES IDX 6 23 5 24 4 25 3 26 1 27 2 28 14 29 15 30 17 31 22 33 23 34
REMARK SMILES IDX 24 35 25 36 26 38 27 39 28 40 92 41 29 42 91 43 30 44 31 45
REMARK SMILES IDX 32 46 85 47 33 48 90 49 84 50 86 51 34 52 89 53 83 54 82 55
REMARK SMILES IDX 35 57 69 58 48 59 68 60 49 61 52 62 67 63 87 64 50 65 51 66
REMARK SMILES IDX 66 68 88 69 53 70 36 71 37 72 46 73 38 74 39 75 45 76 47 77
REMARK SMILES IDX 40 78 41 79 42 80 43 81 44 82 70 83 71 84 80 85 72 86 73 87
REMARK SMILES IDX 79 88 81 89 74 90 75 91 76 92 77 93 78 94 54 95 55 96 64 97
REMARK SMILES IDX 56 98 57 99 63 100 65 101 58 102 59 103 60 104 61 105 62 106
REMARK H PARENT 20 5 17 32 24 37 86 56 52 67
REMARK Flexibility Score: inf
ROOT
ATOM      1  C   UNL A   1      37.887  22.742  25.878  1.00  0.00     0.117 C 
ENDROOT
BRANCH   1   2
ATOM      2  N   UNL A   1      36.949  21.670  25.594  1.00  0.00    -0.353 N 
ATOM      3  C   UNL A   1      35.648  21.730  25.164  1.00  0.00     0.257 C 
ATOM      4  O   UNL A   1      35.076  20.659  24.943  1.00  0.00    -0.271 OA
ATOM      5  H   UNL A   1      37.302  20.762  25.731  1.00  0.00     0.163 HD
BRANCH   3   6
ATOM      6  C   UNL A   1      34.937  23.107  24.979  1.00  0.00     0.176 C 
ATOM      7  C   UNL A   1      33.130  25.518  25.389  1.00  0.00     0.204 C 
ATOM      8  C   UNL A   1      34.238  24.981  26.252  1.00  0.00     0.028 C 
ATOM      9  C   UNL A   1      33.162  24.723  23.973  1.00  0.00     0.049 C 
ATOM     10  C   UNL A   1      34.446  23.655  26.294  1.00  0.00     0.033 C 
ATOM     11  C   UNL A   1      33.709  23.174  23.968  1.00  0.00     0.017 C 
ATOM     12  C   UNL A   1      32.189  25.128  22.804  1.00  0.00    -0.028 C 
ATOM     13  C   UNL A   1      34.179  22.847  22.518  1.00  0.00     0.011 C 
ATOM     14  C   UNL A   1      32.650  22.079  24.286  1.00  0.00     0.016 C 
ATOM     15  C   UNL A   1      32.736  24.568  21.451  1.00  0.00     0.007 C 
ATOM     16  C   UNL A   1      30.731  24.683  22.970  1.00  0.00     0.011 C 
ATOM     17  C   UNL A   1      32.182  26.670  22.657  1.00  0.00     0.011 C 
ATOM     18  C   UNL A   1      33.096  23.086  21.477  1.00  0.00     0.001 C 
BRANCH   7  19
ATOM     19  O   UNL A   1      31.925  25.665  26.164  1.00  0.00    -0.455 OA
BRANCH  19  20
ATOM     20  C   UNL A   1      31.432  26.939  26.427  1.00  0.00     0.331 C 
ATOM     21  O   UNL A   1      31.363  27.383  27.568  1.00  0.00    -0.247 OA
BRANCH  20  22
ATOM     22  C   UNL A   1      31.224  27.851  25.256  1.00  0.00     0.093 C 
ATOM     23  C   UNL A   1      31.329  29.199  25.316  1.00  0.00     0.007 C 
BRANCH  23  24
ATOM     24  C   UNL A   1      30.593  30.066  24.382  1.00  0.00     0.000 C 
ATOM     25  C   UNL A   1      29.992  29.573  23.278  1.00  0.00    -0.000 C 
BRANCH  25  26
ATOM     26  C   UNL A   1      29.492  30.373  22.169  1.00  0.00    -0.005 C 
ATOM     27  C   UNL A   1      28.076  32.245  21.233  1.00  0.00     0.035 C 
ATOM     28  C   UNL A   1      28.642  31.403  22.337  1.00  0.00    -0.030 C 
ENDBRANCH  25  26
ENDBRANCH  23  24
ENDBRANCH  20  22
ENDBRANCH  19  20
ENDBRANCH   7  19
BRANCH  10  29
ATOM     29  C   UNL A   1      33.497  22.878  27.142  1.00  0.00     0.259 C 
ATOM     30  O   UNL A   1      33.847  22.059  27.986  1.00  0.00    -0.298 OA
ENDBRANCH  10  29
BRANCH   6  31
ATOM     31  O   UNL A   1      35.946  24.078  24.600  1.00  0.00    -0.375 OA
ATOM     32  H   UNL A   1      36.227  23.912  23.686  1.00  0.00     0.212 HD
ENDBRANCH   6  31
ENDBRANCH   3   6
ENDBRANCH   1   2
BRANCH   1  33
ATOM     33  C   UNL A   1      39.236  22.261  26.412  1.00  0.00     0.042 C 
BRANCH  33  34
ATOM     34  C   UNL A   1      40.001  23.368  27.106  1.00  0.00     0.118 C 
BRANCH  34  35
ATOM     35  N   UNL A   1      40.882  24.061  26.171  1.00  0.00    -0.352 N 
ATOM     36  C   UNL A   1      41.254  25.375  26.137  1.00  0.00     0.251 C 
ATOM     37  H   UNL A   1      41.266  23.500  25.460  1.00  0.00     0.163 HD
ATOM     38  O   UNL A   1      41.793  25.825  25.118  1.00  0.00    -0.269 OA
BRANCH  36  39
ATOM     39  C   UNL A   1      41.008  26.244  27.299  1.00  0.00     0.039 A 
ATOM     40  C   UNL A   1      39.993  25.909  28.198  1.00  0.00     0.014 A 
ATOM     41  C   UNL A   1      41.774  27.397  27.491  1.00  0.00     0.014 A 
ATOM     42  C   UNL A   1      39.784  26.706  29.323  1.00  0.00     0.010 A 
ATOM     43  C   UNL A   1      41.625  28.136  28.656  1.00  0.00     0.010 A 
ATOM     44  C   UNL A   1      40.620  27.805  29.575  1.00  0.00    -0.014 A 
BRANCH  44  45
ATOM     45  C   UNL A   1      40.461  28.641  30.787  1.00  0.00     0.031 A 
ATOM     46  C   UNL A   1      39.436  29.742  30.799  1.00  0.00     0.074 A 
ATOM     47  C   UNL A   1      41.296  28.467  31.828  1.00  0.00     0.049 A 
ATOM     48  N   UNL A   1      39.227  30.662  31.703  1.00  0.00    -0.248 NA
ATOM     49  C   UNL A   1      38.551  29.839  29.626  1.00  0.00     0.031 C 
ATOM     50  C   UNL A   1      42.353  27.455  31.907  1.00  0.00     0.029 A 
ATOM     51  N   UNL A   1      41.401  29.147  33.014  1.00  0.00    -0.354 N 
ATOM     52  C   UNL A   1      38.203  31.455  31.202  1.00  0.00     0.074 A 
ATOM     53  C   UNL A   1      37.868  30.942  29.892  1.00  0.00     0.031 C 
ATOM     54  C   UNL A   1      42.987  27.573  33.083  1.00  0.00     0.029 A 
ATOM     55  C   UNL A   1      42.418  28.696  33.820  1.00  0.00     0.049 A 
ATOM     56  H   UNL A   1      40.804  29.889  33.264  1.00  0.00     0.167 HD
ATOM     57  C   UNL A   1      37.584  32.504  31.793  1.00  0.00     0.037 A 
ATOM     58  C   UNL A   1      42.853  29.149  35.012  1.00  0.00     0.037 A 
ATOM     59  C   UNL A   1      37.910  32.989  33.108  1.00  0.00     0.049 A 
ATOM     60  C   UNL A   1      42.159  30.325  35.642  1.00  0.00     0.074 A 
ATOM     61  C   UNL A   1      37.308  34.009  33.822  1.00  0.00     0.029 A 
ATOM     62  N   UNL A   1      38.930  32.488  33.906  1.00  0.00    -0.354 N 
ATOM     63  N   UNL A   1      41.152  31.030  35.181  1.00  0.00    -0.248 NA
ATOM     64  C   UNL A   1      42.654  30.768  36.952  1.00  0.00     0.031 C 
ATOM     65  C   UNL A   1      37.994  34.158  35.030  1.00  0.00     0.029 A 
ATOM     66  C   UNL A   1      38.987  33.194  35.094  1.00  0.00     0.049 A 
ATOM     67  H   UNL A   1      39.524  31.742  33.661  1.00  0.00     0.167 HD
ATOM     68  C   UNL A   1      40.873  31.977  36.159  1.00  0.00     0.074 A 
ATOM     69  C   UNL A   1      41.813  31.752  37.238  1.00  0.00     0.031 C 
ATOM     70  C   UNL A   1      39.921  32.943  36.166  1.00  0.00     0.037 A 
BRANCH  57  71
ATOM     71  C   UNL A   1      36.492  33.197  31.024  1.00  0.00     0.058 A 
ATOM     72  C   UNL A   1      35.136  33.010  31.335  1.00  0.00     0.135 A 
ATOM     73  C   UNL A   1      36.807  34.088  29.985  1.00  0.00     0.135 A 
ATOM     74  F   UNL A   1      34.776  32.157  32.308  1.00  0.00    -0.206 F 
ATOM     75  C   UNL A   1      34.130  33.660  30.628  1.00  0.00     0.059 A 
ATOM     76  C   UNL A   1      35.819  34.773  29.284  1.00  0.00     0.059 A 
ATOM     77  F   UNL A   1      38.087  34.303  29.643  1.00  0.00    -0.206 F 
ATOM     78  C   UNL A   1      34.481  34.540  29.603  1.00  0.00     0.060 A 
BRANCH  78  79
ATOM     79  S   UNL A   1      33.164  35.379  28.699  1.00  0.00     0.124 S 
ATOM     80  O   UNL A   1      33.931  36.247  27.810  1.00  0.00    -0.237 OA
ATOM     81  O   UNL A   1      32.471  34.267  28.055  1.00  0.00    -0.237 OA
ATOM     82  O   UNL A   1      32.413  36.062  29.747  1.00  0.00    -0.744 OA
ENDBRANCH  78  79
ENDBRANCH  57  71
BRANCH  58  83
ATOM     83  C   UNL A   1      43.993  28.476  35.689  1.00  0.00     0.058 A 
ATOM     84  C   UNL A   1      43.777  27.439  36.607  1.00  0.00     0.135 A 
ATOM     85  C   UNL A   1      45.322  28.841  35.416  1.00  0.00     0.135 A 
ATOM     86  F   UNL A   1      42.525  27.057  36.903  1.00  0.00    -0.206 F 
ATOM     87  C   UNL A   1      44.832  26.798  37.245  1.00  0.00     0.059 A 
ATOM     88  C   UNL A   1      46.396  28.196  36.021  1.00  0.00     0.059 A 
ATOM     89  F   UNL A   1      45.584  29.813  34.529  1.00  0.00    -0.206 F 
ATOM     90  C   UNL A   1      46.140  27.182  36.942  1.00  0.00     0.060 A 
BRANCH  90  91
ATOM     91  S   UNL A   1      47.505  26.309  37.740  1.00  0.00     0.124 S 
ATOM     92  O   UNL A   1      46.927  25.988  39.039  1.00  0.00    -0.237 OA
ATOM     93  O   UNL A   1      47.715  25.182  36.836  1.00  0.00    -0.237 OA
ATOM     94  O   UNL A   1      48.576  27.300  37.750  1.00  0.00    -0.744 OA
ENDBRANCH  90  91
ENDBRANCH  58  83
BRANCH  70  95
ATOM     95  C   UNL A   1      39.806  33.804  37.393  1.00  0.00     0.058 A 
ATOM     96  C   UNL A   1      40.455  35.043  37.489  1.00  0.00     0.135 A 
ATOM     97  C   UNL A   1      38.963  33.417  38.448  1.00  0.00     0.135 A 
ATOM     98  F   UNL A   1      41.278  35.454  36.511  1.00  0.00    -0.206 F 
ATOM     99  C   UNL A   1      40.275  35.870  38.594  1.00  0.00     0.059 A 
ATOM    100  C   UNL A   1      38.748  34.241  39.549  1.00  0.00     0.059 A 
ATOM    101  F   UNL A   1      38.314  32.243  38.401  1.00  0.00    -0.206 F 
ATOM    102  C   UNL A   1      39.414  35.464  39.615  1.00  0.00     0.060 A 
BRANCH 102 103
ATOM    103  S   UNL A   1      39.140  36.576  41.008  1.00  0.00     0.124 S 
ATOM    104  O   UNL A   1      38.642  37.773  40.337  1.00  0.00    -0.237 OA
ATOM    105  O   UNL A   1      38.161  35.843  41.804  1.00  0.00    -0.237 OA
ATOM    106  O   UNL A   1      40.463  36.699  41.611  1.00  0.00    -0.744 OA
ENDBRANCH 102 103
ENDBRANCH  70  95
ENDBRANCH  44  45
ENDBRANCH  36  39
ENDBRANCH  34  35
ENDBRANCH  33  34
ENDBRANCH   1  33
TORSDOF 20
ENDMDL
