MODEL 1
REMARK VINA RESULT:     -11.2      0.000      0.000
REMARK SMILES O=C(/C=C/c1c(Cl)cccc1Cl)NCC(=O)NCCCNC(=O)c1ccc(-c2c3nc(c(-c4c(F)cc(S(=O)(=O)[O-])cc4F)c4ccc([nH]4)c(-c4c(F)cc(S(=O)(=O)[O-])cc4F)c4nc(c(-c5c(F)cc(S(=O)(=O)[O-])cc5F)c5ccc2[nH]5)C=C4)C=C3)cc1
REMARK SMILES IDX 19 1 18 2 17 3 15 4 16 5 14 7 13 8 1 9 2 10 3 12 4 13 5 14
REMARK SMILES IDX 6 15 11 16 7 17 8 18 10 19 12 20 9 21 20 22 21 23 22 24
REMARK SMILES IDX 23 26 24 27 25 28 89 29 26 30 88 31 27 32 28 33 29 34 82 35
REMARK SMILES IDX 30 36 87 37 81 38 83 39 31 40 86 41 80 42 79 43 32 45 66 46
REMARK SMILES IDX 45 47 65 48 46 49 49 50 64 51 84 52 47 53 48 54 63 56 85 57
REMARK SMILES IDX 50 58 33 59 34 60 43 61 35 62 36 63 42 64 44 65 37 66 38 67
REMARK SMILES IDX 39 68 40 69 41 70 67 71 68 72 77 73 69 74 70 75 76 76 78 77
REMARK SMILES IDX 71 78 72 79 73 80 74 81 75 82 51 83 52 84 61 85 53 86 54 87
REMARK SMILES IDX 60 88 62 89 55 90 56 91 57 92 58 93 59 94
REMARK H PARENT 17 6 13 11 21 25 83 44 49 55
REMARK Flexibility Score: inf
ROOT
ATOM      1  C   UNL A   1      41.001  21.444  27.581  1.00  0.00     0.042 C 
ENDROOT
BRANCH   1   2
ATOM      2  C   UNL A   1      40.828  20.454  26.432  1.00  0.00     0.117 C 
BRANCH   2   3
ATOM      3  N   UNL A   1      41.523  19.202  26.675  1.00  0.00    -0.355 N 
ATOM      4  C   UNL A   1      42.743  18.798  26.213  1.00  0.00     0.239 C 
ATOM      5  O   UNL A   1      43.188  17.715  26.598  1.00  0.00    -0.273 OA
ATOM      6  H   UNL A   1      41.051  18.558  27.252  1.00  0.00     0.163 HD
BRANCH   4   7
ATOM      7  C   UNL A   1      43.557  19.708  25.292  1.00  0.00     0.216 C 
BRANCH   7   8
ATOM      8  N   UNL A   1      44.085  20.868  25.992  1.00  0.00    -0.343 N 
ATOM      9  O   UNL A   1      43.428  22.384  24.407  1.00  0.00    -0.270 OA
ATOM     10  C   UNL A   1      43.963  22.130  25.484  1.00  0.00     0.244 C 
ATOM     11  H   UNL A   1      44.542  20.740  26.854  1.00  0.00     0.164 HD
BRANCH  10  12
ATOM     12  C   UNL A   1      44.594  23.223  26.259  1.00  0.00     0.072 C 
ATOM     13  C   UNL A   1      45.045  23.135  27.519  1.00  0.00     0.017 C 
BRANCH  13  14
ATOM     14  C   UNL A   1      45.618  24.305  28.220  1.00  0.00     0.012 A 
ATOM     15  C   UNL A   1      46.749  24.990  27.731  1.00  0.00     0.049 A 
ATOM     16  C   UNL A   1      45.025  24.782  29.407  1.00  0.00     0.049 A 
ATOM     17  Cl  UNL A   1      47.527  24.550  26.244  1.00  0.00    -0.084 Cl
ATOM     18  C   UNL A   1      47.282  26.085  28.420  1.00  0.00     0.021 A 
ATOM     19  C   UNL A   1      45.555  25.885  30.086  1.00  0.00     0.021 A 
ATOM     20  Cl  UNL A   1      43.619  24.028  30.087  1.00  0.00    -0.084 Cl
ATOM     21  C   UNL A   1      46.688  26.532  29.597  1.00  0.00     0.003 A 
ENDBRANCH  13  14
ENDBRANCH  10  12
ENDBRANCH   7   8
ENDBRANCH   4   7
ENDBRANCH   2   3
ENDBRANCH   1   2
BRANCH   1  22
ATOM     22  C   UNL A   1      40.393  22.820  27.315  1.00  0.00     0.118 C 
BRANCH  22  23
ATOM     23  N   UNL A   1      41.098  23.554  26.273  1.00  0.00    -0.352 N 
ATOM     24  C   UNL A   1      41.450  24.878  26.199  1.00  0.00     0.251 C 
ATOM     25  H   UNL A   1      41.365  23.013  25.496  1.00  0.00     0.163 HD
ATOM     26  O   UNL A   1      41.890  25.319  25.138  1.00  0.00    -0.269 OA
BRANCH  24  27
ATOM     27  C   UNL A   1      41.296  25.779  27.363  1.00  0.00     0.039 A 
ATOM     28  C   UNL A   1      42.335  26.664  27.665  1.00  0.00     0.014 A 
ATOM     29  C   UNL A   1      40.166  25.729  28.184  1.00  0.00     0.014 A 
ATOM     30  C   UNL A   1      42.216  27.536  28.750  1.00  0.00     0.010 A 
ATOM     31  C   UNL A   1      40.020  26.645  29.225  1.00  0.00     0.010 A 
ATOM     32  C   UNL A   1      41.043  27.556  29.521  1.00  0.00    -0.014 A 
BRANCH  32  33
ATOM     33  C   UNL A   1      40.871  28.532  30.629  1.00  0.00     0.031 A 
ATOM     34  C   UNL A   1      41.712  28.431  31.874  1.00  0.00     0.074 A 
ATOM     35  C   UNL A   1      39.914  29.478  30.536  1.00  0.00     0.049 A 
ATOM     36  N   UNL A   1      41.665  29.155  32.963  1.00  0.00    -0.248 NA
ATOM     37  C   UNL A   1      42.722  27.361  31.909  1.00  0.00     0.031 C 
ATOM     38  C   UNL A   1      39.002  29.649  29.403  1.00  0.00     0.029 A 
ATOM     39  N   UNL A   1      39.542  30.467  31.413  1.00  0.00    -0.354 N 
ATOM     40  C   UNL A   1      42.625  28.623  33.816  1.00  0.00     0.074 A 
ATOM     41  C   UNL A   1      43.206  27.485  33.137  1.00  0.00     0.031 C 
ATOM     42  C   UNL A   1      38.193  30.692  29.643  1.00  0.00     0.029 A 
ATOM     43  C   UNL A   1      38.500  31.240  30.961  1.00  0.00     0.049 A 
ATOM     44  H   UNL A   1      39.981  30.609  32.282  1.00  0.00     0.167 HD
ATOM     45  C   UNL A   1      43.003  29.055  35.043  1.00  0.00     0.037 A 
ATOM     46  C   UNL A   1      37.855  32.269  31.545  1.00  0.00     0.037 A 
ATOM     47  C   UNL A   1      42.437  30.203  35.704  1.00  0.00     0.049 A 
ATOM     48  C   UNL A   1      38.296  32.735  32.905  1.00  0.00     0.074 A 
ATOM     49  C   UNL A   1      42.792  30.757  36.923  1.00  0.00     0.029 A 
ATOM     50  N   UNL A   1      41.398  30.974  35.205  1.00  0.00    -0.354 N 
ATOM     51  N   UNL A   1      39.248  32.258  33.671  1.00  0.00    -0.248 NA
ATOM     52  C   UNL A   1      37.582  33.884  33.478  1.00  0.00     0.031 C 
ATOM     53  C   UNL A   1      41.939  31.836  37.180  1.00  0.00     0.029 A 
ATOM     54  C   UNL A   1      41.084  31.985  36.100  1.00  0.00     0.049 A 
ATOM     55  H   UNL A   1      40.948  30.825  34.343  1.00  0.00     0.167 HD
ATOM     56  C   UNL A   1      39.264  33.062  34.804  1.00  0.00     0.074 A 
ATOM     57  C   UNL A   1      38.235  34.066  34.617  1.00  0.00     0.031 C 
ATOM     58  C   UNL A   1      40.059  32.979  35.900  1.00  0.00     0.037 A 
BRANCH  45  59
ATOM     59  C   UNL A   1      44.083  28.285  35.753  1.00  0.00     0.058 A 
ATOM     60  C   UNL A   1      45.444  28.576  35.560  1.00  0.00     0.135 A 
ATOM     61  C   UNL A   1      43.756  27.268  36.665  1.00  0.00     0.135 A 
ATOM     62  F   UNL A   1      45.815  29.528  34.691  1.00  0.00    -0.206 F 
ATOM     63  C   UNL A   1      46.441  27.867  36.222  1.00  0.00     0.059 A 
ATOM     64  C   UNL A   1      44.736  26.564  37.360  1.00  0.00     0.059 A 
ATOM     65  F   UNL A   1      42.471  26.949  36.890  1.00  0.00    -0.206 F 
ATOM     66  C   UNL A   1      46.077  26.861  37.121  1.00  0.00     0.060 A 
BRANCH  66  67
ATOM     67  S   UNL A   1      47.383  25.952  37.974  1.00  0.00     0.124 S 
ATOM     68  O   UNL A   1      47.385  24.690  37.240  1.00  0.00    -0.237 OA
ATOM     69  O   UNL A   1      48.546  26.808  37.767  1.00  0.00    -0.237 OA
ATOM     70  O   UNL A   1      46.901  25.876  39.349  1.00  0.00    -0.744 OA
ENDBRANCH  66  67
ENDBRANCH  45  59
BRANCH  46  71
ATOM     71  C   UNL A   1      36.737  32.942  30.832  1.00  0.00     0.058 A 
ATOM     72  C   UNL A   1      35.404  32.719  31.204  1.00  0.00     0.135 A 
ATOM     73  C   UNL A   1      36.980  33.835  29.775  1.00  0.00     0.135 A 
ATOM     74  F   UNL A   1      35.120  31.870  32.205  1.00  0.00    -0.206 F 
ATOM     75  C   UNL A   1      34.348  33.343  30.547  1.00  0.00     0.059 A 
ATOM     76  C   UNL A   1      35.944  34.489  29.119  1.00  0.00     0.059 A 
ATOM     77  F   UNL A   1      38.240  34.098  29.392  1.00  0.00    -0.206 F 
ATOM     78  C   UNL A   1      34.629  34.229  29.506  1.00  0.00     0.060 A 
BRANCH  78  79
ATOM     79  S   UNL A   1      33.259  35.077  28.690  1.00  0.00     0.124 S 
ATOM     80  O   UNL A   1      32.712  34.013  27.857  1.00  0.00    -0.237 OA
ATOM     81  O   UNL A   1      32.437  35.491  29.822  1.00  0.00    -0.237 OA
ATOM     82  O   UNL A   1      33.919  36.165  27.975  1.00  0.00    -0.744 OA
ENDBRANCH  78  79
ENDBRANCH  46  71
BRANCH  58  83
ATOM     83  C   UNL A   1      39.869  34.017  36.971  1.00  0.00     0.058 A 
ATOM     84  C   UNL A   1      39.102  33.763  38.118  1.00  0.00     0.135 A 
ATOM     85  C   UNL A   1      40.495  35.270  36.866  1.00  0.00     0.135 A 
ATOM     86  F   UNL A   1      38.477  32.585  38.266  1.00  0.00    -0.206 F 
ATOM     87  C   UNL A   1      38.941  34.724  39.112  1.00  0.00     0.059 A 
ATOM     88  C   UNL A   1      40.370  36.236  37.858  1.00  0.00     0.059 A 
ATOM     89  F   UNL A   1      41.248  35.562  35.793  1.00  0.00    -0.206 F 
ATOM     90  C   UNL A   1      39.578  35.958  38.973  1.00  0.00     0.060 A 
BRANCH  90  91
ATOM     91  S   UNL A   1      39.380  37.188  40.279  1.00  0.00     0.124 S 
ATOM     92  O   UNL A   1      38.680  38.256  39.574  1.00  0.00    -0.237 OA
ATOM     93  O   UNL A   1      38.595  36.464  41.274  1.00  0.00    -0.237 OA
ATOM     94  O   UNL A   1      40.753  37.490  40.672  1.00  0.00    -0.744 OA
ENDBRANCH  90  91
ENDBRANCH  58  83
ENDBRANCH  32  33
ENDBRANCH  24  27
ENDBRANCH  22  23
ENDBRANCH   1  22
TORSDOF 16
ENDMDL
MODEL 2
REMARK VINA RESULT:     -10.9      4.757      6.334
REMARK SMILES O=C(/C=C/c1c(Cl)cccc1Cl)NCC(=O)NCCCNC(=O)c1ccc(-c2c3nc(c(-c4c(F)cc(S(=O)(=O)[O-])cc4F)c4ccc([nH]4)c(-c4c(F)cc(S(=O)(=O)[O-])cc4F)c4nc(c(-c5c(F)cc(S(=O)(=O)[O-])cc5F)c5ccc2[nH]5)C=C4)C=C3)cc1
REMARK SMILES IDX 19 1 18 2 17 3 15 4 16 5 14 7 13 8 1 9 2 10 3 12 4 13 5 14
REMARK SMILES IDX 6 15 11 16 7 17 8 18 10 19 12 20 9 21 20 22 21 23 22 24
REMARK SMILES IDX 23 26 24 27 25 28 89 29 26 30 88 31 27 32 28 33 29 34 82 35
REMARK SMILES IDX 30 36 87 37 81 38 83 39 31 40 86 41 80 42 79 43 32 45 66 46
REMARK SMILES IDX 45 47 65 48 46 49 49 50 64 51 84 52 47 53 48 54 63 56 85 57
REMARK SMILES IDX 50 58 33 59 34 60 43 61 35 62 36 63 42 64 44 65 37 66 38 67
REMARK SMILES IDX 39 68 40 69 41 70 67 71 68 72 77 73 69 74 70 75 76 76 78 77
REMARK SMILES IDX 71 78 72 79 73 80 74 81 75 82 51 83 52 84 61 85 53 86 54 87
REMARK SMILES IDX 60 88 62 89 55 90 56 91 57 92 58 93 59 94
REMARK H PARENT 17 6 13 11 21 25 83 44 49 55
REMARK Flexibility Score: inf
ROOT
ATOM      1  C   UNL A   1      41.547  20.026  27.243  1.00  0.00     0.042 C 
ENDROOT
BRANCH   1   2
ATOM      2  C   UNL A   1      41.783  19.501  25.829  1.00  0.00     0.117 C 
BRANCH   2   3
ATOM      3  N   UNL A   1      42.923  18.605  25.758  1.00  0.00    -0.355 N 
ATOM      4  C   UNL A   1      44.178  18.854  25.280  1.00  0.00     0.239 C 
ATOM      5  O   UNL A   1      45.029  17.968  25.376  1.00  0.00    -0.273 OA
ATOM      6  H   UNL A   1      42.771  17.694  26.102  1.00  0.00     0.163 HD
BRANCH   4   7
ATOM      7  C   UNL A   1      44.521  20.228  24.702  1.00  0.00     0.216 C 
BRANCH   7   8
ATOM      8  N   UNL A   1      44.664  21.240  25.736  1.00  0.00    -0.343 N 
ATOM      9  O   UNL A   1      43.445  22.835  24.636  1.00  0.00    -0.270 OA
ATOM     10  C   UNL A   1      44.094  22.474  25.616  1.00  0.00     0.244 C 
ATOM     11  H   UNL A   1      45.186  21.028  26.544  1.00  0.00     0.164 HD
BRANCH  10  12
ATOM     12  C   UNL A   1      44.360  23.440  26.707  1.00  0.00     0.072 C 
ATOM     13  C   UNL A   1      45.115  23.212  27.793  1.00  0.00     0.017 C 
BRANCH  13  14
ATOM     14  C   UNL A   1      45.278  24.232  28.851  1.00  0.00     0.012 A 
ATOM     15  C   UNL A   1      46.457  24.993  28.980  1.00  0.00     0.049 A 
ATOM     16  C   UNL A   1      44.232  24.483  29.762  1.00  0.00     0.049 A 
ATOM     17  Cl  UNL A   1      47.788  24.833  27.880  1.00  0.00    -0.084 Cl
ATOM     18  C   UNL A   1      46.594  25.943  29.999  1.00  0.00     0.021 A 
ATOM     19  C   UNL A   1      44.369  25.442  30.772  1.00  0.00     0.021 A 
ATOM     20  Cl  UNL A   1      42.730  23.620  29.683  1.00  0.00    -0.084 Cl
ATOM     21  C   UNL A   1      45.553  26.166  30.896  1.00  0.00     0.003 A 
ENDBRANCH  13  14
ENDBRANCH  10  12
ENDBRANCH   7   8
ENDBRANCH   4   7
ENDBRANCH   2   3
ENDBRANCH   1   2
BRANCH   1  22
ATOM     22  C   UNL A   1      41.070  21.476  27.299  1.00  0.00     0.118 C 
BRANCH  22  23
ATOM     23  N   UNL A   1      39.769  21.664  26.671  1.00  0.00    -0.352 N 
ATOM     24  C   UNL A   1      38.998  22.791  26.539  1.00  0.00     0.251 C 
ATOM     25  H   UNL A   1      39.379  20.850  26.278  1.00  0.00     0.163 HD
ATOM     26  O   UNL A   1      37.845  22.679  26.123  1.00  0.00    -0.269 OA
BRANCH  24  27
ATOM     27  C   UNL A   1      39.523  24.126  26.901  1.00  0.00     0.039 A 
ATOM     28  C   UNL A   1      39.435  24.541  28.233  1.00  0.00     0.014 A 
ATOM     29  C   UNL A   1      40.056  24.989  25.938  1.00  0.00     0.014 A 
ATOM     30  C   UNL A   1      39.931  25.792  28.609  1.00  0.00     0.010 A 
ATOM     31  C   UNL A   1      40.612  26.207  26.326  1.00  0.00     0.010 A 
ATOM     32  C   UNL A   1      40.554  26.623  27.664  1.00  0.00    -0.014 A 
BRANCH  32  33
ATOM     33  C   UNL A   1      41.156  27.921  28.065  1.00  0.00     0.031 A 
ATOM     34  C   UNL A   1      42.638  28.151  27.927  1.00  0.00     0.074 A 
ATOM     35  C   UNL A   1      40.373  28.876  28.608  1.00  0.00     0.049 A 
ATOM     36  N   UNL A   1      43.347  29.194  28.276  1.00  0.00    -0.248 NA
ATOM     37  C   UNL A   1      43.429  27.056  27.345  1.00  0.00     0.031 C 
ATOM     38  C   UNL A   1      38.931  28.756  28.838  1.00  0.00     0.029 A 
ATOM     39  N   UNL A   1      40.679  30.130  29.073  1.00  0.00    -0.354 N 
ATOM     40  C   UNL A   1      44.665  28.879  27.969  1.00  0.00     0.074 A 
ATOM     41  C   UNL A   1      44.664  27.528  27.450  1.00  0.00     0.031 C 
ATOM     42  C   UNL A   1      38.476  29.896  29.380  1.00  0.00     0.029 A 
ATOM     43  C   UNL A   1      39.595  30.813  29.572  1.00  0.00     0.049 A 
ATOM     44  H   UNL A   1      41.589  30.506  29.052  1.00  0.00     0.167 HD
ATOM     45  C   UNL A   1      45.773  29.650  28.088  1.00  0.00     0.037 A 
ATOM     46  C   UNL A   1      39.511  32.036  30.130  1.00  0.00     0.037 A 
ATOM     47  C   UNL A   1      45.764  31.003  28.584  1.00  0.00     0.049 A 
ATOM     48  C   UNL A   1      40.753  32.877  30.246  1.00  0.00     0.074 A 
ATOM     49  C   UNL A   1      46.825  31.888  28.688  1.00  0.00     0.029 A 
ATOM     50  N   UNL A   1      44.644  31.667  29.059  1.00  0.00    -0.354 N 
ATOM     51  N   UNL A   1      41.982  32.585  29.893  1.00  0.00    -0.248 NA
ATOM     52  C   UNL A   1      40.597  34.216  30.829  1.00  0.00     0.031 C 
ATOM     53  C   UNL A   1      46.353  33.071  29.266  1.00  0.00     0.029 A 
ATOM     54  C   UNL A   1      44.990  32.942  29.478  1.00  0.00     0.049 A 
ATOM     55  H   UNL A   1      43.736  31.289  29.095  1.00  0.00     0.167 HD
ATOM     56  C   UNL A   1      42.741  33.711  30.188  1.00  0.00     0.074 A 
ATOM     57  C   UNL A   1      41.829  34.696  30.736  1.00  0.00     0.031 C 
ATOM     58  C   UNL A   1      44.072  33.914  30.019  1.00  0.00     0.037 A 
BRANCH  45  59
ATOM     59  C   UNL A   1      47.090  29.051  27.673  1.00  0.00     0.058 A 
ATOM     60  C   UNL A   1      48.058  28.674  28.618  1.00  0.00     0.135 A 
ATOM     61  C   UNL A   1      47.374  28.818  26.318  1.00  0.00     0.135 A 
ATOM     62  F   UNL A   1      47.846  28.885  29.925  1.00  0.00    -0.206 F 
ATOM     63  C   UNL A   1      49.272  28.115  28.232  1.00  0.00     0.059 A 
ATOM     64  C   UNL A   1      48.570  28.234  25.910  1.00  0.00     0.059 A 
ATOM     65  F   UNL A   1      46.484  29.158  25.372  1.00  0.00    -0.206 F 
ATOM     66  C   UNL A   1      49.520  27.900  26.874  1.00  0.00     0.060 A 
BRANCH  66  67
ATOM     67  S   UNL A   1      51.099  27.170  26.391  1.00  0.00     0.124 S 
ATOM     68  O   UNL A   1      51.662  26.811  27.689  1.00  0.00    -0.237 OA
ATOM     69  O   UNL A   1      50.684  26.053  25.550  1.00  0.00    -0.237 OA
ATOM     70  O   UNL A   1      51.777  28.258  25.694  1.00  0.00    -0.744 OA
ENDBRANCH  66  67
ENDBRANCH  45  59
BRANCH  46  71
ATOM     71  C   UNL A   1      38.196  32.547  30.601  1.00  0.00     0.058 A 
ATOM     72  C   UNL A   1      37.788  32.374  31.931  1.00  0.00     0.135 A 
ATOM     73  C   UNL A   1      37.329  33.232  29.735  1.00  0.00     0.135 A 
ATOM     74  F   UNL A   1      38.580  31.720  32.796  1.00  0.00    -0.206 F 
ATOM     75  C   UNL A   1      36.561  32.848  32.386  1.00  0.00     0.059 A 
ATOM     76  C   UNL A   1      36.109  33.736  30.171  1.00  0.00     0.059 A 
ATOM     77  F   UNL A   1      37.681  33.441  28.456  1.00  0.00    -0.206 F 
ATOM     78  C   UNL A   1      35.730  33.530  31.497  1.00  0.00     0.060 A 
BRANCH  78  79
ATOM     79  S   UNL A   1      34.161  34.188  32.104  1.00  0.00     0.124 S 
ATOM     80  O   UNL A   1      33.458  34.467  30.858  1.00  0.00    -0.237 OA
ATOM     81  O   UNL A   1      33.647  33.075  32.895  1.00  0.00    -0.237 OA
ATOM     82  O   UNL A   1      34.568  35.359  32.876  1.00  0.00    -0.744 OA
ENDBRANCH  78  79
ENDBRANCH  46  71
BRANCH  58  83
ATOM     83  C   UNL A   1      44.619  35.260  30.403  1.00  0.00     0.058 A 
ATOM     84  C   UNL A   1      45.143  35.507  31.681  1.00  0.00     0.135 A 
ATOM     85  C   UNL A   1      44.656  36.307  29.467  1.00  0.00     0.135 A 
ATOM     86  F   UNL A   1      45.127  34.543  32.616  1.00  0.00    -0.206 F 
ATOM     87  C   UNL A   1      45.660  36.751  32.027  1.00  0.00     0.059 A 
ATOM     88  C   UNL A   1      45.192  37.550  29.782  1.00  0.00     0.059 A 
ATOM     89  F   UNL A   1      44.176  36.121  28.227  1.00  0.00    -0.206 F 
ATOM     90  C   UNL A   1      45.680  37.768  31.070  1.00  0.00     0.060 A 
BRANCH  90  91
ATOM     91  S   UNL A   1      46.374  39.371  31.523  1.00  0.00     0.124 S 
ATOM     92  O   UNL A   1      47.762  39.220  31.101  1.00  0.00    -0.237 OA
ATOM     93  O   UNL A   1      45.568  40.297  30.734  1.00  0.00    -0.237 OA
ATOM     94  O   UNL A   1      46.161  39.438  32.966  1.00  0.00    -0.744 OA
ENDBRANCH  90  91
ENDBRANCH  58  83
ENDBRANCH  32  33
ENDBRANCH  24  27
ENDBRANCH  22  23
ENDBRANCH   1  22
TORSDOF 16
ENDMDL
MODEL 3
REMARK VINA RESULT:     -10.9      4.579     11.829
REMARK SMILES O=C(/C=C/c1c(Cl)cccc1Cl)NCC(=O)NCCCNC(=O)c1ccc(-c2c3nc(c(-c4c(F)cc(S(=O)(=O)[O-])cc4F)c4ccc([nH]4)c(-c4c(F)cc(S(=O)(=O)[O-])cc4F)c4nc(c(-c5c(F)cc(S(=O)(=O)[O-])cc5F)c5ccc2[nH]5)C=C4)C=C3)cc1
REMARK SMILES IDX 19 1 18 2 17 3 15 4 16 5 14 7 13 8 1 9 2 10 3 12 4 13 5 14
REMARK SMILES IDX 6 15 11 16 7 17 8 18 10 19 12 20 9 21 20 22 21 23 22 24
REMARK SMILES IDX 23 26 24 27 25 28 89 29 26 30 88 31 27 32 28 33 29 34 82 35
REMARK SMILES IDX 30 36 87 37 81 38 83 39 31 40 86 41 80 42 79 43 32 45 66 46
REMARK SMILES IDX 45 47 65 48 46 49 49 50 64 51 84 52 47 53 48 54 63 56 85 57
REMARK SMILES IDX 50 58 33 59 34 60 43 61 35 62 36 63 42 64 44 65 37 66 38 67
REMARK SMILES IDX 39 68 40 69 41 70 67 71 68 72 77 73 69 74 70 75 76 76 78 77
REMARK SMILES IDX 71 78 72 79 73 80 74 81 75 82 51 83 52 84 61 85 53 86 54 87
REMARK SMILES IDX 60 88 62 89 55 90 56 91 57 92 58 93 59 94
REMARK H PARENT 17 6 13 11 21 25 83 44 49 55
REMARK Flexibility Score: inf
ROOT
ATOM      1  C   UNL A   1      34.315  34.149  28.904  1.00  0.00     0.042 C 
ENDROOT
BRANCH   1   2
ATOM      2  C   UNL A   1      34.370  33.827  30.395  1.00  0.00     0.117 C 
BRANCH   2   3
ATOM      3  N   UNL A   1      34.625  35.006  31.203  1.00  0.00    -0.355 N 
ATOM      4  C   UNL A   1      34.908  35.084  32.537  1.00  0.00     0.239 C 
ATOM      5  O   UNL A   1      35.163  36.189  33.020  1.00  0.00    -0.273 OA
ATOM      6  H   UNL A   1      34.589  35.866  30.724  1.00  0.00     0.163 HD
BRANCH   4   7
ATOM      7  C   UNL A   1      34.968  33.812  33.386  1.00  0.00     0.216 C 
BRANCH   7   8
ATOM      8  N   UNL A   1      36.254  33.142  33.281  1.00  0.00    -0.343 N 
ATOM      9  O   UNL A   1      35.419  31.240  32.318  1.00  0.00    -0.270 OA
ATOM     10  C   UNL A   1      36.371  31.895  32.736  1.00  0.00     0.244 C 
ATOM     11  H   UNL A   1      37.061  33.599  33.611  1.00  0.00     0.164 HD
BRANCH  10  12
ATOM     12  C   UNL A   1      37.724  31.292  32.739  1.00  0.00     0.072 C 
ATOM     13  C   UNL A   1      38.090  30.185  33.403  1.00  0.00     0.017 C 
BRANCH  13  14
ATOM     14  C   UNL A   1      39.484  29.691  33.377  1.00  0.00     0.012 A 
ATOM     15  C   UNL A   1      39.824  28.439  32.826  1.00  0.00     0.049 A 
ATOM     16  C   UNL A   1      40.527  30.484  33.898  1.00  0.00     0.049 A 
ATOM     17  Cl  UNL A   1      38.647  27.401  32.088  1.00  0.00    -0.084 Cl
ATOM     18  C   UNL A   1      41.149  27.987  32.827  1.00  0.00     0.021 A 
ATOM     19  C   UNL A   1      41.852  30.033  33.886  1.00  0.00     0.021 A 
ATOM     20  Cl  UNL A   1      40.226  32.049  34.581  1.00  0.00    -0.084 Cl
ATOM     21  C   UNL A   1      42.162  28.781  33.358  1.00  0.00     0.003 A 
ENDBRANCH  13  14
ENDBRANCH  10  12
ENDBRANCH   7   8
ENDBRANCH   4   7
ENDBRANCH   2   3
ENDBRANCH   1   2
BRANCH   1  22
ATOM     22  C   UNL A   1      34.950  33.083  28.012  1.00  0.00     0.118 C 
BRANCH  22  23
ATOM     23  N   UNL A   1      34.129  31.885  27.899  1.00  0.00    -0.352 N 
ATOM     24  C   UNL A   1      34.485  30.560  27.892  1.00  0.00     0.251 C 
ATOM     25  H   UNL A   1      33.164  32.052  27.813  1.00  0.00     0.163 HD
ATOM     26  O   UNL A   1      33.635  29.716  27.607  1.00  0.00    -0.269 OA
BRANCH  24  27
ATOM     27  C   UNL A   1      35.867  30.134  28.206  1.00  0.00     0.039 A 
ATOM     28  C   UNL A   1      36.826  30.174  27.189  1.00  0.00     0.014 A 
ATOM     29  C   UNL A   1      36.217  29.654  29.471  1.00  0.00     0.014 A 
ATOM     30  C   UNL A   1      38.143  29.790  27.456  1.00  0.00     0.010 A 
ATOM     31  C   UNL A   1      37.545  29.336  29.753  1.00  0.00     0.010 A 
ATOM     32  C   UNL A   1      38.521  29.398  28.750  1.00  0.00    -0.014 A 
BRANCH  32  33
ATOM     33  C   UNL A   1      39.934  29.062  29.066  1.00  0.00     0.031 A 
ATOM     34  C   UNL A   1      40.840  30.086  29.696  1.00  0.00     0.074 A 
ATOM     35  C   UNL A   1      40.417  27.848  28.731  1.00  0.00     0.049 A 
ATOM     36  N   UNL A   1      42.111  29.992  29.992  1.00  0.00    -0.248 NA
ATOM     37  C   UNL A   1      40.245  31.393  30.015  1.00  0.00     0.031 C 
ATOM     38  C   UNL A   1      39.653  26.787  28.072  1.00  0.00     0.029 A 
ATOM     39  N   UNL A   1      41.668  27.306  28.889  1.00  0.00    -0.354 N 
ATOM     40  C   UNL A   1      42.472  31.228  30.516  1.00  0.00     0.074 A 
ATOM     41  C   UNL A   1      41.297  32.070  30.455  1.00  0.00     0.031 C 
ATOM     42  C   UNL A   1      40.443  25.715  27.902  1.00  0.00     0.029 A 
ATOM     43  C   UNL A   1      41.779  26.024  28.404  1.00  0.00     0.049 A 
ATOM     44  H   UNL A   1      42.415  27.788  29.311  1.00  0.00     0.167 HD
ATOM     45  C   UNL A   1      43.667  31.619  31.022  1.00  0.00     0.037 A 
ATOM     46  C   UNL A   1      42.838  25.194  28.358  1.00  0.00     0.037 A 
ATOM     47  C   UNL A   1      44.827  30.768  31.102  1.00  0.00     0.049 A 
ATOM     48  C   UNL A   1      44.153  25.647  28.931  1.00  0.00     0.074 A 
ATOM     49  C   UNL A   1      46.066  31.052  31.652  1.00  0.00     0.029 A 
ATOM     50  N   UNL A   1      44.894  29.470  30.620  1.00  0.00    -0.354 N 
ATOM     51  N   UNL A   1      44.459  26.799  29.480  1.00  0.00    -0.248 NA
ATOM     52  C   UNL A   1      45.264  24.688  28.887  1.00  0.00     0.031 C 
ATOM     53  C   UNL A   1      46.895  29.940  31.462  1.00  0.00     0.029 A 
ATOM     54  C   UNL A   1      46.158  28.946  30.839  1.00  0.00     0.049 A 
ATOM     55  H   UNL A   1      44.152  28.990  30.185  1.00  0.00     0.167 HD
ATOM     56  C   UNL A   1      45.789  26.694  29.868  1.00  0.00     0.074 A 
ATOM     57  C   UNL A   1      46.225  25.360  29.504  1.00  0.00     0.031 C 
ATOM     58  C   UNL A   1      46.578  27.616  30.474  1.00  0.00     0.037 A 
BRANCH  45  59
ATOM     59  C   UNL A   1      43.781  33.030  31.533  1.00  0.00     0.058 A 
ATOM     60  C   UNL A   1      43.979  34.114  30.663  1.00  0.00     0.135 A 
ATOM     61  C   UNL A   1      43.656  33.307  32.904  1.00  0.00     0.135 A 
ATOM     62  F   UNL A   1      44.120  33.908  29.345  1.00  0.00    -0.206 F 
ATOM     63  C   UNL A   1      44.078  35.419  31.137  1.00  0.00     0.059 A 
ATOM     64  C   UNL A   1      43.723  34.607  33.398  1.00  0.00     0.059 A 
ATOM     65  F   UNL A   1      43.463  32.308  33.781  1.00  0.00    -0.206 F 
ATOM     66  C   UNL A   1      43.950  35.655  32.508  1.00  0.00     0.060 A 
BRANCH  66  67
ATOM     67  S   UNL A   1      44.078  37.354  33.105  1.00  0.00     0.124 S 
ATOM     68  O   UNL A   1      42.948  37.422  34.028  1.00  0.00    -0.237 OA
ATOM     69  O   UNL A   1      45.401  37.371  33.721  1.00  0.00    -0.237 OA
ATOM     70  O   UNL A   1      43.944  38.153  31.891  1.00  0.00    -0.744 OA
ENDBRANCH  66  67
ENDBRANCH  45  59
BRANCH  46  71
ATOM     71  C   UNL A   1      42.691  23.838  27.764  1.00  0.00     0.058 A 
ATOM     72  C   UNL A   1      42.795  23.639  26.380  1.00  0.00     0.135 A 
ATOM     73  C   UNL A   1      42.460  22.712  28.571  1.00  0.00     0.135 A 
ATOM     74  F   UNL A   1      43.010  24.685  25.567  1.00  0.00    -0.206 F 
ATOM     75  C   UNL A   1      42.661  22.376  25.812  1.00  0.00     0.059 A 
ATOM     76  C   UNL A   1      42.346  21.436  28.030  1.00  0.00     0.059 A 
ATOM     77  F   UNL A   1      42.370  22.845  29.904  1.00  0.00    -0.206 F 
ATOM     78  C   UNL A   1      42.439  21.280  26.647  1.00  0.00     0.060 A 
BRANCH  78  79
ATOM     79  S   UNL A   1      42.317  19.636  25.910  1.00  0.00     0.124 S 
ATOM     80  O   UNL A   1      43.308  19.717  24.845  1.00  0.00    -0.237 OA
ATOM     81  O   UNL A   1      42.654  18.769  27.035  1.00  0.00    -0.237 OA
ATOM     82  O   UNL A   1      40.924  19.569  25.475  1.00  0.00    -0.744 OA
ENDBRANCH  78  79
ENDBRANCH  46  71
BRANCH  58  83
ATOM     83  C   UNL A   1      47.986  27.208  30.807  1.00  0.00     0.058 A 
ATOM     84  C   UNL A   1      48.294  26.513  31.987  1.00  0.00     0.135 A 
ATOM     85  C   UNL A   1      49.036  27.480  29.915  1.00  0.00     0.135 A 
ATOM     86  F   UNL A   1      47.329  26.233  32.878  1.00  0.00    -0.206 F 
ATOM     87  C   UNL A   1      49.597  26.127  32.284  1.00  0.00     0.059 A 
ATOM     88  C   UNL A   1      50.342  27.080  30.178  1.00  0.00     0.059 A 
ATOM     89  F   UNL A   1      48.795  28.134  28.767  1.00  0.00    -0.206 F 
ATOM     90  C   UNL A   1      50.615  26.415  31.373  1.00  0.00     0.060 A 
BRANCH  90  91
ATOM     91  S   UNL A   1      52.298  25.888  31.758  1.00  0.00     0.124 S 
ATOM     92  O   UNL A   1      52.666  26.828  32.810  1.00  0.00    -0.237 OA
ATOM     93  O   UNL A   1      52.103  24.505  32.184  1.00  0.00    -0.237 OA
ATOM     94  O   UNL A   1      53.004  26.054  30.492  1.00  0.00    -0.744 OA
ENDBRANCH  90  91
ENDBRANCH  58  83
ENDBRANCH  32  33
ENDBRANCH  24  27
ENDBRANCH  22  23
ENDBRANCH   1  22
TORSDOF 16
ENDMDL
