MODEL 1
REMARK VINA RESULT:     -12.9      0.000      0.000
REMARK SMILES Cn1cc(/C=C2\SC(=S)N(c3cccc(C(=O)NCCCNC(=O)c4ccc(-c5c6nc(c(-c7c(F)cc(S(=O)(=O)[O-])cc7F)c7ccc([nH]7)c(-c7c(F)cc(S(=O)(=O)[O-])cc7F)c7nc(c(-c8c(F)cc(S(=O)(=O)[O-])cc8F)c8ccc5[nH]8)C=C7)C=C6)cc4)c3)C2=O)c2ccccc21
REMARK SMILES IDX 20 1 19 2 18 3 16 4 17 5 15 7 11 8 12 9 91 10 13 11 14 12
REMARK SMILES IDX 10 13 5 14 6 15 7 16 92 17 8 18 93 19 9 20 4 21 1 22 2 23
REMARK SMILES IDX 3 24 99 25 94 26 98 27 95 28 97 29 96 30 21 31 22 32 23 33
REMARK SMILES IDX 24 35 25 36 26 37 90 38 27 39 89 40 28 41 29 42 30 43 83 44
REMARK SMILES IDX 31 45 88 46 82 47 84 48 32 49 87 50 81 51 80 52 33 54 67 55
REMARK SMILES IDX 46 56 66 57 47 58 50 59 65 60 85 61 48 62 49 63 64 65 86 66
REMARK SMILES IDX 51 67 34 68 35 69 44 70 36 71 37 72 43 73 45 74 38 75 39 76
REMARK SMILES IDX 40 77 41 78 42 79 68 80 69 81 78 82 70 83 71 84 77 85 79 86
REMARK SMILES IDX 72 87 73 88 74 89 75 90 76 91 52 92 53 93 62 94 54 95 55 96
REMARK SMILES IDX 61 97 63 98 56 99 57 100 58 101 59 102 60 103
REMARK H PARENT 18 6 22 34 84 53 50 64
REMARK Flexibility Score: inf
ROOT
ATOM      1  C   UNL A   1      34.249  30.043  26.932  1.00  0.00     0.042 C 
ENDROOT
BRANCH   1   2
ATOM      2  C   UNL A   1      32.767  29.864  27.260  1.00  0.00     0.118 C 
BRANCH   2   3
ATOM      3  N   UNL A   1      31.930  30.739  26.457  1.00  0.00    -0.352 N 
ATOM      4  C   UNL A   1      31.114  30.562  25.371  1.00  0.00     0.251 C 
ATOM      5  O   UNL A   1      30.478  31.554  25.005  1.00  0.00    -0.269 OA
ATOM      6  H   UNL A   1      31.954  31.674  26.766  1.00  0.00     0.163 HD
BRANCH   4   7
ATOM      7  C   UNL A   1      30.935  29.284  24.619  1.00  0.00     0.041 A 
ATOM      8  C   UNL A   1      31.441  26.957  24.073  1.00  0.00     0.051 A 
ATOM      9  C   UNL A   1      30.499  26.976  23.043  1.00  0.00     0.027 A 
ATOM     10  C   UNL A   1      31.681  28.124  24.815  1.00  0.00     0.040 A 
ATOM     11  C   UNL A   1      29.757  28.131  22.812  1.00  0.00     0.003 A 
ATOM     12  C   UNL A   1      29.965  29.267  23.602  1.00  0.00     0.014 A 
BRANCH   8  13
ATOM     13  N   UNL A   1      32.215  25.798  24.350  1.00  0.00    -0.261 N 
ATOM     14  C   UNL A   1      35.382  24.120  23.894  1.00  0.00     0.031 C 
ATOM     15  C   UNL A   1      34.134  24.440  24.264  1.00  0.00     0.081 C 
ATOM     16  S   UNL A   1      33.198  23.720  25.514  1.00  0.00    -0.054 SA
ATOM     17  C   UNL A   1      33.396  25.577  23.650  1.00  0.00     0.270 C 
ATOM     18  C   UNL A   1      31.897  24.883  25.344  1.00  0.00     0.152 C 
ATOM     19  O   UNL A   1      33.819  26.207  22.690  1.00  0.00    -0.268 OA
ATOM     20  S   UNL A   1      30.491  24.738  26.245  1.00  0.00    -0.051 S 
BRANCH  14  21
ATOM     21  C   UNL A   1      36.168  23.049  24.413  1.00  0.00     0.001 A 
ATOM     22  C   UNL A   1      36.970  19.547  24.793  1.00  0.00     0.149 C 
ATOM     23  N   UNL A   1      36.883  20.989  24.816  1.00  0.00    -0.350 N 
ATOM     24  C   UNL A   1      35.937  21.717  24.149  1.00  0.00     0.094 A 
ATOM     25  C   UNL A   1      37.745  21.825  25.495  1.00  0.00     0.048 A 
ATOM     26  C   UNL A   1      37.324  23.137  25.244  1.00  0.00     0.007 A 
ATOM     27  C   UNL A   1      38.861  21.538  26.298  1.00  0.00     0.027 A 
ATOM     28  C   UNL A   1      38.053  24.201  25.819  1.00  0.00     0.011 A 
ATOM     29  C   UNL A   1      39.569  22.612  26.845  1.00  0.00     0.002 A 
ATOM     30  C   UNL A   1      39.175  23.924  26.608  1.00  0.00     0.001 A 
ENDBRANCH  14  21
ENDBRANCH   8  13
ENDBRANCH   4   7
ENDBRANCH   2   3
ENDBRANCH   1   2
BRANCH   1  31
ATOM     31  C   UNL A   1      35.160  29.541  28.053  1.00  0.00     0.118 C 
BRANCH  31  32
ATOM     32  N   UNL A   1      35.294  30.528  29.122  1.00  0.00    -0.352 N 
ATOM     33  C   UNL A   1      36.349  30.787  29.963  1.00  0.00     0.251 C 
ATOM     34  H   UNL A   1      34.502  31.096  29.263  1.00  0.00     0.163 HD
ATOM     35  O   UNL A   1      36.176  31.470  30.965  1.00  0.00    -0.269 OA
BRANCH  33  36
ATOM     36  C   UNL A   1      37.685  30.244  29.651  1.00  0.00     0.039 A 
ATOM     37  C   UNL A   1      38.100  30.155  28.321  1.00  0.00     0.014 A 
ATOM     38  C   UNL A   1      38.518  29.806  30.682  1.00  0.00     0.014 A 
ATOM     39  C   UNL A   1      39.386  29.693  28.027  1.00  0.00     0.010 A 
ATOM     40  C   UNL A   1      39.822  29.426  30.396  1.00  0.00     0.010 A 
ATOM     41  C   UNL A   1      40.269  29.364  29.067  1.00  0.00    -0.014 A 
BRANCH  41  42
ATOM     42  C   UNL A   1      41.668  28.938  28.817  1.00  0.00     0.031 A 
ATOM     43  C   UNL A   1      42.761  29.971  28.808  1.00  0.00     0.074 A 
ATOM     44  C   UNL A   1      41.930  27.660  28.478  1.00  0.00     0.049 A 
ATOM     45  N   UNL A   1      44.001  29.860  28.410  1.00  0.00    -0.248 NA
ATOM     46  C   UNL A   1      42.397  31.320  29.272  1.00  0.00     0.031 C 
ATOM     47  C   UNL A   1      40.945  26.578  28.424  1.00  0.00     0.029 A 
ATOM     48  N   UNL A   1      43.100  27.061  28.083  1.00  0.00    -0.354 N 
ATOM     49  C   UNL A   1      44.554  31.127  28.544  1.00  0.00     0.074 A 
ATOM     50  C   UNL A   1      43.503  32.002  29.015  1.00  0.00     0.031 C 
ATOM     51  C   UNL A   1      41.552  25.448  28.026  1.00  0.00     0.029 A 
ATOM     52  C   UNL A   1      42.955  25.736  27.743  1.00  0.00     0.049 A 
ATOM     53  H   UNL A   1      43.962  27.536  28.046  1.00  0.00     0.167 HD
ATOM     54  C   UNL A   1      45.829  31.519  28.313  1.00  0.00     0.037 A 
ATOM     55  C   UNL A   1      43.845  24.861  27.234  1.00  0.00     0.037 A 
ATOM     56  C   UNL A   1      46.871  30.629  27.875  1.00  0.00     0.049 A 
ATOM     57  C   UNL A   1      45.254  25.321  26.974  1.00  0.00     0.074 A 
ATOM     58  C   UNL A   1      48.208  30.910  27.663  1.00  0.00     0.029 A 
ATOM     59  N   UNL A   1      46.691  29.284  27.585  1.00  0.00    -0.354 N 
ATOM     60  N   UNL A   1      45.775  26.513  27.148  1.00  0.00    -0.248 NA
ATOM     61  C   UNL A   1      46.197  24.323  26.451  1.00  0.00     0.031 C 
ATOM     62  C   UNL A   1      48.828  29.746  27.198  1.00  0.00     0.029 A 
ATOM     63  C   UNL A   1      47.890  28.726  27.180  1.00  0.00     0.049 A 
ATOM     64  H   UNL A   1      45.837  28.799  27.656  1.00  0.00     0.167 HD
ATOM     65  C   UNL A   1      47.115  26.397  26.796  1.00  0.00     0.074 A 
ATOM     66  C   UNL A   1      47.324  25.022  26.394  1.00  0.00     0.031 C 
ATOM     67  C   UNL A   1      48.085  27.344  26.814  1.00  0.00     0.037 A 
BRANCH  54  68
ATOM     68  C   UNL A   1      46.167  32.970  28.529  1.00  0.00     0.058 A 
ATOM     69  C   UNL A   1      46.064  33.915  27.496  1.00  0.00     0.135 A 
ATOM     70  C   UNL A   1      46.569  33.427  29.795  1.00  0.00     0.135 A 
ATOM     71  F   UNL A   1      45.700  33.532  26.262  1.00  0.00    -0.206 F 
ATOM     72  C   UNL A   1      46.378  35.254  27.700  1.00  0.00     0.059 A 
ATOM     73  C   UNL A   1      46.856  34.768  30.030  1.00  0.00     0.059 A 
ATOM     74  F   UNL A   1      46.686  32.568  30.820  1.00  0.00    -0.206 F 
ATOM     75  C   UNL A   1      46.772  35.672  28.972  1.00  0.00     0.060 A 
BRANCH  75  76
ATOM     76  S   UNL A   1      47.171  37.415  29.220  1.00  0.00     0.124 S 
ATOM     77  O   UNL A   1      47.729  37.397  30.568  1.00  0.00    -0.237 OA
ATOM     78  O   UNL A   1      48.122  37.672  28.144  1.00  0.00    -0.237 OA
ATOM     79  O   UNL A   1      45.880  38.082  29.085  1.00  0.00    -0.744 OA
ENDBRANCH  75  76
ENDBRANCH  54  68
BRANCH  55  80
ATOM     80  C   UNL A   1      43.430  23.460  26.954  1.00  0.00     0.058 A 
ATOM     81  C   UNL A   1      43.206  23.025  25.639  1.00  0.00     0.135 A 
ATOM     82  C   UNL A   1      43.278  22.521  27.987  1.00  0.00     0.135 A 
ATOM     83  F   UNL A   1      43.332  23.886  24.618  1.00  0.00    -0.206 F 
ATOM     84  C   UNL A   1      42.833  21.716  25.357  1.00  0.00     0.059 A 
ATOM     85  C   UNL A   1      42.931  21.198  27.728  1.00  0.00     0.059 A 
ATOM     86  F   UNL A   1      43.497  22.880  29.261  1.00  0.00    -0.206 F 
ATOM     87  C   UNL A   1      42.704  20.807  26.410  1.00  0.00     0.060 A 
BRANCH  87  88
ATOM     88  S   UNL A   1      42.285  19.093  26.026  1.00  0.00     0.124 S 
ATOM     89  O   UNL A   1      43.117  18.841  24.857  1.00  0.00    -0.237 OA
ATOM     90  O   UNL A   1      42.674  18.403  27.253  1.00  0.00    -0.237 OA
ATOM     91  O   UNL A   1      40.847  19.150  25.782  1.00  0.00    -0.744 OA
ENDBRANCH  87  88
ENDBRANCH  55  80
BRANCH  67  92
ATOM     92  C   UNL A   1      49.484  26.928  26.456  1.00  0.00     0.058 A 
ATOM     93  C   UNL A   1      50.348  26.350  27.396  1.00  0.00     0.135 A 
ATOM     94  C   UNL A   1      49.914  27.000  25.120  1.00  0.00     0.135 A 
ATOM     95  F   UNL A   1      49.988  26.266  28.686  1.00  0.00    -0.206 F 
ATOM     96  C   UNL A   1      51.592  25.848  27.022  1.00  0.00     0.059 A 
ATOM     97  C   UNL A   1      51.141  26.482  24.721  1.00  0.00     0.059 A 
ATOM     98  F   UNL A   1      49.118  27.539  24.183  1.00  0.00    -0.206 F 
ATOM     99  C   UNL A   1      51.972  25.906  25.679  1.00  0.00     0.060 A 
BRANCH  99 100
ATOM    100  S   UNL A   1      53.545  25.166  25.194  1.00  0.00     0.124 S 
ATOM    101  O   UNL A   1      53.700  25.667  23.833  1.00  0.00    -0.237 OA
ATOM    102  O   UNL A   1      54.466  25.717  26.183  1.00  0.00    -0.237 OA
ATOM    103  O   UNL A   1      53.297  23.731  25.310  1.00  0.00    -0.744 OA
ENDBRANCH  99 100
ENDBRANCH  67  92
ENDBRANCH  41  42
ENDBRANCH  33  36
ENDBRANCH  31  32
ENDBRANCH   1  31
TORSDOF 15
ENDMDL
MODEL 2
REMARK VINA RESULT:     -12.8      1.343      2.276
REMARK SMILES Cn1cc(/C=C2\SC(=S)N(c3cccc(C(=O)NCCCNC(=O)c4ccc(-c5c6nc(c(-c7c(F)cc(S(=O)(=O)[O-])cc7F)c7ccc([nH]7)c(-c7c(F)cc(S(=O)(=O)[O-])cc7F)c7nc(c(-c8c(F)cc(S(=O)(=O)[O-])cc8F)c8ccc5[nH]8)C=C7)C=C6)cc4)c3)C2=O)c2ccccc21
REMARK SMILES IDX 20 1 19 2 18 3 16 4 17 5 15 7 11 8 12 9 91 10 13 11 14 12
REMARK SMILES IDX 10 13 5 14 6 15 7 16 92 17 8 18 93 19 9 20 4 21 1 22 2 23
REMARK SMILES IDX 3 24 99 25 94 26 98 27 95 28 97 29 96 30 21 31 22 32 23 33
REMARK SMILES IDX 24 35 25 36 26 37 90 38 27 39 89 40 28 41 29 42 30 43 83 44
REMARK SMILES IDX 31 45 88 46 82 47 84 48 32 49 87 50 81 51 80 52 33 54 67 55
REMARK SMILES IDX 46 56 66 57 47 58 50 59 65 60 85 61 48 62 49 63 64 65 86 66
REMARK SMILES IDX 51 67 34 68 35 69 44 70 36 71 37 72 43 73 45 74 38 75 39 76
REMARK SMILES IDX 40 77 41 78 42 79 68 80 69 81 78 82 70 83 71 84 77 85 79 86
REMARK SMILES IDX 72 87 73 88 74 89 75 90 76 91 52 92 53 93 62 94 54 95 55 96
REMARK SMILES IDX 61 97 63 98 56 99 57 100 58 101 59 102 60 103
REMARK H PARENT 18 6 22 34 84 53 50 64
REMARK Flexibility Score: inf
ROOT
ATOM      1  C   UNL A   1      34.102  29.403  26.346  1.00  0.00     0.042 C 
ENDROOT
BRANCH   1   2
ATOM      2  C   UNL A   1      32.621  29.447  26.722  1.00  0.00     0.118 C 
BRANCH   2   3
ATOM      3  N   UNL A   1      31.838  30.169  25.735  1.00  0.00    -0.352 N 
ATOM      4  C   UNL A   1      30.952  29.807  24.754  1.00  0.00     0.251 C 
ATOM      5  O   UNL A   1      30.404  30.733  24.151  1.00  0.00    -0.269 OA
ATOM      6  H   UNL A   1      31.974  31.144  25.781  1.00  0.00     0.163 HD
BRANCH   4   7
ATOM      7  C   UNL A   1      30.602  28.404  24.376  1.00  0.00     0.041 A 
ATOM      8  C   UNL A   1      31.097  26.059  23.903  1.00  0.00     0.051 A 
ATOM      9  C   UNL A   1      29.761  25.826  23.574  1.00  0.00     0.027 A 
ATOM     10  C   UNL A   1      31.510  27.355  24.252  1.00  0.00     0.040 A 
ATOM     11  C   UNL A   1      28.839  26.865  23.666  1.00  0.00     0.003 A 
ATOM     12  C   UNL A   1      29.255  28.137  24.076  1.00  0.00     0.014 A 
BRANCH   8  13
ATOM     13  N   UNL A   1      32.070  25.026  23.831  1.00  0.00    -0.261 N 
ATOM     14  C   UNL A   1      33.490  22.117  25.436  1.00  0.00     0.031 C 
ATOM     15  C   UNL A   1      33.212  23.111  24.580  1.00  0.00     0.081 C 
ATOM     16  S   UNL A   1      33.691  23.236  22.933  1.00  0.00    -0.054 SA
ATOM     17  C   UNL A   1      32.340  24.256  24.956  1.00  0.00     0.270 C 
ATOM     18  C   UNL A   1      32.740  24.684  22.664  1.00  0.00     0.152 C 
ATOM     19  O   UNL A   1      31.927  24.435  26.095  1.00  0.00    -0.268 OA
ATOM     20  S   UNL A   1      32.796  25.489  21.196  1.00  0.00    -0.051 S 
BRANCH  14  21
ATOM     21  C   UNL A   1      34.317  20.985  25.175  1.00  0.00     0.001 A 
ATOM     22  C   UNL A   1      37.525  19.339  24.946  1.00  0.00     0.149 C 
ATOM     23  N   UNL A   1      36.136  19.735  24.956  1.00  0.00    -0.350 N 
ATOM     24  C   UNL A   1      35.691  20.984  25.285  1.00  0.00     0.094 A 
ATOM     25  C   UNL A   1      35.073  18.909  24.654  1.00  0.00     0.048 A 
ATOM     26  C   UNL A   1      33.908  19.671  24.800  1.00  0.00     0.007 A 
ATOM     27  C   UNL A   1      35.039  17.557  24.274  1.00  0.00     0.027 A 
ATOM     28  C   UNL A   1      32.661  19.053  24.559  1.00  0.00     0.011 A 
ATOM     29  C   UNL A   1      33.791  16.968  24.053  1.00  0.00     0.002 A 
ATOM     30  C   UNL A   1      32.618  17.702  24.196  1.00  0.00     0.001 A 
ENDBRANCH  14  21
ENDBRANCH   8  13
ENDBRANCH   4   7
ENDBRANCH   2   3
ENDBRANCH   1   2
BRANCH   1  31
ATOM     31  C   UNL A   1      34.993  29.024  27.530  1.00  0.00     0.118 C 
BRANCH  31  32
ATOM     32  N   UNL A   1      35.076  30.104  28.510  1.00  0.00    -0.352 N 
ATOM     33  C   UNL A   1      36.105  30.466  29.346  1.00  0.00     0.251 C 
ATOM     34  H   UNL A   1      34.267  30.659  28.585  1.00  0.00     0.163 HD
ATOM     35  O   UNL A   1      35.892  31.229  30.280  1.00  0.00    -0.269 OA
BRANCH  33  36
ATOM     36  C   UNL A   1      37.462  29.935  29.111  1.00  0.00     0.039 A 
ATOM     37  C   UNL A   1      37.942  29.825  27.804  1.00  0.00     0.014 A 
ATOM     38  C   UNL A   1      38.250  29.530  30.190  1.00  0.00     0.014 A 
ATOM     39  C   UNL A   1      39.247  29.376  27.583  1.00  0.00     0.010 A 
ATOM     40  C   UNL A   1      39.570  29.163  29.975  1.00  0.00     0.010 A 
ATOM     41  C   UNL A   1      40.083  29.081  28.671  1.00  0.00    -0.014 A 
BRANCH  41  42
ATOM     42  C   UNL A   1      41.497  28.670  28.498  1.00  0.00     0.031 A 
ATOM     43  C   UNL A   1      42.575  29.719  28.504  1.00  0.00     0.074 A 
ATOM     44  C   UNL A   1      41.793  27.386  28.212  1.00  0.00     0.049 A 
ATOM     45  N   UNL A   1      43.833  29.616  28.165  1.00  0.00    -0.248 NA
ATOM     46  C   UNL A   1      42.170  31.076  28.907  1.00  0.00     0.031 C 
ATOM     47  C   UNL A   1      40.828  26.287  28.150  1.00  0.00     0.029 A 
ATOM     48  N   UNL A   1      42.989  26.794  27.890  1.00  0.00    -0.354 N 
ATOM     49  C   UNL A   1      44.361  30.895  28.283  1.00  0.00     0.074 A 
ATOM     50  C   UNL A   1      43.277  31.768  28.678  1.00  0.00     0.031 C 
ATOM     51  C   UNL A   1      41.469  25.155  27.817  1.00  0.00     0.029 A 
ATOM     52  C   UNL A   1      42.879  25.457  27.587  1.00  0.00     0.049 A 
ATOM     53  H   UNL A   1      43.845  27.281  27.877  1.00  0.00     0.167 HD
ATOM     54  C   UNL A   1      45.638  31.301  28.096  1.00  0.00     0.037 A 
ATOM     55  C   UNL A   1      43.804  24.580  27.148  1.00  0.00     0.037 A 
ATOM     56  C   UNL A   1      46.712  30.414  27.734  1.00  0.00     0.049 A 
ATOM     57  C   UNL A   1      45.216  25.054  26.936  1.00  0.00     0.074 A 
ATOM     58  C   UNL A   1      48.053  30.709  27.573  1.00  0.00     0.029 A 
ATOM     59  N   UNL A   1      46.566  29.058  27.481  1.00  0.00    -0.354 N 
ATOM     60  N   UNL A   1      45.711  26.259  27.094  1.00  0.00    -0.248 NA
ATOM     61  C   UNL A   1      46.197  24.056  26.489  1.00  0.00     0.031 C 
ATOM     62  C   UNL A   1      48.710  29.542  27.175  1.00  0.00     0.029 A 
ATOM     63  C   UNL A   1      47.790  28.506  27.148  1.00  0.00     0.049 A 
ATOM     64  H   UNL A   1      45.717  28.562  27.529  1.00  0.00     0.167 HD
ATOM     65  C   UNL A   1      47.067  26.154  26.807  1.00  0.00     0.074 A 
ATOM     66  C   UNL A   1      47.315  24.771  26.459  1.00  0.00     0.031 C 
ATOM     67  C   UNL A   1      48.022  27.116  26.837  1.00  0.00     0.037 A 
BRANCH  54  68
ATOM     68  C   UNL A   1      45.945  32.762  28.279  1.00  0.00     0.058 A 
ATOM     69  C   UNL A   1      46.327  33.287  29.524  1.00  0.00     0.135 A 
ATOM     70  C   UNL A   1      45.890  33.645  27.188  1.00  0.00     0.135 A 
ATOM     71  F   UNL A   1      46.382  32.493  30.605  1.00  0.00    -0.206 F 
ATOM     72  C   UNL A   1      46.610  34.639  29.689  1.00  0.00     0.059 A 
ATOM     73  C   UNL A   1      46.201  34.995  27.322  1.00  0.00     0.059 A 
ATOM     74  F   UNL A   1      45.530  33.199  25.973  1.00  0.00    -0.206 F 
ATOM     75  C   UNL A   1      46.545  35.485  28.581  1.00  0.00     0.060 A 
BRANCH  75  76
ATOM     76  S   UNL A   1      46.920  37.235  28.813  1.00  0.00     0.124 S 
ATOM     77  O   UNL A   1      48.379  37.220  28.831  1.00  0.00    -0.237 OA
ATOM     78  O   UNL A   1      46.308  37.843  27.635  1.00  0.00    -0.237 OA
ATOM     79  O   UNL A   1      46.281  37.556  30.085  1.00  0.00    -0.744 OA
ENDBRANCH  75  76
ENDBRANCH  54  68
BRANCH  55  80
ATOM     80  C   UNL A   1      43.423  23.164  26.896  1.00  0.00     0.058 A 
ATOM     81  C   UNL A   1      43.367  22.656  25.589  1.00  0.00     0.135 A 
ATOM     82  C   UNL A   1      43.135  22.284  27.951  1.00  0.00     0.135 A 
ATOM     83  F   UNL A   1      43.627  23.459  24.546  1.00  0.00    -0.206 F 
ATOM     84  C   UNL A   1      43.028  21.331  25.335  1.00  0.00     0.059 A 
ATOM     85  C   UNL A   1      42.820  20.947  27.724  1.00  0.00     0.059 A 
ATOM     86  F   UNL A   1      43.191  22.714  29.221  1.00  0.00    -0.206 F 
ATOM     87  C   UNL A   1      42.762  20.483  26.411  1.00  0.00     0.060 A 
BRANCH  87  88
ATOM     88  S   UNL A   1      42.389  18.749  26.073  1.00  0.00     0.124 S 
ATOM     89  O   UNL A   1      43.341  18.443  25.013  1.00  0.00    -0.237 OA
ATOM     90  O   UNL A   1      42.646  18.124  27.368  1.00  0.00    -0.237 OA
ATOM     91  O   UNL A   1      40.985  18.783  25.675  1.00  0.00    -0.744 OA
ENDBRANCH  87  88
ENDBRANCH  55  80
BRANCH  67  92
ATOM     92  C   UNL A   1      49.441  26.712  26.555  1.00  0.00     0.058 A 
ATOM     93  C   UNL A   1      50.255  26.133  27.539  1.00  0.00     0.135 A 
ATOM     94  C   UNL A   1      49.945  26.795  25.247  1.00  0.00     0.135 A 
ATOM     95  F   UNL A   1      49.823  26.039  28.807  1.00  0.00    -0.206 F 
ATOM     96  C   UNL A   1      51.521  25.642  27.233  1.00  0.00     0.059 A 
ATOM     97  C   UNL A   1      51.196  26.288  24.914  1.00  0.00     0.059 A 
ATOM     98  F   UNL A   1      49.200  27.336  24.269  1.00  0.00    -0.206 F 
ATOM     99  C   UNL A   1      51.976  25.711  25.914  1.00  0.00     0.060 A 
BRANCH  99 100
ATOM    100  S   UNL A   1      53.579  24.985  25.514  1.00  0.00     0.124 S 
ATOM    101  O   UNL A   1      54.332  25.241  26.736  1.00  0.00    -0.237 OA
ATOM    102  O   UNL A   1      53.233  23.589  25.260  1.00  0.00    -0.237 OA
ATOM    103  O   UNL A   1      54.012  25.740  24.341  1.00  0.00    -0.744 OA
ENDBRANCH  99 100
ENDBRANCH  67  92
ENDBRANCH  41  42
ENDBRANCH  33  36
ENDBRANCH  31  32
ENDBRANCH   1  31
TORSDOF 15
ENDMDL
MODEL 3
REMARK VINA RESULT:     -12.5      4.004      7.317
REMARK SMILES Cn1cc(/C=C2\SC(=S)N(c3cccc(C(=O)NCCCNC(=O)c4ccc(-c5c6nc(c(-c7c(F)cc(S(=O)(=O)[O-])cc7F)c7ccc([nH]7)c(-c7c(F)cc(S(=O)(=O)[O-])cc7F)c7nc(c(-c8c(F)cc(S(=O)(=O)[O-])cc8F)c8ccc5[nH]8)C=C7)C=C6)cc4)c3)C2=O)c2ccccc21
REMARK SMILES IDX 20 1 19 2 18 3 16 4 17 5 15 7 11 8 12 9 91 10 13 11 14 12
REMARK SMILES IDX 10 13 5 14 6 15 7 16 92 17 8 18 93 19 9 20 4 21 1 22 2 23
REMARK SMILES IDX 3 24 99 25 94 26 98 27 95 28 97 29 96 30 21 31 22 32 23 33
REMARK SMILES IDX 24 35 25 36 26 37 90 38 27 39 89 40 28 41 29 42 30 43 83 44
REMARK SMILES IDX 31 45 88 46 82 47 84 48 32 49 87 50 81 51 80 52 33 54 67 55
REMARK SMILES IDX 46 56 66 57 47 58 50 59 65 60 85 61 48 62 49 63 64 65 86 66
REMARK SMILES IDX 51 67 34 68 35 69 44 70 36 71 37 72 43 73 45 74 38 75 39 76
REMARK SMILES IDX 40 77 41 78 42 79 68 80 69 81 78 82 70 83 71 84 77 85 79 86
REMARK SMILES IDX 72 87 73 88 74 89 75 90 76 91 52 92 53 93 62 94 54 95 55 96
REMARK SMILES IDX 61 97 63 98 56 99 57 100 58 101 59 102 60 103
REMARK H PARENT 18 6 22 34 84 53 50 64
REMARK Flexibility Score: inf
ROOT
ATOM      1  C   UNL A   1      34.340  32.939  29.925  1.00  0.00     0.042 C 
ENDROOT
BRANCH   1   2
ATOM      2  C   UNL A   1      35.354  32.344  30.901  1.00  0.00     0.118 C 
BRANCH   2   3
ATOM      3  N   UNL A   1      35.052  32.702  32.276  1.00  0.00    -0.352 N 
ATOM      4  C   UNL A   1      35.802  33.042  33.371  1.00  0.00     0.251 C 
ATOM      5  O   UNL A   1      35.171  33.374  34.378  1.00  0.00    -0.269 OA
ATOM      6  H   UNL A   1      34.085  32.700  32.464  1.00  0.00     0.163 HD
BRANCH   4   7
ATOM      7  C   UNL A   1      37.295  33.051  33.432  1.00  0.00     0.041 A 
ATOM      8  C   UNL A   1      39.483  32.135  34.014  1.00  0.00     0.051 A 
ATOM      9  C   UNL A   1      40.113  33.279  33.519  1.00  0.00     0.027 A 
ATOM     10  C   UNL A   1      38.082  32.057  34.009  1.00  0.00     0.040 A 
ATOM     11  C   UNL A   1      39.346  34.297  32.958  1.00  0.00     0.003 A 
ATOM     12  C   UNL A   1      37.953  34.176  32.905  1.00  0.00     0.014 A 
BRANCH   8  13
ATOM     13  N   UNL A   1      40.227  31.068  34.586  1.00  0.00    -0.261 N 
ATOM     14  C   UNL A   1      41.586  27.755  34.107  1.00  0.00     0.031 C 
ATOM     15  C   UNL A   1      41.249  28.950  34.613  1.00  0.00     0.081 C 
ATOM     16  S   UNL A   1      41.932  29.734  35.984  1.00  0.00    -0.054 SA
ATOM     17  C   UNL A   1      40.237  29.825  33.964  1.00  0.00     0.270 C 
ATOM     18  C   UNL A   1      41.016  31.206  35.720  1.00  0.00     0.152 C 
ATOM     19  O   UNL A   1      39.557  29.467  33.011  1.00  0.00    -0.268 OA
ATOM     20  S   UNL A   1      41.105  32.479  36.806  1.00  0.00    -0.051 S 
BRANCH  14  21
ATOM     21  C   UNL A   1      42.535  26.843  34.656  1.00  0.00     0.001 A 
ATOM     22  C   UNL A   1      43.946  24.931  37.377  1.00  0.00     0.149 C 
ATOM     23  N   UNL A   1      43.596  25.570  36.130  1.00  0.00    -0.350 N 
ATOM     24  C   UNL A   1      42.551  26.437  35.972  1.00  0.00     0.094 A 
ATOM     25  C   UNL A   1      44.252  25.383  34.931  1.00  0.00     0.048 A 
ATOM     26  C   UNL A   1      43.590  26.166  33.976  1.00  0.00     0.007 A 
ATOM     27  C   UNL A   1      45.362  24.586  34.605  1.00  0.00     0.027 A 
ATOM     28  C   UNL A   1      44.059  26.145  32.644  1.00  0.00     0.011 A 
ATOM     29  C   UNL A   1      45.796  24.577  33.277  1.00  0.00     0.002 A 
ATOM     30  C   UNL A   1      45.155  25.342  32.308  1.00  0.00     0.001 A 
ENDBRANCH  14  21
ENDBRANCH   8  13
ENDBRANCH   4   7
ENDBRANCH   2   3
ENDBRANCH   1   2
BRANCH   1  31
ATOM     31  C   UNL A   1      34.598  32.508  28.481  1.00  0.00     0.118 C 
BRANCH  31  32
ATOM     32  N   UNL A   1      33.995  31.210  28.189  1.00  0.00    -0.352 N 
ATOM     33  C   UNL A   1      34.584  29.987  27.971  1.00  0.00     0.251 C 
ATOM     34  H   UNL A   1      33.012  31.210  28.139  1.00  0.00     0.163 HD
ATOM     35  O   UNL A   1      33.931  29.075  27.481  1.00  0.00    -0.269 OA
BRANCH  33  36
ATOM     36  C   UNL A   1      36.001  29.782  28.331  1.00  0.00     0.039 A 
ATOM     37  C   UNL A   1      36.328  29.338  29.614  1.00  0.00     0.014 A 
ATOM     38  C   UNL A   1      37.004  30.047  27.398  1.00  0.00     0.014 A 
ATOM     39  C   UNL A   1      37.664  29.089  29.939  1.00  0.00     0.010 A 
ATOM     40  C   UNL A   1      38.320  29.722  27.694  1.00  0.00     0.010 A 
ATOM     41  C   UNL A   1      38.664  29.241  28.967  1.00  0.00    -0.014 A 
BRANCH  41  42
ATOM     42  C   UNL A   1      40.088  28.922  29.234  1.00  0.00     0.031 A 
ATOM     43  C   UNL A   1      41.002  30.004  29.743  1.00  0.00     0.074 A 
ATOM     44  C   UNL A   1      40.579  27.712  28.901  1.00  0.00     0.049 A 
ATOM     45  N   UNL A   1      42.305  30.008  29.842  1.00  0.00    -0.248 NA
ATOM     46  C   UNL A   1      40.364  31.264  30.158  1.00  0.00     0.031 C 
ATOM     47  C   UNL A   1      39.794  26.595  28.371  1.00  0.00     0.029 A 
ATOM     48  N   UNL A   1      41.863  27.228  28.931  1.00  0.00    -0.354 N 
ATOM     49  C   UNL A   1      42.644  31.275  30.298  1.00  0.00     0.074 A 
ATOM     50  C   UNL A   1      41.415  32.029  30.410  1.00  0.00     0.031 C 
ATOM     51  C   UNL A   1      40.611  25.557  28.132  1.00  0.00     0.029 A 
ATOM     52  C   UNL A   1      41.983  25.950  28.437  1.00  0.00     0.049 A 
ATOM     53  H   UNL A   1      42.627  27.748  29.273  1.00  0.00     0.167 HD
ATOM     54  C   UNL A   1      43.868  31.759  30.611  1.00  0.00     0.037 A 
ATOM     55  C   UNL A   1      43.078  25.192  28.228  1.00  0.00     0.037 A 
ATOM     56  C   UNL A   1      45.079  30.985  30.524  1.00  0.00     0.049 A 
ATOM     57  C   UNL A   1      44.431  25.753  28.573  1.00  0.00     0.074 A 
ATOM     58  C   UNL A   1      46.364  31.359  30.869  1.00  0.00     0.029 A 
ATOM     59  N   UNL A   1      45.150  29.679  30.061  1.00  0.00    -0.354 N 
ATOM     60  N   UNL A   1      44.732  26.939  29.046  1.00  0.00    -0.248 NA
ATOM     61  C   UNL A   1      45.592  24.878  28.360  1.00  0.00     0.031 C 
ATOM     62  C   UNL A   1      47.220  30.296  30.570  1.00  0.00     0.029 A 
ATOM     63  C   UNL A   1      46.460  29.238  30.096  1.00  0.00     0.049 A 
ATOM     64  H   UNL A   1      44.382  29.145  29.753  1.00  0.00     0.167 HD
ATOM     65  C   UNL A   1      46.111  26.938  29.226  1.00  0.00     0.074 A 
ATOM     66  C   UNL A   1      46.586  25.636  28.806  1.00  0.00     0.031 C 
ATOM     67  C   UNL A   1      46.909  27.924  29.704  1.00  0.00     0.037 A 
BRANCH  54  68
ATOM     68  C   UNL A   1      43.961  33.187  31.077  1.00  0.00     0.058 A 
ATOM     69  C   UNL A   1      44.302  34.230  30.201  1.00  0.00     0.135 A 
ATOM     70  C   UNL A   1      43.674  33.522  32.411  1.00  0.00     0.135 A 
ATOM     71  F   UNL A   1      44.602  33.966  28.919  1.00  0.00    -0.206 F 
ATOM     72  C   UNL A   1      44.387  35.548  30.636  1.00  0.00     0.059 A 
ATOM     73  C   UNL A   1      43.720  34.838  32.860  1.00  0.00     0.059 A 
ATOM     74  F   UNL A   1      43.343  32.565  33.293  1.00  0.00    -0.206 F 
ATOM     75  C   UNL A   1      44.093  35.842  31.968  1.00  0.00     0.060 A 
BRANCH  75  76
ATOM     76  S   UNL A   1      44.203  37.559  32.514  1.00  0.00     0.124 S 
ATOM     77  O   UNL A   1      43.327  37.551  33.680  1.00  0.00    -0.237 OA
ATOM     78  O   UNL A   1      45.628  37.706  32.793  1.00  0.00    -0.237 OA
ATOM     79  O   UNL A   1      43.710  38.314  31.365  1.00  0.00    -0.744 OA
ENDBRANCH  75  76
ENDBRANCH  54  68
BRANCH  55  80
ATOM     80  C   UNL A   1      42.934  23.816  27.679  1.00  0.00     0.058 A 
ATOM     81  C   UNL A   1      42.693  22.725  28.527  1.00  0.00     0.135 A 
ATOM     82  C   UNL A   1      43.004  23.568  26.299  1.00  0.00     0.135 A 
ATOM     83  F   UNL A   1      42.624  22.910  29.854  1.00  0.00    -0.206 F 
ATOM     84  C   UNL A   1      42.541  21.435  28.031  1.00  0.00     0.059 A 
ATOM     85  C   UNL A   1      42.828  22.290  25.776  1.00  0.00     0.059 A 
ATOM     86  F   UNL A   1      43.215  24.579  25.443  1.00  0.00    -0.206 F 
ATOM     87  C   UNL A   1      42.604  21.229  26.651  1.00  0.00     0.060 A 
BRANCH  87  88
ATOM     88  S   UNL A   1      42.338  19.561  26.012  1.00  0.00     0.124 S 
ATOM     89  O   UNL A   1      40.916  19.591  25.692  1.00  0.00    -0.237 OA
ATOM     90  O   UNL A   1      43.252  19.521  24.875  1.00  0.00    -0.237 OA
ATOM     91  O   UNL A   1      42.718  18.710  27.136  1.00  0.00    -0.744 OA
ENDBRANCH  87  88
ENDBRANCH  55  80
BRANCH  67  92
ATOM     92  C   UNL A   1      48.372  27.629  29.872  1.00  0.00     0.058 A 
ATOM     93  C   UNL A   1      49.307  27.926  28.869  1.00  0.00     0.135 A 
ATOM     94  C   UNL A   1      48.854  27.156  31.103  1.00  0.00     0.135 A 
ATOM     95  F   UNL A   1      48.897  28.372  27.672  1.00  0.00    -0.206 F 
ATOM     96  C   UNL A   1      50.673  27.772  29.086  1.00  0.00     0.059 A 
ATOM     97  C   UNL A   1      50.215  27.018  31.350  1.00  0.00     0.059 A 
ATOM     98  F   UNL A   1      47.998  26.863  32.096  1.00  0.00    -0.206 F 
ATOM     99  C   UNL A   1      51.117  27.331  30.335  1.00  0.00     0.060 A 
BRANCH  99 100
ATOM    100  S   UNL A   1      52.895  27.227  30.632  1.00  0.00     0.124 S 
ATOM    101  O   UNL A   1      53.196  25.884  30.150  1.00  0.00    -0.237 OA
ATOM    102  O   UNL A   1      53.411  28.325  29.820  1.00  0.00    -0.237 OA
ATOM    103  O   UNL A   1      53.011  27.415  32.076  1.00  0.00    -0.744 OA
ENDBRANCH  99 100
ENDBRANCH  67  92
ENDBRANCH  41  42
ENDBRANCH  33  36
ENDBRANCH  31  32
ENDBRANCH   1  31
TORSDOF 15
ENDMDL
