MODEL 1
REMARK VINA RESULT:     -11.9      0.000      0.000
REMARK SMILES CC1(C)CCSC[C@@]1(Nc1ccccc1Br)C(=O)NCCCNC(=O)c1ccc(-c2c3nc(c(-c4c(F)cc(S(=O)(=O)[O-])cc4F)c4ccc([nH]4)c(-c4c(F)cc(S(=O)(=O)[O-])cc4F)c4nc(c(-c5c(F)cc(S(=O)(=O)[O-])cc5F)c5ccc2[nH]5)C=C4)C=C3)cc1
REMARK SMILES IDX 21 1 20 2 19 3 17 4 18 5 8 7 1 8 2 9 3 10 4 11 5 12 7 13
REMARK SMILES IDX 6 14 9 15 10 17 11 18 15 19 12 20 14 21 16 22 13 23 22 24
REMARK SMILES IDX 23 25 24 26 25 28 26 29 27 30 91 31 28 32 90 33 29 34 30 35
REMARK SMILES IDX 31 36 84 37 32 38 89 39 83 40 85 41 33 42 88 43 82 44 81 45
REMARK SMILES IDX 34 47 68 48 47 49 67 50 48 51 51 52 66 53 86 54 49 55 50 56
REMARK SMILES IDX 65 58 87 59 52 60 35 61 36 62 45 63 37 64 38 65 44 66 46 67
REMARK SMILES IDX 39 68 40 69 41 70 42 71 43 72 69 73 70 74 79 75 71 76 72 77
REMARK SMILES IDX 78 78 80 79 73 80 74 81 75 82 76 83 77 84 53 85 54 86 63 87
REMARK SMILES IDX 55 88 56 89 62 90 64 91 57 92 58 93 59 94 60 95 61 96
REMARK H PARENT 19 6 9 16 23 27 85 46 51 57
REMARK Flexibility Score: inf
ROOT
ATOM      1  C   UNL A   1      38.262  22.981  25.863  1.00  0.00     0.042 C 
ENDROOT
BRANCH   1   2
ATOM      2  C   UNL A   1      37.083  23.912  26.059  1.00  0.00     0.117 C 
BRANCH   2   3
ATOM      3  N   UNL A   1      35.979  23.434  26.847  1.00  0.00    -0.354 N 
ATOM      4  C   UNL A   1      34.671  23.256  26.505  1.00  0.00     0.247 C 
ATOM      5  O   UNL A   1      33.978  22.726  27.388  1.00  0.00    -0.272 OA
ATOM      6  H   UNL A   1      36.201  23.199  27.777  1.00  0.00     0.163 HD
BRANCH   4   7
ATOM      7  C   UNL A   1      34.053  23.660  25.096  1.00  0.00     0.131 C 
ATOM      8  C   UNL A   1      34.369  21.148  24.484  1.00  0.00     0.014 C 
ATOM      9  C   UNL A   1      34.407  22.590  23.906  1.00  0.00    -0.002 C 
ATOM     10  C   UNL A   1      35.781  22.733  23.184  1.00  0.00     0.014 C 
ATOM     11  C   UNL A   1      33.415  22.675  22.700  1.00  0.00     0.020 C 
ATOM     12  C   UNL A   1      31.949  22.454  22.991  1.00  0.00     0.070 C 
ATOM     13  C   UNL A   1      32.492  23.633  25.377  1.00  0.00     0.108 C 
ATOM     14  S   UNL A   1      31.345  23.825  23.972  1.00  0.00    -0.159 SA
BRANCH   7  15
ATOM     15  N   UNL A   1      34.507  25.055  24.723  1.00  0.00    -0.369 N 
ATOM     16  H   UNL A   1      35.398  25.167  24.318  1.00  0.00     0.161 HD
BRANCH  15  17
ATOM     17  C   UNL A   1      33.713  26.202  24.930  1.00  0.00     0.049 A 
ATOM     18  C   UNL A   1      33.489  26.590  26.268  1.00  0.00     0.027 A 
ATOM     19  C   UNL A   1      33.167  27.046  23.942  1.00  0.00     0.041 A 
ATOM     20  C   UNL A   1      32.812  27.768  26.607  1.00  0.00     0.002 A 
ATOM     21  C   UNL A   1      32.480  28.227  24.284  1.00  0.00     0.018 A 
ATOM     22  Br  UNL A   1      33.130  26.663  22.087  1.00  0.00    -0.049 Br
ATOM     23  C   UNL A   1      32.313  28.595  25.612  1.00  0.00     0.001 A 
ENDBRANCH  15  17
ENDBRANCH   7  15
ENDBRANCH   4   7
ENDBRANCH   2   3
ENDBRANCH   1   2
BRANCH   1  24
ATOM     24  C   UNL A   1      39.370  23.136  26.880  1.00  0.00     0.118 C 
BRANCH  24  25
ATOM     25  N   UNL A   1      40.675  23.353  26.267  1.00  0.00    -0.352 N 
ATOM     26  C   UNL A   1      41.535  24.425  26.337  1.00  0.00     0.251 C 
ATOM     27  H   UNL A   1      40.993  22.608  25.708  1.00  0.00     0.163 HD
ATOM     28  O   UNL A   1      42.503  24.470  25.579  1.00  0.00    -0.269 OA
BRANCH  26  29
ATOM     29  C   UNL A   1      41.282  25.539  27.279  1.00  0.00     0.039 A 
ATOM     30  C   UNL A   1      40.322  25.387  28.286  1.00  0.00     0.014 A 
ATOM     31  C   UNL A   1      41.987  26.735  27.180  1.00  0.00     0.014 A 
ATOM     32  C   UNL A   1      40.153  26.391  29.248  1.00  0.00     0.010 A 
ATOM     33  C   UNL A   1      41.914  27.669  28.205  1.00  0.00     0.010 A 
ATOM     34  C   UNL A   1      40.992  27.516  29.250  1.00  0.00    -0.014 A 
BRANCH  34  35
ATOM     35  C   UNL A   1      40.932  28.570  30.299  1.00  0.00     0.031 A 
ATOM     36  C   UNL A   1      41.823  28.454  31.511  1.00  0.00     0.074 A 
ATOM     37  C   UNL A   1      39.995  29.539  30.238  1.00  0.00     0.049 A 
ATOM     38  N   UNL A   1      41.765  29.101  32.646  1.00  0.00    -0.248 NA
ATOM     39  C   UNL A   1      42.888  27.436  31.458  1.00  0.00     0.031 C 
ATOM     40  C   UNL A   1      39.033  29.730  29.150  1.00  0.00     0.029 A 
ATOM     41  N   UNL A   1      39.670  30.528  31.137  1.00  0.00    -0.354 N 
ATOM     42  C   UNL A   1      42.738  28.527  33.457  1.00  0.00     0.074 A 
ATOM     43  C   UNL A   1      43.351  27.460  32.699  1.00  0.00     0.031 C 
ATOM     44  C   UNL A   1      38.232  30.767  29.441  1.00  0.00     0.029 A 
ATOM     45  C   UNL A   1      38.585  31.286  30.758  1.00  0.00     0.049 A 
ATOM     46  H   UNL A   1      40.168  30.680  31.973  1.00  0.00     0.167 HD
ATOM     47  C   UNL A   1      43.099  28.871  34.715  1.00  0.00     0.037 A 
ATOM     48  C   UNL A   1      37.927  32.264  31.411  1.00  0.00     0.037 A 
ATOM     49  C   UNL A   1      42.547  29.991  35.429  1.00  0.00     0.049 A 
ATOM     50  C   UNL A   1      38.392  32.670  32.786  1.00  0.00     0.074 A 
ATOM     51  C   UNL A   1      42.926  30.493  36.661  1.00  0.00     0.029 A 
ATOM     52  N   UNL A   1      41.511  30.789  34.969  1.00  0.00    -0.354 N 
ATOM     53  N   UNL A   1      39.362  32.162  33.509  1.00  0.00    -0.248 NA
ATOM     54  C   UNL A   1      37.679  33.781  33.434  1.00  0.00     0.031 C 
ATOM     55  C   UNL A   1      42.094  31.576  36.963  1.00  0.00     0.029 A 
ATOM     56  C   UNL A   1      41.228  31.772  35.899  1.00  0.00     0.049 A 
ATOM     57  H   UNL A   1      41.047  30.673  34.108  1.00  0.00     0.167 HD
ATOM     58  C   UNL A   1      39.394  32.911  34.680  1.00  0.00     0.074 A 
ATOM     59  C   UNL A   1      38.354  33.911  34.568  1.00  0.00     0.031 C 
ATOM     60  C   UNL A   1      40.213  32.783  35.752  1.00  0.00     0.037 A 
BRANCH  47  61
ATOM     61  C   UNL A   1      44.152  28.050  35.403  1.00  0.00     0.058 A 
ATOM     62  C   UNL A   1      43.826  26.931  36.184  1.00  0.00     0.135 A 
ATOM     63  C   UNL A   1      45.514  28.342  35.214  1.00  0.00     0.135 A 
ATOM     64  F   UNL A   1      42.541  26.616  36.411  1.00  0.00    -0.206 F 
ATOM     65  C   UNL A   1      44.811  26.137  36.763  1.00  0.00     0.059 A 
ATOM     66  C   UNL A   1      46.516  27.547  35.762  1.00  0.00     0.059 A 
ATOM     67  F   UNL A   1      45.881  29.403  34.479  1.00  0.00    -0.206 F 
ATOM     68  C   UNL A   1      46.153  26.449  36.540  1.00  0.00     0.060 A 
BRANCH  68  69
ATOM     69  S   UNL A   1      47.416  25.380  37.260  1.00  0.00     0.124 S 
ATOM     70  O   UNL A   1      47.185  24.130  36.540  1.00  0.00    -0.237 OA
ATOM     71  O   UNL A   1      48.649  26.084  36.925  1.00  0.00    -0.237 OA
ATOM     72  O   UNL A   1      47.075  25.358  38.679  1.00  0.00    -0.744 OA
ENDBRANCH  68  69
ENDBRANCH  47  61
BRANCH  48  73
ATOM     73  C   UNL A   1      36.754  32.932  30.784  1.00  0.00     0.058 A 
ATOM     74  C   UNL A   1      36.921  33.868  29.753  1.00  0.00     0.135 A 
ATOM     75  C   UNL A   1      35.445  32.664  31.215  1.00  0.00     0.135 A 
ATOM     76  F   UNL A   1      38.153  34.162  29.309  1.00  0.00    -0.206 F 
ATOM     77  C   UNL A   1      35.839  34.541  29.194  1.00  0.00     0.059 A 
ATOM     78  C   UNL A   1      34.344  33.304  30.653  1.00  0.00     0.059 A 
ATOM     79  F   UNL A   1      35.227  31.761  32.184  1.00  0.00    -0.206 F 
ATOM     80  C   UNL A   1      34.553  34.254  29.655  1.00  0.00     0.060 A 
BRANCH  80  81
ATOM     81  S   UNL A   1      33.152  35.120  28.914  1.00  0.00     0.124 S 
ATOM     82  O   UNL A   1      32.669  34.132  27.958  1.00  0.00    -0.237 OA
ATOM     83  O   UNL A   1      32.293  35.364  30.070  1.00  0.00    -0.237 OA
ATOM     84  O   UNL A   1      33.763  36.314  28.338  1.00  0.00    -0.744 OA
ENDBRANCH  80  81
ENDBRANCH  48  73
BRANCH  60  85
ATOM     85  C   UNL A   1      40.067  33.774  36.870  1.00  0.00     0.058 A 
ATOM     86  C   UNL A   1      40.689  35.030  36.827  1.00  0.00     0.135 A 
ATOM     87  C   UNL A   1      39.207  33.500  37.946  1.00  0.00     0.135 A 
ATOM     88  F   UNL A   1      41.525  35.336  35.822  1.00  0.00    -0.206 F 
ATOM     89  C   UNL A   1      40.468  35.981  37.817  1.00  0.00     0.059 A 
ATOM     90  C   UNL A   1      38.953  34.445  38.933  1.00  0.00     0.059 A 
ATOM     91  F   UNL A   1      38.580  32.316  38.026  1.00  0.00    -0.206 F 
ATOM     92  C   UNL A   1      39.590  35.682  38.862  1.00  0.00     0.060 A 
BRANCH  92  93
ATOM     93  S   UNL A   1      39.253  36.952  40.099  1.00  0.00     0.124 S 
ATOM     94  O   UNL A   1      38.331  36.257  40.992  1.00  0.00    -0.237 OA
ATOM     95  O   UNL A   1      40.580  37.221  40.643  1.00  0.00    -0.237 OA
ATOM     96  O   UNL A   1      38.670  38.040  39.319  1.00  0.00    -0.744 OA
ENDBRANCH  92  93
ENDBRANCH  60  85
ENDBRANCH  34  35
ENDBRANCH  26  29
ENDBRANCH  24  25
ENDBRANCH   1  24
TORSDOF 15
ENDMDL
MODEL 2
REMARK VINA RESULT:     -11.9      6.565     11.674
REMARK SMILES CC1(C)CCSC[C@@]1(Nc1ccccc1Br)C(=O)NCCCNC(=O)c1ccc(-c2c3nc(c(-c4c(F)cc(S(=O)(=O)[O-])cc4F)c4ccc([nH]4)c(-c4c(F)cc(S(=O)(=O)[O-])cc4F)c4nc(c(-c5c(F)cc(S(=O)(=O)[O-])cc5F)c5ccc2[nH]5)C=C4)C=C3)cc1
REMARK SMILES IDX 21 1 20 2 19 3 17 4 18 5 8 7 1 8 2 9 3 10 4 11 5 12 7 13
REMARK SMILES IDX 6 14 9 15 10 17 11 18 15 19 12 20 14 21 16 22 13 23 22 24
REMARK SMILES IDX 23 25 24 26 25 28 26 29 27 30 91 31 28 32 90 33 29 34 30 35
REMARK SMILES IDX 31 36 84 37 32 38 89 39 83 40 85 41 33 42 88 43 82 44 81 45
REMARK SMILES IDX 34 47 68 48 47 49 67 50 48 51 51 52 66 53 86 54 49 55 50 56
REMARK SMILES IDX 65 58 87 59 52 60 35 61 36 62 45 63 37 64 38 65 44 66 46 67
REMARK SMILES IDX 39 68 40 69 41 70 42 71 43 72 69 73 70 74 79 75 71 76 72 77
REMARK SMILES IDX 78 78 80 79 73 80 74 81 75 82 76 83 77 84 53 85 54 86 63 87
REMARK SMILES IDX 55 88 56 89 62 90 64 91 57 92 58 93 59 94 60 95 61 96
REMARK H PARENT 19 6 9 16 23 27 85 46 51 57
REMARK Flexibility Score: inf
ROOT
ATOM      1  C   UNL A   1      33.172  28.568  27.306  1.00  0.00     0.042 C 
ENDROOT
BRANCH   1   2
ATOM      2  C   UNL A   1      33.032  27.268  26.541  1.00  0.00     0.117 C 
BRANCH   2   3
ATOM      3  N   UNL A   1      31.814  26.523  26.706  1.00  0.00    -0.354 N 
ATOM      4  C   UNL A   1      31.376  25.404  26.061  1.00  0.00     0.247 C 
ATOM      5  O   UNL A   1      30.317  24.937  26.506  1.00  0.00    -0.272 OA
ATOM      6  H   UNL A   1      31.199  26.874  27.392  1.00  0.00     0.163 HD
BRANCH   4   7
ATOM      7  C   UNL A   1      32.142  24.716  24.849  1.00  0.00     0.131 C 
ATOM      8  C   UNL A   1      33.401  23.376  26.694  1.00  0.00     0.014 C 
ATOM      9  C   UNL A   1      33.562  24.026  25.293  1.00  0.00    -0.002 C 
ATOM     10  C   UNL A   1      34.820  24.944  25.380  1.00  0.00     0.014 C 
ATOM     11  C   UNL A   1      34.047  22.935  24.284  1.00  0.00     0.020 C 
ATOM     12  C   UNL A   1      33.120  21.770  24.023  1.00  0.00     0.070 C 
ATOM     13  C   UNL A   1      31.130  23.583  24.392  1.00  0.00     0.108 C 
ATOM     14  S   UNL A   1      31.678  22.369  23.146  1.00  0.00    -0.159 SA
BRANCH   7  15
ATOM     15  N   UNL A   1      32.354  25.726  23.741  1.00  0.00    -0.369 N 
ATOM     16  H   UNL A   1      33.148  25.635  23.167  1.00  0.00     0.161 HD
BRANCH  15  17
ATOM     17  C   UNL A   1      31.463  26.791  23.494  1.00  0.00     0.049 A 
ATOM     18  C   UNL A   1      30.087  26.479  23.465  1.00  0.00     0.027 A 
ATOM     19  C   UNL A   1      31.791  28.153  23.337  1.00  0.00     0.041 A 
ATOM     20  C   UNL A   1      29.095  27.460  23.340  1.00  0.00     0.002 A 
ATOM     21  C   UNL A   1      30.794  29.137  23.203  1.00  0.00     0.018 A 
ATOM     22  Br  UNL A   1      33.549  28.827  23.124  1.00  0.00    -0.049 Br
ATOM     23  C   UNL A   1      29.448  28.794  23.218  1.00  0.00     0.001 A 
ENDBRANCH  15  17
ENDBRANCH   7  15
ENDBRANCH   4   7
ENDBRANCH   2   3
ENDBRANCH   1   2
BRANCH   1  24
ATOM     24  C   UNL A   1      34.584  29.102  27.400  1.00  0.00     0.118 C 
BRANCH  24  25
ATOM     25  N   UNL A   1      34.722  30.164  28.390  1.00  0.00    -0.352 N 
ATOM     26  C   UNL A   1      35.793  30.532  29.172  1.00  0.00     0.251 C 
ATOM     27  H   UNL A   1      33.913  30.709  28.521  1.00  0.00     0.163 HD
ATOM     28  O   UNL A   1      35.624  31.343  30.081  1.00  0.00    -0.269 OA
BRANCH  26  29
ATOM     29  C   UNL A   1      37.129  29.930  28.958  1.00  0.00     0.039 A 
ATOM     30  C   UNL A   1      37.680  29.910  27.671  1.00  0.00     0.014 A 
ATOM     31  C   UNL A   1      37.847  29.384  30.018  1.00  0.00     0.014 A 
ATOM     32  C   UNL A   1      38.985  29.443  27.476  1.00  0.00     0.010 A 
ATOM     33  C   UNL A   1      39.183  29.045  29.848  1.00  0.00     0.010 A 
ATOM     34  C   UNL A   1      39.770  29.062  28.576  1.00  0.00    -0.014 A 
BRANCH  34  35
ATOM     35  C   UNL A   1      41.196  28.650  28.451  1.00  0.00     0.031 A 
ATOM     36  C   UNL A   1      42.271  29.709  28.455  1.00  0.00     0.074 A 
ATOM     37  C   UNL A   1      41.512  27.364  28.193  1.00  0.00     0.049 A 
ATOM     38  N   UNL A   1      43.529  29.611  28.114  1.00  0.00    -0.248 NA
ATOM     39  C   UNL A   1      41.861  31.070  28.844  1.00  0.00     0.031 C 
ATOM     40  C   UNL A   1      40.563  26.252  28.106  1.00  0.00     0.029 A 
ATOM     41  N   UNL A   1      42.726  26.779  27.918  1.00  0.00    -0.354 N 
ATOM     42  C   UNL A   1      44.040  30.903  28.186  1.00  0.00     0.074 A 
ATOM     43  C   UNL A   1      42.952  31.772  28.573  1.00  0.00     0.031 C 
ATOM     44  C   UNL A   1      41.227  25.125  27.801  1.00  0.00     0.029 A 
ATOM     45  C   UNL A   1      42.640  25.438  27.621  1.00  0.00     0.049 A 
ATOM     46  H   UNL A   1      43.578  27.274  27.933  1.00  0.00     0.167 HD
ATOM     47  C   UNL A   1      45.308  31.323  27.967  1.00  0.00     0.037 A 
ATOM     48  C   UNL A   1      43.585  24.566  27.216  1.00  0.00     0.037 A 
ATOM     49  C   UNL A   1      46.404  30.440  27.671  1.00  0.00     0.049 A 
ATOM     50  C   UNL A   1      45.001  25.049  27.042  1.00  0.00     0.074 A 
ATOM     51  C   UNL A   1      47.746  30.752  27.546  1.00  0.00     0.029 A 
ATOM     52  N   UNL A   1      46.287  29.073  27.469  1.00  0.00    -0.354 N 
ATOM     53  N   UNL A   1      45.481  26.262  27.185  1.00  0.00    -0.248 NA
ATOM     54  C   UNL A   1      46.008  24.049  26.655  1.00  0.00     0.031 C 
ATOM     55  C   UNL A   1      48.437  29.578  27.233  1.00  0.00     0.029 A 
ATOM     56  C   UNL A   1      47.531  28.530  27.207  1.00  0.00     0.049 A 
ATOM     57  H   UNL A   1      45.444  28.566  27.508  1.00  0.00     0.167 HD
ATOM     58  C   UNL A   1      46.846  26.163  26.937  1.00  0.00     0.074 A 
ATOM     59  C   UNL A   1      47.119  24.772  26.642  1.00  0.00     0.031 C 
ATOM     60  C   UNL A   1      47.788  27.135  26.953  1.00  0.00     0.037 A 
BRANCH  47  61
ATOM     61  C   UNL A   1      45.596  32.794  28.057  1.00  0.00     0.058 A 
ATOM     62  C   UNL A   1      46.049  33.388  29.243  1.00  0.00     0.135 A 
ATOM     63  C   UNL A   1      45.492  33.607  26.915  1.00  0.00     0.135 A 
ATOM     64  F   UNL A   1      46.151  32.662  30.368  1.00  0.00    -0.206 F 
ATOM     65  C   UNL A   1      46.378  34.739  29.300  1.00  0.00     0.059 A 
ATOM     66  C   UNL A   1      45.840  34.954  26.942  1.00  0.00     0.059 A 
ATOM     67  F   UNL A   1      45.060  33.089  25.754  1.00  0.00    -0.206 F 
ATOM     68  C   UNL A   1      46.276  35.512  28.142  1.00  0.00     0.060 A 
BRANCH  68  69
ATOM     69  S   UNL A   1      46.752  37.251  28.224  1.00  0.00     0.124 S 
ATOM     70  O   UNL A   1      48.205  37.151  28.335  1.00  0.00    -0.237 OA
ATOM     71  O   UNL A   1      46.250  37.772  26.957  1.00  0.00    -0.237 OA
ATOM     72  O   UNL A   1      46.064  37.737  29.415  1.00  0.00    -0.744 OA
ENDBRANCH  68  69
ENDBRANCH  47  61
BRANCH  48  73
ATOM     73  C   UNL A   1      43.232  23.147  26.940  1.00  0.00     0.058 A 
ATOM     74  C   UNL A   1      43.032  22.235  27.988  1.00  0.00     0.135 A 
ATOM     75  C   UNL A   1      43.108  22.668  25.626  1.00  0.00     0.135 A 
ATOM     76  F   UNL A   1      43.143  22.644  29.261  1.00  0.00    -0.206 F 
ATOM     77  C   UNL A   1      42.755  20.893  27.746  1.00  0.00     0.059 A 
ATOM     78  C   UNL A   1      42.805  21.336  25.359  1.00  0.00     0.059 A 
ATOM     79  F   UNL A   1      43.268  23.502  24.588  1.00  0.00    -0.206 F 
ATOM     80  C   UNL A   1      42.648  20.452  26.426  1.00  0.00     0.060 A 
BRANCH  80  81
ATOM     81  S   UNL A   1      42.274  18.712  26.119  1.00  0.00     0.124 S 
ATOM     82  O   UNL A   1      40.864  18.775  25.756  1.00  0.00    -0.237 OA
ATOM     83  O   UNL A   1      43.198  18.383  25.037  1.00  0.00    -0.237 OA
ATOM     84  O   UNL A   1      42.572  18.075  27.399  1.00  0.00    -0.744 OA
ENDBRANCH  80  81
ENDBRANCH  48  73
BRANCH  60  85
ATOM     85  C   UNL A   1      49.213  26.737  26.702  1.00  0.00     0.058 A 
ATOM     86  C   UNL A   1      50.011  26.178  27.710  1.00  0.00     0.135 A 
ATOM     87  C   UNL A   1      49.750  26.821  25.406  1.00  0.00     0.135 A 
ATOM     88  F   UNL A   1      49.544  26.082  28.966  1.00  0.00    -0.206 F 
ATOM     89  C   UNL A   1      51.295  25.717  27.444  1.00  0.00     0.059 A 
ATOM     90  C   UNL A   1      51.022  26.345  25.113  1.00  0.00     0.059 A 
ATOM     91  F   UNL A   1      49.021  27.340  24.405  1.00  0.00    -0.206 F 
ATOM     92  C   UNL A   1      51.790  25.798  26.140  1.00  0.00     0.060 A 
BRANCH  92  93
ATOM     93  S   UNL A   1      53.430  25.128  25.793  1.00  0.00     0.124 S 
ATOM     94  O   UNL A   1      53.896  26.023  24.738  1.00  0.00    -0.237 OA
ATOM     95  O   UNL A   1      54.102  25.263  27.081  1.00  0.00    -0.237 OA
ATOM     96  O   UNL A   1      53.155  23.756  25.376  1.00  0.00    -0.744 OA
ENDBRANCH  92  93
ENDBRANCH  60  85
ENDBRANCH  34  35
ENDBRANCH  26  29
ENDBRANCH  24  25
ENDBRANCH   1  24
TORSDOF 15
ENDMDL
MODEL 3
REMARK VINA RESULT:     -11.7      2.292      3.079
REMARK SMILES CC1(C)CCSC[C@@]1(Nc1ccccc1Br)C(=O)NCCCNC(=O)c1ccc(-c2c3nc(c(-c4c(F)cc(S(=O)(=O)[O-])cc4F)c4ccc([nH]4)c(-c4c(F)cc(S(=O)(=O)[O-])cc4F)c4nc(c(-c5c(F)cc(S(=O)(=O)[O-])cc5F)c5ccc2[nH]5)C=C4)C=C3)cc1
REMARK SMILES IDX 21 1 20 2 19 3 17 4 18 5 8 7 1 8 2 9 3 10 4 11 5 12 7 13
REMARK SMILES IDX 6 14 9 15 10 17 11 18 15 19 12 20 14 21 16 22 13 23 22 24
REMARK SMILES IDX 23 25 24 26 25 28 26 29 27 30 91 31 28 32 90 33 29 34 30 35
REMARK SMILES IDX 31 36 84 37 32 38 89 39 83 40 85 41 33 42 88 43 82 44 81 45
REMARK SMILES IDX 34 47 68 48 47 49 67 50 48 51 51 52 66 53 86 54 49 55 50 56
REMARK SMILES IDX 65 58 87 59 52 60 35 61 36 62 45 63 37 64 38 65 44 66 46 67
REMARK SMILES IDX 39 68 40 69 41 70 42 71 43 72 69 73 70 74 79 75 71 76 72 77
REMARK SMILES IDX 78 78 80 79 73 80 74 81 75 82 76 83 77 84 53 85 54 86 63 87
REMARK SMILES IDX 55 88 56 89 62 90 64 91 57 92 58 93 59 94 60 95 61 96
REMARK H PARENT 19 6 9 16 23 27 85 46 51 57
REMARK Flexibility Score: inf
ROOT
ATOM      1  C   UNL A   1      36.022  23.669  26.248  1.00  0.00     0.042 C 
ENDROOT
BRANCH   1   2
ATOM      2  C   UNL A   1      34.806  22.817  25.949  1.00  0.00     0.117 C 
BRANCH   2   3
ATOM      3  N   UNL A   1      33.664  22.957  26.810  1.00  0.00    -0.354 N 
ATOM      4  C   UNL A   1      32.538  23.711  26.657  1.00  0.00     0.247 C 
ATOM      5  O   UNL A   1      31.680  23.535  27.536  1.00  0.00    -0.272 OA
ATOM      6  H   UNL A   1      33.698  22.426  27.639  1.00  0.00     0.163 HD
BRANCH   4   7
ATOM      7  C   UNL A   1      32.300  24.727  25.456  1.00  0.00     0.131 C 
ATOM      8  C   UNL A   1      31.659  22.608  24.083  1.00  0.00     0.014 C 
ATOM      9  C   UNL A   1      32.334  24.004  23.985  1.00  0.00    -0.002 C 
ATOM     10  C   UNL A   1      33.726  23.768  23.323  1.00  0.00     0.014 C 
ATOM     11  C   UNL A   1      31.606  24.839  22.882  1.00  0.00     0.020 C 
ATOM     12  C   UNL A   1      30.149  25.172  23.112  1.00  0.00     0.070 C 
ATOM     13  C   UNL A   1      30.837  25.268  25.739  1.00  0.00     0.108 C 
ATOM     14  S   UNL A   1      30.032  26.318  24.483  1.00  0.00    -0.159 SA
BRANCH   7  15
ATOM     15  N   UNL A   1      33.312  25.850  25.531  1.00  0.00    -0.369 N 
ATOM     16  H   UNL A   1      34.267  25.629  25.444  1.00  0.00     0.161 HD
BRANCH  15  17
ATOM     17  C   UNL A   1      32.948  27.199  25.721  1.00  0.00     0.049 A 
ATOM     18  C   UNL A   1      32.411  27.544  26.979  1.00  0.00     0.027 A 
ATOM     19  C   UNL A   1      33.121  28.261  24.811  1.00  0.00     0.041 A 
ATOM     20  C   UNL A   1      32.112  28.865  27.335  1.00  0.00     0.002 A 
ATOM     21  C   UNL A   1      32.813  29.589  25.166  1.00  0.00     0.018 A 
ATOM     22  Br  UNL A   1      33.618  28.063  22.994  1.00  0.00    -0.049 Br
ATOM     23  C   UNL A   1      32.322  29.893  26.428  1.00  0.00     0.001 A 
ENDBRANCH  15  17
ENDBRANCH   7  15
ENDBRANCH   4   7
ENDBRANCH   2   3
ENDBRANCH   1   2
BRANCH   1  24
ATOM     24  C   UNL A   1      37.076  23.675  25.164  1.00  0.00     0.118 C 
BRANCH  24  25
ATOM     25  N   UNL A   1      38.211  22.813  25.474  1.00  0.00    -0.352 N 
ATOM     26  C   UNL A   1      39.382  23.074  26.150  1.00  0.00     0.251 C 
ATOM     27  H   UNL A   1      38.126  21.890  25.144  1.00  0.00     0.163 HD
ATOM     28  O   UNL A   1      40.288  22.243  26.127  1.00  0.00    -0.269 OA
BRANCH  26  29
ATOM     29  C   UNL A   1      39.575  24.358  26.863  1.00  0.00     0.039 A 
ATOM     30  C   UNL A   1      39.025  24.529  28.138  1.00  0.00     0.014 A 
ATOM     31  C   UNL A   1      40.296  25.397  26.284  1.00  0.00     0.014 A 
ATOM     32  C   UNL A   1      39.293  25.696  28.865  1.00  0.00     0.010 A 
ATOM     33  C   UNL A   1      40.671  26.492  27.051  1.00  0.00     0.010 A 
ATOM     34  C   UNL A   1      40.169  26.663  28.349  1.00  0.00    -0.014 A 
BRANCH  34  35
ATOM     35  C   UNL A   1      40.575  27.877  29.108  1.00  0.00     0.031 A 
ATOM     36  C   UNL A   1      41.854  27.853  29.908  1.00  0.00     0.074 A 
ATOM     37  C   UNL A   1      39.742  28.935  29.197  1.00  0.00     0.049 A 
ATOM     38  N   UNL A   1      42.271  28.683  30.828  1.00  0.00    -0.248 NA
ATOM     39  C   UNL A   1      42.758  26.711  29.680  1.00  0.00     0.031 C 
ATOM     40  C   UNL A   1      38.449  29.062  28.519  1.00  0.00     0.029 A 
ATOM     41  N   UNL A   1      39.841  30.094  29.929  1.00  0.00    -0.354 N 
ATOM     42  C   UNL A   1      43.446  28.133  31.328  1.00  0.00     0.074 A 
ATOM     43  C   UNL A   1      43.661  26.883  30.634  1.00  0.00     0.031 C 
ATOM     44  C   UNL A   1      37.879  30.228  28.864  1.00  0.00     0.029 A 
ATOM     45  C   UNL A   1      38.738  30.911  29.826  1.00  0.00     0.049 A 
ATOM     46  H   UNL A   1      40.628  30.319  30.476  1.00  0.00     0.167 HD
ATOM     47  C   UNL A   1      44.280  28.634  32.269  1.00  0.00     0.037 A 
ATOM     48  C   UNL A   1      38.436  32.062  30.459  1.00  0.00     0.037 A 
ATOM     49  C   UNL A   1      44.106  29.920  32.889  1.00  0.00     0.049 A 
ATOM     50  C   UNL A   1      39.414  32.629  31.455  1.00  0.00     0.074 A 
ATOM     51  C   UNL A   1      44.956  30.569  33.768  1.00  0.00     0.029 A 
ATOM     52  N   UNL A   1      43.020  30.757  32.686  1.00  0.00    -0.354 N 
ATOM     53  N   UNL A   1      40.556  32.130  31.862  1.00  0.00    -0.248 NA
ATOM     54  C   UNL A   1      39.066  33.916  32.077  1.00  0.00     0.031 C 
ATOM     55  C   UNL A   1      44.365  31.785  34.124  1.00  0.00     0.029 A 
ATOM     56  C   UNL A   1      43.170  31.910  33.433  1.00  0.00     0.049 A 
ATOM     57  H   UNL A   1      42.256  30.558  32.097  1.00  0.00     0.167 HD
ATOM     58  C   UNL A   1      41.076  33.055  32.761  1.00  0.00     0.074 A 
ATOM     59  C   UNL A   1      40.130  34.147  32.834  1.00  0.00     0.031 C 
ATOM     60  C   UNL A   1      42.234  33.004  33.463  1.00  0.00     0.037 A 
BRANCH  47  61
ATOM     61  C   UNL A   1      45.469  27.811  32.678  1.00  0.00     0.058 A 
ATOM     62  C   UNL A   1      46.715  27.950  32.051  1.00  0.00     0.135 A 
ATOM     63  C   UNL A   1      45.377  26.927  33.766  1.00  0.00     0.135 A 
ATOM     64  F   UNL A   1      46.855  28.768  30.995  1.00  0.00    -0.206 F 
ATOM     65  C   UNL A   1      47.828  27.233  32.480  1.00  0.00     0.059 A 
ATOM     66  C   UNL A   1      46.483  26.220  34.229  1.00  0.00     0.059 A 
ATOM     67  F   UNL A   1      44.206  26.754  34.400  1.00  0.00    -0.206 F 
ATOM     68  C   UNL A   1      47.703  26.376  33.574  1.00  0.00     0.060 A 
BRANCH  68  69
ATOM     69  S   UNL A   1      49.169  25.490  34.146  1.00  0.00     0.124 S 
ATOM     70  O   UNL A   1      48.728  24.102  34.044  1.00  0.00    -0.237 OA
ATOM     71  O   UNL A   1      50.180  25.905  33.180  1.00  0.00    -0.237 OA
ATOM     72  O   UNL A   1      49.359  25.989  35.503  1.00  0.00    -0.744 OA
ENDBRANCH  68  69
ENDBRANCH  47  61
BRANCH  48  73
ATOM     73  C   UNL A   1      37.152  32.761  30.180  1.00  0.00     0.058 A 
ATOM     74  C   UNL A   1      37.031  33.647  29.100  1.00  0.00     0.135 A 
ATOM     75  C   UNL A   1      36.026  32.573  30.999  1.00  0.00     0.135 A 
ATOM     76  F   UNL A   1      38.079  33.863  28.291  1.00  0.00    -0.206 F 
ATOM     77  C   UNL A   1      35.854  34.348  28.858  1.00  0.00     0.059 A 
ATOM     78  C   UNL A   1      34.829  33.243  30.761  1.00  0.00     0.059 A 
ATOM     79  F   UNL A   1      36.081  31.720  32.033  1.00  0.00    -0.206 F 
ATOM     80  C   UNL A   1      34.759  34.142  29.699  1.00  0.00     0.060 A 
BRANCH  80  81
ATOM     81  S   UNL A   1      33.229  35.046  29.371  1.00  0.00     0.124 S 
ATOM     82  O   UNL A   1      33.741  36.333  28.917  1.00  0.00    -0.237 OA
ATOM     83  O   UNL A   1      32.592  34.216  28.353  1.00  0.00    -0.237 OA
ATOM     84  O   UNL A   1      32.560  35.052  30.669  1.00  0.00    -0.744 OA
ENDBRANCH  80  81
ENDBRANCH  48  73
BRANCH  60  85
ATOM     85  C   UNL A   1      42.582  34.180  34.329  1.00  0.00     0.058 A 
ATOM     86  C   UNL A   1      42.281  34.202  35.698  1.00  0.00     0.135 A 
ATOM     87  C   UNL A   1      43.321  35.250  33.798  1.00  0.00     0.135 A 
ATOM     88  F   UNL A   1      41.571  33.205  36.250  1.00  0.00    -0.206 F 
ATOM     89  C   UNL A   1      42.697  35.249  36.513  1.00  0.00     0.059 A 
ATOM     90  C   UNL A   1      43.767  36.295  34.599  1.00  0.00     0.059 A 
ATOM     91  F   UNL A   1      43.642  35.269  32.495  1.00  0.00    -0.206 F 
ATOM     92  C   UNL A   1      43.447  36.287  35.956  1.00  0.00     0.060 A 
BRANCH  92  93
ATOM     93  S   UNL A   1      44.045  37.601  37.039  1.00  0.00     0.124 S 
ATOM     94  O   UNL A   1      44.194  38.710  36.102  1.00  0.00    -0.237 OA
ATOM     95  O   UNL A   1      42.959  37.730  38.005  1.00  0.00    -0.237 OA
ATOM     96  O   UNL A   1      45.291  37.060  37.574  1.00  0.00    -0.744 OA
ENDBRANCH  92  93
ENDBRANCH  60  85
ENDBRANCH  34  35
ENDBRANCH  26  29
ENDBRANCH  24  25
ENDBRANCH   1  24
TORSDOF 15
ENDMDL
