MODEL 1
REMARK VINA RESULT:     -13.4      0.000      0.000
REMARK SMILES C[C@H](C(=O)NCCCNC(=O)c1ccc(-c2c3nc(c(-c4c(F)cc(S(=O)(=O)[O-])cc4F)c4ccc([nH]4)c(-c4c(F)cc(S(=O)(=O)[O-])cc4F)c4nc(c(-c5c(F)cc(S(=O)(=O)[O-])cc5F)c5ccc2[nH]5)C=C4)C=C3)cc1)n1ccc2c(cnc3nc(C4CCCCC4)nn32)c1=O
REMARK SMILES IDX 7 1 6 2 5 3 3 4 4 5 2 7 1 8 78 9 79 10 96 11 80 12 82 13
REMARK SMILES IDX 97 14 81 15 83 16 95 17 84 18 85 19 94 20 86 21 87 22 88 23
REMARK SMILES IDX 89 24 93 25 90 26 92 27 91 28 8 29 9 30 10 31 11 33 12 34
REMARK SMILES IDX 13 35 77 36 14 37 76 38 15 39 16 40 17 41 70 42 18 43 75 44
REMARK SMILES IDX 69 45 71 46 19 47 74 48 68 49 67 50 20 52 54 53 33 54 53 55
REMARK SMILES IDX 34 56 37 57 52 58 72 59 35 60 36 61 51 63 73 64 38 65 21 66
REMARK SMILES IDX 22 67 31 68 23 69 24 70 30 71 32 72 25 73 26 74 27 75 28 76
REMARK SMILES IDX 29 77 55 78 56 79 65 80 57 81 58 82 64 83 66 84 59 85 60 86
REMARK SMILES IDX 61 87 62 88 63 89 39 90 40 91 49 92 41 93 42 94 48 95 50 96
REMARK SMILES IDX 43 97 44 98 45 99 46 100 47 101
REMARK H PARENT 5 6 9 32 71 51 37 62
REMARK Flexibility Score: inf
ROOT
ATOM      1  C   UNL A   1      33.534  27.891  25.117  1.00  0.00     0.042 C 
ENDROOT
BRANCH   1   2
ATOM      2  C   UNL A   1      32.579  28.932  24.587  1.00  0.00     0.117 C 
BRANCH   2   3
ATOM      3  N   UNL A   1      31.909  28.602  23.351  1.00  0.00    -0.354 N 
ATOM      4  C   UNL A   1      30.710  27.989  23.141  1.00  0.00     0.242 C 
ATOM      5  O   UNL A   1      30.238  28.140  22.003  1.00  0.00    -0.273 OA
ATOM      6  H   UNL A   1      32.395  28.858  22.533  1.00  0.00     0.163 HD
BRANCH   4   7
ATOM      7  C   UNL A   1      30.014  26.987  24.123  1.00  0.00     0.176 C 
ATOM      8  C   UNL A   1      28.531  27.010  23.691  1.00  0.00     0.042 C 
BRANCH   7   9
ATOM      9  N   UNL A   1      30.571  25.626  24.309  1.00  0.00    -0.303 N 
ATOM     10  C   UNL A   1      30.504  24.654  23.314  1.00  0.00     0.092 A 
ATOM     11  C   UNL A   1      31.002  25.274  25.602  1.00  0.00     0.262 A 
ATOM     12  C   UNL A   1      31.037  23.437  23.482  1.00  0.00     0.047 A 
ATOM     13  C   UNL A   1      31.840  24.045  25.669  1.00  0.00     0.084 A 
ATOM     14  O   UNL A   1      30.837  25.965  26.599  1.00  0.00    -0.269 OA
ATOM     15  C   UNL A   1      31.825  23.159  24.660  1.00  0.00     0.084 A 
ATOM     16  C   UNL A   1      32.816  23.765  26.757  1.00  0.00     0.131 A 
ATOM     17  N   UNL A   1      32.558  21.979  24.797  1.00  0.00    -0.196 N 
ATOM     18  N   UNL A   1      33.539  22.692  26.883  1.00  0.00    -0.219 NA
ATOM     19  C   UNL A   1      33.339  21.730  25.932  1.00  0.00     0.252 A 
ATOM     20  N   UNL A   1      32.544  20.884  24.005  1.00  0.00    -0.149 NA
ATOM     21  N   UNL A   1      33.684  20.461  25.936  1.00  0.00    -0.194 NA
ATOM     22  C   UNL A   1      33.121  19.969  24.792  1.00  0.00     0.156 A 
BRANCH  22  23
ATOM     23  C   UNL A   1      32.936  18.500  24.567  1.00  0.00     0.060 C 
ATOM     24  C   UNL A   1      34.178  17.899  23.873  1.00  0.00     0.012 C 
ATOM     25  C   UNL A   1      32.587  17.738  25.850  1.00  0.00     0.012 C 
ATOM     26  C   UNL A   1      34.053  16.400  23.643  1.00  0.00     0.001 C 
ATOM     27  C   UNL A   1      32.471  16.234  25.593  1.00  0.00     0.001 C 
ATOM     28  C   UNL A   1      33.732  15.673  24.943  1.00  0.00     0.000 C 
ENDBRANCH  22  23
ENDBRANCH   7   9
ENDBRANCH   4   7
ENDBRANCH   2   3
ENDBRANCH   1   2
BRANCH   1  29
ATOM     29  C   UNL A   1      33.975  28.098  26.548  1.00  0.00     0.118 C 
BRANCH  29  30
ATOM     30  N   UNL A   1      33.677  29.425  27.070  1.00  0.00    -0.352 N 
ATOM     31  C   UNL A   1      34.439  30.293  27.824  1.00  0.00     0.251 C 
ATOM     32  H   UNL A   1      32.778  29.759  26.847  1.00  0.00     0.163 HD
ATOM     33  O   UNL A   1      33.926  31.317  28.257  1.00  0.00    -0.269 OA
BRANCH  31  34
ATOM     34  C   UNL A   1      35.854  29.981  28.139  1.00  0.00     0.039 A 
ATOM     35  C   UNL A   1      36.182  29.464  29.396  1.00  0.00     0.014 A 
ATOM     36  C   UNL A   1      36.868  30.204  27.209  1.00  0.00     0.014 A 
ATOM     37  C   UNL A   1      37.505  29.113  29.680  1.00  0.00     0.010 A 
ATOM     38  C   UNL A   1      38.143  29.704  27.431  1.00  0.00     0.010 A 
ATOM     39  C   UNL A   1      38.493  29.196  28.686  1.00  0.00    -0.014 A 
BRANCH  39  40
ATOM     40  C   UNL A   1      39.912  28.838  28.950  1.00  0.00     0.031 A 
ATOM     41  C   UNL A   1      40.841  29.866  29.551  1.00  0.00     0.074 A 
ATOM     42  C   UNL A   1      40.380  27.624  28.598  1.00  0.00     0.049 A 
ATOM     43  N   UNL A   1      42.125  29.782  29.791  1.00  0.00    -0.248 NA
ATOM     44  C   UNL A   1      40.262  31.179  29.884  1.00  0.00     0.031 C 
ATOM     45  C   UNL A   1      39.602  26.571  27.942  1.00  0.00     0.029 A 
ATOM     46  N   UNL A   1      41.628  27.072  28.740  1.00  0.00    -0.354 N 
ATOM     47  C   UNL A   1      42.499  31.029  30.281  1.00  0.00     0.074 A 
ATOM     48  C   UNL A   1      41.334  31.879  30.215  1.00  0.00     0.031 C 
ATOM     49  C   UNL A   1      40.379  25.490  27.771  1.00  0.00     0.029 A 
ATOM     50  C   UNL A   1      41.719  25.784  28.268  1.00  0.00     0.049 A 
ATOM     51  H   UNL A   1      42.387  27.553  29.141  1.00  0.00     0.167 HD
ATOM     52  C   UNL A   1      43.693  31.422  30.786  1.00  0.00     0.037 A 
ATOM     53  C   UNL A   1      42.765  24.935  28.242  1.00  0.00     0.037 A 
ATOM     54  C   UNL A   1      44.838  30.559  30.886  1.00  0.00     0.049 A 
ATOM     55  C   UNL A   1      44.076  25.379  28.833  1.00  0.00     0.074 A 
ATOM     56  C   UNL A   1      46.082  30.834  31.424  1.00  0.00     0.029 A 
ATOM     57  N   UNL A   1      44.875  29.244  30.442  1.00  0.00    -0.354 N 
ATOM     58  N   UNL A   1      44.396  26.543  29.348  1.00  0.00    -0.248 NA
ATOM     59  C   UNL A   1      45.161  24.391  28.861  1.00  0.00     0.031 C 
ATOM     60  C   UNL A   1      46.885  29.699  31.266  1.00  0.00     0.029 A 
ATOM     61  C   UNL A   1      46.123  28.697  30.685  1.00  0.00     0.049 A 
ATOM     62  H   UNL A   1      44.124  28.769  30.017  1.00  0.00     0.167 HD
ATOM     63  C   UNL A   1      45.709  26.418  29.788  1.00  0.00     0.074 A 
ATOM     64  C   UNL A   1      46.117  25.059  29.491  1.00  0.00     0.031 C 
ATOM     65  C   UNL A   1      46.506  27.339  30.386  1.00  0.00     0.037 A 
BRANCH  52  66
ATOM     66  C   UNL A   1      43.803  32.841  31.284  1.00  0.00     0.058 A 
ATOM     67  C   UNL A   1      43.522  33.179  32.619  1.00  0.00     0.135 A 
ATOM     68  C   UNL A   1      44.199  33.875  30.421  1.00  0.00     0.135 A 
ATOM     69  F   UNL A   1      43.121  32.235  33.486  1.00  0.00    -0.206 F 
ATOM     70  C   UNL A   1      43.584  34.494  33.068  1.00  0.00     0.059 A 
ATOM     71  C   UNL A   1      44.303  35.193  30.858  1.00  0.00     0.059 A 
ATOM     72  F   UNL A   1      44.480  33.613  29.135  1.00  0.00    -0.206 F 
ATOM     73  C   UNL A   1      43.975  35.495  32.179  1.00  0.00     0.060 A 
BRANCH  73  74
ATOM     74  S   UNL A   1      44.045  37.197  32.777  1.00  0.00     0.124 S 
ATOM     75  O   UNL A   1      43.900  37.948  31.533  1.00  0.00    -0.237 OA
ATOM     76  O   UNL A   1      42.908  37.254  33.688  1.00  0.00    -0.237 OA
ATOM     77  O   UNL A   1      45.358  37.281  33.409  1.00  0.00    -0.744 OA
ENDBRANCH  73  74
ENDBRANCH  52  66
BRANCH  53  78
ATOM     78  C   UNL A   1      42.599  23.571  27.668  1.00  0.00     0.058 A 
ATOM     79  C   UNL A   1      42.774  23.333  26.296  1.00  0.00     0.135 A 
ATOM     80  C   UNL A   1      42.290  22.473  28.486  1.00  0.00     0.135 A 
ATOM     81  F   UNL A   1      43.067  24.350  25.472  1.00  0.00    -0.206 F 
ATOM     82  C   UNL A   1      42.633  22.060  25.752  1.00  0.00     0.059 A 
ATOM     83  C   UNL A   1      42.172  21.186  27.969  1.00  0.00     0.059 A 
ATOM     84  F   UNL A   1      42.132  22.642  29.808  1.00  0.00    -0.206 F 
ATOM     85  C   UNL A   1      42.334  20.991  26.598  1.00  0.00     0.060 A 
BRANCH  85  86
ATOM     86  S   UNL A   1      42.206  19.334  25.890  1.00  0.00     0.124 S 
ATOM     87  O   UNL A   1      42.727  18.510  26.974  1.00  0.00    -0.237 OA
ATOM     88  O   UNL A   1      40.774  19.222  25.633  1.00  0.00    -0.237 OA
ATOM     89  O   UNL A   1      43.045  19.413  24.698  1.00  0.00    -0.744 OA
ENDBRANCH  85  86
ENDBRANCH  53  78
BRANCH  65  90
ATOM     90  C   UNL A   1      47.882  26.897  30.802  1.00  0.00     0.058 A 
ATOM     91  C   UNL A   1      49.004  27.088  29.981  1.00  0.00     0.135 A 
ATOM     92  C   UNL A   1      48.084  26.307  32.060  1.00  0.00     0.135 A 
ATOM     93  F   UNL A   1      48.867  27.648  28.768  1.00  0.00    -0.206 F 
ATOM     94  C   UNL A   1      50.272  26.675  30.377  1.00  0.00     0.059 A 
ATOM     95  C   UNL A   1      49.348  25.916  32.491  1.00  0.00     0.059 A 
ATOM     96  F   UNL A   1      47.047  26.115  32.893  1.00  0.00    -0.206 F 
ATOM     97  C   UNL A   1      50.432  26.088  31.633  1.00  0.00     0.060 A 
BRANCH  97  98
ATOM     98  S   UNL A   1      52.085  25.566  32.139  1.00  0.00     0.124 S 
ATOM     99  O   UNL A   1      52.872  25.900  30.957  1.00  0.00    -0.237 OA
ATOM    100  O   UNL A   1      52.326  26.393  33.317  1.00  0.00    -0.237 OA
ATOM    101  O   UNL A   1      51.924  24.139  32.404  1.00  0.00    -0.744 OA
ENDBRANCH  97  98
ENDBRANCH  65  90
ENDBRANCH  39  40
ENDBRANCH  31  34
ENDBRANCH  29  30
ENDBRANCH   1  29
TORSDOF 15
ENDMDL
MODEL 2
REMARK VINA RESULT:     -12.9      4.764     10.899
REMARK SMILES C[C@H](C(=O)NCCCNC(=O)c1ccc(-c2c3nc(c(-c4c(F)cc(S(=O)(=O)[O-])cc4F)c4ccc([nH]4)c(-c4c(F)cc(S(=O)(=O)[O-])cc4F)c4nc(c(-c5c(F)cc(S(=O)(=O)[O-])cc5F)c5ccc2[nH]5)C=C4)C=C3)cc1)n1ccc2c(cnc3nc(C4CCCCC4)nn32)c1=O
REMARK SMILES IDX 7 1 6 2 5 3 3 4 4 5 2 7 1 8 78 9 79 10 96 11 80 12 82 13
REMARK SMILES IDX 97 14 81 15 83 16 95 17 84 18 85 19 94 20 86 21 87 22 88 23
REMARK SMILES IDX 89 24 93 25 90 26 92 27 91 28 8 29 9 30 10 31 11 33 12 34
REMARK SMILES IDX 13 35 77 36 14 37 76 38 15 39 16 40 17 41 70 42 18 43 75 44
REMARK SMILES IDX 69 45 71 46 19 47 74 48 68 49 67 50 20 52 54 53 33 54 53 55
REMARK SMILES IDX 34 56 37 57 52 58 72 59 35 60 36 61 51 63 73 64 38 65 21 66
REMARK SMILES IDX 22 67 31 68 23 69 24 70 30 71 32 72 25 73 26 74 27 75 28 76
REMARK SMILES IDX 29 77 55 78 56 79 65 80 57 81 58 82 64 83 66 84 59 85 60 86
REMARK SMILES IDX 61 87 62 88 63 89 39 90 40 91 49 92 41 93 42 94 48 95 50 96
REMARK SMILES IDX 43 97 44 98 45 99 46 100 47 101
REMARK H PARENT 5 6 9 32 71 51 37 62
REMARK Flexibility Score: inf
ROOT
ATOM      1  C   UNL A   1      37.286  23.717  25.534  1.00  0.00     0.042 C 
ENDROOT
BRANCH   1   2
ATOM      2  C   UNL A   1      36.722  22.322  25.653  1.00  0.00     0.117 C 
BRANCH   2   3
ATOM      3  N   UNL A   1      35.621  22.165  26.573  1.00  0.00    -0.354 N 
ATOM      4  C   UNL A   1      34.339  21.764  26.344  1.00  0.00     0.242 C 
ATOM      5  O   UNL A   1      33.715  21.400  27.354  1.00  0.00    -0.273 OA
ATOM      6  H   UNL A   1      35.828  22.382  27.512  1.00  0.00     0.163 HD
BRANCH   4   7
ATOM      7  C   UNL A   1      33.565  21.912  24.991  1.00  0.00     0.176 C 
ATOM      8  C   UNL A   1      32.535  20.762  25.020  1.00  0.00     0.042 C 
BRANCH   7   9
ATOM      9  N   UNL A   1      32.997  23.226  24.602  1.00  0.00    -0.303 N 
ATOM     10  C   UNL A   1      31.817  23.717  25.156  1.00  0.00     0.092 A 
ATOM     11  C   UNL A   1      33.582  23.886  23.506  1.00  0.00     0.262 A 
ATOM     12  C   UNL A   1      31.330  24.918  24.821  1.00  0.00     0.047 A 
ATOM     13  C   UNL A   1      33.204  25.319  23.364  1.00  0.00     0.084 A 
ATOM     14  O   UNL A   1      34.441  23.398  22.782  1.00  0.00    -0.269 OA
ATOM     15  C   UNL A   1      32.107  25.794  23.974  1.00  0.00     0.084 A 
ATOM     16  C   UNL A   1      34.040  26.332  22.664  1.00  0.00     0.131 A 
ATOM     17  N   UNL A   1      31.738  27.121  23.748  1.00  0.00    -0.196 N 
ATOM     18  N   UNL A   1      33.736  27.582  22.478  1.00  0.00    -0.219 NA
ATOM     19  C   UNL A   1      32.512  27.969  22.948  1.00  0.00     0.252 A 
ATOM     20  N   UNL A   1      30.595  27.748  24.104  1.00  0.00    -0.149 NA
ATOM     21  N   UNL A   1      31.810  29.046  22.674  1.00  0.00    -0.194 NA
ATOM     22  C   UNL A   1      30.630  28.839  23.332  1.00  0.00     0.156 A 
BRANCH  22  23
ATOM     23  C   UNL A   1      29.394  29.623  23.010  1.00  0.00     0.060 C 
ATOM     24  C   UNL A   1      29.320  30.897  23.879  1.00  0.00     0.012 C 
ATOM     25  C   UNL A   1      29.267  29.953  21.519  1.00  0.00     0.012 C 
ATOM     26  C   UNL A   1      28.094  31.744  23.574  1.00  0.00     0.001 C 
ATOM     27  C   UNL A   1      28.030  30.808  21.239  1.00  0.00     0.001 C 
ATOM     28  C   UNL A   1      28.014  32.075  22.089  1.00  0.00     0.000 C 
ENDBRANCH  22  23
ENDBRANCH   7   9
ENDBRANCH   4   7
ENDBRANCH   2   3
ENDBRANCH   1   2
BRANCH   1  29
ATOM     29  C   UNL A   1      38.315  24.082  26.579  1.00  0.00     0.118 C 
BRANCH  29  30
ATOM     30  N   UNL A   1      39.685  24.078  26.083  1.00  0.00    -0.352 N 
ATOM     31  C   UNL A   1      40.776  24.847  26.432  1.00  0.00     0.251 C 
ATOM     32  H   UNL A   1      39.862  23.413  25.379  1.00  0.00     0.163 HD
ATOM     33  O   UNL A   1      41.809  24.748  25.782  1.00  0.00    -0.269 OA
BRANCH  31  34
ATOM     34  C   UNL A   1      40.696  25.809  27.558  1.00  0.00     0.039 A 
ATOM     35  C   UNL A   1      41.562  26.907  27.587  1.00  0.00     0.014 A 
ATOM     36  C   UNL A   1      39.781  25.636  28.594  1.00  0.00     0.014 A 
ATOM     37  C   UNL A   1      41.454  27.850  28.613  1.00  0.00     0.010 A 
ATOM     38  C   UNL A   1      39.565  26.651  29.514  1.00  0.00     0.010 A 
ATOM     39  C   UNL A   1      40.428  27.750  29.567  1.00  0.00    -0.014 A 
BRANCH  39  40
ATOM     40  C   UNL A   1      40.283  28.729  30.677  1.00  0.00     0.031 A 
ATOM     41  C   UNL A   1      41.135  28.584  31.916  1.00  0.00     0.074 A 
ATOM     42  C   UNL A   1      39.355  29.703  30.603  1.00  0.00     0.049 A 
ATOM     43  N   UNL A   1      41.113  29.283  33.023  1.00  0.00    -0.248 NA
ATOM     44  C   UNL A   1      42.109  27.478  31.933  1.00  0.00     0.031 C 
ATOM     45  C   UNL A   1      38.420  29.903  29.493  1.00  0.00     0.029 A 
ATOM     46  N   UNL A   1      39.040  30.707  31.484  1.00  0.00    -0.354 N 
ATOM     47  C   UNL A   1      42.051  28.688  33.862  1.00  0.00     0.074 A 
ATOM     48  C   UNL A   1      42.554  27.520  33.178  1.00  0.00     0.031 C 
ATOM     49  C   UNL A   1      37.663  30.983  29.744  1.00  0.00     0.029 A 
ATOM     50  C   UNL A   1      38.029  31.530  31.046  1.00  0.00     0.049 A 
ATOM     51  H   UNL A   1      39.495  30.827  32.348  1.00  0.00     0.167 HD
ATOM     52  C   UNL A   1      42.491  29.102  35.075  1.00  0.00     0.037 A 
ATOM     53  C   UNL A   1      37.464  32.605  31.628  1.00  0.00     0.037 A 
ATOM     54  C   UNL A   1      42.015  30.288  35.732  1.00  0.00     0.049 A 
ATOM     55  C   UNL A   1      37.986  33.067  32.962  1.00  0.00     0.074 A 
ATOM     56  C   UNL A   1      42.423  30.830  36.937  1.00  0.00     0.029 A 
ATOM     57  N   UNL A   1      41.025  31.123  35.231  1.00  0.00    -0.354 N 
ATOM     58  N   UNL A   1      38.916  32.528  33.716  1.00  0.00    -0.248 NA
ATOM     59  C   UNL A   1      37.399  34.293  33.517  1.00  0.00     0.031 C 
ATOM     60  C   UNL A   1      41.650  31.969  37.186  1.00  0.00     0.029 A 
ATOM     61  C   UNL A   1      40.803  32.171  36.108  1.00  0.00     0.049 A 
ATOM     62  H   UNL A   1      40.551  30.991  34.378  1.00  0.00     0.167 HD
ATOM     63  C   UNL A   1      39.047  33.365  34.818  1.00  0.00     0.074 A 
ATOM     64  C   UNL A   1      38.110  34.454  34.624  1.00  0.00     0.031 C 
ATOM     65  C   UNL A   1      39.868  33.249  35.892  1.00  0.00     0.037 A 
BRANCH  52  66
ATOM     66  C   UNL A   1      43.553  28.271  35.748  1.00  0.00     0.058 A 
ATOM     67  C   UNL A   1      44.922  28.489  35.513  1.00  0.00     0.135 A 
ATOM     68  C   UNL A   1      43.202  27.246  36.643  1.00  0.00     0.135 A 
ATOM     69  F   UNL A   1      45.317  29.442  34.653  1.00  0.00    -0.206 F 
ATOM     70  C   UNL A   1      45.900  27.695  36.103  1.00  0.00     0.059 A 
ATOM     71  C   UNL A   1      44.166  26.463  37.272  1.00  0.00     0.059 A 
ATOM     72  F   UNL A   1      41.911  26.991  36.906  1.00  0.00    -0.206 F 
ATOM     73  C   UNL A   1      45.512  26.683  36.982  1.00  0.00     0.060 A 
BRANCH  73  74
ATOM     74  S   UNL A   1      46.793  25.660  37.734  1.00  0.00     0.124 S 
ATOM     75  O   UNL A   1      47.444  25.096  36.555  1.00  0.00    -0.237 OA
ATOM     76  O   UNL A   1      47.575  26.638  38.482  1.00  0.00    -0.237 OA
ATOM     77  O   UNL A   1      46.038  24.711  38.546  1.00  0.00    -0.744 OA
ENDBRANCH  73  74
ENDBRANCH  52  66
BRANCH  53  78
ATOM     78  C   UNL A   1      36.369  33.335  30.932  1.00  0.00     0.058 A 
ATOM     79  C   UNL A   1      35.055  33.315  31.424  1.00  0.00     0.135 A 
ATOM     80  C   UNL A   1      36.621  34.091  29.777  1.00  0.00     0.135 A 
ATOM     81  F   UNL A   1      34.762  32.605  32.524  1.00  0.00    -0.206 F 
ATOM     82  C   UNL A   1      34.027  34.004  30.788  1.00  0.00     0.059 A 
ATOM     83  C   UNL A   1      35.615  34.811  29.139  1.00  0.00     0.059 A 
ATOM     84  F   UNL A   1      37.864  34.161  29.276  1.00  0.00    -0.206 F 
ATOM     85  C   UNL A   1      34.318  34.753  29.646  1.00  0.00     0.060 A 
BRANCH  85  86
ATOM     86  S   UNL A   1      32.986  35.686  28.859  1.00  0.00     0.124 S 
ATOM     87  O   UNL A   1      32.379  34.668  28.009  1.00  0.00    -0.237 OA
ATOM     88  O   UNL A   1      32.194  36.116  30.007  1.00  0.00    -0.237 OA
ATOM     89  O   UNL A   1      33.693  36.753  28.159  1.00  0.00    -0.744 OA
ENDBRANCH  85  86
ENDBRANCH  53  78
BRANCH  65  90
ATOM     90  C   UNL A   1      39.825  34.348  36.918  1.00  0.00     0.058 A 
ATOM     91  C   UNL A   1      40.583  35.522  36.781  1.00  0.00     0.135 A 
ATOM     92  C   UNL A   1      38.984  34.237  38.037  1.00  0.00     0.135 A 
ATOM     93  F   UNL A   1      41.403  35.679  35.731  1.00  0.00    -0.206 F 
ATOM     94  C   UNL A   1      40.534  36.531  37.737  1.00  0.00     0.059 A 
ATOM     95  C   UNL A   1      38.895  35.247  38.988  1.00  0.00     0.059 A 
ATOM     96  F   UNL A   1      38.227  33.141  38.209  1.00  0.00    -0.206 F 
ATOM     97  C   UNL A   1      39.690  36.382  38.839  1.00  0.00     0.060 A 
BRANCH  97  98
ATOM     98  S   UNL A   1      39.629  37.704  40.067  1.00  0.00     0.124 S 
ATOM     99  O   UNL A   1      40.946  38.313  39.906  1.00  0.00    -0.237 OA
ATOM    100  O   UNL A   1      38.499  38.506  39.608  1.00  0.00    -0.237 OA
ATOM    101  O   UNL A   1      39.416  36.992  41.323  1.00  0.00    -0.744 OA
ENDBRANCH  97  98
ENDBRANCH  65  90
ENDBRANCH  39  40
ENDBRANCH  31  34
ENDBRANCH  29  30
ENDBRANCH   1  29
TORSDOF 15
ENDMDL
MODEL 3
REMARK VINA RESULT:     -12.8      2.456      3.110
REMARK SMILES C[C@H](C(=O)NCCCNC(=O)c1ccc(-c2c3nc(c(-c4c(F)cc(S(=O)(=O)[O-])cc4F)c4ccc([nH]4)c(-c4c(F)cc(S(=O)(=O)[O-])cc4F)c4nc(c(-c5c(F)cc(S(=O)(=O)[O-])cc5F)c5ccc2[nH]5)C=C4)C=C3)cc1)n1ccc2c(cnc3nc(C4CCCCC4)nn32)c1=O
REMARK SMILES IDX 7 1 6 2 5 3 3 4 4 5 2 7 1 8 78 9 79 10 96 11 80 12 82 13
REMARK SMILES IDX 97 14 81 15 83 16 95 17 84 18 85 19 94 20 86 21 87 22 88 23
REMARK SMILES IDX 89 24 93 25 90 26 92 27 91 28 8 29 9 30 10 31 11 33 12 34
REMARK SMILES IDX 13 35 77 36 14 37 76 38 15 39 16 40 17 41 70 42 18 43 75 44
REMARK SMILES IDX 69 45 71 46 19 47 74 48 68 49 67 50 20 52 54 53 33 54 53 55
REMARK SMILES IDX 34 56 37 57 52 58 72 59 35 60 36 61 51 63 73 64 38 65 21 66
REMARK SMILES IDX 22 67 31 68 23 69 24 70 30 71 32 72 25 73 26 74 27 75 28 76
REMARK SMILES IDX 29 77 55 78 56 79 65 80 57 81 58 82 64 83 66 84 59 85 60 86
REMARK SMILES IDX 61 87 62 88 63 89 39 90 40 91 49 92 41 93 42 94 48 95 50 96
REMARK SMILES IDX 43 97 44 98 45 99 46 100 47 101
REMARK H PARENT 5 6 9 32 71 51 37 62
REMARK Flexibility Score: inf
ROOT
ATOM      1  C   UNL A   1      33.423  28.130  24.816  1.00  0.00     0.042 C 
ENDROOT
BRANCH   1   2
ATOM      2  C   UNL A   1      32.359  29.097  24.361  1.00  0.00     0.117 C 
BRANCH   2   3
ATOM      3  N   UNL A   1      31.607  28.702  23.193  1.00  0.00    -0.354 N 
ATOM      4  C   UNL A   1      30.433  28.019  23.097  1.00  0.00     0.242 C 
ATOM      5  O   UNL A   1      29.858  28.117  22.001  1.00  0.00    -0.273 OA
ATOM      6  H   UNL A   1      32.007  28.968  22.331  1.00  0.00     0.163 HD
BRANCH   4   7
ATOM      7  C   UNL A   1      29.882  27.001  24.152  1.00  0.00     0.176 C 
ATOM      8  C   UNL A   1      28.369  26.930  23.849  1.00  0.00     0.042 C 
BRANCH   7   9
ATOM      9  N   UNL A   1      30.531  25.677  24.313  1.00  0.00    -0.303 N 
ATOM     10  C   UNL A   1      30.391  24.662  23.370  1.00  0.00     0.092 A 
ATOM     11  C   UNL A   1      31.139  25.401  25.551  1.00  0.00     0.262 A 
ATOM     12  C   UNL A   1      31.006  23.482  23.511  1.00  0.00     0.047 A 
ATOM     13  C   UNL A   1      32.044  24.219  25.554  1.00  0.00     0.084 A 
ATOM     14  O   UNL A   1      31.065  26.124  26.537  1.00  0.00    -0.269 OA
ATOM     15  C   UNL A   1      31.950  23.291  24.587  1.00  0.00     0.084 A 
ATOM     16  C   UNL A   1      33.163  24.033  26.517  1.00  0.00     0.131 A 
ATOM     17  N   UNL A   1      32.757  22.156  24.671  1.00  0.00    -0.196 N 
ATOM     18  N   UNL A   1      33.953  23.003  26.587  1.00  0.00    -0.219 NA
ATOM     19  C   UNL A   1      33.687  21.994  25.703  1.00  0.00     0.252 A 
ATOM     20  N   UNL A   1      32.702  21.029  23.926  1.00  0.00    -0.149 NA
ATOM     21  N   UNL A   1      34.098  20.744  25.708  1.00  0.00    -0.194 NA
ATOM     22  C   UNL A   1      33.422  20.178  24.664  1.00  0.00     0.156 A 
BRANCH  22  23
ATOM     23  C   UNL A   1      33.290  18.693  24.516  1.00  0.00     0.060 C 
ATOM     24  C   UNL A   1      34.670  18.051  24.251  1.00  0.00     0.012 C 
ATOM     25  C   UNL A   1      32.585  18.034  25.706  1.00  0.00     0.012 C 
ATOM     26  C   UNL A   1      34.596  16.538  24.118  1.00  0.00     0.001 C 
ATOM     27  C   UNL A   1      32.527  16.513  25.551  1.00  0.00     0.001 C 
ATOM     28  C   UNL A   1      33.913  15.915  25.329  1.00  0.00     0.000 C 
ENDBRANCH  22  23
ENDBRANCH   7   9
ENDBRANCH   4   7
ENDBRANCH   2   3
ENDBRANCH   1   2
BRANCH   1  29
ATOM     29  C   UNL A   1      34.112  28.501  26.110  1.00  0.00     0.118 C 
BRANCH  29  30
ATOM     30  N   UNL A   1      33.877  29.877  26.529  1.00  0.00    -0.352 N 
ATOM     31  C   UNL A   1      34.564  30.683  27.412  1.00  0.00     0.251 C 
ATOM     32  H   UNL A   1      33.094  30.302  26.110  1.00  0.00     0.163 HD
ATOM     33  O   UNL A   1      34.101  31.779  27.704  1.00  0.00    -0.269 OA
BRANCH  31  34
ATOM     34  C   UNL A   1      35.830  30.223  28.032  1.00  0.00     0.039 A 
ATOM     35  C   UNL A   1      37.042  30.457  27.375  1.00  0.00     0.014 A 
ATOM     36  C   UNL A   1      35.835  29.552  29.253  1.00  0.00     0.014 A 
ATOM     37  C   UNL A   1      38.245  30.079  27.980  1.00  0.00     0.010 A 
ATOM     38  C   UNL A   1      37.029  29.328  29.923  1.00  0.00     0.010 A 
ATOM     39  C   UNL A   1      38.251  29.544  29.279  1.00  0.00    -0.014 A 
BRANCH  39  40
ATOM     40  C   UNL A   1      39.507  29.124  29.954  1.00  0.00     0.031 A 
ATOM     41  C   UNL A   1      39.971  29.859  31.190  1.00  0.00     0.074 A 
ATOM     42  C   UNL A   1      40.258  28.135  29.433  1.00  0.00     0.049 A 
ATOM     43  N   UNL A   1      41.070  29.702  31.884  1.00  0.00    -0.248 NA
ATOM     44  C   UNL A   1      39.110  30.948  31.684  1.00  0.00     0.031 C 
ATOM     45  C   UNL A   1      39.957  27.398  28.203  1.00  0.00     0.029 A 
ATOM     46  N   UNL A   1      41.435  27.580  29.869  1.00  0.00    -0.354 N 
ATOM     47  C   UNL A   1      41.033  30.678  32.875  1.00  0.00     0.074 A 
ATOM     48  C   UNL A   1      39.857  31.481  32.637  1.00  0.00     0.031 C 
ATOM     49  C   UNL A   1      40.903  26.467  28.004  1.00  0.00     0.029 A 
ATOM     50  C   UNL A   1      41.898  26.563  29.067  1.00  0.00     0.049 A 
ATOM     51  H   UNL A   1      41.904  27.882  30.680  1.00  0.00     0.167 HD
ATOM     52  C   UNL A   1      41.875  30.863  33.920  1.00  0.00     0.037 A 
ATOM     53  C   UNL A   1      42.998  25.794  29.180  1.00  0.00     0.037 A 
ATOM     54  C   UNL A   1      43.022  30.034  34.173  1.00  0.00     0.049 A 
ATOM     55  C   UNL A   1      43.907  25.995  30.363  1.00  0.00     0.074 A 
ATOM     56  C   UNL A   1      43.916  30.098  35.226  1.00  0.00     0.029 A 
ATOM     57  N   UNL A   1      43.428  28.982  33.365  1.00  0.00    -0.354 N 
ATOM     58  N   UNL A   1      43.825  26.884  31.325  1.00  0.00    -0.248 NA
ATOM     59  C   UNL A   1      45.046  25.077  30.488  1.00  0.00     0.031 C 
ATOM     60  C   UNL A   1      44.889  29.111  35.032  1.00  0.00     0.029 A 
ATOM     61  C   UNL A   1      44.566  28.394  33.890  1.00  0.00     0.049 A 
ATOM     62  H   UNL A   1      42.974  28.695  32.539  1.00  0.00     0.167 HD
ATOM     63  C   UNL A   1      44.882  26.614  32.186  1.00  0.00     0.074 A 
ATOM     64  C   UNL A   1      45.580  25.469  31.637  1.00  0.00     0.031 C 
ATOM     65  C   UNL A   1      45.242  27.250  33.329  1.00  0.00     0.037 A 
BRANCH  52  66
ATOM     66  C   UNL A   1      41.566  31.992  34.869  1.00  0.00     0.058 A 
ATOM     67  C   UNL A   1      40.636  31.846  35.913  1.00  0.00     0.135 A 
ATOM     68  C   UNL A   1      42.208  33.234  34.740  1.00  0.00     0.135 A 
ATOM     69  F   UNL A   1      39.976  30.688  36.075  1.00  0.00    -0.206 F 
ATOM     70  C   UNL A   1      40.321  32.901  36.763  1.00  0.00     0.059 A 
ATOM     71  C   UNL A   1      41.935  34.293  35.602  1.00  0.00     0.059 A 
ATOM     72  F   UNL A   1      43.106  33.433  33.761  1.00  0.00    -0.206 F 
ATOM     73  C   UNL A   1      40.976  34.122  36.599  1.00  0.00     0.060 A 
BRANCH  73  74
ATOM     74  S   UNL A   1      40.551  35.481  37.708  1.00  0.00     0.124 S 
ATOM     75  O   UNL A   1      41.870  35.898  38.174  1.00  0.00    -0.237 OA
ATOM     76  O   UNL A   1      39.871  36.412  36.814  1.00  0.00    -0.237 OA
ATOM     77  O   UNL A   1      39.704  34.848  38.714  1.00  0.00    -0.744 OA
ENDBRANCH  73  74
ENDBRANCH  52  66
BRANCH  53  78
ATOM     78  C   UNL A   1      43.276  24.743  28.162  1.00  0.00     0.058 A 
ATOM     79  C   UNL A   1      43.957  25.045  26.973  1.00  0.00     0.135 A 
ATOM     80  C   UNL A   1      42.889  23.411  28.371  1.00  0.00     0.135 A 
ATOM     81  F   UNL A   1      44.345  26.305  26.723  1.00  0.00    -0.206 F 
ATOM     82  C   UNL A   1      44.231  24.068  26.021  1.00  0.00     0.059 A 
ATOM     83  C   UNL A   1      43.178  22.411  27.447  1.00  0.00     0.059 A 
ATOM     84  F   UNL A   1      42.253  23.065  29.501  1.00  0.00    -0.206 F 
ATOM     85  C   UNL A   1      43.840  22.751  26.269  1.00  0.00     0.060 A 
BRANCH  85  86
ATOM     86  S   UNL A   1      44.248  21.481  25.051  1.00  0.00     0.124 S 
ATOM     87  O   UNL A   1      43.224  20.478  25.319  1.00  0.00    -0.237 OA
ATOM     88  O   UNL A   1      44.117  22.210  23.794  1.00  0.00    -0.237 OA
ATOM     89  O   UNL A   1      45.612  21.101  25.407  1.00  0.00    -0.744 OA
ENDBRANCH  85  86
ENDBRANCH  53  78
BRANCH  65  90
ATOM     90  C   UNL A   1      46.417  26.695  34.088  1.00  0.00     0.058 A 
ATOM     91  C   UNL A   1      46.264  25.712  35.078  1.00  0.00     0.135 A 
ATOM     92  C   UNL A   1      47.718  27.132  33.793  1.00  0.00     0.135 A 
ATOM     93  F   UNL A   1      45.042  25.259  35.399  1.00  0.00    -0.206 F 
ATOM     94  C   UNL A   1      47.358  25.207  35.773  1.00  0.00     0.059 A 
ATOM     95  C   UNL A   1      48.829  26.618  34.453  1.00  0.00     0.059 A 
ATOM     96  F   UNL A   1      47.922  28.061  32.845  1.00  0.00    -0.206 F 
ATOM     97  C   UNL A   1      48.636  25.669  35.455  1.00  0.00     0.060 A 
BRANCH  97  98
ATOM     98  S   UNL A   1      50.049  24.999  36.358  1.00  0.00     0.124 S 
ATOM     99  O   UNL A   1      49.387  24.243  37.416  1.00  0.00    -0.237 OA
ATOM    100  O   UNL A   1      50.724  24.203  35.337  1.00  0.00    -0.237 OA
ATOM    101  O   UNL A   1      50.770  26.190  36.794  1.00  0.00    -0.744 OA
ENDBRANCH  97  98
ENDBRANCH  65  90
ENDBRANCH  39  40
ENDBRANCH  31  34
ENDBRANCH  29  30
ENDBRANCH   1  29
TORSDOF 15
ENDMDL
