MODEL 1
REMARK VINA RESULT:     -12.4      0.000      0.000
REMARK SMILES C[C@@H]1CCCCN1C(=O)Cn1cc(C(=O)NCCCNC(=O)c2ccc(-c3c4nc(c(-c5c(F)cc(S(=O)(=O)[O-])cc5F)c5ccc([nH]5)c(-c5c(F)cc(S(=O)(=O)[O-])cc5F)c5nc(c(-c6c(F)cc(S(=O)(=O)[O-])cc6F)c6ccc3[nH]6)C=C5)C=C4)cc2)cn1
REMARK SMILES IDX 18 1 17 2 16 3 14 4 15 5 13 7 11 8 12 9 90 10 89 11 10 12
REMARK SMILES IDX 8 13 9 14 7 15 1 16 2 17 3 18 4 19 6 20 5 21 19 22 20 23
REMARK SMILES IDX 21 24 22 26 23 27 24 28 88 29 25 30 87 31 26 32 27 33 28 34
REMARK SMILES IDX 81 35 29 36 86 37 80 38 82 39 30 40 85 41 79 42 78 43 31 45
REMARK SMILES IDX 65 46 44 47 64 48 45 49 48 50 63 51 83 52 46 53 47 54 62 56
REMARK SMILES IDX 84 57 49 58 32 59 33 60 42 61 34 62 35 63 41 64 43 65 36 66
REMARK SMILES IDX 37 67 38 68 39 69 40 70 66 71 67 72 76 73 68 74 69 75 75 76
REMARK SMILES IDX 77 77 70 78 71 79 72 80 73 81 74 82 50 83 51 84 60 85 52 86
REMARK SMILES IDX 53 87 59 88 61 89 54 90 55 91 56 92 57 93 58 94
REMARK H PARENT 16 6 20 25 82 44 48 55
REMARK Flexibility Score: inf
ROOT
ATOM      1  C   UNL A   1      37.057  21.868  24.863  1.00  0.00     0.042 C 
ENDROOT
BRANCH   1   2
ATOM      2  C   UNL A   1      35.561  22.139  25.058  1.00  0.00     0.118 C 
BRANCH   2   3
ATOM      3  N   UNL A   1      34.813  20.918  25.314  1.00  0.00    -0.352 N 
ATOM      4  C   UNL A   1      33.530  20.756  25.761  1.00  0.00     0.254 C 
ATOM      5  O   UNL A   1      33.040  19.619  25.754  1.00  0.00    -0.269 OA
ATOM      6  H   UNL A   1      35.304  20.082  25.140  1.00  0.00     0.163 HD
BRANCH   4   7
ATOM      7  C   UNL A   1      32.742  21.903  26.152  1.00  0.00     0.077 A 
ATOM      8  N   UNL A   1      31.338  23.592  26.290  1.00  0.00    -0.262 N 
ATOM      9  C   UNL A   1      31.868  22.687  25.420  1.00  0.00     0.123 A 
ATOM     10  N   UNL A   1      31.819  23.467  27.545  1.00  0.00    -0.180 NA
ATOM     11  C   UNL A   1      32.733  22.500  27.432  1.00  0.00     0.149 A 
BRANCH   8  12
ATOM     12  C   UNL A   1      30.318  24.582  26.012  1.00  0.00     0.244 C 
BRANCH  12  13
ATOM     13  C   UNL A   1      30.612  25.420  24.783  1.00  0.00     0.244 C 
ATOM     14  O   UNL A   1      29.787  25.429  23.861  1.00  0.00    -0.273 OA
BRANCH  13  15
ATOM     15  N   UNL A   1      31.764  26.199  24.738  1.00  0.00    -0.338 N 
ATOM     16  C   UNL A   1      31.691  28.479  25.726  1.00  0.00     0.031 C 
ATOM     17  C   UNL A   1      32.252  27.064  25.831  1.00  0.00     0.082 C 
ATOM     18  C   UNL A   1      33.791  27.073  25.910  1.00  0.00     0.025 C 
ATOM     19  C   UNL A   1      34.353  25.722  25.479  1.00  0.00     0.004 C 
ATOM     20  C   UNL A   1      32.667  26.067  23.599  1.00  0.00     0.120 C 
ATOM     21  C   UNL A   1      33.992  25.427  24.020  1.00  0.00     0.022 C 
ENDBRANCH  13  15
ENDBRANCH  12  13
ENDBRANCH   8  12
ENDBRANCH   4   7
ENDBRANCH   2   3
ENDBRANCH   1   2
BRANCH   1  22
ATOM     22  C   UNL A   1      37.898  22.723  25.793  1.00  0.00     0.118 C 
BRANCH  22  23
ATOM     23  N   UNL A   1      38.957  21.949  26.464  1.00  0.00    -0.352 N 
ATOM     24  C   UNL A   1      40.132  22.399  27.045  1.00  0.00     0.251 C 
ATOM     25  H   UNL A   1      38.809  20.976  26.505  1.00  0.00     0.163 HD
ATOM     26  O   UNL A   1      41.059  21.628  27.263  1.00  0.00    -0.269 OA
BRANCH  24  27
ATOM     27  C   UNL A   1      40.226  23.822  27.409  1.00  0.00     0.039 A 
ATOM     28  C   UNL A   1      39.166  24.725  27.285  1.00  0.00     0.014 A 
ATOM     29  C   UNL A   1      41.434  24.221  27.959  1.00  0.00     0.014 A 
ATOM     30  C   UNL A   1      39.336  26.017  27.786  1.00  0.00     0.010 A 
ATOM     31  C   UNL A   1      41.477  25.350  28.711  1.00  0.00     0.010 A 
ATOM     32  C   UNL A   1      40.503  26.311  28.507  1.00  0.00    -0.014 A 
BRANCH  32  33
ATOM     33  C   UNL A   1      40.771  27.592  29.139  1.00  0.00     0.031 A 
ATOM     34  C   UNL A   1      41.886  28.341  28.508  1.00  0.00     0.074 A 
ATOM     35  C   UNL A   1      39.878  28.147  29.993  1.00  0.00     0.049 A 
ATOM     36  N   UNL A   1      43.076  28.523  28.970  1.00  0.00    -0.248 NA
ATOM     37  C   UNL A   1      41.729  28.766  27.106  1.00  0.00     0.031 C 
ATOM     38  C   UNL A   1      38.561  27.624  30.406  1.00  0.00     0.029 A 
ATOM     39  N   UNL A   1      39.905  29.360  30.605  1.00  0.00    -0.354 N 
ATOM     40  C   UNL A   1      43.724  29.324  28.033  1.00  0.00     0.074 A 
ATOM     41  C   UNL A   1      42.955  29.213  26.825  1.00  0.00     0.031 C 
ATOM     42  C   UNL A   1      37.843  28.597  31.010  1.00  0.00     0.029 A 
ATOM     43  C   UNL A   1      38.703  29.746  31.200  1.00  0.00     0.049 A 
ATOM     44  H   UNL A   1      40.712  29.924  30.627  1.00  0.00     0.167 HD
ATOM     45  C   UNL A   1      44.652  30.244  28.425  1.00  0.00     0.037 A 
ATOM     46  C   UNL A   1      38.451  30.926  31.824  1.00  0.00     0.037 A 
ATOM     47  C   UNL A   1      44.976  30.050  29.820  1.00  0.00     0.049 A 
ATOM     48  C   UNL A   1      39.772  31.498  32.177  1.00  0.00     0.074 A 
ATOM     49  C   UNL A   1      45.648  29.103  30.561  1.00  0.00     0.029 A 
ATOM     50  N   UNL A   1      44.181  30.759  30.689  1.00  0.00    -0.354 N 
ATOM     51  N   UNL A   1      40.588  30.946  33.032  1.00  0.00    -0.248 NA
ATOM     52  C   UNL A   1      40.382  32.458  31.268  1.00  0.00     0.031 C 
ATOM     53  C   UNL A   1      44.998  29.078  31.831  1.00  0.00     0.029 A 
ATOM     54  C   UNL A   1      43.996  30.051  31.847  1.00  0.00     0.049 A 
ATOM     55  H   UNL A   1      43.798  31.647  30.505  1.00  0.00     0.167 HD
ATOM     56  C   UNL A   1      41.852  31.158  32.506  1.00  0.00     0.074 A 
ATOM     57  C   UNL A   1      41.673  32.216  31.515  1.00  0.00     0.031 C 
ATOM     58  C   UNL A   1      42.849  30.248  32.710  1.00  0.00     0.037 A 
BRANCH  45  59
ATOM     59  C   UNL A   1      44.930  31.576  27.749  1.00  0.00     0.058 A 
ATOM     60  C   UNL A   1      46.155  31.744  27.064  1.00  0.00     0.135 A 
ATOM     61  C   UNL A   1      44.205  32.766  27.976  1.00  0.00     0.135 A 
ATOM     62  F   UNL A   1      46.927  30.684  26.774  1.00  0.00    -0.206 F 
ATOM     63  C   UNL A   1      46.661  32.999  26.720  1.00  0.00     0.059 A 
ATOM     64  C   UNL A   1      44.668  34.022  27.597  1.00  0.00     0.059 A 
ATOM     65  F   UNL A   1      43.055  32.794  28.658  1.00  0.00    -0.206 F 
ATOM     66  C   UNL A   1      45.916  34.136  27.010  1.00  0.00     0.060 A 
BRANCH  66  67
ATOM     67  S   UNL A   1      46.607  35.762  26.667  1.00  0.00     0.124 S 
ATOM     68  O   UNL A   1      45.399  36.568  26.522  1.00  0.00    -0.237 OA
ATOM     69  O   UNL A   1      47.403  36.011  27.864  1.00  0.00    -0.237 OA
ATOM     70  O   UNL A   1      47.374  35.551  25.443  1.00  0.00    -0.744 OA
ENDBRANCH  66  67
ENDBRANCH  45  59
BRANCH  46  71
ATOM     71  C   UNL A   1      37.196  31.715  31.916  1.00  0.00     0.058 A 
ATOM     72  C   UNL A   1      36.662  32.114  33.156  1.00  0.00     0.135 A 
ATOM     73  C   UNL A   1      36.673  32.356  30.778  1.00  0.00     0.135 A 
ATOM     74  F   UNL A   1      37.117  31.567  34.292  1.00  0.00    -0.206 F 
ATOM     75  C   UNL A   1      35.701  33.128  33.264  1.00  0.00     0.059 A 
ATOM     76  C   UNL A   1      35.716  33.372  30.861  1.00  0.00     0.059 A 
ATOM     77  F   UNL A   1      37.155  32.077  29.557  1.00  0.00    -0.206 F 
ATOM     78  C   UNL A   1      35.251  33.769  32.111  1.00  0.00     0.060 A 
BRANCH  78  79
ATOM     79  S   UNL A   1      34.145  35.197  32.263  1.00  0.00     0.124 S 
ATOM     80  O   UNL A   1      34.937  36.108  33.084  1.00  0.00    -0.237 OA
ATOM     81  O   UNL A   1      33.959  35.595  30.872  1.00  0.00    -0.237 OA
ATOM     82  O   UNL A   1      32.961  34.642  32.912  1.00  0.00    -0.744 OA
ENDBRANCH  78  79
ENDBRANCH  46  71
BRANCH  58  83
ATOM     83  C   UNL A   1      42.665  29.272  33.844  1.00  0.00     0.058 A 
ATOM     84  C   UNL A   1      42.837  29.573  35.207  1.00  0.00     0.135 A 
ATOM     85  C   UNL A   1      42.189  27.993  33.528  1.00  0.00     0.135 A 
ATOM     86  F   UNL A   1      43.204  30.798  35.602  1.00  0.00    -0.206 F 
ATOM     87  C   UNL A   1      42.585  28.630  36.206  1.00  0.00     0.059 A 
ATOM     88  C   UNL A   1      41.902  27.047  34.506  1.00  0.00     0.059 A 
ATOM     89  F   UNL A   1      41.951  27.665  32.246  1.00  0.00    -0.206 F 
ATOM     90  C   UNL A   1      42.119  27.366  35.844  1.00  0.00     0.060 A 
BRANCH  90  91
ATOM     91  S   UNL A   1      41.736  26.160  37.133  1.00  0.00     0.124 S 
ATOM     92  O   UNL A   1      40.449  26.639  37.627  1.00  0.00    -0.237 OA
ATOM     93  O   UNL A   1      41.702  24.902  36.392  1.00  0.00    -0.237 OA
ATOM     94  O   UNL A   1      42.851  26.294  38.067  1.00  0.00    -0.744 OA
ENDBRANCH  90  91
ENDBRANCH  58  83
ENDBRANCH  32  33
ENDBRANCH  24  27
ENDBRANCH  22  23
ENDBRANCH   1  22
TORSDOF 16
ENDMDL
MODEL 2
REMARK VINA RESULT:     -12.1      1.618      2.310
REMARK SMILES C[C@@H]1CCCCN1C(=O)Cn1cc(C(=O)NCCCNC(=O)c2ccc(-c3c4nc(c(-c5c(F)cc(S(=O)(=O)[O-])cc5F)c5ccc([nH]5)c(-c5c(F)cc(S(=O)(=O)[O-])cc5F)c5nc(c(-c6c(F)cc(S(=O)(=O)[O-])cc6F)c6ccc3[nH]6)C=C5)C=C4)cc2)cn1
REMARK SMILES IDX 18 1 17 2 16 3 14 4 15 5 13 7 11 8 12 9 90 10 89 11 10 12
REMARK SMILES IDX 8 13 9 14 7 15 1 16 2 17 3 18 4 19 6 20 5 21 19 22 20 23
REMARK SMILES IDX 21 24 22 26 23 27 24 28 88 29 25 30 87 31 26 32 27 33 28 34
REMARK SMILES IDX 81 35 29 36 86 37 80 38 82 39 30 40 85 41 79 42 78 43 31 45
REMARK SMILES IDX 65 46 44 47 64 48 45 49 48 50 63 51 83 52 46 53 47 54 62 56
REMARK SMILES IDX 84 57 49 58 32 59 33 60 42 61 34 62 35 63 41 64 43 65 36 66
REMARK SMILES IDX 37 67 38 68 39 69 40 70 66 71 67 72 76 73 68 74 69 75 75 76
REMARK SMILES IDX 77 77 70 78 71 79 72 80 73 81 74 82 50 83 51 84 60 85 52 86
REMARK SMILES IDX 53 87 59 88 61 89 54 90 55 91 56 92 57 93 58 94
REMARK H PARENT 16 6 20 25 82 44 48 55
REMARK Flexibility Score: inf
ROOT
ATOM      1  C   UNL A   1      38.918  23.094  26.383  1.00  0.00     0.042 C 
ENDROOT
BRANCH   1   2
ATOM      2  C   UNL A   1      38.082  21.973  25.755  1.00  0.00     0.118 C 
BRANCH   2   3
ATOM      3  N   UNL A   1      37.683  22.287  24.392  1.00  0.00    -0.352 N 
ATOM      4  C   UNL A   1      36.444  22.575  23.888  1.00  0.00     0.254 C 
ATOM      5  O   UNL A   1      36.358  22.971  22.719  1.00  0.00    -0.269 OA
ATOM      6  H   UNL A   1      38.414  22.293  23.733  1.00  0.00     0.163 HD
BRANCH   4   7
ATOM      7  C   UNL A   1      35.274  22.495  24.734  1.00  0.00     0.077 A 
ATOM      8  N   UNL A   1      33.680  22.797  26.221  1.00  0.00    -0.262 N 
ATOM      9  C   UNL A   1      34.916  23.235  25.846  1.00  0.00     0.123 A 
ATOM     10  N   UNL A   1      33.210  21.803  25.439  1.00  0.00    -0.180 NA
ATOM     11  C   UNL A   1      34.218  21.567  24.596  1.00  0.00     0.149 A 
BRANCH   8  12
ATOM     12  C   UNL A   1      32.853  23.317  27.291  1.00  0.00     0.244 C 
BRANCH  12  13
ATOM     13  C   UNL A   1      31.619  24.045  26.798  1.00  0.00     0.244 C 
ATOM     14  O   UNL A   1      30.513  23.690  27.222  1.00  0.00    -0.273 OA
BRANCH  13  15
ATOM     15  N   UNL A   1      31.754  25.123  25.929  1.00  0.00    -0.338 N 
ATOM     16  C   UNL A   1      31.545  27.422  26.852  1.00  0.00     0.031 C 
ATOM     17  C   UNL A   1      32.470  26.379  26.232  1.00  0.00     0.082 C 
ATOM     18  C   UNL A   1      33.198  26.937  24.993  1.00  0.00     0.025 C 
ATOM     19  C   UNL A   1      33.669  25.797  24.095  1.00  0.00     0.004 C 
ATOM     20  C   UNL A   1      31.296  24.987  24.550  1.00  0.00     0.120 C 
ATOM     21  C   UNL A   1      32.476  24.990  23.575  1.00  0.00     0.022 C 
ENDBRANCH  13  15
ENDBRANCH  12  13
ENDBRANCH   8  12
ENDBRANCH   4   7
ENDBRANCH   2   3
ENDBRANCH   1   2
BRANCH   1  22
ATOM     22  C   UNL A   1      40.030  22.532  27.251  1.00  0.00     0.118 C 
BRANCH  22  23
ATOM     23  N   UNL A   1      41.262  22.273  26.486  1.00  0.00    -0.352 N 
ATOM     24  C   UNL A   1      42.112  23.177  25.869  1.00  0.00     0.251 C 
ATOM     25  H   UNL A   1      41.517  21.326  26.401  1.00  0.00     0.163 HD
ATOM     26  O   UNL A   1      42.896  22.810  25.002  1.00  0.00    -0.269 OA
BRANCH  24  27
ATOM     27  C   UNL A   1      42.059  24.585  26.298  1.00  0.00     0.039 A 
ATOM     28  C   UNL A   1      41.352  25.578  25.612  1.00  0.00     0.014 A 
ATOM     29  C   UNL A   1      42.707  24.873  27.488  1.00  0.00     0.014 A 
ATOM     30  C   UNL A   1      41.267  26.846  26.188  1.00  0.00     0.010 A 
ATOM     31  C   UNL A   1      42.359  25.989  28.178  1.00  0.00     0.010 A 
ATOM     32  C   UNL A   1      41.774  27.033  27.483  1.00  0.00    -0.014 A 
BRANCH  32  33
ATOM     33  C   UNL A   1      41.686  28.281  28.222  1.00  0.00     0.031 A 
ATOM     34  C   UNL A   1      42.791  29.225  27.922  1.00  0.00     0.074 A 
ATOM     35  C   UNL A   1      40.542  28.637  28.854  1.00  0.00     0.049 A 
ATOM     36  N   UNL A   1      43.796  29.527  28.672  1.00  0.00    -0.248 NA
ATOM     37  C   UNL A   1      42.909  29.739  26.546  1.00  0.00     0.031 C 
ATOM     38  C   UNL A   1      39.261  27.907  28.904  1.00  0.00     0.029 A 
ATOM     39  N   UNL A   1      40.238  29.787  29.511  1.00  0.00    -0.354 N 
ATOM     40  C   UNL A   1      44.518  30.485  27.963  1.00  0.00     0.074 A 
ATOM     41  C   UNL A   1      44.084  30.371  26.598  1.00  0.00     0.031 C 
ATOM     42  C   UNL A   1      38.280  28.719  29.357  1.00  0.00     0.029 A 
ATOM     43  C   UNL A   1      38.885  29.955  29.808  1.00  0.00     0.049 A 
ATOM     44  H   UNL A   1      40.921  30.452  29.758  1.00  0.00     0.167 HD
ATOM     45  C   UNL A   1      45.176  31.487  28.615  1.00  0.00     0.037 A 
ATOM     46  C   UNL A   1      38.315  31.033  30.405  1.00  0.00     0.037 A 
ATOM     47  C   UNL A   1      45.184  31.223  30.036  1.00  0.00     0.049 A 
ATOM     48  C   UNL A   1      39.413  31.749  31.100  1.00  0.00     0.074 A 
ATOM     49  C   UNL A   1      45.797  30.318  30.874  1.00  0.00     0.029 A 
ATOM     50  N   UNL A   1      44.108  31.742  30.714  1.00  0.00    -0.354 N 
ATOM     51  N   UNL A   1      40.076  31.244  32.104  1.00  0.00    -0.248 NA
ATOM     52  C   UNL A   1      40.067  32.855  30.416  1.00  0.00     0.031 C 
ATOM     53  C   UNL A   1      44.876  30.100  31.942  1.00  0.00     0.029 A 
ATOM     54  C   UNL A   1      43.763  30.923  31.755  1.00  0.00     0.049 A 
ATOM     55  H   UNL A   1      43.649  32.583  30.483  1.00  0.00     0.167 HD
ATOM     56  C   UNL A   1      41.381  31.669  31.916  1.00  0.00     0.074 A 
ATOM     57  C   UNL A   1      41.284  32.771  30.963  1.00  0.00     0.031 C 
ATOM     58  C   UNL A   1      42.427  30.889  32.317  1.00  0.00     0.037 A 
BRANCH  45  59
ATOM     59  C   UNL A   1      45.400  32.895  28.092  1.00  0.00     0.058 A 
ATOM     60  C   UNL A   1      46.728  33.357  27.942  1.00  0.00     0.135 A 
ATOM     61  C   UNL A   1      44.406  33.896  28.008  1.00  0.00     0.135 A 
ATOM     62  F   UNL A   1      47.759  32.499  27.986  1.00  0.00    -0.206 F 
ATOM     63  C   UNL A   1      47.046  34.710  27.815  1.00  0.00     0.059 A 
ATOM     64  C   UNL A   1      44.699  35.244  27.831  1.00  0.00     0.059 A 
ATOM     65  F   UNL A   1      43.106  33.639  28.184  1.00  0.00    -0.206 F 
ATOM     66  C   UNL A   1      46.022  35.650  27.781  1.00  0.00     0.060 A 
BRANCH  66  67
ATOM     67  S   UNL A   1      46.425  37.403  27.724  1.00  0.00     0.124 S 
ATOM     68  O   UNL A   1      46.846  37.651  29.098  1.00  0.00    -0.237 OA
ATOM     69  O   UNL A   1      47.479  37.438  26.715  1.00  0.00    -0.237 OA
ATOM     70  O   UNL A   1      45.166  38.026  27.328  1.00  0.00    -0.744 OA
ENDBRANCH  66  67
ENDBRANCH  45  59
BRANCH  46  71
ATOM     71  C   UNL A   1      36.970  31.635  30.222  1.00  0.00     0.058 A 
ATOM     72  C   UNL A   1      36.279  32.242  31.287  1.00  0.00     0.135 A 
ATOM     73  C   UNL A   1      36.477  31.899  28.930  1.00  0.00     0.135 A 
ATOM     74  F   UNL A   1      36.693  32.058  32.550  1.00  0.00    -0.206 F 
ATOM     75  C   UNL A   1      35.195  33.104  31.080  1.00  0.00     0.059 A 
ATOM     76  C   UNL A   1      35.399  32.757  28.698  1.00  0.00     0.059 A 
ATOM     77  F   UNL A   1      37.100  31.403  27.849  1.00  0.00    -0.206 F 
ATOM     78  C   UNL A   1      34.775  33.376  29.778  1.00  0.00     0.060 A 
BRANCH  78  79
ATOM     79  S   UNL A   1      33.493  34.625  29.500  1.00  0.00     0.124 S 
ATOM     80  O   UNL A   1      34.240  35.683  28.828  1.00  0.00    -0.237 OA
ATOM     81  O   UNL A   1      32.531  33.903  28.674  1.00  0.00    -0.237 OA
ATOM     82  O   UNL A   1      33.033  34.946  30.848  1.00  0.00    -0.744 OA
ENDBRANCH  78  79
ENDBRANCH  46  71
BRANCH  58  83
ATOM     83  C   UNL A   1      42.131  29.807  33.323  1.00  0.00     0.058 A 
ATOM     84  C   UNL A   1      41.826  28.471  33.009  1.00  0.00     0.135 A 
ATOM     85  C   UNL A   1      42.268  30.128  34.680  1.00  0.00     0.135 A 
ATOM     86  F   UNL A   1      41.763  28.059  31.737  1.00  0.00    -0.206 F 
ATOM     87  C   UNL A   1      41.626  27.508  34.001  1.00  0.00     0.059 A 
ATOM     88  C   UNL A   1      42.105  29.180  35.685  1.00  0.00     0.059 A 
ATOM     89  F   UNL A   1      42.615  31.375  35.042  1.00  0.00    -0.206 F 
ATOM     90  C   UNL A   1      41.766  27.874  35.340  1.00  0.00     0.060 A 
BRANCH  90  91
ATOM     91  S   UNL A   1      41.567  26.623  36.626  1.00  0.00     0.124 S 
ATOM     92  O   UNL A   1      41.359  25.410  35.843  1.00  0.00    -0.237 OA
ATOM     93  O   UNL A   1      42.834  26.703  37.348  1.00  0.00    -0.237 OA
ATOM     94  O   UNL A   1      40.402  27.088  37.376  1.00  0.00    -0.744 OA
ENDBRANCH  90  91
ENDBRANCH  58  83
ENDBRANCH  32  33
ENDBRANCH  24  27
ENDBRANCH  22  23
ENDBRANCH   1  22
TORSDOF 16
ENDMDL
MODEL 3
REMARK VINA RESULT:     -12.1      3.296      6.014
REMARK SMILES C[C@@H]1CCCCN1C(=O)Cn1cc(C(=O)NCCCNC(=O)c2ccc(-c3c4nc(c(-c5c(F)cc(S(=O)(=O)[O-])cc5F)c5ccc([nH]5)c(-c5c(F)cc(S(=O)(=O)[O-])cc5F)c5nc(c(-c6c(F)cc(S(=O)(=O)[O-])cc6F)c6ccc3[nH]6)C=C5)C=C4)cc2)cn1
REMARK SMILES IDX 18 1 17 2 16 3 14 4 15 5 13 7 11 8 12 9 90 10 89 11 10 12
REMARK SMILES IDX 8 13 9 14 7 15 1 16 2 17 3 18 4 19 6 20 5 21 19 22 20 23
REMARK SMILES IDX 21 24 22 26 23 27 24 28 88 29 25 30 87 31 26 32 27 33 28 34
REMARK SMILES IDX 81 35 29 36 86 37 80 38 82 39 30 40 85 41 79 42 78 43 31 45
REMARK SMILES IDX 65 46 44 47 64 48 45 49 48 50 63 51 83 52 46 53 47 54 62 56
REMARK SMILES IDX 84 57 49 58 32 59 33 60 42 61 34 62 35 63 41 64 43 65 36 66
REMARK SMILES IDX 37 67 38 68 39 69 40 70 66 71 67 72 76 73 68 74 69 75 75 76
REMARK SMILES IDX 77 77 70 78 71 79 72 80 73 81 74 82 50 83 51 84 60 85 52 86
REMARK SMILES IDX 53 87 59 88 61 89 54 90 55 91 56 92 57 93 58 94
REMARK H PARENT 16 6 20 25 82 44 48 55
REMARK Flexibility Score: inf
ROOT
ATOM      1  C   UNL A   1      41.187  20.323  27.116  1.00  0.00     0.042 C 
ENDROOT
BRANCH   1   2
ATOM      2  C   UNL A   1      42.252  20.653  26.065  1.00  0.00     0.118 C 
BRANCH   2   3
ATOM      3  N   UNL A   1      42.796  19.456  25.442  1.00  0.00    -0.352 N 
ATOM      4  C   UNL A   1      44.023  19.246  24.875  1.00  0.00     0.254 C 
ATOM      5  O   UNL A   1      44.333  18.094  24.546  1.00  0.00    -0.269 OA
ATOM      6  H   UNL A   1      42.190  18.681  25.425  1.00  0.00     0.163 HD
BRANCH   4   7
ATOM      7  C   UNL A   1      44.964  20.336  24.743  1.00  0.00     0.077 A 
ATOM      8  N   UNL A   1      45.995  22.278  24.658  1.00  0.00    -0.262 N 
ATOM      9  C   UNL A   1      44.761  21.704  24.743  1.00  0.00     0.123 A 
ATOM     10  N   UNL A   1      46.996  21.376  24.584  1.00  0.00    -0.180 NA
ATOM     11  C   UNL A   1      46.357  20.205  24.547  1.00  0.00     0.149 A 
BRANCH   8  12
ATOM     12  C   UNL A   1      46.308  23.692  24.697  1.00  0.00     0.244 C 
BRANCH  12  13
ATOM     13  C   UNL A   1      45.211  24.535  25.315  1.00  0.00     0.244 C 
ATOM     14  O   UNL A   1      44.317  24.974  24.581  1.00  0.00    -0.273 OA
BRANCH  13  15
ATOM     15  N   UNL A   1      45.197  24.751  26.689  1.00  0.00    -0.338 N 
ATOM     16  C   UNL A   1      45.833  26.999  27.541  1.00  0.00     0.031 C 
ATOM     17  C   UNL A   1      44.715  25.977  27.356  1.00  0.00     0.082 C 
ATOM     18  C   UNL A   1      44.010  25.665  28.690  1.00  0.00     0.025 C 
ATOM     19  C   UNL A   1      43.305  24.314  28.615  1.00  0.00     0.004 C 
ATOM     20  C   UNL A   1      45.540  23.651  27.585  1.00  0.00     0.120 C 
ATOM     21  C   UNL A   1      44.316  23.189  28.380  1.00  0.00     0.022 C 
ENDBRANCH  13  15
ENDBRANCH  12  13
ENDBRANCH   8  12
ENDBRANCH   4   7
ENDBRANCH   2   3
ENDBRANCH   1   2
BRANCH   1  22
ATOM     22  C   UNL A   1      40.394  21.557  27.505  1.00  0.00     0.118 C 
BRANCH  22  23
ATOM     23  N   UNL A   1      39.439  21.962  26.459  1.00  0.00    -0.352 N 
ATOM     24  C   UNL A   1      38.837  23.195  26.258  1.00  0.00     0.251 C 
ATOM     25  H   UNL A   1      39.193  21.261  25.814  1.00  0.00     0.163 HD
ATOM     26  O   UNL A   1      37.829  23.296  25.569  1.00  0.00    -0.269 OA
BRANCH  24  27
ATOM     27  C   UNL A   1      39.453  24.379  26.879  1.00  0.00     0.039 A 
ATOM     28  C   UNL A   1      40.422  25.167  26.250  1.00  0.00     0.014 A 
ATOM     29  C   UNL A   1      38.963  24.724  28.128  1.00  0.00     0.014 A 
ATOM     30  C   UNL A   1      40.835  26.339  26.886  1.00  0.00     0.010 A 
ATOM     31  C   UNL A   1      39.129  25.994  28.577  1.00  0.00     0.010 A 
ATOM     32  C   UNL A   1      40.168  26.743  28.053  1.00  0.00    -0.014 A 
BRANCH  32  33
ATOM     33  C   UNL A   1      40.452  27.974  28.770  1.00  0.00     0.031 A 
ATOM     34  C   UNL A   1      41.605  28.728  28.219  1.00  0.00     0.074 A 
ATOM     35  C   UNL A   1      39.549  28.502  29.631  1.00  0.00     0.049 A 
ATOM     36  N   UNL A   1      42.785  28.846  28.726  1.00  0.00    -0.248 NA
ATOM     37  C   UNL A   1      41.503  29.241  26.841  1.00  0.00     0.031 C 
ATOM     38  C   UNL A   1      38.206  27.993  29.972  1.00  0.00     0.029 A 
ATOM     39  N   UNL A   1      39.590  29.675  30.317  1.00  0.00    -0.354 N 
ATOM     40  C   UNL A   1      43.483  29.684  27.859  1.00  0.00     0.074 A 
ATOM     41  C   UNL A   1      42.749  29.669  26.624  1.00  0.00     0.031 C 
ATOM     42  C   UNL A   1      37.496  28.948  30.614  1.00  0.00     0.029 A 
ATOM     43  C   UNL A   1      38.381  30.058  30.900  1.00  0.00     0.049 A 
ATOM     44  H   UNL A   1      40.411  30.212  30.397  1.00  0.00     0.167 HD
ATOM     45  C   UNL A   1      44.424  30.551  28.333  1.00  0.00     0.037 A 
ATOM     46  C   UNL A   1      38.142  31.204  31.587  1.00  0.00     0.037 A 
ATOM     47  C   UNL A   1      44.699  30.263  29.723  1.00  0.00     0.049 A 
ATOM     48  C   UNL A   1      39.467  31.716  32.013  1.00  0.00     0.074 A 
ATOM     49  C   UNL A   1      45.322  29.254  30.423  1.00  0.00     0.029 A 
ATOM     50  N   UNL A   1      43.898  30.940  30.610  1.00  0.00    -0.354 N 
ATOM     51  N   UNL A   1      40.241  31.089  32.856  1.00  0.00    -0.248 NA
ATOM     52  C   UNL A   1      40.131  32.711  31.183  1.00  0.00     0.031 C 
ATOM     53  C   UNL A   1      44.633  29.171  31.670  1.00  0.00     0.029 A 
ATOM     54  C   UNL A   1      43.658  30.170  31.716  1.00  0.00     0.049 A 
ATOM     55  H   UNL A   1      43.545  31.849  30.470  1.00  0.00     0.167 HD
ATOM     56  C   UNL A   1      41.526  31.296  32.380  1.00  0.00     0.074 A 
ATOM     57  C   UNL A   1      41.407  32.417  31.452  1.00  0.00     0.031 C 
ATOM     58  C   UNL A   1      42.491  30.347  32.557  1.00  0.00     0.037 A 
BRANCH  45  59
ATOM     59  C   UNL A   1      44.758  31.912  27.749  1.00  0.00     0.058 A 
ATOM     60  C   UNL A   1      45.986  32.072  27.066  1.00  0.00     0.135 A 
ATOM     61  C   UNL A   1      44.090  33.116  28.065  1.00  0.00     0.135 A 
ATOM     62  F   UNL A   1      46.707  31.002  26.696  1.00  0.00    -0.206 F 
ATOM     63  C   UNL A   1      46.547  33.324  26.806  1.00  0.00     0.059 A 
ATOM     64  C   UNL A   1      44.608  34.373  27.770  1.00  0.00     0.059 A 
ATOM     65  F   UNL A   1      42.947  33.148  28.758  1.00  0.00    -0.206 F 
ATOM     66  C   UNL A   1      45.857  34.470  27.181  1.00  0.00     0.060 A 
BRANCH  66  67
ATOM     67  S   UNL A   1      46.619  36.084  26.945  1.00  0.00     0.124 S 
ATOM     68  O   UNL A   1      45.500  36.863  26.427  1.00  0.00    -0.237 OA
ATOM     69  O   UNL A   1      47.056  36.412  28.299  1.00  0.00    -0.237 OA
ATOM     70  O   UNL A   1      47.692  35.813  25.994  1.00  0.00    -0.744 OA
ENDBRANCH  66  67
ENDBRANCH  45  59
BRANCH  46  71
ATOM     71  C   UNL A   1      36.907  32.023  31.692  1.00  0.00     0.058 A 
ATOM     72  C   UNL A   1      36.323  32.326  32.936  1.00  0.00     0.135 A 
ATOM     73  C   UNL A   1      36.460  32.782  30.594  1.00  0.00     0.135 A 
ATOM     74  F   UNL A   1      36.704  31.663  34.038  1.00  0.00    -0.206 F 
ATOM     75  C   UNL A   1      35.387  33.356  33.091  1.00  0.00     0.059 A 
ATOM     76  C   UNL A   1      35.530  33.816  30.724  1.00  0.00     0.059 A 
ATOM     77  F   UNL A   1      36.995  32.598  29.376  1.00  0.00    -0.206 F 
ATOM     78  C   UNL A   1      35.013  34.114  31.982  1.00  0.00     0.060 A 
BRANCH  78  79
ATOM     79  S   UNL A   1      33.942  35.558  32.212  1.00  0.00     0.124 S 
ATOM     80  O   UNL A   1      34.745  36.393  33.099  1.00  0.00    -0.237 OA
ATOM     81  O   UNL A   1      33.786  36.049  30.846  1.00  0.00    -0.237 OA
ATOM     82  O   UNL A   1      32.735  34.994  32.809  1.00  0.00    -0.744 OA
ENDBRANCH  78  79
ENDBRANCH  46  71
BRANCH  58  83
ATOM     83  C   UNL A   1      42.246  29.310  33.623  1.00  0.00     0.058 A 
ATOM     84  C   UNL A   1      41.651  28.054  33.409  1.00  0.00     0.135 A 
ATOM     85  C   UNL A   1      42.740  29.572  34.908  1.00  0.00     0.135 A 
ATOM     86  F   UNL A   1      41.232  27.688  32.192  1.00  0.00    -0.206 F 
ATOM     87  C   UNL A   1      41.517  27.118  34.438  1.00  0.00     0.059 A 
ATOM     88  C   UNL A   1      42.646  28.644  35.940  1.00  0.00     0.059 A 
ATOM     89  F   UNL A   1      43.371  30.732  35.159  1.00  0.00    -0.206 F 
ATOM     90  C   UNL A   1      42.018  27.424  35.703  1.00  0.00     0.060 A 
BRANCH  90  91
ATOM     91  S   UNL A   1      41.900  26.198  37.023  1.00  0.00     0.124 S 
ATOM     92  O   UNL A   1      40.509  26.331  37.441  1.00  0.00    -0.237 OA
ATOM     93  O   UNL A   1      42.240  24.955  36.335  1.00  0.00    -0.237 OA
ATOM     94  O   UNL A   1      42.890  26.651  37.998  1.00  0.00    -0.744 OA
ENDBRANCH  90  91
ENDBRANCH  58  83
ENDBRANCH  32  33
ENDBRANCH  24  27
ENDBRANCH  22  23
ENDBRANCH   1  22
TORSDOF 16
ENDMDL
