MODEL 1
REMARK VINA RESULT:     -13.1      0.000      0.000
REMARK SMILES O=C(/C=C/c1ccc(C(=O)NC2CC2)cc1)NC1(C(=O)NCCCNC(=O)c2ccc(-c3c4nc(c(-c5c(F)cc(S(=O)(=O)[O-])cc5F)c5ccc([nH]5)c(-c5c(F)cc(S(=O)(=O)[O-])cc5F)c5nc(c(-c6c(F)cc(S(=O)(=O)[O-])cc6F)c6ccc3[nH]6)C=C5)C=C4)cc2)CCCC1
REMARK SMILES IDX 22 1 21 2 19 3 20 4 18 6 94 7 97 8 95 9 96 10 17 11 1 12
REMARK SMILES IDX 2 13 3 15 4 16 5 17 6 18 16 19 7 20 15 21 8 22 9 23 10 24
REMARK SMILES IDX 11 25 12 27 13 28 14 29 23 30 24 31 25 32 26 33 27 35 28 36
REMARK SMILES IDX 29 37 93 38 30 39 92 40 31 41 32 42 33 43 86 44 34 45 91 46
REMARK SMILES IDX 85 47 87 48 35 49 90 50 84 51 83 52 36 54 70 55 49 56 69 57
REMARK SMILES IDX 50 58 53 59 68 60 88 61 51 62 52 63 67 65 89 66 54 67 37 68
REMARK SMILES IDX 38 69 47 70 39 71 40 72 46 73 48 74 41 75 42 76 43 77 44 78
REMARK SMILES IDX 45 79 71 80 72 81 81 82 73 83 74 84 80 85 82 86 75 87 76 88
REMARK SMILES IDX 77 89 78 90 79 91 55 92 56 93 65 94 57 95 58 96 64 97 66 98
REMARK SMILES IDX 59 99 60 100 61 101 62 102 63 103
REMARK H PARENT 21 5 17 14 11 26 25 34 87 53 53 64
REMARK Flexibility Score: inf
ROOT
ATOM      1  C   UNL A   1      34.382  29.437  27.222  1.00  0.00     0.117 C 
ENDROOT
BRANCH   1   2
ATOM      2  N   UNL A   1      33.076  29.008  27.675  1.00  0.00    -0.354 N 
ATOM      3  C   UNL A   1      32.114  28.194  27.164  1.00  0.00     0.245 C 
ATOM      4  O   UNL A   1      31.287  27.833  28.008  1.00  0.00    -0.272 OA
ATOM      5  H   UNL A   1      32.829  29.391  28.548  1.00  0.00     0.163 HD
BRANCH   3   6
ATOM      6  C   UNL A   1      32.117  27.643  25.683  1.00  0.00     0.119 C 
ATOM      7  C   UNL A   1      33.472  28.028  25.047  1.00  0.00     0.038 C 
ATOM      8  C   UNL A   1      31.037  28.238  24.762  1.00  0.00     0.038 C 
ATOM      9  C   UNL A   1      33.222  28.992  23.900  1.00  0.00     0.003 C 
ATOM     10  C   UNL A   1      31.720  29.165  23.757  1.00  0.00     0.003 C 
BRANCH   6  11
ATOM     11  N   UNL A   1      32.070  26.154  25.585  1.00  0.00    -0.338 N 
ATOM     12  O   UNL A   1      29.925  25.657  26.292  1.00  0.00    -0.270 OA
ATOM     13  C   UNL A   1      31.021  25.327  25.872  1.00  0.00     0.244 C 
ATOM     14  H   UNL A   1      32.895  25.714  25.278  1.00  0.00     0.164 HD
BRANCH  13  15
ATOM     15  C   UNL A   1      31.256  23.878  25.614  1.00  0.00     0.072 C 
ATOM     16  C   UNL A   1      32.380  23.161  25.792  1.00  0.00     0.014 C 
BRANCH  16  17
ATOM     17  C   UNL A   1      32.478  21.854  25.130  1.00  0.00    -0.025 A 
ATOM     18  C   UNL A   1      32.914  20.698  25.781  1.00  0.00     0.009 A 
ATOM     19  C   UNL A   1      32.160  21.785  23.767  1.00  0.00     0.009 A 
ATOM     20  C   UNL A   1      32.918  19.473  25.095  1.00  0.00     0.014 A 
ATOM     21  C   UNL A   1      32.206  20.576  23.082  1.00  0.00     0.014 A 
ATOM     22  C   UNL A   1      32.505  19.398  23.753  1.00  0.00     0.039 A 
BRANCH  22  23
ATOM     23  C   UNL A   1      32.551  18.100  23.046  1.00  0.00     0.251 C 
ATOM     24  O   UNL A   1      32.551  18.113  21.812  1.00  0.00    -0.269 OA
ATOM     25  N   UNL A   1      32.560  16.873  23.674  1.00  0.00    -0.349 N 
ATOM     26  H   UNL A   1      32.208  16.158  23.095  1.00  0.00     0.164 HD
BRANCH  25  27
ATOM     27  C   UNL A   1      32.953  16.375  24.960  1.00  0.00     0.082 C 
ATOM     28  C   UNL A   1      32.802  14.976  25.551  1.00  0.00     0.027 C 
ATOM     29  C   UNL A   1      34.154  15.578  25.158  1.00  0.00     0.027 C 
ENDBRANCH  25  27
ENDBRANCH  22  23
ENDBRANCH  16  17
ENDBRANCH  13  15
ENDBRANCH   6  11
ENDBRANCH   3   6
ENDBRANCH   1   2
BRANCH   1  30
ATOM     30  C   UNL A   1      34.559  30.943  27.293  1.00  0.00     0.042 C 
BRANCH  30  31
ATOM     31  C   UNL A   1      35.794  31.353  28.083  1.00  0.00     0.118 C 
BRANCH  31  32
ATOM     32  N   UNL A   1      35.641  31.100  29.513  1.00  0.00    -0.352 N 
ATOM     33  C   UNL A   1      36.372  30.293  30.348  1.00  0.00     0.251 C 
ATOM     34  H   UNL A   1      34.899  31.583  29.943  1.00  0.00     0.163 HD
ATOM     35  O   UNL A   1      35.919  29.980  31.444  1.00  0.00    -0.269 OA
BRANCH  33  36
ATOM     36  C   UNL A   1      37.697  29.808  29.917  1.00  0.00     0.039 A 
ATOM     37  C   UNL A   1      38.017  29.794  28.558  1.00  0.00     0.014 A 
ATOM     38  C   UNL A   1      38.621  29.359  30.862  1.00  0.00     0.014 A 
ATOM     39  C   UNL A   1      39.292  29.390  28.158  1.00  0.00     0.010 A 
ATOM     40  C   UNL A   1      39.920  29.069  30.474  1.00  0.00     0.010 A 
ATOM     41  C   UNL A   1      40.266  29.063  29.116  1.00  0.00    -0.014 A 
BRANCH  41  42
ATOM     42  C   UNL A   1      41.646  28.689  28.726  1.00  0.00     0.031 A 
ATOM     43  C   UNL A   1      42.722  29.741  28.682  1.00  0.00     0.074 A 
ATOM     44  C   UNL A   1      41.909  27.424  28.343  1.00  0.00     0.049 A 
ATOM     45  N   UNL A   1      43.967  29.634  28.295  1.00  0.00    -0.248 NA
ATOM     46  C   UNL A   1      42.340  31.103  29.095  1.00  0.00     0.031 C 
ATOM     47  C   UNL A   1      40.931  26.334  28.288  1.00  0.00     0.029 A 
ATOM     48  N   UNL A   1      43.076  26.841  27.917  1.00  0.00    -0.354 N 
ATOM     49  C   UNL A   1      44.506  30.911  28.402  1.00  0.00     0.074 A 
ATOM     50  C   UNL A   1      43.440  31.789  28.823  1.00  0.00     0.031 C 
ATOM     51  C   UNL A   1      41.546  25.211  27.886  1.00  0.00     0.029 A 
ATOM     52  C   UNL A   1      42.947  25.507  27.611  1.00  0.00     0.049 A 
ATOM     53  H   UNL A   1      43.925  27.332  27.840  1.00  0.00     0.167 HD
ATOM     54  C   UNL A   1      45.785  31.308  28.198  1.00  0.00     0.037 A 
ATOM     55  C   UNL A   1      43.856  24.626  27.151  1.00  0.00     0.037 A 
ATOM     56  C   UNL A   1      46.844  30.416  27.804  1.00  0.00     0.049 A 
ATOM     57  C   UNL A   1      45.270  25.091  26.927  1.00  0.00     0.074 A 
ATOM     58  C   UNL A   1      48.186  30.700  27.630  1.00  0.00     0.029 A 
ATOM     59  N   UNL A   1      46.678  29.068  27.521  1.00  0.00    -0.354 N 
ATOM     60  N   UNL A   1      45.781  26.287  27.104  1.00  0.00    -0.248 NA
ATOM     61  C   UNL A   1      46.230  24.090  26.448  1.00  0.00     0.031 C 
ATOM     62  C   UNL A   1      48.822  29.536  27.188  1.00  0.00     0.029 A 
ATOM     63  C   UNL A   1      47.890  28.511  27.146  1.00  0.00     0.049 A 
ATOM     64  H   UNL A   1      45.826  28.579  27.578  1.00  0.00     0.167 HD
ATOM     65  C   UNL A   1      47.129  26.175  26.783  1.00  0.00     0.074 A 
ATOM     66  C   UNL A   1      47.355  24.791  26.418  1.00  0.00     0.031 C 
ATOM     67  C   UNL A   1      48.093  27.129  26.788  1.00  0.00     0.037 A 
BRANCH  54  68
ATOM     68  C   UNL A   1      46.105  32.765  28.403  1.00  0.00     0.058 A 
ATOM     69  C   UNL A   1      46.583  33.251  29.631  1.00  0.00     0.135 A 
ATOM     70  C   UNL A   1      45.962  33.683  27.350  1.00  0.00     0.135 A 
ATOM     71  F   UNL A   1      46.724  32.425  30.679  1.00  0.00    -0.206 F 
ATOM     72  C   UNL A   1      46.874  34.599  29.817  1.00  0.00     0.059 A 
ATOM     73  C   UNL A   1      46.280  35.029  27.503  1.00  0.00     0.059 A 
ATOM     74  F   UNL A   1      45.507  33.274  26.154  1.00  0.00    -0.206 F 
ATOM     75  C   UNL A   1      46.722  35.480  28.746  1.00  0.00     0.060 A 
BRANCH  75  76
ATOM     76  S   UNL A   1      47.115  37.222  29.003  1.00  0.00     0.124 S 
ATOM     77  O   UNL A   1      46.929  37.354  30.445  1.00  0.00    -0.237 OA
ATOM     78  O   UNL A   1      48.495  37.301  28.534  1.00  0.00    -0.237 OA
ATOM     79  O   UNL A   1      46.134  37.920  28.178  1.00  0.00    -0.744 OA
ENDBRANCH  75  76
ENDBRANCH  54  68
BRANCH  55  80
ATOM     80  C   UNL A   1      43.460  23.214  26.896  1.00  0.00     0.058 A 
ATOM     81  C   UNL A   1      43.186  22.337  27.956  1.00  0.00     0.135 A 
ATOM     82  C   UNL A   1      43.333  22.716  25.589  1.00  0.00     0.135 A 
ATOM     83  F   UNL A   1      43.298  22.764  29.224  1.00  0.00    -0.206 F 
ATOM     84  C   UNL A   1      42.817  21.015  27.734  1.00  0.00     0.059 A 
ATOM     85  C   UNL A   1      42.937  21.405  25.341  1.00  0.00     0.059 A 
ATOM     86  F   UNL A   1      43.565  23.517  24.538  1.00  0.00    -0.206 F 
ATOM     87  C   UNL A   1      42.691  20.559  26.420  1.00  0.00     0.060 A 
BRANCH  87  88
ATOM     88  S   UNL A   1      42.164  18.854  26.143  1.00  0.00     0.124 S 
ATOM     89  O   UNL A   1      43.084  18.429  25.096  1.00  0.00    -0.237 OA
ATOM     90  O   UNL A   1      42.370  18.254  27.458  1.00  0.00    -0.237 OA
ATOM     91  O   UNL A   1      40.768  18.996  25.739  1.00  0.00    -0.744 OA
ENDBRANCH  87  88
ENDBRANCH  55  80
BRANCH  67  92
ATOM     92  C   UNL A   1      49.488  26.705  26.418  1.00  0.00     0.058 A 
ATOM     93  C   UNL A   1      50.329  26.051  27.331  1.00  0.00     0.135 A 
ATOM     94  C   UNL A   1      49.969  26.909  25.113  1.00  0.00     0.135 A 
ATOM     95  F   UNL A   1      49.921  25.837  28.593  1.00  0.00    -0.206 F 
ATOM     96  C   UNL A   1      51.606  25.636  26.973  1.00  0.00     0.059 A 
ATOM     97  C   UNL A   1      51.231  26.473  24.724  1.00  0.00     0.059 A 
ATOM     98  F   UNL A   1      49.201  27.520  24.198  1.00  0.00    -0.206 F 
ATOM     99  C   UNL A   1      52.047  25.849  25.665  1.00  0.00     0.060 A 
BRANCH  99 100
ATOM    100  S   UNL A   1      53.695  25.275  25.206  1.00  0.00     0.124 S 
ATOM    101  O   UNL A   1      53.761  25.664  23.802  1.00  0.00    -0.237 OA
ATOM    102  O   UNL A   1      54.552  26.028  26.116  1.00  0.00    -0.237 OA
ATOM    103  O   UNL A   1      53.637  23.837  25.456  1.00  0.00    -0.744 OA
ENDBRANCH  99 100
ENDBRANCH  67  92
ENDBRANCH  41  42
ENDBRANCH  33  36
ENDBRANCH  31  32
ENDBRANCH  30  31
ENDBRANCH   1  30
TORSDOF 18
ENDMDL
MODEL 2
REMARK VINA RESULT:     -13.0      1.244      2.236
REMARK SMILES O=C(/C=C/c1ccc(C(=O)NC2CC2)cc1)NC1(C(=O)NCCCNC(=O)c2ccc(-c3c4nc(c(-c5c(F)cc(S(=O)(=O)[O-])cc5F)c5ccc([nH]5)c(-c5c(F)cc(S(=O)(=O)[O-])cc5F)c5nc(c(-c6c(F)cc(S(=O)(=O)[O-])cc6F)c6ccc3[nH]6)C=C5)C=C4)cc2)CCCC1
REMARK SMILES IDX 22 1 21 2 19 3 20 4 18 6 94 7 97 8 95 9 96 10 17 11 1 12
REMARK SMILES IDX 2 13 3 15 4 16 5 17 6 18 16 19 7 20 15 21 8 22 9 23 10 24
REMARK SMILES IDX 11 25 12 27 13 28 14 29 23 30 24 31 25 32 26 33 27 35 28 36
REMARK SMILES IDX 29 37 93 38 30 39 92 40 31 41 32 42 33 43 86 44 34 45 91 46
REMARK SMILES IDX 85 47 87 48 35 49 90 50 84 51 83 52 36 54 70 55 49 56 69 57
REMARK SMILES IDX 50 58 53 59 68 60 88 61 51 62 52 63 67 65 89 66 54 67 37 68
REMARK SMILES IDX 38 69 47 70 39 71 40 72 46 73 48 74 41 75 42 76 43 77 44 78
REMARK SMILES IDX 45 79 71 80 72 81 81 82 73 83 74 84 80 85 82 86 75 87 76 88
REMARK SMILES IDX 77 89 78 90 79 91 55 92 56 93 65 94 57 95 58 96 64 97 66 98
REMARK SMILES IDX 59 99 60 100 61 101 62 102 63 103
REMARK H PARENT 21 5 17 14 11 26 25 34 87 53 53 64
REMARK Flexibility Score: inf
ROOT
ATOM      1  C   UNL A   1      34.498  29.105  26.295  1.00  0.00     0.117 C 
ENDROOT
BRANCH   1   2
ATOM      2  N   UNL A   1      33.383  30.007  26.093  1.00  0.00    -0.354 N 
ATOM      3  C   UNL A   1      32.173  29.899  25.482  1.00  0.00     0.245 C 
ATOM      4  O   UNL A   1      31.384  30.791  25.811  1.00  0.00    -0.272 OA
ATOM      5  H   UNL A   1      33.535  30.897  26.487  1.00  0.00     0.163 HD
BRANCH   3   6
ATOM      6  C   UNL A   1      31.756  28.690  24.554  1.00  0.00     0.119 C 
ATOM      7  C   UNL A   1      32.214  29.027  23.117  1.00  0.00     0.038 C 
ATOM      8  C   UNL A   1      30.243  28.427  24.462  1.00  0.00     0.038 C 
ATOM      9  C   UNL A   1      30.990  29.166  22.229  1.00  0.00     0.003 C 
ATOM     10  C   UNL A   1      29.767  28.848  23.072  1.00  0.00     0.003 C 
BRANCH   6  11
ATOM     11  N   UNL A   1      32.452  27.407  24.874  1.00  0.00    -0.338 N 
ATOM     12  O   UNL A   1      31.483  26.781  26.878  1.00  0.00    -0.270 OA
ATOM     13  C   UNL A   1      32.254  26.593  25.953  1.00  0.00     0.244 C 
ATOM     14  H   UNL A   1      33.136  27.113  24.231  1.00  0.00     0.164 HD
BRANCH  13  15
ATOM     15  C   UNL A   1      33.058  25.338  25.966  1.00  0.00     0.072 C 
ATOM     16  C   UNL A   1      34.320  25.140  25.545  1.00  0.00     0.014 C 
BRANCH  16  17
ATOM     17  C   UNL A   1      34.766  23.759  25.318  1.00  0.00    -0.025 A 
ATOM     18  C   UNL A   1      35.439  23.352  24.165  1.00  0.00     0.009 A 
ATOM     19  C   UNL A   1      34.455  22.803  26.295  1.00  0.00     0.009 A 
ATOM     20  C   UNL A   1      35.889  22.026  24.054  1.00  0.00     0.014 A 
ATOM     21  C   UNL A   1      34.867  21.482  26.160  1.00  0.00     0.014 A 
ATOM     22  C   UNL A   1      35.655  21.098  25.083  1.00  0.00     0.039 A 
BRANCH  22  23
ATOM     23  C   UNL A   1      36.112  19.700  24.924  1.00  0.00     0.251 C 
ATOM     24  O   UNL A   1      37.314  19.464  25.071  1.00  0.00    -0.269 OA
ATOM     25  N   UNL A   1      35.287  18.648  24.587  1.00  0.00    -0.349 N 
ATOM     26  H   UNL A   1      35.782  17.914  24.156  1.00  0.00     0.164 HD
BRANCH  25  27
ATOM     27  C   UNL A   1      33.889  18.353  24.707  1.00  0.00     0.082 C 
ATOM     28  C   UNL A   1      32.681  19.149  24.220  1.00  0.00     0.027 C 
ATOM     29  C   UNL A   1      33.106  17.812  23.607  1.00  0.00     0.027 C 
ENDBRANCH  25  27
ENDBRANCH  22  23
ENDBRANCH  16  17
ENDBRANCH  13  15
ENDBRANCH   6  11
ENDBRANCH   3   6
ENDBRANCH   1   2
BRANCH   1  30
ATOM     30  C   UNL A   1      35.072  29.191  27.698  1.00  0.00     0.042 C 
BRANCH  30  31
ATOM     31  C   UNL A   1      35.543  30.595  28.054  1.00  0.00     0.118 C 
BRANCH  31  32
ATOM     32  N   UNL A   1      35.491  30.843  29.492  1.00  0.00    -0.352 N 
ATOM     33  C   UNL A   1      36.414  30.565  30.468  1.00  0.00     0.251 C 
ATOM     34  H   UNL A   1      34.666  31.277  29.809  1.00  0.00     0.163 HD
ATOM     35  O   UNL A   1      36.077  30.574  31.648  1.00  0.00    -0.269 OA
BRANCH  33  36
ATOM     36  C   UNL A   1      37.805  30.253  30.088  1.00  0.00     0.039 A 
ATOM     37  C   UNL A   1      38.692  29.772  31.053  1.00  0.00     0.014 A 
ATOM     38  C   UNL A   1      38.231  30.445  28.773  1.00  0.00     0.014 A 
ATOM     39  C   UNL A   1      39.990  29.422  30.676  1.00  0.00     0.010 A 
ATOM     40  C   UNL A   1      39.480  29.990  28.378  1.00  0.00     0.010 A 
ATOM     41  C   UNL A   1      40.381  29.491  29.328  1.00  0.00    -0.014 A 
BRANCH  41  42
ATOM     42  C   UNL A   1      41.733  29.069  28.888  1.00  0.00     0.031 A 
ATOM     43  C   UNL A   1      42.843  30.083  28.808  1.00  0.00     0.074 A 
ATOM     44  C   UNL A   1      41.936  27.797  28.492  1.00  0.00     0.049 A 
ATOM     45  N   UNL A   1      44.069  29.933  28.377  1.00  0.00    -0.248 NA
ATOM     46  C   UNL A   1      42.526  31.456  29.238  1.00  0.00     0.031 C 
ATOM     47  C   UNL A   1      40.918  26.744  28.469  1.00  0.00     0.029 A 
ATOM     48  N   UNL A   1      43.065  27.175  28.024  1.00  0.00    -0.354 N 
ATOM     49  C   UNL A   1      44.657  31.189  28.469  1.00  0.00     0.074 A 
ATOM     50  C   UNL A   1      43.638  32.103  28.929  1.00  0.00     0.031 C 
ATOM     51  C   UNL A   1      41.478  25.600  28.044  1.00  0.00     0.029 A 
ATOM     52  C   UNL A   1      42.878  25.848  27.719  1.00  0.00     0.049 A 
ATOM     53  H   UNL A   1      43.929  27.635  27.918  1.00  0.00     0.167 HD
ATOM     54  C   UNL A   1      45.941  31.541  28.220  1.00  0.00     0.037 A 
ATOM     55  C   UNL A   1      43.738  24.936  27.225  1.00  0.00     0.037 A 
ATOM     56  C   UNL A   1      46.953  30.613  27.787  1.00  0.00     0.049 A 
ATOM     57  C   UNL A   1      45.159  25.351  26.953  1.00  0.00     0.074 A 
ATOM     58  C   UNL A   1      48.298  30.850  27.566  1.00  0.00     0.029 A 
ATOM     59  N   UNL A   1      46.729  29.272  27.507  1.00  0.00    -0.354 N 
ATOM     60  N   UNL A   1      45.719  26.527  27.114  1.00  0.00    -0.248 NA
ATOM     61  C   UNL A   1      46.065  24.318  26.437  1.00  0.00     0.031 C 
ATOM     62  C   UNL A   1      48.875  29.665  27.099  1.00  0.00     0.029 A 
ATOM     63  C   UNL A   1      47.906  28.674  27.088  1.00  0.00     0.049 A 
ATOM     64  H   UNL A   1      45.862  28.814  27.592  1.00  0.00     0.167 HD
ATOM     65  C   UNL A   1      47.050  26.368  26.746  1.00  0.00     0.074 A 
ATOM     66  C   UNL A   1      47.213  24.978  26.369  1.00  0.00     0.031 C 
ATOM     67  C   UNL A   1      48.047  27.287  26.719  1.00  0.00     0.037 A 
BRANCH  54  68
ATOM     68  C   UNL A   1      46.321  32.984  28.417  1.00  0.00     0.058 A 
ATOM     69  C   UNL A   1      46.786  33.465  29.652  1.00  0.00     0.135 A 
ATOM     70  C   UNL A   1      46.247  33.894  27.350  1.00  0.00     0.135 A 
ATOM     71  F   UNL A   1      46.861  32.646  30.713  1.00  0.00    -0.206 F 
ATOM     72  C   UNL A   1      47.133  34.800  29.831  1.00  0.00     0.059 A 
ATOM     73  C   UNL A   1      46.621  35.227  27.497  1.00  0.00     0.059 A 
ATOM     74  F   UNL A   1      45.807  33.491  26.147  1.00  0.00    -0.206 F 
ATOM     75  C   UNL A   1      47.048  35.674  28.746  1.00  0.00     0.060 A 
BRANCH  75  76
ATOM     76  S   UNL A   1      47.512  37.400  28.994  1.00  0.00     0.124 S 
ATOM     77  O   UNL A   1      48.103  37.732  27.701  1.00  0.00    -0.237 OA
ATOM     78  O   UNL A   1      46.227  38.029  29.282  1.00  0.00    -0.237 OA
ATOM     79  O   UNL A   1      48.446  37.345  30.114  1.00  0.00    -0.744 OA
ENDBRANCH  75  76
ENDBRANCH  54  68
BRANCH  55  80
ATOM     80  C   UNL A   1      43.283  23.540  26.981  1.00  0.00     0.058 A 
ATOM     81  C   UNL A   1      43.050  23.072  25.679  1.00  0.00     0.135 A 
ATOM     82  C   UNL A   1      43.087  22.641  28.041  1.00  0.00     0.135 A 
ATOM     83  F   UNL A   1      43.219  23.895  24.632  1.00  0.00    -0.206 F 
ATOM     84  C   UNL A   1      42.624  21.772  25.436  1.00  0.00     0.059 A 
ATOM     85  C   UNL A   1      42.688  21.325  27.821  1.00  0.00     0.059 A 
ATOM     86  F   UNL A   1      43.314  23.030  29.305  1.00  0.00    -0.206 F 
ATOM     87  C   UNL A   1      42.450  20.903  26.515  1.00  0.00     0.060 A 
BRANCH  87  88
ATOM     88  S   UNL A   1      41.942  19.202  26.183  1.00  0.00     0.124 S 
ATOM     89  O   UNL A   1      42.309  18.538  27.428  1.00  0.00    -0.237 OA
ATOM     90  O   UNL A   1      40.511  19.353  25.937  1.00  0.00    -0.237 OA
ATOM     91  O   UNL A   1      42.737  18.836  25.014  1.00  0.00    -0.744 OA
ENDBRANCH  87  88
ENDBRANCH  55  80
BRANCH  67  92
ATOM     92  C   UNL A   1      49.412  26.815  26.299  1.00  0.00     0.058 A 
ATOM     93  C   UNL A   1      49.865  26.947  24.978  1.00  0.00     0.135 A 
ATOM     94  C   UNL A   1      50.298  26.272  27.245  1.00  0.00     0.135 A 
ATOM     95  F   UNL A   1      49.056  27.453  24.033  1.00  0.00    -0.206 F 
ATOM     96  C   UNL A   1      51.139  26.535  24.602  1.00  0.00     0.059 A 
ATOM     97  C   UNL A   1      51.587  25.883  26.900  1.00  0.00     0.059 A 
ATOM     98  F   UNL A   1      49.918  26.133  28.525  1.00  0.00    -0.206 F 
ATOM     99  C   UNL A   1      51.994  26.007  25.572  1.00  0.00     0.060 A 
BRANCH  99 100
ATOM    100  S   UNL A   1      53.656  25.507  25.077  1.00  0.00     0.124 S 
ATOM    101  O   UNL A   1      54.481  26.269  26.007  1.00  0.00    -0.237 OA
ATOM    102  O   UNL A   1      53.623  24.064  25.292  1.00  0.00    -0.237 OA
ATOM    103  O   UNL A   1      53.735  25.926  23.680  1.00  0.00    -0.744 OA
ENDBRANCH  99 100
ENDBRANCH  67  92
ENDBRANCH  41  42
ENDBRANCH  33  36
ENDBRANCH  31  32
ENDBRANCH  30  31
ENDBRANCH   1  30
TORSDOF 18
ENDMDL
MODEL 3
REMARK VINA RESULT:     -12.9      2.795      4.779
REMARK SMILES O=C(/C=C/c1ccc(C(=O)NC2CC2)cc1)NC1(C(=O)NCCCNC(=O)c2ccc(-c3c4nc(c(-c5c(F)cc(S(=O)(=O)[O-])cc5F)c5ccc([nH]5)c(-c5c(F)cc(S(=O)(=O)[O-])cc5F)c5nc(c(-c6c(F)cc(S(=O)(=O)[O-])cc6F)c6ccc3[nH]6)C=C5)C=C4)cc2)CCCC1
REMARK SMILES IDX 22 1 21 2 19 3 20 4 18 6 94 7 97 8 95 9 96 10 17 11 1 12
REMARK SMILES IDX 2 13 3 15 4 16 5 17 6 18 16 19 7 20 15 21 8 22 9 23 10 24
REMARK SMILES IDX 11 25 12 27 13 28 14 29 23 30 24 31 25 32 26 33 27 35 28 36
REMARK SMILES IDX 29 37 93 38 30 39 92 40 31 41 32 42 33 43 86 44 34 45 91 46
REMARK SMILES IDX 85 47 87 48 35 49 90 50 84 51 83 52 36 54 70 55 49 56 69 57
REMARK SMILES IDX 50 58 53 59 68 60 88 61 51 62 52 63 67 65 89 66 54 67 37 68
REMARK SMILES IDX 38 69 47 70 39 71 40 72 46 73 48 74 41 75 42 76 43 77 44 78
REMARK SMILES IDX 45 79 71 80 72 81 81 82 73 83 74 84 80 85 82 86 75 87 76 88
REMARK SMILES IDX 77 89 78 90 79 91 55 92 56 93 65 94 57 95 58 96 64 97 66 98
REMARK SMILES IDX 59 99 60 100 61 101 62 102 63 103
REMARK H PARENT 21 5 17 14 11 26 25 34 87 53 53 64
REMARK Flexibility Score: inf
ROOT
ATOM      1  C   UNL A   1      37.554  33.333  32.971  1.00  0.00     0.117 C 
ENDROOT
BRANCH   1   2
ATOM      2  N   UNL A   1      37.650  33.614  31.554  1.00  0.00    -0.354 N 
ATOM      3  C   UNL A   1      36.744  33.764  30.552  1.00  0.00     0.245 C 
ATOM      4  O   UNL A   1      37.215  34.316  29.552  1.00  0.00    -0.272 OA
ATOM      5  H   UNL A   1      38.581  33.721  31.249  1.00  0.00     0.163 HD
BRANCH   3   6
ATOM      6  C   UNL A   1      35.211  33.402  30.684  1.00  0.00     0.119 C 
ATOM      7  C   UNL A   1      34.404  34.569  30.070  1.00  0.00     0.038 C 
ATOM      8  C   UNL A   1      34.697  33.250  32.126  1.00  0.00     0.038 C 
ATOM      9  C   UNL A   1      33.582  35.229  31.163  1.00  0.00     0.003 C 
ATOM     10  C   UNL A   1      33.803  34.448  32.447  1.00  0.00     0.003 C 
BRANCH   6  11
ATOM     11  N   UNL A   1      34.796  32.206  29.893  1.00  0.00    -0.338 N 
ATOM     12  O   UNL A   1      35.325  32.810  27.725  1.00  0.00    -0.270 OA
ATOM     13  C   UNL A   1      34.898  32.016  28.545  1.00  0.00     0.244 C 
ATOM     14  H   UNL A   1      34.401  31.464  30.405  1.00  0.00     0.164 HD
BRANCH  13  15
ATOM     15  C   UNL A   1      34.455  30.682  28.049  1.00  0.00     0.072 C 
ATOM     16  C   UNL A   1      33.851  30.370  26.889  1.00  0.00     0.014 C 
BRANCH  16  17
ATOM     17  C   UNL A   1      33.186  29.065  26.783  1.00  0.00    -0.025 A 
ATOM     18  C   UNL A   1      31.876  28.838  27.206  1.00  0.00     0.009 A 
ATOM     19  C   UNL A   1      33.929  27.992  26.271  1.00  0.00     0.009 A 
ATOM     20  C   UNL A   1      31.290  27.577  27.011  1.00  0.00     0.014 A 
ATOM     21  C   UNL A   1      33.356  26.734  26.119  1.00  0.00     0.014 A 
ATOM     22  C   UNL A   1      32.013  26.533  26.408  1.00  0.00     0.039 A 
BRANCH  22  23
ATOM     23  C   UNL A   1      31.381  25.205  26.245  1.00  0.00     0.251 C 
ATOM     24  O   UNL A   1      31.391  24.437  27.211  1.00  0.00    -0.269 OA
ATOM     25  N   UNL A   1      30.813  24.754  25.072  1.00  0.00    -0.349 N 
ATOM     26  H   UNL A   1      30.803  23.771  25.021  1.00  0.00     0.164 HD
BRANCH  25  27
ATOM     27  C   UNL A   1      30.234  25.358  23.908  1.00  0.00     0.082 C 
ATOM     28  C   UNL A   1      29.765  26.793  23.686  1.00  0.00     0.027 C 
ATOM     29  C   UNL A   1      30.999  26.199  23.000  1.00  0.00     0.027 C 
ENDBRANCH  25  27
ENDBRANCH  22  23
ENDBRANCH  16  17
ENDBRANCH  13  15
ENDBRANCH   6  11
ENDBRANCH   3   6
ENDBRANCH   1   2
BRANCH   1  30
ATOM     30  C   UNL A   1      38.649  32.402  33.457  1.00  0.00     0.042 C 
BRANCH  30  31
ATOM     31  C   UNL A   1      38.104  31.090  34.005  1.00  0.00     0.118 C 
BRANCH  31  32
ATOM     32  N   UNL A   1      36.969  30.599  33.227  1.00  0.00    -0.352 N 
ATOM     33  C   UNL A   1      36.924  30.115  31.944  1.00  0.00     0.251 C 
ATOM     34  H   UNL A   1      36.104  30.619  33.696  1.00  0.00     0.163 HD
ATOM     35  O   UNL A   1      35.848  30.029  31.362  1.00  0.00    -0.269 OA
BRANCH  33  36
ATOM     36  C   UNL A   1      38.174  29.705  31.276  1.00  0.00     0.039 A 
ATOM     37  C   UNL A   1      38.471  30.201  30.005  1.00  0.00     0.014 A 
ATOM     38  C   UNL A   1      39.050  28.821  31.909  1.00  0.00     0.014 A 
ATOM     39  C   UNL A   1      39.682  29.859  29.401  1.00  0.00     0.010 A 
ATOM     40  C   UNL A   1      40.299  28.575  31.359  1.00  0.00     0.010 A 
ATOM     41  C   UNL A   1      40.622  29.075  30.092  1.00  0.00    -0.014 A 
BRANCH  41  42
ATOM     42  C   UNL A   1      41.942  28.744  29.501  1.00  0.00     0.031 A 
ATOM     43  C   UNL A   1      43.007  29.804  29.412  1.00  0.00     0.074 A 
ATOM     44  C   UNL A   1      42.150  27.518  28.984  1.00  0.00     0.049 A 
ATOM     45  N   UNL A   1      44.193  29.739  28.865  1.00  0.00    -0.248 NA
ATOM     46  C   UNL A   1      42.685  31.124  29.982  1.00  0.00     0.031 C 
ATOM     47  C   UNL A   1      41.169  26.430  28.960  1.00  0.00     0.029 A 
ATOM     48  N   UNL A   1      43.252  26.981  28.369  1.00  0.00    -0.354 N 
ATOM     49  C   UNL A   1      44.747  31.005  29.011  1.00  0.00     0.074 A 
ATOM     50  C   UNL A   1      43.744  31.838  29.633  1.00  0.00     0.031 C 
ATOM     51  C   UNL A   1      41.725  25.348  28.392  1.00  0.00     0.029 A 
ATOM     52  C   UNL A   1      43.082  25.677  27.970  1.00  0.00     0.049 A 
ATOM     53  H   UNL A   1      44.087  27.482  28.227  1.00  0.00     0.167 HD
ATOM     54  C   UNL A   1      45.991  31.427  28.683  1.00  0.00     0.037 A 
ATOM     55  C   UNL A   1      43.922  24.843  27.327  1.00  0.00     0.037 A 
ATOM     56  C   UNL A   1      46.989  30.579  28.086  1.00  0.00     0.049 A 
ATOM     57  C   UNL A   1      45.299  25.335  26.969  1.00  0.00     0.074 A 
ATOM     58  C   UNL A   1      48.300  30.886  27.770  1.00  0.00     0.029 A 
ATOM     59  N   UNL A   1      46.785  29.257  27.714  1.00  0.00    -0.354 N 
ATOM     60  N   UNL A   1      45.832  26.515  27.180  1.00  0.00    -0.248 NA
ATOM     61  C   UNL A   1      46.187  24.384  26.291  1.00  0.00     0.031 C 
ATOM     62  C   UNL A   1      48.872  29.767  27.155  1.00  0.00     0.029 A 
ATOM     63  C   UNL A   1      47.938  28.743  27.145  1.00  0.00     0.049 A 
ATOM     64  H   UNL A   1      45.944  28.760  27.835  1.00  0.00     0.167 HD
ATOM     65  C   UNL A   1      47.129  26.440  26.685  1.00  0.00     0.074 A 
ATOM     66  C   UNL A   1      47.303  25.093  26.179  1.00  0.00     0.031 C 
ATOM     67  C   UNL A   1      48.090  27.397  26.649  1.00  0.00     0.037 A 
BRANCH  54  68
ATOM     68  C   UNL A   1      46.340  32.863  28.967  1.00  0.00     0.058 A 
ATOM     69  C   UNL A   1      46.884  33.263  30.199  1.00  0.00     0.135 A 
ATOM     70  C   UNL A   1      46.156  33.852  27.986  1.00  0.00     0.135 A 
ATOM     71  F   UNL A   1      47.067  32.366  31.181  1.00  0.00    -0.206 F 
ATOM     72  C   UNL A   1      47.202  34.592  30.459  1.00  0.00     0.059 A 
ATOM     73  C   UNL A   1      46.498  35.182  28.212  1.00  0.00     0.059 A 
ATOM     74  F   UNL A   1      45.637  33.528  26.790  1.00  0.00    -0.206 F 
ATOM     75  C   UNL A   1      47.007  35.544  29.458  1.00  0.00     0.060 A 
BRANCH  75  76
ATOM     76  S   UNL A   1      47.436  37.261  29.810  1.00  0.00     0.124 S 
ATOM     77  O   UNL A   1      48.405  37.542  28.756  1.00  0.00    -0.237 OA
ATOM     78  O   UNL A   1      46.147  37.936  29.681  1.00  0.00    -0.237 OA
ATOM     79  O   UNL A   1      47.980  37.207  31.163  1.00  0.00    -0.744 OA
ENDBRANCH  75  76
ENDBRANCH  54  68
BRANCH  55  80
ATOM     80  C   UNL A   1      43.493  23.454  27.006  1.00  0.00     0.058 A 
ATOM     81  C   UNL A   1      43.202  23.074  25.688  1.00  0.00     0.135 A 
ATOM     82  C   UNL A   1      43.380  22.476  28.007  1.00  0.00     0.135 A 
ATOM     83  F   UNL A   1      43.291  23.974  24.696  1.00  0.00    -0.206 F 
ATOM     84  C   UNL A   1      42.798  21.781  25.373  1.00  0.00     0.059 A 
ATOM     85  C   UNL A   1      43.005  21.168  27.713  1.00  0.00     0.059 A 
ATOM     86  F   UNL A   1      43.664  22.781  29.282  1.00  0.00    -0.206 F 
ATOM     87  C   UNL A   1      42.707  20.833  26.394  1.00  0.00     0.060 A 
BRANCH  87  88
ATOM     88  S   UNL A   1      42.228  19.145  25.967  1.00  0.00     0.124 S 
ATOM     89  O   UNL A   1      40.788  19.283  25.789  1.00  0.00    -0.237 OA
ATOM     90  O   UNL A   1      43.002  18.906  24.752  1.00  0.00    -0.237 OA
ATOM     91  O   UNL A   1      42.650  18.371  27.131  1.00  0.00    -0.744 OA
ENDBRANCH  87  88
ENDBRANCH  55  80
BRANCH  67  92
ATOM     92  C   UNL A   1      49.426  27.015  26.073  1.00  0.00     0.058 A 
ATOM     93  C   UNL A   1      50.440  26.457  26.866  1.00  0.00     0.135 A 
ATOM     94  C   UNL A   1      49.673  27.161  24.698  1.00  0.00     0.135 A 
ATOM     95  F   UNL A   1      50.258  26.302  28.188  1.00  0.00    -0.206 F 
ATOM     96  C   UNL A   1      51.663  26.080  26.322  1.00  0.00     0.059 A 
ATOM     97  C   UNL A   1      50.876  26.759  24.126  1.00  0.00     0.059 A 
ATOM     98  F   UNL A   1      48.733  27.679  23.893  1.00  0.00    -0.206 F 
ATOM     99  C   UNL A   1      51.869  26.232  24.949  1.00  0.00     0.060 A 
BRANCH  99 100
ATOM    100  S   UNL A   1      53.448  25.706  24.251  1.00  0.00     0.124 S 
ATOM    101  O   UNL A   1      54.387  26.554  24.976  1.00  0.00    -0.237 OA
ATOM    102  O   UNL A   1      53.481  24.287  24.589  1.00  0.00    -0.237 OA
ATOM    103  O   UNL A   1      53.306  26.002  22.827  1.00  0.00    -0.744 OA
ENDBRANCH  99 100
ENDBRANCH  67  92
ENDBRANCH  41  42
ENDBRANCH  33  36
ENDBRANCH  31  32
ENDBRANCH  30  31
ENDBRANCH   1  30
TORSDOF 18
ENDMDL
