MODEL 1
REMARK VINA RESULT:     -13.3      0.000      0.000
REMARK SMILES C[C@@]1(C(=O)c2ccccc2N)[C@H](C(=O)NCCCNC(=O)c2ccc(-c3c4nc(c(-c5c(F)cc(S(=O)(=O)[O-])cc5F)c5ccc([nH]5)c(-c5c(F)cc(S(=O)(=O)[O-])cc5F)c5nc(c(-c6c(F)cc(S(=O)(=O)[O-])cc6F)c6ccc3[nH]6)C=C5)C=C4)cc2)[C@@H]1C(=O)N1CCOCC1
REMARK SMILES IDX 17 1 16 2 15 3 13 4 14 5 12 7 1 8 2 9 88 10 3 11 4 12 5 13
REMARK SMILES IDX 6 14 10 15 7 16 9 17 8 18 11 19 89 22 90 23 91 24 92 25
REMARK SMILES IDX 96 26 93 27 95 28 94 29 18 30 19 31 20 32 21 34 22 35 23 36
REMARK SMILES IDX 87 37 24 38 86 39 25 40 26 41 27 42 80 43 28 44 85 45 79 46
REMARK SMILES IDX 81 47 29 48 84 49 78 50 77 51 30 53 64 54 43 55 63 56 44 57
REMARK SMILES IDX 47 58 62 59 82 60 45 61 46 62 61 64 83 65 48 66 31 67 32 68
REMARK SMILES IDX 41 69 33 70 34 71 40 72 42 73 35 74 36 75 37 76 38 77 39 78
REMARK SMILES IDX 65 79 66 80 75 81 67 82 68 83 74 84 76 85 69 86 70 87 71 88
REMARK SMILES IDX 72 89 73 90 49 91 50 92 59 93 51 94 52 95 58 96 60 97 53 98
REMARK SMILES IDX 54 99 55 100 56 101 57 102
REMARK H PARENT 15 6 11 20 11 21 19 33 81 52 47 63
REMARK Flexibility Score: inf
ROOT
ATOM      1  C   UNL A   1      33.612  30.594  27.265  1.00  0.00     0.042 C 
ENDROOT
BRANCH   1   2
ATOM      2  C   UNL A   1      33.757  29.237  26.576  1.00  0.00     0.117 C 
BRANCH   2   3
ATOM      3  N   UNL A   1      33.828  29.412  25.139  1.00  0.00    -0.356 N 
ATOM      4  C   UNL A   1      33.786  28.525  24.105  1.00  0.00     0.224 C 
ATOM      5  O   UNL A   1      33.428  28.944  23.007  1.00  0.00    -0.275 OA
ATOM      6  H   UNL A   1      33.924  30.349  24.856  1.00  0.00     0.163 HD
BRANCH   4   7
ATOM      7  C   UNL A   1      33.974  27.061  24.299  1.00  0.00     0.106 C 
ATOM      8  C   UNL A   1      31.841  26.653  26.076  1.00  0.00     0.022 C 
ATOM      9  C   UNL A   1      32.333  26.587  24.628  1.00  0.00     0.056 C 
ATOM     10  C   UNL A   1      33.482  25.662  24.403  1.00  0.00     0.106 C 
BRANCH   9  11
ATOM     11  C   UNL A   1      31.237  27.225  23.651  1.00  0.00     0.172 C 
ATOM     12  O   UNL A   1      31.283  26.975  22.451  1.00  0.00    -0.293 OA
BRANCH  11  13
ATOM     13  C   UNL A   1      30.142  28.141  24.106  1.00  0.00     0.041 A 
ATOM     14  C   UNL A   1      30.369  29.841  24.238  1.00  0.00     0.014 A 
ATOM     15  C   UNL A   1      28.679  27.579  23.451  1.00  0.00     0.042 A 
ATOM     16  C   UNL A   1      29.197  31.017  23.719  1.00  0.00     0.001 A 
ATOM     17  C   UNL A   1      27.386  28.879  22.713  1.00  0.00     0.026 A 
ATOM     18  C   UNL A   1      27.703  30.599  22.962  1.00  0.00     0.002 A 
BRANCH  15  19
ATOM     19  N   UNL A   1      28.450  26.313  24.256  1.00  0.00    -0.398 N 
ATOM     20  H   UNL A   1      28.963  25.498  24.048  1.00  0.00     0.156 HD
ATOM     21  H   UNL A   1      27.790  26.306  24.985  1.00  0.00     0.156 HD
ENDBRANCH  15  19
ENDBRANCH  11  13
ENDBRANCH   9  11
BRANCH  10  22
ATOM     22  C   UNL A   1      33.717  24.328  23.644  1.00  0.00     0.227 C 
ATOM     23  O   UNL A   1      34.493  24.384  22.684  1.00  0.00    -0.275 OA
ATOM     24  N   UNL A   1      33.360  23.044  24.131  1.00  0.00    -0.338 N 
ATOM     25  C   UNL A   1      32.120  23.070  25.149  1.00  0.00     0.148 C 
ATOM     26  C   UNL A   1      34.719  21.859  24.304  1.00  0.00     0.148 C 
ATOM     27  C   UNL A   1      32.498  22.976  26.991  1.00  0.00     0.181 C 
ATOM     28  C   UNL A   1      35.426  21.531  26.095  1.00  0.00     0.181 C 
ATOM     29  O   UNL A   1      34.339  22.205  27.485  1.00  0.00    -0.378 OA
ENDBRANCH  10  22
ENDBRANCH   4   7
ENDBRANCH   2   3
ENDBRANCH   1   2
BRANCH   1  30
ATOM     30  C   UNL A   1      34.948  31.189  27.705  1.00  0.00     0.118 C 
BRANCH  30  31
ATOM     31  N   UNL A   1      35.107  31.133  29.146  1.00  0.00    -0.352 N 
ATOM     32  C   UNL A   1      36.161  30.846  29.978  1.00  0.00     0.251 C 
ATOM     33  H   UNL A   1      34.279  31.349  29.634  1.00  0.00     0.163 HD
ATOM     34  O   UNL A   1      35.917  30.931  31.184  1.00  0.00    -0.269 OA
BRANCH  32  35
ATOM     35  C   UNL A   1      37.539  30.443  29.546  1.00  0.00     0.039 A 
ATOM     36  C   UNL A   1      38.492  30.268  30.573  1.00  0.00     0.014 A 
ATOM     37  C   UNL A   1      37.941  30.173  28.236  1.00  0.00     0.014 A 
ATOM     38  C   UNL A   1      39.804  29.855  30.298  1.00  0.00     0.010 A 
ATOM     39  C   UNL A   1      39.261  29.777  27.954  1.00  0.00     0.010 A 
ATOM     40  C   UNL A   1      40.201  29.607  28.981  1.00  0.00    -0.014 A 
BRANCH  40  41
ATOM     41  C   UNL A   1      41.583  29.157  28.666  1.00  0.00     0.031 A 
ATOM     42  C   UNL A   1      42.733  30.122  28.729  1.00  0.00     0.074 A 
ATOM     43  C   UNL A   1      41.819  27.878  28.316  1.00  0.00     0.049 A 
ATOM     44  N   UNL A   1      43.983  29.943  28.385  1.00  0.00    -0.248 NA
ATOM     45  C   UNL A   1      42.436  31.464  29.250  1.00  0.00     0.031 C 
ATOM     46  C   UNL A   1      40.814  26.818  28.243  1.00  0.00     0.029 A 
ATOM     47  N   UNL A   1      42.991  27.254  27.962  1.00  0.00    -0.354 N 
ATOM     48  C   UNL A   1      44.619  31.156  28.615  1.00  0.00     0.074 A 
ATOM     49  C   UNL A   1      43.616  32.059  29.147  1.00  0.00     0.031 C 
ATOM     50  C   UNL A   1      41.416  25.669  27.891  1.00  0.00     0.029 A 
ATOM     51  C   UNL A   1      42.840  25.919  27.672  1.00  0.00     0.049 A 
ATOM     52  H   UNL A   1      43.856  27.719  27.920  1.00  0.00     0.167 HD
ATOM     53  C   UNL A   1      45.914  31.493  28.397  1.00  0.00     0.037 A 
ATOM     54  C   UNL A   1      43.740  25.004  27.263  1.00  0.00     0.037 A 
ATOM     55  C   UNL A   1      46.929  30.600  27.904  1.00  0.00     0.049 A 
ATOM     56  C   UNL A   1      45.174  25.394  27.041  1.00  0.00     0.074 A 
ATOM     57  C   UNL A   1      48.259  30.874  27.630  1.00  0.00     0.029 A 
ATOM     58  N   UNL A   1      46.736  29.256  27.627  1.00  0.00    -0.354 N 
ATOM     59  N   UNL A   1      45.744  26.564  27.199  1.00  0.00    -0.248 NA
ATOM     60  C   UNL A   1      46.086  24.340  26.569  1.00  0.00     0.031 C 
ATOM     61  C   UNL A   1      48.870  29.695  27.183  1.00  0.00     0.029 A 
ATOM     62  C   UNL A   1      47.923  28.685  27.194  1.00  0.00     0.049 A 
ATOM     63  H   UNL A   1      45.881  28.778  27.723  1.00  0.00     0.167 HD
ATOM     64  C   UNL A   1      47.080  26.385  26.855  1.00  0.00     0.074 A 
ATOM     65  C   UNL A   1      47.237  24.994  26.487  1.00  0.00     0.031 C 
ATOM     66  C   UNL A   1      48.081  27.298  26.842  1.00  0.00     0.037 A 
BRANCH  53  67
ATOM     67  C   UNL A   1      46.289  32.924  28.648  1.00  0.00     0.058 A 
ATOM     68  C   UNL A   1      46.751  33.358  29.899  1.00  0.00     0.135 A 
ATOM     69  C   UNL A   1      46.168  33.870  27.619  1.00  0.00     0.135 A 
ATOM     70  F   UNL A   1      46.869  32.490  30.915  1.00  0.00    -0.206 F 
ATOM     71  C   UNL A   1      47.049  34.697  30.134  1.00  0.00     0.059 A 
ATOM     72  C   UNL A   1      46.471  35.212  27.828  1.00  0.00     0.059 A 
ATOM     73  F   UNL A   1      45.729  33.500  26.406  1.00  0.00    -0.206 F 
ATOM     74  C   UNL A   1      46.888  35.618  29.096  1.00  0.00     0.060 A 
BRANCH  74  75
ATOM     75  S   UNL A   1      47.213  37.367  29.405  1.00  0.00     0.124 S 
ATOM     76  O   UNL A   1      48.183  37.289  30.494  1.00  0.00    -0.237 OA
ATOM     77  O   UNL A   1      47.738  37.832  28.125  1.00  0.00    -0.237 OA
ATOM     78  O   UNL A   1      45.900  37.891  29.766  1.00  0.00    -0.744 OA
ENDBRANCH  74  75
ENDBRANCH  53  67
BRANCH  54  79
ATOM     79  C   UNL A   1      43.302  23.608  27.024  1.00  0.00     0.058 A 
ATOM     80  C   UNL A   1      43.095  22.729  28.097  1.00  0.00     0.135 A 
ATOM     81  C   UNL A   1      43.067  23.136  25.725  1.00  0.00     0.135 A 
ATOM     82  F   UNL A   1      43.321  23.140  29.354  1.00  0.00    -0.206 F 
ATOM     83  C   UNL A   1      42.666  21.424  27.890  1.00  0.00     0.059 A 
ATOM     84  C   UNL A   1      42.625  21.838  25.494  1.00  0.00     0.059 A 
ATOM     85  F   UNL A   1      43.249  23.948  24.672  1.00  0.00    -0.206 F 
ATOM     86  C   UNL A   1      42.431  20.988  26.583  1.00  0.00     0.060 A 
BRANCH  86  87
ATOM     87  S   UNL A   1      41.804  19.315  26.321  1.00  0.00     0.124 S 
ATOM     88  O   UNL A   1      42.272  18.635  27.523  1.00  0.00    -0.237 OA
ATOM     89  O   UNL A   1      40.363  19.532  26.230  1.00  0.00    -0.237 OA
ATOM     90  O   UNL A   1      42.448  18.915  25.073  1.00  0.00    -0.744 OA
ENDBRANCH  86  87
ENDBRANCH  54  79
BRANCH  66  91
ATOM     91  C   UNL A   1      49.445  26.819  26.441  1.00  0.00     0.058 A 
ATOM     92  C   UNL A   1      50.295  26.181  27.356  1.00  0.00     0.135 A 
ATOM     93  C   UNL A   1      49.895  26.969  25.119  1.00  0.00     0.135 A 
ATOM     94  F   UNL A   1      49.913  26.019  28.632  1.00  0.00    -0.206 F 
ATOM     95  C   UNL A   1      51.552  25.714  26.978  1.00  0.00     0.059 A 
ATOM     96  C   UNL A   1      51.144  26.502  24.717  1.00  0.00     0.059 A 
ATOM     97  F   UNL A   1      49.117  27.571  24.206  1.00  0.00    -0.206 F 
ATOM     98  C   UNL A   1      51.970  25.884  25.657  1.00  0.00     0.060 A 
BRANCH  98  99
ATOM     99  S   UNL A   1      53.586  25.250  25.155  1.00  0.00     0.124 S 
ATOM    100  O   UNL A   1      53.641  25.659  23.757  1.00  0.00    -0.237 OA
ATOM    101  O   UNL A   1      54.499  25.947  26.056  1.00  0.00    -0.237 OA
ATOM    102  O   UNL A   1      53.467  23.813  25.387  1.00  0.00    -0.744 OA
ENDBRANCH  98  99
ENDBRANCH  66  91
ENDBRANCH  40  41
ENDBRANCH  32  35
ENDBRANCH  30  31
ENDBRANCH   1  30
TORSDOF 17
ENDMDL
MODEL 2
REMARK VINA RESULT:     -13.0      0.729      8.081
REMARK SMILES C[C@@]1(C(=O)c2ccccc2N)[C@H](C(=O)NCCCNC(=O)c2ccc(-c3c4nc(c(-c5c(F)cc(S(=O)(=O)[O-])cc5F)c5ccc([nH]5)c(-c5c(F)cc(S(=O)(=O)[O-])cc5F)c5nc(c(-c6c(F)cc(S(=O)(=O)[O-])cc6F)c6ccc3[nH]6)C=C5)C=C4)cc2)[C@@H]1C(=O)N1CCOCC1
REMARK SMILES IDX 17 1 16 2 15 3 13 4 14 5 12 7 1 8 2 9 88 10 3 11 4 12 5 13
REMARK SMILES IDX 6 14 10 15 7 16 9 17 8 18 11 19 89 22 90 23 91 24 92 25
REMARK SMILES IDX 96 26 93 27 95 28 94 29 18 30 19 31 20 32 21 34 22 35 23 36
REMARK SMILES IDX 87 37 24 38 86 39 25 40 26 41 27 42 80 43 28 44 85 45 79 46
REMARK SMILES IDX 81 47 29 48 84 49 78 50 77 51 30 53 64 54 43 55 63 56 44 57
REMARK SMILES IDX 47 58 62 59 82 60 45 61 46 62 61 64 83 65 48 66 31 67 32 68
REMARK SMILES IDX 41 69 33 70 34 71 40 72 42 73 35 74 36 75 37 76 38 77 39 78
REMARK SMILES IDX 65 79 66 80 75 81 67 82 68 83 74 84 76 85 69 86 70 87 71 88
REMARK SMILES IDX 72 89 73 90 49 91 50 92 59 93 51 94 52 95 58 96 60 97 53 98
REMARK SMILES IDX 54 99 55 100 56 101 57 102
REMARK H PARENT 15 6 11 20 11 21 19 33 81 52 47 63
REMARK Flexibility Score: inf
ROOT
ATOM      1  C   UNL A   1      33.789  30.399  27.403  1.00  0.00     0.042 C 
ENDROOT
BRANCH   1   2
ATOM      2  C   UNL A   1      33.588  29.130  26.572  1.00  0.00     0.117 C 
BRANCH   2   3
ATOM      3  N   UNL A   1      33.649  29.444  25.159  1.00  0.00    -0.356 N 
ATOM      4  C   UNL A   1      33.655  28.658  24.046  1.00  0.00     0.224 C 
ATOM      5  O   UNL A   1      33.274  29.160  22.990  1.00  0.00    -0.275 OA
ATOM      6  H   UNL A   1      33.694  30.408  24.967  1.00  0.00     0.163 HD
BRANCH   4   7
ATOM      7  C   UNL A   1      33.922  27.194  24.101  1.00  0.00     0.106 C 
ATOM      8  C   UNL A   1      31.831  26.509  25.842  1.00  0.00     0.022 C 
ATOM      9  C   UNL A   1      32.311  26.604  24.392  1.00  0.00     0.056 C 
ATOM     10  C   UNL A   1      33.506  25.768  24.076  1.00  0.00     0.106 C 
BRANCH   9  11
ATOM     11  C   UNL A   1      31.174  27.271  23.484  1.00  0.00     0.172 C 
ATOM     12  O   UNL A   1      31.169  27.061  22.276  1.00  0.00    -0.293 OA
BRANCH  11  13
ATOM     13  C   UNL A   1      30.098  28.168  24.016  1.00  0.00     0.041 A 
ATOM     14  C   UNL A   1      30.331  29.863  24.201  1.00  0.00     0.014 A 
ATOM     15  C   UNL A   1      28.610  27.629  23.398  1.00  0.00     0.042 A 
ATOM     16  C   UNL A   1      29.139  31.056  23.772  1.00  0.00     0.001 A 
ATOM     17  C   UNL A   1      27.289  28.955  22.761  1.00  0.00     0.026 A 
ATOM     18  C   UNL A   1      27.616  30.665  23.060  1.00  0.00     0.002 A 
BRANCH  15  19
ATOM     19  N   UNL A   1      28.412  26.334  24.165  1.00  0.00    -0.398 N 
ATOM     20  H   UNL A   1      29.101  25.632  24.129  1.00  0.00     0.156 HD
ATOM     21  H   UNL A   1      27.597  26.197  24.698  1.00  0.00     0.156 HD
ENDBRANCH  15  19
ENDBRANCH  11  13
ENDBRANCH   9  11
BRANCH  10  22
ATOM     22  C   UNL A   1      33.804  24.525  23.194  1.00  0.00     0.227 C 
ATOM     23  O   UNL A   1      34.000  24.749  21.996  1.00  0.00    -0.275 OA
ATOM     24  N   UNL A   1      34.151  23.242  23.691  1.00  0.00    -0.338 N 
ATOM     25  C   UNL A   1      33.570  22.947  25.157  1.00  0.00     0.148 C 
ATOM     26  C   UNL A   1      35.751  22.591  23.145  1.00  0.00     0.148 C 
ATOM     27  C   UNL A   1      34.739  23.143  26.619  1.00  0.00     0.181 C 
ATOM     28  C   UNL A   1      37.248  22.670  24.397  1.00  0.00     0.181 C 
ATOM     29  O   UNL A   1      36.744  23.067  26.173  1.00  0.00    -0.378 OA
ENDBRANCH  10  22
ENDBRANCH   4   7
ENDBRANCH   2   3
ENDBRANCH   1   2
BRANCH   1  30
ATOM     30  C   UNL A   1      35.227  30.577  27.887  1.00  0.00     0.118 C 
BRANCH  30  31
ATOM     31  N   UNL A   1      35.313  30.507  29.333  1.00  0.00    -0.352 N 
ATOM     32  C   UNL A   1      36.328  30.222  30.214  1.00  0.00     0.251 C 
ATOM     33  H   UNL A   1      34.460  30.707  29.781  1.00  0.00     0.163 HD
ATOM     34  O   UNL A   1      36.023  30.291  31.407  1.00  0.00    -0.269 OA
BRANCH  32  35
ATOM     35  C   UNL A   1      37.731  29.841  29.848  1.00  0.00     0.039 A 
ATOM     36  C   UNL A   1      38.075  29.948  28.483  1.00  0.00     0.014 A 
ATOM     37  C   UNL A   1      38.733  29.450  30.739  1.00  0.00     0.014 A 
ATOM     38  C   UNL A   1      39.368  29.658  28.023  1.00  0.00     0.010 A 
ATOM     39  C   UNL A   1      40.025  29.139  30.280  1.00  0.00     0.010 A 
ATOM     40  C   UNL A   1      40.357  29.247  28.922  1.00  0.00    -0.014 A 
BRANCH  40  41
ATOM     41  C   UNL A   1      41.738  28.945  28.460  1.00  0.00     0.031 A 
ATOM     42  C   UNL A   1      42.105  27.561  28.004  1.00  0.00     0.074 A 
ATOM     43  C   UNL A   1      42.679  29.910  28.450  1.00  0.00     0.049 A 
ATOM     44  N   UNL A   1      43.278  27.083  27.673  1.00  0.00    -0.248 NA
ATOM     45  C   UNL A   1      41.006  26.590  27.906  1.00  0.00     0.031 C 
ATOM     46  C   UNL A   1      42.467  31.306  28.831  1.00  0.00     0.029 A 
ATOM     47  N   UNL A   1      44.005  29.855  28.096  1.00  0.00    -0.354 N 
ATOM     48  C   UNL A   1      43.068  25.746  27.358  1.00  0.00     0.074 A 
ATOM     49  C   UNL A   1      41.649  25.496  27.520  1.00  0.00     0.031 C 
ATOM     50  C   UNL A   1      43.618  31.982  28.667  1.00  0.00     0.029 A 
ATOM     51  C   UNL A   1      44.657  31.059  28.211  1.00  0.00     0.049 A 
ATOM     52  H   UNL A   1      44.447  29.032  27.789  1.00  0.00     0.167 HD
ATOM     53  C   UNL A   1      43.972  24.810  26.977  1.00  0.00     0.037 A 
ATOM     54  C   UNL A   1      45.946  31.383  27.990  1.00  0.00     0.037 A 
ATOM     55  C   UNL A   1      45.376  25.050  26.776  1.00  0.00     0.049 A 
ATOM     56  C   UNL A   1      46.930  30.333  27.554  1.00  0.00     0.074 A 
ATOM     57  C   UNL A   1      46.362  24.146  26.417  1.00  0.00     0.029 A 
ATOM     58  N   UNL A   1      45.995  26.283  26.899  1.00  0.00    -0.354 N 
ATOM     59  N   UNL A   1      46.727  29.058  27.326  1.00  0.00    -0.248 NA
ATOM     60  C   UNL A   1      48.323  30.765  27.359  1.00  0.00     0.031 C 
ATOM     61  C   UNL A   1      47.580  24.833  26.326  1.00  0.00     0.029 A 
ATOM     62  C   UNL A   1      47.347  26.167  26.614  1.00  0.00     0.049 A 
ATOM     63  H   UNL A   1      45.541  27.120  27.152  1.00  0.00     0.167 HD
ATOM     64  C   UNL A   1      47.963  28.538  26.954  1.00  0.00     0.074 A 
ATOM     65  C   UNL A   1      48.906  29.636  26.979  1.00  0.00     0.031 C 
ATOM     66  C   UNL A   1      48.282  27.263  26.627  1.00  0.00     0.037 A 
BRANCH  53  67
ATOM     67  C   UNL A   1      43.459  23.411  26.803  1.00  0.00     0.058 A 
ATOM     68  C   UNL A   1      43.147  22.595  27.900  1.00  0.00     0.135 A 
ATOM     69  C   UNL A   1      43.294  22.882  25.514  1.00  0.00     0.135 A 
ATOM     70  F   UNL A   1      43.304  23.055  29.151  1.00  0.00    -0.206 F 
ATOM     71  C   UNL A   1      42.720  21.283  27.726  1.00  0.00     0.059 A 
ATOM     72  C   UNL A   1      42.857  21.576  25.315  1.00  0.00     0.059 A 
ATOM     73  F   UNL A   1      43.581  23.625  24.434  1.00  0.00    -0.206 F 
ATOM     74  C   UNL A   1      42.595  20.778  26.429  1.00  0.00     0.060 A 
BRANCH  74  75
ATOM     75  S   UNL A   1      42.100  19.058  26.192  1.00  0.00     0.124 S 
ATOM     76  O   UNL A   1      43.054  18.623  25.176  1.00  0.00    -0.237 OA
ATOM     77  O   UNL A   1      42.283  18.480  27.519  1.00  0.00    -0.237 OA
ATOM     78  O   UNL A   1      40.714  19.170  25.749  1.00  0.00    -0.744 OA
ENDBRANCH  74  75
ENDBRANCH  53  67
BRANCH  54  79
ATOM     79  C   UNL A   1      46.391  32.783  28.189  1.00  0.00     0.058 A 
ATOM     80  C   UNL A   1      46.296  33.719  27.149  1.00  0.00     0.135 A 
ATOM     81  C   UNL A   1      46.899  33.212  29.423  1.00  0.00     0.135 A 
ATOM     82  F   UNL A   1      45.826  33.344  25.949  1.00  0.00    -0.206 F 
ATOM     83  C   UNL A   1      46.690  35.039  27.326  1.00  0.00     0.059 A 
ATOM     84  C   UNL A   1      47.287  34.531  29.629  1.00  0.00     0.059 A 
ATOM     85  F   UNL A   1      47.000  32.348  30.445  1.00  0.00    -0.206 F 
ATOM     86  C   UNL A   1      47.183  35.436  28.572  1.00  0.00     0.060 A 
BRANCH  86  87
ATOM     87  S   UNL A   1      47.626  37.169  28.823  1.00  0.00     0.124 S 
ATOM     88  O   UNL A   1      48.553  37.397  27.721  1.00  0.00    -0.237 OA
ATOM     89  O   UNL A   1      46.334  37.841  28.720  1.00  0.00    -0.237 OA
ATOM     90  O   UNL A   1      48.216  37.167  30.159  1.00  0.00    -0.744 OA
ENDBRANCH  86  87
ENDBRANCH  54  79
BRANCH  66  91
ATOM     91  C   UNL A   1      49.706  26.985  26.243  1.00  0.00     0.058 A 
ATOM     92  C   UNL A   1      50.139  27.088  24.914  1.00  0.00     0.135 A 
ATOM     93  C   UNL A   1      50.655  26.645  27.221  1.00  0.00     0.135 A 
ATOM     94  F   UNL A   1      49.268  27.404  23.942  1.00  0.00    -0.206 F 
ATOM     95  C   UNL A   1      51.466  26.854  24.561  1.00  0.00     0.059 A 
ATOM     96  C   UNL A   1      51.989  26.415  26.892  1.00  0.00     0.059 A 
ATOM     97  F   UNL A   1      50.289  26.536  28.507  1.00  0.00    -0.206 F 
ATOM     98  C   UNL A   1      52.383  26.513  25.557  1.00  0.00     0.060 A 
BRANCH  98  99
ATOM     99  S   UNL A   1      54.112  26.242  25.107  1.00  0.00     0.124 S 
ATOM    100  O   UNL A   1      54.403  27.437  24.325  1.00  0.00    -0.237 OA
ATOM    101  O   UNL A   1      54.773  26.159  26.407  1.00  0.00    -0.237 OA
ATOM    102  O   UNL A   1      54.069  24.991  24.356  1.00  0.00    -0.744 OA
ENDBRANCH  98  99
ENDBRANCH  66  91
ENDBRANCH  40  41
ENDBRANCH  32  35
ENDBRANCH  30  31
ENDBRANCH   1  30
TORSDOF 17
ENDMDL
MODEL 3
REMARK VINA RESULT:     -12.1      6.415     14.109
REMARK SMILES C[C@@]1(C(=O)c2ccccc2N)[C@H](C(=O)NCCCNC(=O)c2ccc(-c3c4nc(c(-c5c(F)cc(S(=O)(=O)[O-])cc5F)c5ccc([nH]5)c(-c5c(F)cc(S(=O)(=O)[O-])cc5F)c5nc(c(-c6c(F)cc(S(=O)(=O)[O-])cc6F)c6ccc3[nH]6)C=C5)C=C4)cc2)[C@@H]1C(=O)N1CCOCC1
REMARK SMILES IDX 17 1 16 2 15 3 13 4 14 5 12 7 1 8 2 9 88 10 3 11 4 12 5 13
REMARK SMILES IDX 6 14 10 15 7 16 9 17 8 18 11 19 89 22 90 23 91 24 92 25
REMARK SMILES IDX 96 26 93 27 95 28 94 29 18 30 19 31 20 32 21 34 22 35 23 36
REMARK SMILES IDX 87 37 24 38 86 39 25 40 26 41 27 42 80 43 28 44 85 45 79 46
REMARK SMILES IDX 81 47 29 48 84 49 78 50 77 51 30 53 64 54 43 55 63 56 44 57
REMARK SMILES IDX 47 58 62 59 82 60 45 61 46 62 61 64 83 65 48 66 31 67 32 68
REMARK SMILES IDX 41 69 33 70 34 71 40 72 42 73 35 74 36 75 37 76 38 77 39 78
REMARK SMILES IDX 65 79 66 80 75 81 67 82 68 83 74 84 76 85 69 86 70 87 71 88
REMARK SMILES IDX 72 89 73 90 49 91 50 92 59 93 51 94 52 95 58 96 60 97 53 98
REMARK SMILES IDX 54 99 55 100 56 101 57 102
REMARK H PARENT 15 6 11 20 11 21 19 33 81 52 47 63
REMARK Flexibility Score: inf
ROOT
ATOM      1  C   UNL A   1      43.322  24.009  25.019  1.00  0.00     0.042 C 
ENDROOT
BRANCH   1   2
ATOM      2  C   UNL A   1      44.644  24.734  25.275  1.00  0.00     0.117 C 
BRANCH   2   3
ATOM      3  N   UNL A   1      44.394  26.115  25.636  1.00  0.00    -0.356 N 
ATOM      4  C   UNL A   1      45.230  27.160  25.892  1.00  0.00     0.224 C 
ATOM      5  O   UNL A   1      44.786  28.296  25.743  1.00  0.00    -0.275 OA
ATOM      6  H   UNL A   1      43.439  26.341  25.710  1.00  0.00     0.163 HD
BRANCH   4   7
ATOM      7  C   UNL A   1      46.683  26.975  26.159  1.00  0.00     0.106 C 
ATOM      8  C   UNL A   1      46.925  28.890  28.195  1.00  0.00     0.022 C 
ATOM      9  C   UNL A   1      46.739  27.413  27.842  1.00  0.00     0.056 C 
ATOM     10  C   UNL A   1      47.858  26.816  27.055  1.00  0.00     0.106 C 
BRANCH   9  11
ATOM     11  C   UNL A   1      45.578  26.778  28.743  1.00  0.00     0.172 C 
ATOM     12  O   UNL A   1      44.430  27.192  28.625  1.00  0.00    -0.293 OA
BRANCH  11  13
ATOM     13  C   UNL A   1      45.804  25.699  29.758  1.00  0.00     0.041 A 
ATOM     14  C   UNL A   1      45.886  26.033  31.444  1.00  0.00     0.014 A 
ATOM     15  C   UNL A   1      44.948  24.319  29.258  1.00  0.00     0.042 A 
ATOM     16  C   UNL A   1      45.125  25.052  32.663  1.00  0.00     0.001 A 
ATOM     17  C   UNL A   1      43.946  23.263  30.596  1.00  0.00     0.026 A 
ATOM     18  C   UNL A   1      44.157  23.669  32.302  1.00  0.00     0.002 A 
BRANCH  15  19
ATOM     19  N   UNL A   1      45.767  23.868  28.062  1.00  0.00    -0.398 N 
ATOM     20  H   UNL A   1      46.435  23.153  28.166  1.00  0.00     0.156 HD
ATOM     21  H   UNL A   1      45.630  24.291  27.185  1.00  0.00     0.156 HD
ENDBRANCH  15  19
ENDBRANCH  11  13
ENDBRANCH   9  11
BRANCH  10  22
ATOM     22  C   UNL A   1      48.950  25.739  27.297  1.00  0.00     0.227 C 
ATOM     23  O   UNL A   1      48.606  24.569  27.101  1.00  0.00    -0.275 OA
ATOM     24  N   UNL A   1      50.337  26.006  27.427  1.00  0.00    -0.338 N 
ATOM     25  C   UNL A   1      50.655  27.474  27.990  1.00  0.00     0.148 C 
ATOM     26  C   UNL A   1      51.415  25.187  26.223  1.00  0.00     0.148 C 
ATOM     27  C   UNL A   1      51.152  28.800  26.749  1.00  0.00     0.181 C 
ATOM     28  C   UNL A   1      52.101  26.250  24.735  1.00  0.00     0.181 C 
ATOM     29  O   UNL A   1      51.866  28.112  24.949  1.00  0.00    -0.378 OA
ENDBRANCH  10  22
ENDBRANCH   4   7
ENDBRANCH   2   3
ENDBRANCH   1   2
BRANCH   1  30
ATOM     30  C   UNL A   1      42.544  23.710  26.300  1.00  0.00     0.118 C 
BRANCH  30  31
ATOM     31  N   UNL A   1      41.118  23.631  26.049  1.00  0.00    -0.352 N 
ATOM     32  C   UNL A   1      40.033  24.351  26.485  1.00  0.00     0.251 C 
ATOM     33  H   UNL A   1      40.874  22.903  25.433  1.00  0.00     0.163 HD
ATOM     34  O   UNL A   1      38.946  23.998  26.020  1.00  0.00    -0.269 OA
BRANCH  32  35
ATOM     35  C   UNL A   1      40.066  25.493  27.456  1.00  0.00     0.039 A 
ATOM     36  C   UNL A   1      39.266  25.358  28.612  1.00  0.00     0.014 A 
ATOM     37  C   UNL A   1      40.857  26.640  27.345  1.00  0.00     0.014 A 
ATOM     38  C   UNL A   1      39.244  26.341  29.612  1.00  0.00     0.010 A 
ATOM     39  C   UNL A   1      40.822  27.637  28.336  1.00  0.00     0.010 A 
ATOM     40  C   UNL A   1      40.023  27.495  29.480  1.00  0.00    -0.014 A 
BRANCH  40  41
ATOM     41  C   UNL A   1      40.025  28.546  30.533  1.00  0.00     0.031 A 
ATOM     42  C   UNL A   1      41.009  28.487  31.668  1.00  0.00     0.074 A 
ATOM     43  C   UNL A   1      39.140  29.560  30.483  1.00  0.00     0.049 A 
ATOM     44  N   UNL A   1      41.091  29.247  32.731  1.00  0.00    -0.248 NA
ATOM     45  C   UNL A   1      42.035  27.438  31.592  1.00  0.00     0.031 C 
ATOM     46  C   UNL A   1      38.148  29.771  29.430  1.00  0.00     0.029 A 
ATOM     47  N   UNL A   1      38.943  30.611  31.346  1.00  0.00    -0.354 N 
ATOM     48  C   UNL A   1      42.156  28.750  33.472  1.00  0.00     0.074 A 
ATOM     49  C   UNL A   1      42.701  27.634  32.723  1.00  0.00     0.031 C 
ATOM     50  C   UNL A   1      37.462  30.896  29.695  1.00  0.00     0.029 A 
ATOM     51  C   UNL A   1      37.937  31.463  30.958  1.00  0.00     0.049 A 
ATOM     52  H   UNL A   1      39.471  30.742  32.165  1.00  0.00     0.167 HD
ATOM     53  C   UNL A   1      42.632  29.176  34.667  1.00  0.00     0.037 A 
ATOM     54  C   UNL A   1      37.441  32.565  31.554  1.00  0.00     0.037 A 
ATOM     55  C   UNL A   1      42.127  30.303  35.405  1.00  0.00     0.049 A 
ATOM     56  C   UNL A   1      37.994  33.029  32.873  1.00  0.00     0.074 A 
ATOM     57  C   UNL A   1      42.539  30.781  36.638  1.00  0.00     0.029 A 
ATOM     58  N   UNL A   1      41.111  31.141  34.975  1.00  0.00    -0.354 N 
ATOM     59  N   UNL A   1      38.957  32.507  33.591  1.00  0.00    -0.248 NA
ATOM     60  C   UNL A   1      37.379  34.226  33.468  1.00  0.00     0.031 C 
ATOM     61  C   UNL A   1      41.768  31.907  36.956  1.00  0.00     0.029 A 
ATOM     62  C   UNL A   1      40.888  32.137  35.913  1.00  0.00     0.049 A 
ATOM     63  H   UNL A   1      40.619  31.042  34.128  1.00  0.00     0.167 HD
ATOM     64  C   UNL A   1      39.070  33.315  34.719  1.00  0.00     0.074 A 
ATOM     65  C   UNL A   1      38.082  34.365  34.584  1.00  0.00     0.031 C 
ATOM     66  C   UNL A   1      39.914  33.189  35.771  1.00  0.00     0.037 A 
BRANCH  53  67
ATOM     67  C   UNL A   1      43.741  28.369  35.276  1.00  0.00     0.058 A 
ATOM     68  C   UNL A   1      45.089  28.625  34.983  1.00  0.00     0.135 A 
ATOM     69  C   UNL A   1      43.440  27.316  36.154  1.00  0.00     0.135 A 
ATOM     70  F   UNL A   1      45.421  29.611  34.137  1.00  0.00    -0.206 F 
ATOM     71  C   UNL A   1      46.105  27.838  35.515  1.00  0.00     0.059 A 
ATOM     72  C   UNL A   1      44.441  26.524  36.707  1.00  0.00     0.059 A 
ATOM     73  F   UNL A   1      42.165  27.035  36.463  1.00  0.00    -0.206 F 
ATOM     74  C   UNL A   1      45.769  26.779  36.362  1.00  0.00     0.060 A 
BRANCH  74  75
ATOM     75  S   UNL A   1      47.074  25.714  37.011  1.00  0.00     0.124 S 
ATOM     76  O   UNL A   1      47.118  26.135  38.408  1.00  0.00    -0.237 OA
ATOM     77  O   UNL A   1      46.550  24.373  36.772  1.00  0.00    -0.237 OA
ATOM     78  O   UNL A   1      48.234  26.081  36.205  1.00  0.00    -0.744 OA
ENDBRANCH  74  75
ENDBRANCH  53  67
BRANCH  54  79
ATOM     79  C   UNL A   1      36.339  33.312  30.904  1.00  0.00     0.058 A 
ATOM     80  C   UNL A   1      35.048  33.305  31.453  1.00  0.00     0.135 A 
ATOM     81  C   UNL A   1      36.559  34.058  29.737  1.00  0.00     0.135 A 
ATOM     82  F   UNL A   1      34.795  32.594  32.562  1.00  0.00    -0.206 F 
ATOM     83  C   UNL A   1      34.009  34.017  30.866  1.00  0.00     0.059 A 
ATOM     84  C   UNL A   1      35.538  34.788  29.139  1.00  0.00     0.059 A 
ATOM     85  F   UNL A   1      37.781  34.094  29.184  1.00  0.00    -0.206 F 
ATOM     86  C   UNL A   1      34.265  34.758  29.710  1.00  0.00     0.060 A 
BRANCH  86  87
ATOM     87  S   UNL A   1      32.931  35.741  28.990  1.00  0.00     0.124 S 
ATOM     88  O   UNL A   1      32.357  34.799  28.036  1.00  0.00    -0.237 OA
ATOM     89  O   UNL A   1      32.109  36.052  30.154  1.00  0.00    -0.237 OA
ATOM     90  O   UNL A   1      33.639  36.880  28.411  1.00  0.00    -0.744 OA
ENDBRANCH  86  87
ENDBRANCH  54  79
BRANCH  66  91
ATOM     91  C   UNL A   1      39.829  34.227  36.851  1.00  0.00     0.058 A 
ATOM     92  C   UNL A   1      40.492  35.458  36.738  1.00  0.00     0.135 A 
ATOM     93  C   UNL A   1      39.049  34.002  37.997  1.00  0.00     0.135 A 
ATOM     94  F   UNL A   1      41.254  35.717  35.664  1.00  0.00    -0.206 F 
ATOM     95  C   UNL A   1      40.393  36.431  37.729  1.00  0.00     0.059 A 
ATOM     96  C   UNL A   1      38.929  34.964  38.996  1.00  0.00     0.059 A 
ATOM     97  F   UNL A   1      38.395  32.841  38.150  1.00  0.00    -0.206 F 
ATOM     98  C   UNL A   1      39.613  36.174  38.858  1.00  0.00     0.060 A 
BRANCH  98  99
ATOM     99  S   UNL A   1      39.455  37.447  40.130  1.00  0.00     0.124 S 
ATOM    100  O   UNL A   1      40.851  37.782  40.384  1.00  0.00    -0.237 OA
ATOM    101  O   UNL A   1      38.668  38.477  39.459  1.00  0.00    -0.237 OA
ATOM    102  O   UNL A   1      38.766  36.752  41.214  1.00  0.00    -0.744 OA
ENDBRANCH  98  99
ENDBRANCH  66  91
ENDBRANCH  40  41
ENDBRANCH  32  35
ENDBRANCH  30  31
ENDBRANCH   1  30
TORSDOF 17
ENDMDL
