MODEL 1
REMARK VINA RESULT:     -12.8      0.000      0.000
REMARK SMILES O=C(NCCCNC(=O)[C@H]1[C@H]2CC[C@H](CC2)[C@H]1C(=O)Nc1ccc(C(=O)N2CCCC2)cc1)c1ccc(-c2c3nc(c(-c4c(F)cc(S(=O)(=O)[O-])cc4F)c4ccc([nH]4)c(-c4c(F)cc(S(=O)(=O)[O-])cc4F)c4nc(c(-c5c(F)cc(S(=O)(=O)[O-])cc5F)c5ccc2[nH]5)C=C4)C=C3)cc1
REMARK SMILES IDX 5 1 4 2 3 3 1 4 2 5 34 7 35 8 99 9 36 10 98 11 37 12 38 13
REMARK SMILES IDX 39 14 92 15 40 16 97 17 91 18 93 19 41 20 96 21 90 22 89 23
REMARK SMILES IDX 42 25 76 26 55 27 75 28 56 29 59 30 74 31 94 32 57 33 58 34
REMARK SMILES IDX 73 36 95 37 60 38 43 39 44 40 53 41 45 42 46 43 52 44 54 45
REMARK SMILES IDX 47 46 48 47 49 48 50 49 51 50 77 51 78 52 87 53 79 54 80 55
REMARK SMILES IDX 86 56 88 57 81 58 82 59 83 60 84 61 85 62 61 63 62 64 71 65
REMARK SMILES IDX 63 66 64 67 70 68 72 69 65 70 66 71 67 72 68 73 69 74 6 75
REMARK SMILES IDX 7 76 8 77 9 79 10 80 11 81 17 82 16 83 12 84 14 85 15 86
REMARK SMILES IDX 13 87 18 88 19 89 20 90 21 92 22 93 33 94 23 95 32 96 24 97
REMARK SMILES IDX 25 98 26 99 27 100 28 101 31 102 29 103 30 104
REMARK H PARENT 3 6 93 24 59 35 7 78 20 91
REMARK Flexibility Score: inf
ROOT
ATOM      1  C   UNL A   1      33.085  28.202  25.859  1.00  0.00     0.042 C 
ENDROOT
BRANCH   1   2
ATOM      2  C   UNL A   1      33.641  28.433  27.258  1.00  0.00     0.118 C 
BRANCH   2   3
ATOM      3  N   UNL A   1      33.604  29.823  27.688  1.00  0.00    -0.352 N 
ATOM      4  O   UNL A   1      34.379  31.708  28.655  1.00  0.00    -0.269 OA
ATOM      5  C   UNL A   1      34.616  30.583  28.242  1.00  0.00     0.251 C 
ATOM      6  H   UNL A   1      32.742  30.283  27.570  1.00  0.00     0.163 HD
BRANCH   5   7
ATOM      7  C   UNL A   1      35.971  29.996  28.372  1.00  0.00     0.039 A 
ATOM      8  C   UNL A   1      36.383  29.430  29.580  1.00  0.00     0.014 A 
ATOM      9  C   UNL A   1      36.862  30.084  27.301  1.00  0.00     0.014 A 
ATOM     10  C   UNL A   1      37.731  29.158  29.785  1.00  0.00     0.010 A 
ATOM     11  C   UNL A   1      38.197  29.703  27.478  1.00  0.00     0.010 A 
ATOM     12  C   UNL A   1      38.659  29.295  28.738  1.00  0.00    -0.014 A 
BRANCH  12  13
ATOM     13  C   UNL A   1      40.096  28.997  28.994  1.00  0.00     0.031 A 
ATOM     14  C   UNL A   1      40.707  27.680  28.584  1.00  0.00     0.074 A 
ATOM     15  C   UNL A   1      40.869  29.948  29.557  1.00  0.00     0.049 A 
ATOM     16  N   UNL A   1      41.946  27.272  28.710  1.00  0.00    -0.248 NA
ATOM     17  C   UNL A   1      39.815  26.687  27.965  1.00  0.00     0.031 C 
ATOM     18  C   UNL A   1      40.396  31.261  30.004  1.00  0.00     0.029 A 
ATOM     19  N   UNL A   1      42.214  29.973  29.826  1.00  0.00    -0.354 N 
ATOM     20  C   UNL A   1      41.975  25.969  28.223  1.00  0.00     0.074 A 
ATOM     21  C   UNL A   1      40.625  25.647  27.813  1.00  0.00     0.031 C 
ATOM     22  C   UNL A   1      41.441  31.985  30.429  1.00  0.00     0.029 A 
ATOM     23  C   UNL A   1      42.646  31.167  30.352  1.00  0.00     0.049 A 
ATOM     24  H   UNL A   1      42.811  29.208  29.659  1.00  0.00     0.167 HD
ATOM     25  C   UNL A   1      43.029  25.122  28.122  1.00  0.00     0.037 A 
ATOM     26  C   UNL A   1      43.873  31.563  30.740  1.00  0.00     0.037 A 
ATOM     27  C   UNL A   1      44.379  25.461  28.496  1.00  0.00     0.049 A 
ATOM     28  C   UNL A   1      45.025  30.610  30.606  1.00  0.00     0.074 A 
ATOM     29  C   UNL A   1      45.522  24.685  28.394  1.00  0.00     0.029 A 
ATOM     30  N   UNL A   1      44.771  26.674  29.043  1.00  0.00    -0.354 N 
ATOM     31  N   UNL A   1      45.031  29.388  30.128  1.00  0.00    -0.248 NA
ATOM     32  C   UNL A   1      46.335  31.086  31.068  1.00  0.00     0.031 C 
ATOM     33  C   UNL A   1      46.597  25.415  28.913  1.00  0.00     0.029 A 
ATOM     34  C   UNL A   1      46.134  26.663  29.296  1.00  0.00     0.049 A 
ATOM     35  H   UNL A   1      44.170  27.432  29.224  1.00  0.00     0.167 HD
ATOM     36  C   UNL A   1      46.351  28.959  30.209  1.00  0.00     0.074 A 
ATOM     37  C   UNL A   1      47.113  30.055  30.772  1.00  0.00     0.031 C 
ATOM     38  C   UNL A   1      46.882  27.764  29.849  1.00  0.00     0.037 A 
BRANCH  25  39
ATOM     39  C   UNL A   1      42.764  23.731  27.606  1.00  0.00     0.058 A 
ATOM     40  C   UNL A   1      42.775  23.431  26.235  1.00  0.00     0.135 A 
ATOM     41  C   UNL A   1      42.531  22.676  28.504  1.00  0.00     0.135 A 
ATOM     42  F   UNL A   1      42.980  24.403  25.332  1.00  0.00    -0.206 F 
ATOM     43  C   UNL A   1      42.531  22.141  25.771  1.00  0.00     0.059 A 
ATOM     44  C   UNL A   1      42.309  21.374  28.063  1.00  0.00     0.059 A 
ATOM     45  F   UNL A   1      42.513  22.905  29.827  1.00  0.00    -0.206 F 
ATOM     46  C   UNL A   1      42.294  21.120  26.693  1.00  0.00     0.060 A 
BRANCH  46  47
ATOM     47  S   UNL A   1      41.961  19.456  26.076  1.00  0.00     0.124 S 
ATOM     48  O   UNL A   1      42.315  18.641  27.234  1.00  0.00    -0.237 OA
ATOM     49  O   UNL A   1      40.538  19.517  25.757  1.00  0.00    -0.237 OA
ATOM     50  O   UNL A   1      42.852  19.335  24.926  1.00  0.00    -0.744 OA
ENDBRANCH  46  47
ENDBRANCH  25  39
BRANCH  26  51
ATOM     51  C   UNL A   1      44.067  32.934  31.278  1.00  0.00     0.058 A 
ATOM     52  C   UNL A   1      44.379  34.004  30.427  1.00  0.00     0.135 A 
ATOM     53  C   UNL A   1      43.911  33.207  32.646  1.00  0.00     0.135 A 
ATOM     54  F   UNL A   1      44.540  33.791  29.112  1.00  0.00    -0.206 F 
ATOM     55  C   UNL A   1      44.538  35.297  30.914  1.00  0.00     0.059 A 
ATOM     56  C   UNL A   1      44.038  34.494  33.152  1.00  0.00     0.059 A 
ATOM     57  F   UNL A   1      43.594  32.218  33.496  1.00  0.00    -0.206 F 
ATOM     58  C   UNL A   1      44.361  35.533  32.279  1.00  0.00     0.060 A 
BRANCH  58  59
ATOM     59  S   UNL A   1      44.510  37.224  32.894  1.00  0.00     0.124 S 
ATOM     60  O   UNL A   1      43.223  37.410  33.552  1.00  0.00    -0.237 OA
ATOM     61  O   UNL A   1      45.672  37.131  33.772  1.00  0.00    -0.237 OA
ATOM     62  O   UNL A   1      44.717  38.004  31.676  1.00  0.00    -0.744 OA
ENDBRANCH  58  59
ENDBRANCH  26  51
BRANCH  38  63
ATOM     63  C   UNL A   1      48.366  27.599  30.011  1.00  0.00     0.058 A 
ATOM     64  C   UNL A   1      49.267  27.972  29.001  1.00  0.00     0.135 A 
ATOM     65  C   UNL A   1      48.893  27.078  31.203  1.00  0.00     0.135 A 
ATOM     66  F   UNL A   1      48.813  28.469  27.840  1.00  0.00    -0.206 F 
ATOM     67  C   UNL A   1      50.639  27.804  29.156  1.00  0.00     0.059 A 
ATOM     68  C   UNL A   1      50.264  26.924  31.389  1.00  0.00     0.059 A 
ATOM     69  F   UNL A   1      48.075  26.715  32.203  1.00  0.00    -0.206 F 
ATOM     70  C   UNL A   1      51.127  27.276  30.353  1.00  0.00     0.060 A 
BRANCH  70  71
ATOM     71  S   UNL A   1      52.910  27.072  30.549  1.00  0.00     0.124 S 
ATOM     72  O   UNL A   1      53.273  26.432  29.288  1.00  0.00    -0.237 OA
ATOM     73  O   UNL A   1      53.368  28.448  30.716  1.00  0.00    -0.237 OA
ATOM     74  O   UNL A   1      53.025  26.231  31.738  1.00  0.00    -0.744 OA
ENDBRANCH  70  71
ENDBRANCH  38  63
ENDBRANCH  12  13
ENDBRANCH   5   7
ENDBRANCH   2   3
ENDBRANCH   1   2
BRANCH   1  75
ATOM     75  C   UNL A   1      33.489  26.891  25.201  1.00  0.00     0.117 C 
BRANCH  75  76
ATOM     76  N   UNL A   1      33.014  25.742  25.939  1.00  0.00    -0.356 N 
ATOM     77  C   UNL A   1      33.509  24.507  26.137  1.00  0.00     0.224 C 
ATOM     78  H   UNL A   1      32.151  25.895  26.387  1.00  0.00     0.163 HD
ATOM     79  O   UNL A   1      32.785  23.770  26.815  1.00  0.00    -0.275 OA
BRANCH  77  80
ATOM     80  C   UNL A   1      34.762  23.967  25.475  1.00  0.00     0.094 C 
ATOM     81  C   UNL A   1      35.976  23.288  26.180  1.00  0.00     0.002 C 
ATOM     82  C   UNL A   1      34.452  23.213  24.163  1.00  0.00     0.094 C 
ATOM     83  C   UNL A   1      35.989  21.749  26.133  1.00  0.00     0.005 C 
ATOM     84  C   UNL A   1      37.216  23.696  25.346  1.00  0.00     0.005 C 
ATOM     85  C   UNL A   1      35.711  22.398  23.745  1.00  0.00     0.002 C 
ATOM     86  C   UNL A   1      35.911  21.223  24.698  1.00  0.00     0.005 C 
ATOM     87  C   UNL A   1      36.976  23.296  23.873  1.00  0.00     0.005 C 
BRANCH  82  88
ATOM     88  C   UNL A   1      33.109  22.474  23.876  1.00  0.00     0.228 C 
ATOM     89  O   UNL A   1      33.030  21.293  24.264  1.00  0.00    -0.274 OA
ATOM     90  N   UNL A   1      31.924  22.984  23.426  1.00  0.00    -0.326 N 
ATOM     91  H   UNL A   1      31.199  22.318  23.417  1.00  0.00     0.169 HD
BRANCH  90  92
ATOM     92  C   UNL A   1      31.515  24.240  22.976  1.00  0.00     0.041 A 
ATOM     93  C   UNL A   1      30.432  24.849  23.608  1.00  0.00     0.027 A 
ATOM     94  C   UNL A   1      32.094  24.891  21.898  1.00  0.00     0.027 A 
ATOM     95  C   UNL A   1      30.168  26.205  23.377  1.00  0.00     0.016 A 
ATOM     96  C   UNL A   1      31.839  26.248  21.659  1.00  0.00     0.016 A 
ATOM     97  C   UNL A   1      30.952  26.948  22.477  1.00  0.00     0.040 A 
BRANCH  97  98
ATOM     98  C   UNL A   1      30.946  28.442  22.656  1.00  0.00     0.253 C 
ATOM     99  O   UNL A   1      32.024  29.035  22.666  1.00  0.00    -0.269 OA
ATOM    100  N   UNL A   1      29.752  29.116  22.452  1.00  0.00    -0.339 N 
ATOM    101  C   UNL A   1      28.588  29.128  23.319  1.00  0.00     0.120 C 
ATOM    102  C   UNL A   1      29.716  30.284  21.585  1.00  0.00     0.120 C 
ATOM    103  C   UNL A   1      27.519  29.718  22.417  1.00  0.00     0.023 C 
ATOM    104  C   UNL A   1      28.281  30.807  21.664  1.00  0.00     0.023 C 
ENDBRANCH  97  98
ENDBRANCH  90  92
ENDBRANCH  82  88
ENDBRANCH  77  80
ENDBRANCH  75  76
ENDBRANCH   1  75
TORSDOF 16
ENDMDL
MODEL 2
REMARK VINA RESULT:     -12.7      0.520      7.977
REMARK SMILES O=C(NCCCNC(=O)[C@H]1[C@H]2CC[C@H](CC2)[C@H]1C(=O)Nc1ccc(C(=O)N2CCCC2)cc1)c1ccc(-c2c3nc(c(-c4c(F)cc(S(=O)(=O)[O-])cc4F)c4ccc([nH]4)c(-c4c(F)cc(S(=O)(=O)[O-])cc4F)c4nc(c(-c5c(F)cc(S(=O)(=O)[O-])cc5F)c5ccc2[nH]5)C=C4)C=C3)cc1
REMARK SMILES IDX 5 1 4 2 3 3 1 4 2 5 34 7 35 8 99 9 36 10 98 11 37 12 38 13
REMARK SMILES IDX 39 14 92 15 40 16 97 17 91 18 93 19 41 20 96 21 90 22 89 23
REMARK SMILES IDX 42 25 76 26 55 27 75 28 56 29 59 30 74 31 94 32 57 33 58 34
REMARK SMILES IDX 73 36 95 37 60 38 43 39 44 40 53 41 45 42 46 43 52 44 54 45
REMARK SMILES IDX 47 46 48 47 49 48 50 49 51 50 77 51 78 52 87 53 79 54 80 55
REMARK SMILES IDX 86 56 88 57 81 58 82 59 83 60 84 61 85 62 61 63 62 64 71 65
REMARK SMILES IDX 63 66 64 67 70 68 72 69 65 70 66 71 67 72 68 73 69 74 6 75
REMARK SMILES IDX 7 76 8 77 9 79 10 80 11 81 17 82 16 83 12 84 14 85 15 86
REMARK SMILES IDX 13 87 18 88 19 89 20 90 21 92 22 93 33 94 23 95 32 96 24 97
REMARK SMILES IDX 25 98 26 99 27 100 28 101 31 102 29 103 30 104
REMARK H PARENT 3 6 93 24 59 35 7 78 20 91
REMARK Flexibility Score: inf
ROOT
ATOM      1  C   UNL A   1      32.927  28.136  25.903  1.00  0.00     0.042 C 
ENDROOT
BRANCH   1   2
ATOM      2  C   UNL A   1      33.477  28.412  27.297  1.00  0.00     0.118 C 
BRANCH   2   3
ATOM      3  N   UNL A   1      33.441  29.814  27.681  1.00  0.00    -0.352 N 
ATOM      4  O   UNL A   1      34.225  31.734  28.573  1.00  0.00    -0.269 OA
ATOM      5  C   UNL A   1      34.459  30.596  28.193  1.00  0.00     0.251 C 
ATOM      6  H   UNL A   1      32.576  30.267  27.562  1.00  0.00     0.163 HD
BRANCH   5   7
ATOM      7  C   UNL A   1      35.819  30.018  28.321  1.00  0.00     0.039 A 
ATOM      8  C   UNL A   1      36.250  29.486  29.538  1.00  0.00     0.014 A 
ATOM      9  C   UNL A   1      36.694  30.083  27.236  1.00  0.00     0.014 A 
ATOM     10  C   UNL A   1      37.601  29.226  29.731  1.00  0.00     0.010 A 
ATOM     11  C   UNL A   1      38.033  29.711  27.404  1.00  0.00     0.010 A 
ATOM     12  C   UNL A   1      38.515  29.339  28.668  1.00  0.00    -0.014 A 
BRANCH  12  13
ATOM     13  C   UNL A   1      39.956  29.054  28.912  1.00  0.00     0.031 A 
ATOM     14  C   UNL A   1      40.849  30.062  29.593  1.00  0.00     0.074 A 
ATOM     15  C   UNL A   1      40.453  27.852  28.558  1.00  0.00     0.049 A 
ATOM     16  N   UNL A   1      42.117  29.962  29.904  1.00  0.00    -0.248 NA
ATOM     17  C   UNL A   1      40.247  31.353  29.965  1.00  0.00     0.031 C 
ATOM     18  C   UNL A   1      39.694  26.793  27.887  1.00  0.00     0.029 A 
ATOM     19  N   UNL A   1      41.697  27.304  28.735  1.00  0.00    -0.354 N 
ATOM     20  C   UNL A   1      42.474  31.182  30.470  1.00  0.00     0.074 A 
ATOM     21  C   UNL A   1      41.291  32.014  30.447  1.00  0.00     0.031 C 
ATOM     22  C   UNL A   1      40.466  25.704  27.768  1.00  0.00     0.029 A 
ATOM     23  C   UNL A   1      41.794  26.007  28.289  1.00  0.00     0.049 A 
ATOM     24  H   UNL A   1      42.449  27.792  29.142  1.00  0.00     0.167 HD
ATOM     25  C   UNL A   1      43.675  31.570  30.968  1.00  0.00     0.037 A 
ATOM     26  C   UNL A   1      42.836  25.154  28.288  1.00  0.00     0.037 A 
ATOM     27  C   UNL A   1      44.840  30.724  31.024  1.00  0.00     0.049 A 
ATOM     28  C   UNL A   1      44.150  25.605  28.856  1.00  0.00     0.074 A 
ATOM     29  C   UNL A   1      46.090  31.013  31.546  1.00  0.00     0.029 A 
ATOM     30  N   UNL A   1      44.901  29.424  30.544  1.00  0.00    -0.354 N 
ATOM     31  N   UNL A   1      44.460  26.757  29.401  1.00  0.00    -0.248 NA
ATOM     32  C   UNL A   1      45.257  24.641  28.806  1.00  0.00     0.031 C 
ATOM     33  C   UNL A   1      46.917  29.901  31.348  1.00  0.00     0.029 A 
ATOM     34  C   UNL A   1      46.171  28.903  30.744  1.00  0.00     0.049 A 
ATOM     35  H   UNL A   1      44.154  28.942  30.123  1.00  0.00     0.167 HD
ATOM     36  C   UNL A   1      45.792  26.649  29.781  1.00  0.00     0.074 A 
ATOM     37  C   UNL A   1      46.224  25.315  29.413  1.00  0.00     0.031 C 
ATOM     38  C   UNL A   1      46.585  27.571  30.381  1.00  0.00     0.037 A 
BRANCH  25  39
ATOM     39  C   UNL A   1      43.800  32.984  31.473  1.00  0.00     0.058 A 
ATOM     40  C   UNL A   1      43.539  33.323  32.810  1.00  0.00     0.135 A 
ATOM     41  C   UNL A   1      44.224  34.009  30.611  1.00  0.00     0.135 A 
ATOM     42  F   UNL A   1      43.119  32.386  33.676  1.00  0.00    -0.206 F 
ATOM     43  C   UNL A   1      43.661  34.633  33.266  1.00  0.00     0.059 A 
ATOM     44  C   UNL A   1      44.376  35.320  31.050  1.00  0.00     0.059 A 
ATOM     45  F   UNL A   1      44.491  33.740  29.323  1.00  0.00    -0.206 F 
ATOM     46  C   UNL A   1      44.075  35.626  32.377  1.00  0.00     0.060 A 
BRANCH  46  47
ATOM     47  S   UNL A   1      44.211  37.324  32.977  1.00  0.00     0.124 S 
ATOM     48  O   UNL A   1      44.045  38.082  31.741  1.00  0.00    -0.237 OA
ATOM     49  O   UNL A   1      43.106  37.412  33.926  1.00  0.00    -0.237 OA
ATOM     50  O   UNL A   1      45.545  37.370  33.568  1.00  0.00    -0.744 OA
ENDBRANCH  46  47
ENDBRANCH  25  39
BRANCH  26  51
ATOM     51  C   UNL A   1      42.664  23.784  27.740  1.00  0.00     0.058 A 
ATOM     52  C   UNL A   1      42.495  22.683  28.593  1.00  0.00     0.135 A 
ATOM     53  C   UNL A   1      42.630  23.553  26.357  1.00  0.00     0.135 A 
ATOM     54  F   UNL A   1      42.522  22.855  29.924  1.00  0.00    -0.206 F 
ATOM     55  C   UNL A   1      42.306  21.399  28.094  1.00  0.00     0.059 A 
ATOM     56  C   UNL A   1      42.417  22.284  25.833  1.00  0.00     0.059 A 
ATOM     57  F   UNL A   1      42.768  24.578  25.501  1.00  0.00    -0.206 F 
ATOM     58  C   UNL A   1      42.265  21.210  26.711  1.00  0.00     0.060 A 
BRANCH  58  59
ATOM     59  S   UNL A   1      41.961  19.550  26.071  1.00  0.00     0.124 S 
ATOM     60  O   UNL A   1      40.523  19.588  25.830  1.00  0.00    -0.237 OA
ATOM     61  O   UNL A   1      42.808  19.518  24.882  1.00  0.00    -0.237 OA
ATOM     62  O   UNL A   1      42.396  18.686  27.165  1.00  0.00    -0.744 OA
ENDBRANCH  58  59
ENDBRANCH  26  51
BRANCH  38  63
ATOM     63  C   UNL A   1      47.987  27.151  30.718  1.00  0.00     0.058 A 
ATOM     64  C   UNL A   1      49.043  27.297  29.805  1.00  0.00     0.135 A 
ATOM     65  C   UNL A   1      48.280  26.610  31.980  1.00  0.00     0.135 A 
ATOM     66  F   UNL A   1      48.814  27.802  28.582  1.00  0.00    -0.206 F 
ATOM     67  C   UNL A   1      50.336  26.894  30.120  1.00  0.00     0.059 A 
ATOM     68  C   UNL A   1      49.570  26.223  32.326  1.00  0.00     0.059 A 
ATOM     69  F   UNL A   1      47.307  26.457  32.893  1.00  0.00    -0.206 F 
ATOM     70  C   UNL A   1      50.589  26.355  31.383  1.00  0.00     0.060 A 
BRANCH  70  71
ATOM     71  S   UNL A   1      52.273  25.845  31.789  1.00  0.00     0.124 S 
ATOM     72  O   UNL A   1      52.975  26.137  30.544  1.00  0.00    -0.237 OA
ATOM     73  O   UNL A   1      52.600  26.709  32.919  1.00  0.00    -0.237 OA
ATOM     74  O   UNL A   1      52.128  24.428  32.113  1.00  0.00    -0.744 OA
ENDBRANCH  70  71
ENDBRANCH  38  63
ENDBRANCH  12  13
ENDBRANCH   5   7
ENDBRANCH   2   3
ENDBRANCH   1   2
BRANCH   1  75
ATOM     75  C   UNL A   1      33.375  26.829  25.268  1.00  0.00     0.117 C 
BRANCH  75  76
ATOM     76  N   UNL A   1      32.938  25.677  26.024  1.00  0.00    -0.356 N 
ATOM     77  C   UNL A   1      33.458  24.452  26.218  1.00  0.00     0.224 C 
ATOM     78  H   UNL A   1      32.083  25.818  26.492  1.00  0.00     0.163 HD
ATOM     79  O   UNL A   1      32.763  23.707  26.919  1.00  0.00    -0.275 OA
BRANCH  77  80
ATOM     80  C   UNL A   1      34.704  23.929  25.531  1.00  0.00     0.094 C 
ATOM     81  C   UNL A   1      35.918  23.218  26.203  1.00  0.00     0.002 C 
ATOM     82  C   UNL A   1      34.382  23.224  24.194  1.00  0.00     0.094 C 
ATOM     83  C   UNL A   1      35.922  21.681  26.101  1.00  0.00     0.005 C 
ATOM     84  C   UNL A   1      37.156  23.648  25.377  1.00  0.00     0.005 C 
ATOM     85  C   UNL A   1      35.634  22.418  23.740  1.00  0.00     0.002 C 
ATOM     86  C   UNL A   1      35.832  21.208  24.649  1.00  0.00     0.005 C 
ATOM     87  C   UNL A   1      36.905  23.303  23.892  1.00  0.00     0.005 C 
BRANCH  82  88
ATOM     88  C   UNL A   1      33.033  22.504  23.889  1.00  0.00     0.228 C 
ATOM     89  O   UNL A   1      32.933  21.323  24.275  1.00  0.00    -0.274 OA
ATOM     90  N   UNL A   1      31.861  23.030  23.424  1.00  0.00    -0.326 N 
ATOM     91  H   UNL A   1      31.128  22.373  23.405  1.00  0.00     0.169 HD
BRANCH  90  92
ATOM     92  C   UNL A   1      31.475  24.292  22.971  1.00  0.00     0.041 A 
ATOM     93  C   UNL A   1      30.405  24.923  23.603  1.00  0.00     0.027 A 
ATOM     94  C   UNL A   1      32.063  24.928  21.888  1.00  0.00     0.027 A 
ATOM     95  C   UNL A   1      30.167  26.284  23.367  1.00  0.00     0.016 A 
ATOM     96  C   UNL A   1      31.833  26.288  21.645  1.00  0.00     0.016 A 
ATOM     97  C   UNL A   1      30.963  27.008  22.463  1.00  0.00     0.040 A 
BRANCH  97  98
ATOM     98  C   UNL A   1      30.985  28.502  22.635  1.00  0.00     0.253 C 
ATOM     99  O   UNL A   1      32.072  29.078  22.613  1.00  0.00    -0.269 OA
ATOM    100  N   UNL A   1      29.796  29.195  22.463  1.00  0.00    -0.339 N 
ATOM    101  C   UNL A   1      28.658  29.228  23.361  1.00  0.00     0.120 C 
ATOM    102  C   UNL A   1      29.755  30.360  21.592  1.00  0.00     0.120 C 
ATOM    103  C   UNL A   1      27.574  29.833  22.488  1.00  0.00     0.023 C 
ATOM    104  C   UNL A   1      28.331  30.907  21.710  1.00  0.00     0.023 C 
ENDBRANCH  97  98
ENDBRANCH  90  92
ENDBRANCH  82  88
ENDBRANCH  77  80
ENDBRANCH  75  76
ENDBRANCH   1  75
TORSDOF 16
ENDMDL
MODEL 3
REMARK VINA RESULT:     -12.5      3.194      9.418
REMARK SMILES O=C(NCCCNC(=O)[C@H]1[C@H]2CC[C@H](CC2)[C@H]1C(=O)Nc1ccc(C(=O)N2CCCC2)cc1)c1ccc(-c2c3nc(c(-c4c(F)cc(S(=O)(=O)[O-])cc4F)c4ccc([nH]4)c(-c4c(F)cc(S(=O)(=O)[O-])cc4F)c4nc(c(-c5c(F)cc(S(=O)(=O)[O-])cc5F)c5ccc2[nH]5)C=C4)C=C3)cc1
REMARK SMILES IDX 5 1 4 2 3 3 1 4 2 5 34 7 35 8 99 9 36 10 98 11 37 12 38 13
REMARK SMILES IDX 39 14 92 15 40 16 97 17 91 18 93 19 41 20 96 21 90 22 89 23
REMARK SMILES IDX 42 25 76 26 55 27 75 28 56 29 59 30 74 31 94 32 57 33 58 34
REMARK SMILES IDX 73 36 95 37 60 38 43 39 44 40 53 41 45 42 46 43 52 44 54 45
REMARK SMILES IDX 47 46 48 47 49 48 50 49 51 50 77 51 78 52 87 53 79 54 80 55
REMARK SMILES IDX 86 56 88 57 81 58 82 59 83 60 84 61 85 62 61 63 62 64 71 65
REMARK SMILES IDX 63 66 64 67 70 68 72 69 65 70 66 71 67 72 68 73 69 74 6 75
REMARK SMILES IDX 7 76 8 77 9 79 10 80 11 81 17 82 16 83 12 84 14 85 15 86
REMARK SMILES IDX 13 87 18 88 19 89 20 90 21 92 22 93 33 94 23 95 32 96 24 97
REMARK SMILES IDX 25 98 26 99 27 100 28 101 31 102 29 103 30 104
REMARK H PARENT 3 6 93 24 59 35 7 78 20 91
REMARK Flexibility Score: inf
ROOT
ATOM      1  C   UNL A   1      35.735  23.129  25.695  1.00  0.00     0.042 C 
ENDROOT
BRANCH   1   2
ATOM      2  C   UNL A   1      37.055  23.740  25.244  1.00  0.00     0.118 C 
BRANCH   2   3
ATOM      3  N   UNL A   1      38.206  22.872  25.436  1.00  0.00    -0.352 N 
ATOM      4  O   UNL A   1      40.296  22.323  26.089  1.00  0.00    -0.269 OA
ATOM      5  C   UNL A   1      39.377  23.128  26.124  1.00  0.00     0.251 C 
ATOM      6  H   UNL A   1      38.144  21.982  25.020  1.00  0.00     0.163 HD
BRANCH   5   7
ATOM      7  C   UNL A   1      39.518  24.409  26.857  1.00  0.00     0.039 A 
ATOM      8  C   UNL A   1      40.239  25.467  26.300  1.00  0.00     0.014 A 
ATOM      9  C   UNL A   1      38.990  24.523  28.145  1.00  0.00     0.014 A 
ATOM     10  C   UNL A   1      40.616  26.537  27.103  1.00  0.00     0.010 A 
ATOM     11  C   UNL A   1      39.279  25.656  28.913  1.00  0.00     0.010 A 
ATOM     12  C   UNL A   1      40.145  26.646  28.424  1.00  0.00    -0.014 A 
BRANCH  12  13
ATOM     13  C   UNL A   1      40.571  27.805  29.257  1.00  0.00     0.031 A 
ATOM     14  C   UNL A   1      39.655  28.982  29.487  1.00  0.00     0.074 A 
ATOM     15  C   UNL A   1      41.780  27.771  29.852  1.00  0.00     0.049 A 
ATOM     16  N   UNL A   1      39.860  30.057  30.206  1.00  0.00    -0.248 NA
ATOM     17  C   UNL A   1      38.344  28.956  28.819  1.00  0.00     0.031 C 
ATOM     18  C   UNL A   1      42.761  26.693  29.703  1.00  0.00     0.029 A 
ATOM     19  N   UNL A   1      42.381  28.646  30.720  1.00  0.00    -0.354 N 
ATOM     20  C   UNL A   1      38.728  30.850  30.047  1.00  0.00     0.074 A 
ATOM     21  C   UNL A   1      37.843  30.139  29.151  1.00  0.00     0.031 C 
ATOM     22  C   UNL A   1      43.809  26.937  30.502  1.00  0.00     0.029 A 
ATOM     23  C   UNL A   1      43.610  28.220  31.166  1.00  0.00     0.049 A 
ATOM     24  H   UNL A   1      41.972  29.498  30.997  1.00  0.00     0.167 HD
ATOM     25  C   UNL A   1      38.450  32.057  30.601  1.00  0.00     0.037 A 
ATOM     26  C   UNL A   1      44.487  28.798  32.008  1.00  0.00     0.037 A 
ATOM     27  C   UNL A   1      39.318  32.744  31.524  1.00  0.00     0.049 A 
ATOM     28  C   UNL A   1      44.149  30.127  32.617  1.00  0.00     0.074 A 
ATOM     29  C   UNL A   1      39.107  33.951  32.170  1.00  0.00     0.029 A 
ATOM     30  N   UNL A   1      40.562  32.287  31.934  1.00  0.00    -0.354 N 
ATOM     31  N   UNL A   1      43.066  30.851  32.465  1.00  0.00    -0.248 NA
ATOM     32  C   UNL A   1      45.154  30.721  33.508  1.00  0.00     0.031 C 
ATOM     33  C   UNL A   1      40.238  34.240  32.941  1.00  0.00     0.029 A 
ATOM     34  C   UNL A   1      41.135  33.194  32.812  1.00  0.00     0.049 A 
ATOM     35  H   UNL A   1      40.977  31.443  31.644  1.00  0.00     0.167 HD
ATOM     36  C   UNL A   1      43.249  31.975  33.262  1.00  0.00     0.074 A 
ATOM     37  C   UNL A   1      44.541  31.829  33.900  1.00  0.00     0.031 C 
ATOM     38  C   UNL A   1      42.419  33.032  33.448  1.00  0.00     0.037 A 
BRANCH  25  39
ATOM     39  C   UNL A   1      37.160  32.728  30.208  1.00  0.00     0.058 A 
ATOM     40  C   UNL A   1      35.962  32.504  30.903  1.00  0.00     0.135 A 
ATOM     41  C   UNL A   1      37.134  33.638  29.138  1.00  0.00     0.135 A 
ATOM     42  F   UNL A   1      35.925  31.635  31.926  1.00  0.00    -0.206 F 
ATOM     43  C   UNL A   1      34.776  33.133  30.531  1.00  0.00     0.059 A 
ATOM     44  C   UNL A   1      35.966  34.297  28.765  1.00  0.00     0.059 A 
ATOM     45  F   UNL A   1      38.252  33.894  28.440  1.00  0.00    -0.206 F 
ATOM     46  C   UNL A   1      34.787  34.023  29.457  1.00  0.00     0.060 A 
BRANCH  46  47
ATOM     47  S   UNL A   1      33.238  34.818  28.974  1.00  0.00     0.124 S 
ATOM     48  O   UNL A   1      32.538  34.889  30.253  1.00  0.00    -0.237 OA
ATOM     49  O   UNL A   1      33.695  36.093  28.432  1.00  0.00    -0.237 OA
ATOM     50  O   UNL A   1      32.671  33.892  27.997  1.00  0.00    -0.744 OA
ENDBRANCH  46  47
ENDBRANCH  25  39
BRANCH  26  51
ATOM     51  C   UNL A   1      45.762  28.106  32.329  1.00  0.00     0.058 A 
ATOM     52  C   UNL A   1      45.845  27.212  33.406  1.00  0.00     0.135 A 
ATOM     53  C   UNL A   1      46.911  28.298  31.546  1.00  0.00     0.135 A 
ATOM     54  F   UNL A   1      44.773  26.998  34.185  1.00  0.00    -0.206 F 
ATOM     55  C   UNL A   1      47.025  26.538  33.702  1.00  0.00     0.059 A 
ATOM     56  C   UNL A   1      48.094  27.616  31.805  1.00  0.00     0.059 A 
ATOM     57  F   UNL A   1      46.875  29.129  30.493  1.00  0.00    -0.206 F 
ATOM     58  C   UNL A   1      48.143  26.744  32.892  1.00  0.00     0.060 A 
BRANCH  58  59
ATOM     59  S   UNL A   1      49.654  25.820  33.247  1.00  0.00     0.124 S 
ATOM     60  O   UNL A   1      50.358  25.911  31.974  1.00  0.00    -0.237 OA
ATOM     61  O   UNL A   1      50.228  26.582  34.352  1.00  0.00    -0.237 OA
ATOM     62  O   UNL A   1      49.157  24.494  33.602  1.00  0.00    -0.744 OA
ENDBRANCH  58  59
ENDBRANCH  26  51
BRANCH  38  63
ATOM     63  C   UNL A   1      42.868  34.090  34.414  1.00  0.00     0.058 A 
ATOM     64  C   UNL A   1      43.655  35.179  34.007  1.00  0.00     0.135 A 
ATOM     65  C   UNL A   1      42.488  34.022  35.764  1.00  0.00     0.135 A 
ATOM     66  F   UNL A   1      44.050  35.286  32.729  1.00  0.00    -0.206 F 
ATOM     67  C   UNL A   1      44.076  36.148  34.912  1.00  0.00     0.059 A 
ATOM     68  C   UNL A   1      42.877  34.993  36.681  1.00  0.00     0.059 A 
ATOM     69  F   UNL A   1      41.728  33.006  36.202  1.00  0.00    -0.206 F 
ATOM     70  C   UNL A   1      43.684  36.044  36.248  1.00  0.00     0.060 A 
BRANCH  70  71
ATOM     71  S   UNL A   1      44.225  37.312  37.414  1.00  0.00     0.124 S 
ATOM     72  O   UNL A   1      43.182  37.237  38.433  1.00  0.00    -0.237 OA
ATOM     73  O   UNL A   1      45.541  36.829  37.817  1.00  0.00    -0.237 OA
ATOM     74  O   UNL A   1      44.230  38.530  36.608  1.00  0.00    -0.744 OA
ENDBRANCH  70  71
ENDBRANCH  38  63
ENDBRANCH  12  13
ENDBRANCH   5   7
ENDBRANCH   2   3
ENDBRANCH   1   2
BRANCH   1  75
ATOM     75  C   UNL A   1      34.561  24.093  25.777  1.00  0.00     0.117 C 
BRANCH  75  76
ATOM     76  N   UNL A   1      34.416  24.879  24.573  1.00  0.00    -0.356 N 
ATOM     77  C   UNL A   1      33.988  26.134  24.340  1.00  0.00     0.224 C 
ATOM     78  H   UNL A   1      34.682  24.398  23.757  1.00  0.00     0.163 HD
ATOM     79  O   UNL A   1      33.973  26.453  23.146  1.00  0.00    -0.275 OA
BRANCH  77  80
ATOM     80  C   UNL A   1      33.415  27.057  25.397  1.00  0.00     0.094 C 
ATOM     81  C   UNL A   1      33.858  28.520  25.703  1.00  0.00     0.002 C 
ATOM     82  C   UNL A   1      31.875  26.967  25.479  1.00  0.00     0.094 C 
ATOM     83  C   UNL A   1      32.969  29.620  25.092  1.00  0.00     0.005 C 
ATOM     84  C   UNL A   1      33.668  28.696  27.231  1.00  0.00     0.005 C 
ATOM     85  C   UNL A   1      31.346  28.174  26.307  1.00  0.00     0.002 C 
ATOM     86  C   UNL A   1      31.505  29.464  25.507  1.00  0.00     0.005 C 
ATOM     87  C   UNL A   1      32.209  28.338  27.593  1.00  0.00     0.005 C 
BRANCH  82  88
ATOM     88  C   UNL A   1      30.956  26.587  24.277  1.00  0.00     0.228 C 
ATOM     89  O   UNL A   1      30.591  27.522  23.539  1.00  0.00    -0.274 OA
ATOM     90  N   UNL A   1      30.638  25.350  23.793  1.00  0.00    -0.326 N 
ATOM     91  H   UNL A   1      30.110  25.388  22.963  1.00  0.00     0.169 HD
BRANCH  90  92
ATOM     92  C   UNL A   1      30.896  24.045  24.215  1.00  0.00     0.041 A 
ATOM     93  C   UNL A   1      31.457  23.153  23.303  1.00  0.00     0.027 A 
ATOM     94  C   UNL A   1      30.573  23.573  25.478  1.00  0.00     0.027 A 
ATOM     95  C   UNL A   1      31.981  21.935  23.758  1.00  0.00     0.016 A 
ATOM     96  C   UNL A   1      31.093  22.358  25.944  1.00  0.00     0.016 A 
ATOM     97  C   UNL A   1      31.902  21.581  25.116  1.00  0.00     0.040 A 
BRANCH  97  98
ATOM     98  C   UNL A   1      32.890  20.554  25.600  1.00  0.00     0.253 C 
ATOM     99  O   UNL A   1      33.458  20.748  26.674  1.00  0.00    -0.269 OA
ATOM    100  N   UNL A   1      32.861  19.298  25.014  1.00  0.00    -0.339 N 
ATOM    101  C   UNL A   1      33.317  18.935  23.685  1.00  0.00     0.120 C 
ATOM    102  C   UNL A   1      32.825  18.108  25.850  1.00  0.00     0.120 C 
ATOM    103  C   UNL A   1      32.712  17.555  23.500  1.00  0.00     0.023 C 
ATOM    104  C   UNL A   1      32.887  16.926  24.881  1.00  0.00     0.023 C 
ENDBRANCH  97  98
ENDBRANCH  90  92
ENDBRANCH  82  88
ENDBRANCH  77  80
ENDBRANCH  75  76
ENDBRANCH   1  75
TORSDOF 16
ENDMDL
