MODEL 1
REMARK VINA RESULT:     -15.5      0.000      0.000
REMARK SMILES Cc1cccc(-c2ncc(C[NH+]3CCC4(CC3)NC(=O)C[C@H]4C(=O)NCCCNC(=O)c3ccc(-c4c5nc(c(-c6c(F)cc(S(=O)(=O)[O-])cc6F)c6ccc([nH]6)c(-c6c(F)cc(S(=O)(=O)[O-])cc6F)c6nc(c(-c7c(F)cc(S(=O)(=O)[O-])cc7F)c7ccc4[nH]7)C=C6)C=C5)cc3)cn2)c1
REMARK SMILES IDX 27 1 26 2 25 3 23 4 24 5 22 7 12 8 13 9 17 10 14 12 16 13
REMARK SMILES IDX 15 14 18 15 19 16 21 18 20 19 11 20 10 21 7 22 8 23 99 24
REMARK SMILES IDX 9 25 98 26 6 27 1 28 2 29 3 30 100 31 4 32 5 33 28 34 29 35
REMARK SMILES IDX 30 36 31 38 32 39 33 40 97 41 34 42 96 43 35 44 36 45 37 46
REMARK SMILES IDX 90 47 38 48 95 49 89 50 91 51 39 52 94 53 88 54 87 55 40 57
REMARK SMILES IDX 74 58 53 59 73 60 54 61 57 62 72 63 92 64 55 65 56 66 71 68
REMARK SMILES IDX 93 69 58 70 41 71 42 72 51 73 43 74 44 75 50 76 52 77 45 78
REMARK SMILES IDX 46 79 47 80 48 81 49 82 75 83 76 84 85 85 77 86 78 87 84 88
REMARK SMILES IDX 86 89 79 90 80 91 81 92 82 93 83 94 59 95 60 96 69 97 61 98
REMARK SMILES IDX 62 99 68 100 70 101 63 102 64 103 65 104 66 105 67 106
REMARK H PARENT 25 6 12 11 18 17 29 37 91 56 57 67
REMARK Flexibility Score: inf
ROOT
ATOM      1  C   UNL A   1      33.510  30.613  27.641  1.00  0.00     0.042 C 
ENDROOT
BRANCH   1   2
ATOM      2  C   UNL A   1      32.470  30.429  26.539  1.00  0.00     0.117 C 
BRANCH   2   3
ATOM      3  N   UNL A   1      31.746  29.151  26.539  1.00  0.00    -0.356 N 
ATOM      4  C   UNL A   1      31.490  28.187  25.609  1.00  0.00     0.226 C 
ATOM      5  O   UNL A   1      30.924  27.163  26.015  1.00  0.00    -0.275 OA
ATOM      6  H   UNL A   1      31.355  28.940  27.418  1.00  0.00     0.163 HD
BRANCH   4   7
ATOM      7  C   UNL A   1      31.762  28.297  24.097  1.00  0.00     0.114 C 
ATOM      8  N   UNL A   1      33.426  24.656  22.930  1.00  0.00    -0.331 N 
ATOM      9  C   UNL A   1      33.634  25.835  22.102  1.00  0.00     0.264 C 
ATOM     10  C   UNL A   1      32.934  25.040  24.240  1.00  0.00     0.264 C 
ATOM     11  H   UNL A   1      34.364  24.268  23.028  1.00  0.00     0.348 HD
ATOM     12  C   UNL A   1      32.475  26.837  22.015  1.00  0.00     0.091 C 
ATOM     13  C   UNL A   1      31.598  25.751  24.151  1.00  0.00     0.091 C 
ATOM     14  C   UNL A   1      31.564  27.005  23.273  1.00  0.00     0.063 C 
ATOM     15  N   UNL A   1      30.245  27.257  22.706  1.00  0.00    -0.349 N 
ATOM     16  C   UNL A   1      29.905  28.592  22.633  1.00  0.00     0.221 C 
ATOM     17  H   UNL A   1      29.649  26.536  22.402  1.00  0.00     0.164 HD
ATOM     18  C   UNL A   1      30.898  29.377  23.444  1.00  0.00     0.116 C 
ATOM     19  O   UNL A   1      28.976  29.046  22.006  1.00  0.00    -0.275 OA
BRANCH   8  20
ATOM     20  C   UNL A   1      32.843  23.432  22.346  1.00  0.00     0.302 C 
BRANCH  20  21
ATOM     21  C   UNL A   1      32.881  22.169  23.164  1.00  0.00     0.043 A 
ATOM     22  C   UNL A   1      33.335  19.706  24.245  1.00  0.00     0.159 A 
ATOM     23  N   UNL A   1      34.141  20.721  24.617  1.00  0.00    -0.236 NA
ATOM     24  N   UNL A   1      32.248  19.853  23.461  1.00  0.00    -0.236 NA
ATOM     25  C   UNL A   1      33.861  21.936  24.102  1.00  0.00     0.124 A 
ATOM     26  C   UNL A   1      32.045  21.086  22.938  1.00  0.00     0.124 A 
BRANCH  22  27
ATOM     27  C   UNL A   1      33.749  18.348  24.627  1.00  0.00     0.019 A 
ATOM     28  C   UNL A   1      32.156  15.107  25.933  1.00  0.00     0.044 C 
ATOM     29  C   UNL A   1      33.176  16.085  25.426  1.00  0.00    -0.050 A 
ATOM     30  C   UNL A   1      34.522  15.729  25.364  1.00  0.00     0.003 A 
ATOM     31  C   UNL A   1      32.805  17.379  25.031  1.00  0.00     0.015 A 
ATOM     32  C   UNL A   1      35.476  16.663  24.957  1.00  0.00     0.001 A 
ATOM     33  C   UNL A   1      35.095  17.965  24.611  1.00  0.00     0.012 A 
ENDBRANCH  22  27
ENDBRANCH  20  21
ENDBRANCH   8  20
ENDBRANCH   4   7
ENDBRANCH   2   3
ENDBRANCH   1   2
BRANCH   1  34
ATOM     34  C   UNL A   1      34.872  29.982  27.384  1.00  0.00     0.118 C 
BRANCH  34  35
ATOM     35  N   UNL A   1      35.929  30.967  27.622  1.00  0.00    -0.352 N 
ATOM     36  C   UNL A   1      37.142  30.843  28.272  1.00  0.00     0.251 C 
ATOM     37  H   UNL A   1      35.745  31.864  27.261  1.00  0.00     0.163 HD
ATOM     38  O   UNL A   1      37.756  31.775  28.773  1.00  0.00    -0.269 OA
BRANCH  36  39
ATOM     39  C   UNL A   1      37.782  29.527  28.159  1.00  0.00     0.039 A 
ATOM     40  C   UNL A   1      37.739  28.750  29.329  1.00  0.00     0.014 A 
ATOM     41  C   UNL A   1      38.772  29.385  27.200  1.00  0.00     0.014 A 
ATOM     42  C   UNL A   1      38.851  28.009  29.676  1.00  0.00     0.010 A 
ATOM     43  C   UNL A   1      39.923  28.764  27.606  1.00  0.00     0.010 A 
ATOM     44  C   UNL A   1      39.965  28.132  28.861  1.00  0.00    -0.014 A 
BRANCH  44  45
ATOM     45  C   UNL A   1      41.244  27.541  29.162  1.00  0.00     0.031 A 
ATOM     46  C   UNL A   1      41.392  26.134  28.769  1.00  0.00     0.074 A 
ATOM     47  C   UNL A   1      42.245  28.353  29.560  1.00  0.00     0.049 A 
ATOM     48  N   UNL A   1      42.327  25.359  29.169  1.00  0.00    -0.248 NA
ATOM     49  C   UNL A   1      40.432  25.461  27.890  1.00  0.00     0.031 C 
ATOM     50  C   UNL A   1      43.680  28.100  29.558  1.00  0.00     0.029 A 
ATOM     51  N   UNL A   1      42.113  29.565  30.252  1.00  0.00    -0.354 N 
ATOM     52  C   UNL A   1      42.301  24.237  28.365  1.00  0.00     0.074 A 
ATOM     53  C   UNL A   1      41.047  24.301  27.662  1.00  0.00     0.031 C 
ATOM     54  C   UNL A   1      44.268  28.928  30.441  1.00  0.00     0.029 A 
ATOM     55  C   UNL A   1      43.203  29.628  31.142  1.00  0.00     0.049 A 
ATOM     56  H   UNL A   1      41.403  30.237  30.138  1.00  0.00     0.167 HD
ATOM     57  C   UNL A   1      43.439  23.497  28.280  1.00  0.00     0.037 A 
ATOM     58  C   UNL A   1      42.976  29.531  32.488  1.00  0.00     0.037 A 
ATOM     59  C   UNL A   1      44.425  24.028  29.222  1.00  0.00     0.049 A 
ATOM     60  C   UNL A   1      43.562  28.263  33.072  1.00  0.00     0.074 A 
ATOM     61  C   UNL A   1      45.460  24.937  29.069  1.00  0.00     0.029 A 
ATOM     62  N   UNL A   1      44.144  23.978  30.583  1.00  0.00    -0.354 N 
ATOM     63  N   UNL A   1      43.750  27.158  32.396  1.00  0.00    -0.248 NA
ATOM     64  C   UNL A   1      44.077  28.178  34.435  1.00  0.00     0.031 C 
ATOM     65  C   UNL A   1      45.756  25.481  30.346  1.00  0.00     0.029 A 
ATOM     66  C   UNL A   1      44.910  24.897  31.274  1.00  0.00     0.049 A 
ATOM     67  H   UNL A   1      43.489  23.370  30.998  1.00  0.00     0.167 HD
ATOM     68  C   UNL A   1      44.419  26.248  33.178  1.00  0.00     0.074 A 
ATOM     69  C   UNL A   1      44.603  26.940  34.442  1.00  0.00     0.031 C 
ATOM     70  C   UNL A   1      44.802  25.014  32.723  1.00  0.00     0.037 A 
BRANCH  57  71
ATOM     71  C   UNL A   1      43.769  22.529  27.164  1.00  0.00     0.058 A 
ATOM     72  C   UNL A   1      42.980  21.370  26.989  1.00  0.00     0.135 A 
ATOM     73  C   UNL A   1      44.849  22.642  26.265  1.00  0.00     0.135 A 
ATOM     74  F   UNL A   1      41.889  21.141  27.732  1.00  0.00    -0.206 F 
ATOM     75  C   UNL A   1      43.270  20.381  26.050  1.00  0.00     0.059 A 
ATOM     76  C   UNL A   1      45.185  21.644  25.340  1.00  0.00     0.059 A 
ATOM     77  F   UNL A   1      45.601  23.745  26.201  1.00  0.00    -0.206 F 
ATOM     78  C   UNL A   1      44.386  20.515  25.239  1.00  0.00     0.060 A 
BRANCH  78  79
ATOM     79  S   UNL A   1      44.737  19.220  24.038  1.00  0.00     0.124 S 
ATOM     80  O   UNL A   1      46.151  18.951  24.283  1.00  0.00    -0.237 OA
ATOM     81  O   UNL A   1      43.810  18.170  24.447  1.00  0.00    -0.237 OA
ATOM     82  O   UNL A   1      44.439  19.853  22.756  1.00  0.00    -0.744 OA
ENDBRANCH  78  79
ENDBRANCH  57  71
BRANCH  58  83
ATOM     83  C   UNL A   1      41.712  30.222  32.897  1.00  0.00     0.058 A 
ATOM     84  C   UNL A   1      40.598  29.403  33.181  1.00  0.00     0.135 A 
ATOM     85  C   UNL A   1      41.715  31.509  33.453  1.00  0.00     0.135 A 
ATOM     86  F   UNL A   1      40.531  28.163  32.666  1.00  0.00    -0.206 F 
ATOM     87  C   UNL A   1      39.624  29.770  34.106  1.00  0.00     0.059 A 
ATOM     88  C   UNL A   1      40.735  31.904  34.376  1.00  0.00     0.059 A 
ATOM     89  F   UNL A   1      42.736  32.345  33.221  1.00  0.00    -0.206 F 
ATOM     90  C   UNL A   1      39.731  31.003  34.740  1.00  0.00     0.060 A 
BRANCH  90  91
ATOM     91  S   UNL A   1      38.641  31.330  36.150  1.00  0.00     0.124 S 
ATOM     92  O   UNL A   1      39.519  32.081  37.039  1.00  0.00    -0.237 OA
ATOM     93  O   UNL A   1      37.559  32.103  35.534  1.00  0.00    -0.237 OA
ATOM     94  O   UNL A   1      38.273  29.995  36.601  1.00  0.00    -0.744 OA
ENDBRANCH  90  91
ENDBRANCH  58  83
BRANCH  70  95
ATOM     95  C   UNL A   1      45.224  23.820  33.567  1.00  0.00     0.058 A 
ATOM     96  C   UNL A   1      46.499  23.657  34.131  1.00  0.00     0.135 A 
ATOM     97  C   UNL A   1      44.271  22.840  33.963  1.00  0.00     0.135 A 
ATOM     98  F   UNL A   1      47.466  24.569  33.970  1.00  0.00    -0.206 F 
ATOM     99  C   UNL A   1      46.831  22.568  34.938  1.00  0.00     0.059 A 
ATOM    100  C   UNL A   1      44.558  21.795  34.836  1.00  0.00     0.059 A 
ATOM    101  F   UNL A   1      43.002  22.860  33.533  1.00  0.00    -0.206 F 
ATOM    102  C   UNL A   1      45.855  21.643  35.288  1.00  0.00     0.060 A 
BRANCH 102 103
ATOM    103  S   UNL A   1      46.284  20.265  36.358  1.00  0.00     0.124 S 
ATOM    104  O   UNL A   1      45.734  20.711  37.635  1.00  0.00    -0.237 OA
ATOM    105  O   UNL A   1      45.589  19.147  35.727  1.00  0.00    -0.237 OA
ATOM    106  O   UNL A   1      47.740  20.213  36.281  1.00  0.00    -0.744 OA
ENDBRANCH 102 103
ENDBRANCH  70  95
ENDBRANCH  44  45
ENDBRANCH  36  39
ENDBRANCH  34  35
ENDBRANCH   1  34
TORSDOF 16
ENDMDL
MODEL 2
REMARK VINA RESULT:     -15.3      2.711      4.055
REMARK SMILES Cc1cccc(-c2ncc(C[NH+]3CCC4(CC3)NC(=O)C[C@H]4C(=O)NCCCNC(=O)c3ccc(-c4c5nc(c(-c6c(F)cc(S(=O)(=O)[O-])cc6F)c6ccc([nH]6)c(-c6c(F)cc(S(=O)(=O)[O-])cc6F)c6nc(c(-c7c(F)cc(S(=O)(=O)[O-])cc7F)c7ccc4[nH]7)C=C6)C=C5)cc3)cn2)c1
REMARK SMILES IDX 27 1 26 2 25 3 23 4 24 5 22 7 12 8 13 9 17 10 14 12 16 13
REMARK SMILES IDX 15 14 18 15 19 16 21 18 20 19 11 20 10 21 7 22 8 23 99 24
REMARK SMILES IDX 9 25 98 26 6 27 1 28 2 29 3 30 100 31 4 32 5 33 28 34 29 35
REMARK SMILES IDX 30 36 31 38 32 39 33 40 97 41 34 42 96 43 35 44 36 45 37 46
REMARK SMILES IDX 90 47 38 48 95 49 89 50 91 51 39 52 94 53 88 54 87 55 40 57
REMARK SMILES IDX 74 58 53 59 73 60 54 61 57 62 72 63 92 64 55 65 56 66 71 68
REMARK SMILES IDX 93 69 58 70 41 71 42 72 51 73 43 74 44 75 50 76 52 77 45 78
REMARK SMILES IDX 46 79 47 80 48 81 49 82 75 83 76 84 85 85 77 86 78 87 84 88
REMARK SMILES IDX 86 89 79 90 80 91 81 92 82 93 83 94 59 95 60 96 69 97 61 98
REMARK SMILES IDX 62 99 68 100 70 101 63 102 64 103 65 104 66 105 67 106
REMARK H PARENT 25 6 12 11 18 17 29 37 91 56 57 67
REMARK Flexibility Score: inf
ROOT
ATOM      1  C   UNL A   1      31.975  30.227  26.620  1.00  0.00     0.042 C 
ENDROOT
BRANCH   1   2
ATOM      2  C   UNL A   1      31.673  29.611  25.256  1.00  0.00     0.117 C 
BRANCH   2   3
ATOM      3  N   UNL A   1      32.812  29.477  24.340  1.00  0.00    -0.356 N 
ATOM      4  C   UNL A   1      33.044  28.793  23.182  1.00  0.00     0.226 C 
ATOM      5  O   UNL A   1      34.121  29.018  22.614  1.00  0.00    -0.275 OA
ATOM      6  H   UNL A   1      33.591  30.005  24.628  1.00  0.00     0.163 HD
BRANCH   4   7
ATOM      7  C   UNL A   1      32.130  27.712  22.574  1.00  0.00     0.114 C 
ATOM      8  N   UNL A   1      34.036  24.060  23.216  1.00  0.00    -0.331 N 
ATOM      9  C   UNL A   1      33.031  24.167  22.168  1.00  0.00     0.264 C 
ATOM     10  C   UNL A   1      34.452  25.379  23.654  1.00  0.00     0.264 C 
ATOM     11  H   UNL A   1      34.818  23.603  22.748  1.00  0.00     0.348 HD
ATOM     12  C   UNL A   1      31.837  25.092  22.442  1.00  0.00     0.091 C 
ATOM     13  C   UNL A   1      33.297  26.168  24.237  1.00  0.00     0.091 C 
ATOM     14  C   UNL A   1      32.086  26.360  23.320  1.00  0.00     0.063 C 
ATOM     15  N   UNL A   1      30.840  26.510  24.060  1.00  0.00    -0.349 N 
ATOM     16  C   UNL A   1      29.957  27.415  23.506  1.00  0.00     0.221 C 
ATOM     17  H   UNL A   1      30.645  26.010  24.884  1.00  0.00     0.164 HD
ATOM     18  C   UNL A   1      30.685  28.198  22.450  1.00  0.00     0.116 C 
ATOM     19  O   UNL A   1      28.793  27.537  23.812  1.00  0.00    -0.275 OA
BRANCH   8  20
ATOM     20  C   UNL A   1      33.902  23.034  24.270  1.00  0.00     0.302 C 
BRANCH  20  21
ATOM     21  C   UNL A   1      35.150  22.582  24.981  1.00  0.00     0.043 A 
ATOM     22  C   UNL A   1      37.684  22.075  25.856  1.00  0.00     0.159 A 
ATOM     23  N   UNL A   1      37.060  23.177  26.320  1.00  0.00    -0.236 NA
ATOM     24  N   UNL A   1      37.095  21.146  25.076  1.00  0.00    -0.236 NA
ATOM     25  C   UNL A   1      35.791  23.375  25.905  1.00  0.00     0.124 A 
ATOM     26  C   UNL A   1      35.837  21.422  24.656  1.00  0.00     0.124 A 
BRANCH  22  27
ATOM     27  C   UNL A   1      39.124  21.957  26.128  1.00  0.00     0.019 A 
ATOM     28  C   UNL A   1      41.837  19.239  26.176  1.00  0.00     0.044 C 
ATOM     29  C   UNL A   1      41.167  20.581  26.259  1.00  0.00    -0.050 A 
ATOM     30  C   UNL A   1      41.893  21.707  26.641  1.00  0.00     0.003 A 
ATOM     31  C   UNL A   1      39.800  20.727  25.981  1.00  0.00     0.015 A 
ATOM     32  C   UNL A   1      41.254  22.939  26.784  1.00  0.00     0.001 A 
ATOM     33  C   UNL A   1      39.879  23.059  26.547  1.00  0.00     0.012 A 
ENDBRANCH  22  27
ENDBRANCH  20  21
ENDBRANCH   8  20
ENDBRANCH   4   7
ENDBRANCH   2   3
ENDBRANCH   1   2
BRANCH   1  34
ATOM     34  C   UNL A   1      33.336  29.892  27.216  1.00  0.00     0.118 C 
BRANCH  34  35
ATOM     35  N   UNL A   1      34.165  31.097  27.269  1.00  0.00    -0.352 N 
ATOM     36  C   UNL A   1      35.331  31.355  27.965  1.00  0.00     0.251 C 
ATOM     37  H   UNL A   1      33.839  31.847  26.720  1.00  0.00     0.163 HD
ATOM     38  O   UNL A   1      35.718  32.472  28.274  1.00  0.00    -0.269 OA
BRANCH  36  39
ATOM     39  C   UNL A   1      36.217  30.199  28.152  1.00  0.00     0.039 A 
ATOM     40  C   UNL A   1      36.200  29.648  29.445  1.00  0.00     0.014 A 
ATOM     41  C   UNL A   1      37.312  30.097  27.308  1.00  0.00     0.014 A 
ATOM     42  C   UNL A   1      37.389  29.225  30.003  1.00  0.00     0.010 A 
ATOM     43  C   UNL A   1      38.510  29.808  27.904  1.00  0.00     0.010 A 
ATOM     44  C   UNL A   1      38.539  29.430  29.257  1.00  0.00    -0.014 A 
BRANCH  44  45
ATOM     45  C   UNL A   1      39.869  29.177  29.752  1.00  0.00     0.031 A 
ATOM     46  C   UNL A   1      40.466  27.906  29.323  1.00  0.00     0.074 A 
ATOM     47  C   UNL A   1      40.524  30.185  30.364  1.00  0.00     0.049 A 
ATOM     48  N   UNL A   1      41.505  27.375  29.846  1.00  0.00    -0.248 NA
ATOM     49  C   UNL A   1      39.885  27.089  28.254  1.00  0.00     0.031 C 
ATOM     50  C   UNL A   1      41.954  30.327  30.606  1.00  0.00     0.029 A 
ATOM     51  N   UNL A   1      39.950  31.244  31.079  1.00  0.00    -0.354 N 
ATOM     52  C   UNL A   1      41.923  26.371  28.995  1.00  0.00     0.074 A 
ATOM     53  C   UNL A   1      40.830  26.165  28.082  1.00  0.00     0.031 C 
ATOM     54  C   UNL A   1      42.138  31.193  31.619  1.00  0.00     0.029 A 
ATOM     55  C   UNL A   1      40.822  31.510  32.153  1.00  0.00     0.049 A 
ATOM     56  H   UNL A   1      39.107  31.709  30.874  1.00  0.00     0.167 HD
ATOM     57  C   UNL A   1      43.222  25.976  29.078  1.00  0.00     0.037 A 
ATOM     58  C   UNL A   1      40.422  31.225  33.430  1.00  0.00     0.037 A 
ATOM     59  C   UNL A   1      43.856  26.657  30.207  1.00  0.00     0.049 A 
ATOM     60  C   UNL A   1      41.241  30.111  34.045  1.00  0.00     0.074 A 
ATOM     61  C   UNL A   1      44.605  27.821  30.287  1.00  0.00     0.029 A 
ATOM     62  N   UNL A   1      43.389  26.402  31.491  1.00  0.00    -0.354 N 
ATOM     63  N   UNL A   1      41.836  29.168  33.360  1.00  0.00    -0.248 NA
ATOM     64  C   UNL A   1      41.536  30.035  35.472  1.00  0.00     0.031 C 
ATOM     65  C   UNL A   1      44.530  28.298  31.621  1.00  0.00     0.029 A 
ATOM     66  C   UNL A   1      43.746  27.421  32.353  1.00  0.00     0.049 A 
ATOM     67  H   UNL A   1      42.875  25.604  31.752  1.00  0.00     0.167 HD
ATOM     68  C   UNL A   1      42.601  28.398  34.203  1.00  0.00     0.074 A 
ATOM     69  C   UNL A   1      42.380  28.988  35.512  1.00  0.00     0.031 C 
ATOM     70  C   UNL A   1      43.382  27.363  33.763  1.00  0.00     0.037 A 
BRANCH  57  71
ATOM     71  C   UNL A   1      43.982  25.245  27.993  1.00  0.00     0.058 A 
ATOM     72  C   UNL A   1      44.069  25.807  26.700  1.00  0.00     0.135 A 
ATOM     73  C   UNL A   1      44.609  23.988  28.127  1.00  0.00     0.135 A 
ATOM     74  F   UNL A   1      43.566  27.018  26.424  1.00  0.00    -0.206 F 
ATOM     75  C   UNL A   1      44.667  25.157  25.621  1.00  0.00     0.059 A 
ATOM     76  C   UNL A   1      45.180  23.297  27.050  1.00  0.00     0.059 A 
ATOM     77  F   UNL A   1      44.745  23.391  29.315  1.00  0.00    -0.206 F 
ATOM     78  C   UNL A   1      45.206  23.893  25.798  1.00  0.00     0.060 A 
BRANCH  78  79
ATOM     79  S   UNL A   1      45.968  23.078  24.385  1.00  0.00     0.124 S 
ATOM     80  O   UNL A   1      44.836  22.920  23.476  1.00  0.00    -0.237 OA
ATOM     81  O   UNL A   1      46.976  24.052  23.981  1.00  0.00    -0.237 OA
ATOM     82  O   UNL A   1      46.489  21.835  24.948  1.00  0.00    -0.744 OA
ENDBRANCH  78  79
ENDBRANCH  57  71
BRANCH  58  83
ATOM     83  C   UNL A   1      38.967  31.509  33.639  1.00  0.00     0.058 A 
ATOM     84  C   UNL A   1      38.599  32.860  33.824  1.00  0.00     0.135 A 
ATOM     85  C   UNL A   1      37.966  30.632  33.198  1.00  0.00     0.135 A 
ATOM     86  F   UNL A   1      39.510  33.748  34.257  1.00  0.00    -0.206 F 
ATOM     87  C   UNL A   1      37.358  33.352  33.429  1.00  0.00     0.059 A 
ATOM     88  C   UNL A   1      36.705  31.105  32.808  1.00  0.00     0.059 A 
ATOM     89  F   UNL A   1      38.240  29.334  33.007  1.00  0.00    -0.206 F 
ATOM     90  C   UNL A   1      36.435  32.474  32.870  1.00  0.00     0.060 A 
BRANCH  90  91
ATOM     91  S   UNL A   1      34.962  33.178  32.085  1.00  0.00     0.124 S 
ATOM     92  O   UNL A   1      35.531  34.276  31.312  1.00  0.00    -0.237 OA
ATOM     93  O   UNL A   1      34.458  32.050  31.299  1.00  0.00    -0.237 OA
ATOM     94  O   UNL A   1      34.134  33.565  33.220  1.00  0.00    -0.744 OA
ENDBRANCH  90  91
ENDBRANCH  58  83
BRANCH  70  95
ATOM     95  C   UNL A   1      43.983  26.250  34.609  1.00  0.00     0.058 A 
ATOM     96  C   UNL A   1      43.252  25.178  35.146  1.00  0.00     0.135 A 
ATOM     97  C   UNL A   1      45.391  26.155  34.787  1.00  0.00     0.135 A 
ATOM     98  F   UNL A   1      41.935  25.046  34.943  1.00  0.00    -0.206 F 
ATOM     99  C   UNL A   1      43.851  24.151  35.879  1.00  0.00     0.059 A 
ATOM    100  C   UNL A   1      46.016  25.096  35.438  1.00  0.00     0.059 A 
ATOM    101  F   UNL A   1      46.237  27.083  34.317  1.00  0.00    -0.206 F 
ATOM    102  C   UNL A   1      45.233  24.116  36.019  1.00  0.00     0.060 A 
BRANCH 102 103
ATOM    103  S   UNL A   1      45.996  22.770  36.932  1.00  0.00     0.124 S 
ATOM    104  O   UNL A   1      47.410  22.994  36.644  1.00  0.00    -0.237 OA
ATOM    105  O   UNL A   1      45.580  23.044  38.304  1.00  0.00    -0.237 OA
ATOM    106  O   UNL A   1      45.410  21.576  36.333  1.00  0.00    -0.744 OA
ENDBRANCH 102 103
ENDBRANCH  70  95
ENDBRANCH  44  45
ENDBRANCH  36  39
ENDBRANCH  34  35
ENDBRANCH   1  34
TORSDOF 16
ENDMDL
MODEL 3
REMARK VINA RESULT:     -14.1      1.784      2.323
REMARK SMILES Cc1cccc(-c2ncc(C[NH+]3CCC4(CC3)NC(=O)C[C@H]4C(=O)NCCCNC(=O)c3ccc(-c4c5nc(c(-c6c(F)cc(S(=O)(=O)[O-])cc6F)c6ccc([nH]6)c(-c6c(F)cc(S(=O)(=O)[O-])cc6F)c6nc(c(-c7c(F)cc(S(=O)(=O)[O-])cc7F)c7ccc4[nH]7)C=C6)C=C5)cc3)cn2)c1
REMARK SMILES IDX 27 1 26 2 25 3 23 4 24 5 22 7 12 8 13 9 17 10 14 12 16 13
REMARK SMILES IDX 15 14 18 15 19 16 21 18 20 19 11 20 10 21 7 22 8 23 99 24
REMARK SMILES IDX 9 25 98 26 6 27 1 28 2 29 3 30 100 31 4 32 5 33 28 34 29 35
REMARK SMILES IDX 30 36 31 38 32 39 33 40 97 41 34 42 96 43 35 44 36 45 37 46
REMARK SMILES IDX 90 47 38 48 95 49 89 50 91 51 39 52 94 53 88 54 87 55 40 57
REMARK SMILES IDX 74 58 53 59 73 60 54 61 57 62 72 63 92 64 55 65 56 66 71 68
REMARK SMILES IDX 93 69 58 70 41 71 42 72 51 73 43 74 44 75 50 76 52 77 45 78
REMARK SMILES IDX 46 79 47 80 48 81 49 82 75 83 76 84 85 85 77 86 78 87 84 88
REMARK SMILES IDX 86 89 79 90 80 91 81 92 82 93 83 94 59 95 60 96 69 97 61 98
REMARK SMILES IDX 62 99 68 100 70 101 63 102 64 103 65 104 66 105 67 106
REMARK H PARENT 25 6 12 11 18 17 29 37 91 56 57 67
REMARK Flexibility Score: inf
ROOT
ATOM      1  C   UNL A   1      33.821  31.881  27.975  1.00  0.00     0.042 C 
ENDROOT
BRANCH   1   2
ATOM      2  C   UNL A   1      34.023  30.447  27.492  1.00  0.00     0.117 C 
BRANCH   2   3
ATOM      3  N   UNL A   1      32.873  29.546  27.638  1.00  0.00    -0.356 N 
ATOM      4  C   UNL A   1      32.146  28.764  26.788  1.00  0.00     0.226 C 
ATOM      5  O   UNL A   1      31.291  28.033  27.306  1.00  0.00    -0.275 OA
ATOM      6  H   UNL A   1      32.551  29.494  28.566  1.00  0.00     0.163 HD
BRANCH   4   7
ATOM      7  C   UNL A   1      32.237  28.775  25.251  1.00  0.00     0.114 C 
ATOM      8  N   UNL A   1      33.306  24.910  24.106  1.00  0.00    -0.331 N 
ATOM      9  C   UNL A   1      33.544  26.018  23.192  1.00  0.00     0.264 C 
ATOM     10  C   UNL A   1      33.031  25.407  25.441  1.00  0.00     0.264 C 
ATOM     11  H   UNL A   1      34.198  24.415  24.113  1.00  0.00     0.348 HD
ATOM     12  C   UNL A   1      32.507  27.150  23.187  1.00  0.00     0.091 C 
ATOM     13  C   UNL A   1      31.786  26.272  25.472  1.00  0.00     0.091 C 
ATOM     14  C   UNL A   1      31.787  27.482  24.533  1.00  0.00     0.063 C 
ATOM     15  N   UNL A   1      30.447  27.868  24.114  1.00  0.00    -0.349 N 
ATOM     16  C   UNL A   1      30.257  29.231  24.006  1.00  0.00     0.221 C 
ATOM     17  H   UNL A   1      29.737  27.214  23.926  1.00  0.00     0.164 HD
ATOM     18  C   UNL A   1      31.429  29.923  24.645  1.00  0.00     0.116 C 
ATOM     19  O   UNL A   1      29.315  29.768  23.469  1.00  0.00    -0.275 OA
BRANCH   8  20
ATOM     20  C   UNL A   1      32.516  23.743  23.668  1.00  0.00     0.302 C 
BRANCH  20  21
ATOM     21  C   UNL A   1      32.819  22.407  24.294  1.00  0.00     0.043 A 
ATOM     22  C   UNL A   1      33.337  19.793  24.877  1.00  0.00     0.159 A 
ATOM     23  N   UNL A   1      34.377  20.593  24.567  1.00  0.00    -0.236 NA
ATOM     24  N   UNL A   1      32.069  20.228  25.029  1.00  0.00    -0.236 NA
ATOM     25  C   UNL A   1      34.094  21.891  24.331  1.00  0.00     0.124 A 
ATOM     26  C   UNL A   1      31.840  21.530  24.734  1.00  0.00     0.124 A 
BRANCH  22  27
ATOM     27  C   UNL A   1      33.597  18.348  24.931  1.00  0.00     0.019 A 
ATOM     28  C   UNL A   1      31.880  15.153  26.195  1.00  0.00     0.044 C 
ATOM     29  C   UNL A   1      32.879  16.069  25.547  1.00  0.00    -0.050 A 
ATOM     30  C   UNL A   1      34.074  15.563  25.042  1.00  0.00     0.003 A 
ATOM     31  C   UNL A   1      32.645  17.450  25.460  1.00  0.00     0.015 A 
ATOM     32  C   UNL A   1      35.030  16.425  24.503  1.00  0.00     0.001 A 
ATOM     33  C   UNL A   1      34.801  17.806  24.465  1.00  0.00     0.012 A 
ENDBRANCH  22  27
ENDBRANCH  20  21
ENDBRANCH   8  20
ENDBRANCH   4   7
ENDBRANCH   2   3
ENDBRANCH   1   2
BRANCH   1  34
ATOM     34  C   UNL A   1      35.056  32.770  27.959  1.00  0.00     0.118 C 
BRANCH  34  35
ATOM     35  N   UNL A   1      35.448  33.102  29.330  1.00  0.00    -0.352 N 
ATOM     36  C   UNL A   1      35.942  32.301  30.341  1.00  0.00     0.251 C 
ATOM     37  H   UNL A   1      35.342  34.051  29.571  1.00  0.00     0.163 HD
ATOM     38  O   UNL A   1      35.854  32.559  31.533  1.00  0.00    -0.269 OA
BRANCH  36  39
ATOM     39  C   UNL A   1      36.784  31.181  29.899  1.00  0.00     0.039 A 
ATOM     40  C   UNL A   1      36.815  30.086  30.779  1.00  0.00     0.014 A 
ATOM     41  C   UNL A   1      37.822  31.475  29.029  1.00  0.00     0.014 A 
ATOM     42  C   UNL A   1      38.014  29.434  30.986  1.00  0.00     0.010 A 
ATOM     43  C   UNL A   1      39.039  30.922  29.332  1.00  0.00     0.010 A 
ATOM     44  C   UNL A   1      39.128  29.950  30.342  1.00  0.00    -0.014 A 
BRANCH  44  45
ATOM     45  C   UNL A   1      40.470  29.476  30.564  1.00  0.00     0.031 A 
ATOM     46  C   UNL A   1      40.779  28.171  29.965  1.00  0.00     0.074 A 
ATOM     47  C   UNL A   1      41.371  30.331  31.090  1.00  0.00     0.049 A 
ATOM     48  N   UNL A   1      41.803  27.460  30.254  1.00  0.00    -0.248 NA
ATOM     49  C   UNL A   1      39.899  27.530  28.985  1.00  0.00     0.031 C 
ATOM     50  C   UNL A   1      42.825  30.251  31.065  1.00  0.00     0.029 A 
ATOM     51  N   UNL A   1      41.102  31.401  31.955  1.00  0.00    -0.354 N 
ATOM     52  C   UNL A   1      41.903  26.477  29.290  1.00  0.00     0.074 A 
ATOM     53  C   UNL A   1      40.645  26.498  28.591  1.00  0.00     0.031 C 
ATOM     54  C   UNL A   1      43.319  31.001  32.067  1.00  0.00     0.029 A 
ATOM     55  C   UNL A   1      42.183  31.456  32.856  1.00  0.00     0.049 A 
ATOM     56  H   UNL A   1      40.317  31.993  31.936  1.00  0.00     0.167 HD
ATOM     57  C   UNL A   1      43.120  25.897  29.106  1.00  0.00     0.037 A 
ATOM     58  C   UNL A   1      41.980  31.132  34.169  1.00  0.00     0.037 A 
ATOM     59  C   UNL A   1      44.043  26.393  30.128  1.00  0.00     0.049 A 
ATOM     60  C   UNL A   1      42.717  29.868  34.562  1.00  0.00     0.074 A 
ATOM     61  C   UNL A   1      44.962  27.430  30.123  1.00  0.00     0.029 A 
ATOM     62  N   UNL A   1      43.781  26.106  31.462  1.00  0.00    -0.354 N 
ATOM     63  N   UNL A   1      43.028  28.908  33.729  1.00  0.00    -0.248 NA
ATOM     64  C   UNL A   1      43.249  29.641  35.901  1.00  0.00     0.031 C 
ATOM     65  C   UNL A   1      45.202  27.807  31.470  1.00  0.00     0.029 A 
ATOM     66  C   UNL A   1      44.438  26.994  32.291  1.00  0.00     0.049 A 
ATOM     67  H   UNL A   1      43.206  25.370  31.774  1.00  0.00     0.167 HD
ATOM     68  C   UNL A   1      43.806  27.975  34.372  1.00  0.00     0.074 A 
ATOM     69  C   UNL A   1      43.917  28.486  35.727  1.00  0.00     0.031 C 
ATOM     70  C   UNL A   1      44.328  26.878  33.740  1.00  0.00     0.037 A 
BRANCH  57  71
ATOM     71  C   UNL A   1      43.553  25.154  27.861  1.00  0.00     0.058 A 
ATOM     72  C   UNL A   1      43.270  23.775  27.736  1.00  0.00     0.135 A 
ATOM     73  C   UNL A   1      44.274  25.703  26.780  1.00  0.00     0.135 A 
ATOM     74  F   UNL A   1      42.551  23.118  28.655  1.00  0.00    -0.206 F 
ATOM     75  C   UNL A   1      43.715  22.996  26.669  1.00  0.00     0.059 A 
ATOM     76  C   UNL A   1      44.766  24.934  25.717  1.00  0.00     0.059 A 
ATOM     77  F   UNL A   1      44.494  27.017  26.674  1.00  0.00    -0.206 F 
ATOM     78  C   UNL A   1      44.478  23.578  25.669  1.00  0.00     0.060 A 
BRANCH  78  79
ATOM     79  S   UNL A   1      45.041  22.545  24.307  1.00  0.00     0.124 S 
ATOM     80  O   UNL A   1      43.844  22.457  23.475  1.00  0.00    -0.237 OA
ATOM     81  O   UNL A   1      46.137  23.338  23.759  1.00  0.00    -0.237 OA
ATOM     82  O   UNL A   1      45.436  21.300  24.961  1.00  0.00    -0.744 OA
ENDBRANCH  78  79
ENDBRANCH  57  71
BRANCH  58  83
ATOM     83  C   UNL A   1      40.647  31.600  34.664  1.00  0.00     0.058 A 
ATOM     84  C   UNL A   1      39.650  30.616  34.843  1.00  0.00     0.135 A 
ATOM     85  C   UNL A   1      40.498  32.796  35.382  1.00  0.00     0.135 A 
ATOM     86  F   UNL A   1      39.730  29.454  34.173  1.00  0.00    -0.206 F 
ATOM     87  C   UNL A   1      38.653  30.736  35.808  1.00  0.00     0.059 A 
ATOM     88  C   UNL A   1      39.492  32.943  36.348  1.00  0.00     0.059 A 
ATOM     89  F   UNL A   1      41.401  33.777  35.257  1.00  0.00    -0.206 F 
ATOM     90  C   UNL A   1      38.616  31.883  36.595  1.00  0.00     0.060 A 
BRANCH  90  91
ATOM     91  S   UNL A   1      37.518  31.887  38.036  1.00  0.00     0.124 S 
ATOM     92  O   UNL A   1      37.043  30.509  38.053  1.00  0.00    -0.237 OA
ATOM     93  O   UNL A   1      38.430  32.252  39.122  1.00  0.00    -0.237 OA
ATOM     94  O   UNL A   1      36.524  32.896  37.693  1.00  0.00    -0.744 OA
ENDBRANCH  90  91
ENDBRANCH  58  83
BRANCH  70  95
ATOM     95  C   UNL A   1      44.895  25.629  34.399  1.00  0.00     0.058 A 
ATOM     96  C   UNL A   1      46.260  25.306  34.448  1.00  0.00     0.135 A 
ATOM     97  C   UNL A   1      44.054  24.762  35.152  1.00  0.00     0.135 A 
ATOM     98  F   UNL A   1      47.195  26.099  33.909  1.00  0.00    -0.206 F 
ATOM     99  C   UNL A   1      46.743  24.172  35.104  1.00  0.00     0.059 A 
ATOM    100  C   UNL A   1      44.525  23.677  35.885  1.00  0.00     0.059 A 
ATOM    101  F   UNL A   1      42.728  24.941  35.230  1.00  0.00    -0.206 F 
ATOM    102  C   UNL A   1      45.869  23.364  35.821  1.00  0.00     0.060 A 
BRANCH 102 103
ATOM    103  S   UNL A   1      46.506  21.927  36.692  1.00  0.00     0.124 S 
ATOM    104  O   UNL A   1      46.223  22.285  38.079  1.00  0.00    -0.237 OA
ATOM    105  O   UNL A   1      45.700  20.842  36.143  1.00  0.00    -0.237 OA
ATOM    106  O   UNL A   1      47.917  21.901  36.321  1.00  0.00    -0.744 OA
ENDBRANCH 102 103
ENDBRANCH  70  95
ENDBRANCH  44  45
ENDBRANCH  36  39
ENDBRANCH  34  35
ENDBRANCH   1  34
TORSDOF 16
ENDMDL
