MODEL 1
REMARK VINA RESULT:     -12.1      0.000      0.000
REMARK SMILES CC[C@@H](C(=O)NCCCNC(=O)c1ccc(-c2c3nc(c(-c4c(F)cc(S(=O)(=O)[O-])cc4F)c4ccc([nH]4)c(-c4c(F)cc(S(=O)(=O)[O-])cc4F)c4nc(c(-c5c(F)cc(S(=O)(=O)[O-])cc5F)c5ccc2[nH]5)C=C4)C=C3)cc1)N1CCN(Cc2cccc(C)c2)C(=O)C1=O
REMARK SMILES IDX 8 1 7 2 6 3 4 4 5 5 3 7 2 8 1 9 79 10 80 11 93 12 81 13
REMARK SMILES IDX 91 14 94 15 82 16 92 17 83 18 84 19 85 20 90 21 86 22 88 23
REMARK SMILES IDX 87 24 89 25 9 26 10 27 11 28 12 30 13 31 14 32 78 33 15 34
REMARK SMILES IDX 77 35 16 36 17 37 18 38 71 39 19 40 76 41 70 42 72 43 20 44
REMARK SMILES IDX 75 45 69 46 68 47 21 49 55 50 34 51 54 52 35 53 38 54 53 55
REMARK SMILES IDX 73 56 36 57 37 58 52 60 74 61 39 62 22 63 23 64 32 65 24 66
REMARK SMILES IDX 25 67 31 68 33 69 26 70 27 71 28 72 29 73 30 74 56 75 57 76
REMARK SMILES IDX 66 77 58 78 59 79 65 80 67 81 60 82 61 83 62 84 63 85 64 86
REMARK SMILES IDX 40 87 41 88 50 89 42 90 43 91 49 92 51 93 44 94 45 95 46 96
REMARK SMILES IDX 47 97 48 98
REMARK H PARENT 6 6 10 29 72 48 38 59
REMARK Flexibility Score: inf
ROOT
ATOM      1  C   UNL A   1      33.853  28.733  27.230  1.00  0.00     0.042 C 
ENDROOT
BRANCH   1   2
ATOM      2  C   UNL A   1      32.983  29.423  26.182  1.00  0.00     0.117 C 
BRANCH   2   3
ATOM      3  N   UNL A   1      33.655  29.461  24.895  1.00  0.00    -0.354 N 
ATOM      4  C   UNL A   1      33.549  28.670  23.788  1.00  0.00     0.242 C 
ATOM      5  O   UNL A   1      34.314  28.947  22.856  1.00  0.00    -0.273 OA
ATOM      6  H   UNL A   1      34.307  30.193  24.804  1.00  0.00     0.163 HD
BRANCH   4   7
ATOM      7  C   UNL A   1      32.458  27.566  23.658  1.00  0.00     0.174 C 
BRANCH   7   8
ATOM      8  C   UNL A   1      31.271  27.703  24.630  1.00  0.00     0.032 C 
ATOM      9  C   UNL A   1      30.039  26.857  24.380  1.00  0.00     0.006 C 
ENDBRANCH   7   8
BRANCH   7  10
ATOM     10  N   UNL A   1      33.153  26.241  23.800  1.00  0.00    -0.321 N 
ATOM     11  C   UNL A   1      33.590  25.828  25.132  1.00  0.00     0.142 C 
ATOM     12  C   UNL A   1      33.158  25.259  22.791  1.00  0.00     0.312 C 
ATOM     13  C   UNL A   1      33.166  24.380  25.410  1.00  0.00     0.142 C 
ATOM     14  C   UNL A   1      33.877  23.918  23.118  1.00  0.00     0.312 C 
ATOM     15  O   UNL A   1      32.630  25.367  21.690  1.00  0.00    -0.263 OA
ATOM     16  N   UNL A   1      33.790  23.491  24.439  1.00  0.00    -0.328 N 
ATOM     17  O   UNL A   1      34.451  23.295  22.230  1.00  0.00    -0.263 OA
BRANCH  16  18
ATOM     18  C   UNL A   1      34.131  22.116  24.783  1.00  0.00     0.155 C 
BRANCH  18  19
ATOM     19  C   UNL A   1      35.598  21.922  25.086  1.00  0.00    -0.028 A 
ATOM     20  C   UNL A   1      36.232  20.702  24.823  1.00  0.00     0.005 A 
ATOM     21  C   UNL A   1      36.358  22.974  25.618  1.00  0.00     0.009 A 
ATOM     22  C   UNL A   1      37.597  20.545  25.081  1.00  0.00     0.001 A 
ATOM     23  C   UNL A   1      37.737  22.852  25.805  1.00  0.00    -0.051 A 
ATOM     24  C   UNL A   1      38.348  21.619  25.558  1.00  0.00     0.003 A 
ATOM     25  C   UNL A   1      38.543  24.031  26.261  1.00  0.00     0.044 C 
ENDBRANCH  18  19
ENDBRANCH  16  18
ENDBRANCH   7  10
ENDBRANCH   4   7
ENDBRANCH   2   3
ENDBRANCH   1   2
BRANCH   1  26
ATOM     26  C   UNL A   1      35.179  29.426  27.501  1.00  0.00     0.118 C 
BRANCH  26  27
ATOM     27  N   UNL A   1      35.168  30.205  28.727  1.00  0.00    -0.352 N 
ATOM     28  C   UNL A   1      36.183  30.450  29.624  1.00  0.00     0.251 C 
ATOM     29  H   UNL A   1      34.303  30.619  28.952  1.00  0.00     0.163 HD
ATOM     30  O   UNL A   1      35.914  30.977  30.700  1.00  0.00    -0.269 OA
BRANCH  28  31
ATOM     31  C   UNL A   1      37.583  30.063  29.317  1.00  0.00     0.039 A 
ATOM     32  C   UNL A   1      38.440  29.724  30.368  1.00  0.00     0.014 A 
ATOM     33  C   UNL A   1      38.068  30.058  28.007  1.00  0.00     0.014 A 
ATOM     34  C   UNL A   1      39.754  29.322  30.100  1.00  0.00     0.010 A 
ATOM     35  C   UNL A   1      39.341  29.564  27.733  1.00  0.00     0.010 A 
ATOM     36  C   UNL A   1      40.207  29.205  28.776  1.00  0.00    -0.014 A 
BRANCH  36  37
ATOM     37  C   UNL A   1      41.592  28.760  28.457  1.00  0.00     0.031 A 
ATOM     38  C   UNL A   1      42.710  29.772  28.417  1.00  0.00     0.074 A 
ATOM     39  C   UNL A   1      41.840  27.469  28.151  1.00  0.00     0.049 A 
ATOM     40  N   UNL A   1      43.954  29.617  28.044  1.00  0.00    -0.248 NA
ATOM     41  C   UNL A   1      42.378  31.147  28.828  1.00  0.00     0.031 C 
ATOM     42  C   UNL A   1      40.843  26.396  28.125  1.00  0.00     0.029 A 
ATOM     43  N   UNL A   1      43.006  26.842  27.788  1.00  0.00    -0.354 N 
ATOM     44  C   UNL A   1      44.547  30.870  28.169  1.00  0.00     0.074 A 
ATOM     45  C   UNL A   1      43.512  31.788  28.587  1.00  0.00     0.031 C 
ATOM     46  C   UNL A   1      41.443  25.244  27.783  1.00  0.00     0.029 A 
ATOM     47  C   UNL A   1      42.855  25.500  27.518  1.00  0.00     0.049 A 
ATOM     48  H   UNL A   1      43.871  27.308  27.726  1.00  0.00     0.167 HD
ATOM     49  C   UNL A   1      45.843  31.218  27.991  1.00  0.00     0.037 A 
ATOM     50  C   UNL A   1      43.749  24.585  27.089  1.00  0.00     0.037 A 
ATOM     51  C   UNL A   1      46.878  30.297  27.601  1.00  0.00     0.049 A 
ATOM     52  C   UNL A   1      45.177  25.011  26.854  1.00  0.00     0.074 A 
ATOM     53  C   UNL A   1      48.225  30.549  27.408  1.00  0.00     0.029 A 
ATOM     54  N   UNL A   1      46.686  28.946  27.360  1.00  0.00    -0.354 N 
ATOM     55  N   UNL A   1      45.724  26.194  27.012  1.00  0.00    -0.248 NA
ATOM     56  C   UNL A   1      46.114  23.977  26.390  1.00  0.00     0.031 C 
ATOM     57  C   UNL A   1      48.840  29.358  27.012  1.00  0.00     0.029 A 
ATOM     58  C   UNL A   1      47.888  28.352  27.014  1.00  0.00     0.049 A 
ATOM     59  H   UNL A   1      45.822  28.477  27.424  1.00  0.00     0.167 HD
ATOM     60  C   UNL A   1      47.072  26.032  26.712  1.00  0.00     0.074 A 
ATOM     61  C   UNL A   1      47.261  24.639  26.371  1.00  0.00     0.031 C 
ATOM     62  C   UNL A   1      48.067  26.954  26.720  1.00  0.00     0.037 A 
BRANCH  49  63
ATOM     63  C   UNL A   1      46.230  32.650  28.247  1.00  0.00     0.058 A 
ATOM     64  C   UNL A   1      46.704  33.064  29.501  1.00  0.00     0.135 A 
ATOM     65  C   UNL A   1      46.198  33.600  27.214  1.00  0.00     0.135 A 
ATOM     66  F   UNL A   1      46.736  32.201  30.531  1.00  0.00    -0.206 F 
ATOM     67  C   UNL A   1      47.121  34.371  29.728  1.00  0.00     0.059 A 
ATOM     68  C   UNL A   1      46.639  34.907  27.409  1.00  0.00     0.059 A 
ATOM     69  F   UNL A   1      45.751  33.260  25.994  1.00  0.00    -0.206 F 
ATOM     70  C   UNL A   1      47.093  35.283  28.672  1.00  0.00     0.060 A 
BRANCH  70  71
ATOM     71  S   UNL A   1      47.679  36.962  28.976  1.00  0.00     0.124 S 
ATOM     72  O   UNL A   1      48.365  36.805  30.255  1.00  0.00    -0.237 OA
ATOM     73  O   UNL A   1      48.539  37.204  27.823  1.00  0.00    -0.237 OA
ATOM     74  O   UNL A   1      46.451  37.751  29.018  1.00  0.00    -0.744 OA
ENDBRANCH  70  71
ENDBRANCH  49  63
BRANCH  50  75
ATOM     75  C   UNL A   1      43.337  23.174  26.844  1.00  0.00     0.058 A 
ATOM     76  C   UNL A   1      43.071  22.302  27.912  1.00  0.00     0.135 A 
ATOM     77  C   UNL A   1      43.256  22.652  25.544  1.00  0.00     0.135 A 
ATOM     78  F   UNL A   1      43.136  22.749  29.175  1.00  0.00    -0.206 F 
ATOM     79  C   UNL A   1      42.792  20.954  27.704  1.00  0.00     0.059 A 
ATOM     80  C   UNL A   1      42.945  21.315  25.308  1.00  0.00     0.059 A 
ATOM     81  F   UNL A   1      43.480  23.444  24.484  1.00  0.00    -0.206 F 
ATOM     82  C   UNL A   1      42.740  20.469  26.396  1.00  0.00     0.060 A 
BRANCH  82  83
ATOM     83  S   UNL A   1      42.396  18.715  26.137  1.00  0.00     0.124 S 
ATOM     84  O   UNL A   1      42.678  18.164  27.457  1.00  0.00    -0.237 OA
ATOM     85  O   UNL A   1      40.993  18.732  25.738  1.00  0.00    -0.237 OA
ATOM     86  O   UNL A   1      43.336  18.342  25.084  1.00  0.00    -0.744 OA
ENDBRANCH  82  83
ENDBRANCH  50  75
BRANCH  62  87
ATOM     87  C   UNL A   1      49.464  26.481  26.427  1.00  0.00     0.058 A 
ATOM     88  C   UNL A   1      50.019  26.548  25.139  1.00  0.00     0.135 A 
ATOM     89  C   UNL A   1      50.283  26.020  27.471  1.00  0.00     0.135 A 
ATOM     90  F   UNL A   1      49.277  26.977  24.105  1.00  0.00    -0.206 F 
ATOM     91  C   UNL A   1      51.331  26.158  24.894  1.00  0.00     0.059 A 
ATOM     92  C   UNL A   1      51.608  25.654  27.253  1.00  0.00     0.059 A 
ATOM     93  F   UNL A   1      49.806  25.947  28.723  1.00  0.00    -0.206 F 
ATOM     94  C   UNL A   1      52.120  25.718  25.959  1.00  0.00     0.060 A 
BRANCH  94  95
ATOM     95  S   UNL A   1      53.836  25.264  25.633  1.00  0.00     0.124 S 
ATOM     96  O   UNL A   1      53.675  24.104  24.763  1.00  0.00    -0.237 OA
ATOM     97  O   UNL A   1      54.360  26.468  24.995  1.00  0.00    -0.237 OA
ATOM     98  O   UNL A   1      54.372  24.983  26.961  1.00  0.00    -0.744 OA
ENDBRANCH  94  95
ENDBRANCH  62  87
ENDBRANCH  36  37
ENDBRANCH  28  31
ENDBRANCH  26  27
ENDBRANCH   1  26
TORSDOF 17
ENDMDL
MODEL 2
REMARK VINA RESULT:     -11.9      6.539     12.216
REMARK SMILES CC[C@@H](C(=O)NCCCNC(=O)c1ccc(-c2c3nc(c(-c4c(F)cc(S(=O)(=O)[O-])cc4F)c4ccc([nH]4)c(-c4c(F)cc(S(=O)(=O)[O-])cc4F)c4nc(c(-c5c(F)cc(S(=O)(=O)[O-])cc5F)c5ccc2[nH]5)C=C4)C=C3)cc1)N1CCN(Cc2cccc(C)c2)C(=O)C1=O
REMARK SMILES IDX 8 1 7 2 6 3 4 4 5 5 3 7 2 8 1 9 79 10 80 11 93 12 81 13
REMARK SMILES IDX 91 14 94 15 82 16 92 17 83 18 84 19 85 20 90 21 86 22 88 23
REMARK SMILES IDX 87 24 89 25 9 26 10 27 11 28 12 30 13 31 14 32 78 33 15 34
REMARK SMILES IDX 77 35 16 36 17 37 18 38 71 39 19 40 76 41 70 42 72 43 20 44
REMARK SMILES IDX 75 45 69 46 68 47 21 49 55 50 34 51 54 52 35 53 38 54 53 55
REMARK SMILES IDX 73 56 36 57 37 58 52 60 74 61 39 62 22 63 23 64 32 65 24 66
REMARK SMILES IDX 25 67 31 68 33 69 26 70 27 71 28 72 29 73 30 74 56 75 57 76
REMARK SMILES IDX 66 77 58 78 59 79 65 80 67 81 60 82 61 83 62 84 63 85 64 86
REMARK SMILES IDX 40 87 41 88 50 89 42 90 43 91 49 92 51 93 44 94 45 95 46 96
REMARK SMILES IDX 47 97 48 98
REMARK H PARENT 6 6 10 29 72 48 38 59
REMARK Flexibility Score: inf
ROOT
ATOM      1  C   UNL A   1      37.257  23.504  25.300  1.00  0.00     0.042 C 
ENDROOT
BRANCH   1   2
ATOM      2  C   UNL A   1      36.434  22.294  25.733  1.00  0.00     0.117 C 
BRANCH   2   3
ATOM      3  N   UNL A   1      35.273  22.125  24.875  1.00  0.00    -0.354 N 
ATOM      4  C   UNL A   1      34.019  22.660  24.922  1.00  0.00     0.242 C 
ATOM      5  O   UNL A   1      33.235  22.267  24.051  1.00  0.00    -0.273 OA
ATOM      6  H   UNL A   1      35.420  21.513  24.118  1.00  0.00     0.163 HD
BRANCH   4   7
ATOM      7  C   UNL A   1      33.632  23.781  25.933  1.00  0.00     0.174 C 
BRANCH   7   8
ATOM      8  C   UNL A   1      32.711  23.333  27.083  1.00  0.00     0.032 C 
ATOM      9  C   UNL A   1      33.128  22.133  27.910  1.00  0.00     0.006 C 
ENDBRANCH   7   8
BRANCH   7  10
ATOM     10  N   UNL A   1      33.033  24.905  25.135  1.00  0.00    -0.321 N 
ATOM     11  C   UNL A   1      31.894  25.624  25.701  1.00  0.00     0.142 C 
ATOM     12  C   UNL A   1      33.668  25.486  24.021  1.00  0.00     0.312 C 
ATOM     13  C   UNL A   1      32.108  27.139  25.590  1.00  0.00     0.142 C 
ATOM     14  C   UNL A   1      32.939  26.679  23.338  1.00  0.00     0.312 C 
ATOM     15  O   UNL A   1      34.750  25.141  23.558  1.00  0.00    -0.263 OA
ATOM     16  N   UNL A   1      32.224  27.517  24.188  1.00  0.00    -0.328 N 
ATOM     17  O   UNL A   1      33.036  26.848  22.127  1.00  0.00    -0.263 OA
BRANCH  16  18
ATOM     18  C   UNL A   1      31.787  28.827  23.719  1.00  0.00     0.155 C 
BRANCH  18  19
ATOM     19  C   UNL A   1      30.297  28.911  23.486  1.00  0.00    -0.028 A 
ATOM     20  C   UNL A   1      29.528  27.752  23.320  1.00  0.00     0.005 A 
ATOM     21  C   UNL A   1      29.652  30.156  23.456  1.00  0.00     0.009 A 
ATOM     22  C   UNL A   1      28.146  27.843  23.135  1.00  0.00     0.001 A 
ATOM     23  C   UNL A   1      28.262  30.252  23.351  1.00  0.00    -0.051 A 
ATOM     24  C   UNL A   1      27.514  29.086  23.163  1.00  0.00     0.003 A 
ATOM     25  C   UNL A   1      27.590  31.589  23.442  1.00  0.00     0.044 C 
ENDBRANCH  18  19
ENDBRANCH  16  18
ENDBRANCH   7  10
ENDBRANCH   4   7
ENDBRANCH   2   3
ENDBRANCH   1   2
BRANCH   1  26
ATOM     26  C   UNL A   1      38.174  24.059  26.380  1.00  0.00     0.118 C 
BRANCH  26  27
ATOM     27  N   UNL A   1      39.582  23.859  26.081  1.00  0.00    -0.352 N 
ATOM     28  C   UNL A   1      40.679  24.586  26.486  1.00  0.00     0.251 C 
ATOM     29  H   UNL A   1      39.781  23.089  25.502  1.00  0.00     0.163 HD
ATOM     30  O   UNL A   1      41.768  24.361  25.964  1.00  0.00    -0.269 OA
BRANCH  28  31
ATOM     31  C   UNL A   1      40.555  25.645  27.518  1.00  0.00     0.039 A 
ATOM     32  C   UNL A   1      39.598  25.501  28.528  1.00  0.00     0.014 A 
ATOM     33  C   UNL A   1      41.353  26.791  27.487  1.00  0.00     0.014 A 
ATOM     34  C   UNL A   1      39.487  26.470  29.532  1.00  0.00     0.010 A 
ATOM     35  C   UNL A   1      41.310  27.704  28.538  1.00  0.00     0.010 A 
ATOM     36  C   UNL A   1      40.367  27.564  29.566  1.00  0.00    -0.014 A 
BRANCH  36  37
ATOM     37  C   UNL A   1      40.289  28.601  30.633  1.00  0.00     0.031 A 
ATOM     38  C   UNL A   1      41.177  28.489  31.848  1.00  0.00     0.074 A 
ATOM     39  C   UNL A   1      39.393  29.605  30.544  1.00  0.00     0.049 A 
ATOM     40  N   UNL A   1      41.181  29.210  32.940  1.00  0.00    -0.248 NA
ATOM     41  C   UNL A   1      42.176  27.406  31.845  1.00  0.00     0.031 C 
ATOM     42  C   UNL A   1      38.456  29.812  29.437  1.00  0.00     0.029 A 
ATOM     43  N   UNL A   1      39.111  30.635  31.407  1.00  0.00    -0.354 N 
ATOM     44  C   UNL A   1      42.174  28.666  33.749  1.00  0.00     0.074 A 
ATOM     45  C   UNL A   1      42.703  27.514  33.055  1.00  0.00     0.031 C 
ATOM     46  C   UNL A   1      37.718  30.908  29.680  1.00  0.00     0.029 A 
ATOM     47  C   UNL A   1      38.092  31.457  30.979  1.00  0.00     0.049 A 
ATOM     48  H   UNL A   1      39.593  30.774  32.254  1.00  0.00     0.167 HD
ATOM     49  C   UNL A   1      42.630  29.107  34.945  1.00  0.00     0.037 A 
ATOM     50  C   UNL A   1      37.513  32.519  31.575  1.00  0.00     0.037 A 
ATOM     51  C   UNL A   1      42.120  30.269  35.623  1.00  0.00     0.049 A 
ATOM     52  C   UNL A   1      38.010  32.961  32.929  1.00  0.00     0.074 A 
ATOM     53  C   UNL A   1      42.526  30.806  36.833  1.00  0.00     0.029 A 
ATOM     54  N   UNL A   1      41.105  31.083  35.145  1.00  0.00    -0.354 N 
ATOM     55  N   UNL A   1      38.973  32.453  33.662  1.00  0.00    -0.248 NA
ATOM     56  C   UNL A   1      37.349  34.126  33.536  1.00  0.00     0.031 C 
ATOM     57  C   UNL A   1      41.730  31.923  37.104  1.00  0.00     0.029 A 
ATOM     58  C   UNL A   1      40.866  32.114  36.038  1.00  0.00     0.049 A 
ATOM     59  H   UNL A   1      40.623  30.947  34.297  1.00  0.00     0.167 HD
ATOM     60  C   UNL A   1      39.061  33.264  34.789  1.00  0.00     0.074 A 
ATOM     61  C   UNL A   1      38.062  34.299  34.639  1.00  0.00     0.031 C 
ATOM     62  C   UNL A   1      39.896  33.163  35.853  1.00  0.00     0.037 A 
BRANCH  49  63
ATOM     63  C   UNL A   1      43.761  28.352  35.589  1.00  0.00     0.058 A 
ATOM     64  C   UNL A   1      43.518  27.303  36.490  1.00  0.00     0.135 A 
ATOM     65  C   UNL A   1      45.096  28.625  35.250  1.00  0.00     0.135 A 
ATOM     66  F   UNL A   1      42.262  27.012  36.866  1.00  0.00    -0.206 F 
ATOM     67  C   UNL A   1      44.556  26.561  37.042  1.00  0.00     0.059 A 
ATOM     68  C   UNL A   1      46.150  27.875  35.766  1.00  0.00     0.059 A 
ATOM     69  F   UNL A   1      45.388  29.618  34.395  1.00  0.00    -0.206 F 
ATOM     70  C   UNL A   1      45.869  26.848  36.667  1.00  0.00     0.060 A 
BRANCH  70  71
ATOM     71  S   UNL A   1      47.198  25.844  37.361  1.00  0.00     0.124 S 
ATOM     72  O   UNL A   1      46.720  25.630  38.724  1.00  0.00    -0.237 OA
ATOM     73  O   UNL A   1      47.183  24.670  36.495  1.00  0.00    -0.237 OA
ATOM     74  O   UNL A   1      48.374  26.700  37.237  1.00  0.00    -0.744 OA
ENDBRANCH  70  71
ENDBRANCH  49  63
BRANCH  50  75
ATOM     75  C   UNL A   1      36.393  33.248  30.914  1.00  0.00     0.058 A 
ATOM     76  C   UNL A   1      36.631  34.111  29.832  1.00  0.00     0.135 A 
ATOM     77  C   UNL A   1      35.074  33.142  31.381  1.00  0.00     0.135 A 
ATOM     78  F   UNL A   1      37.874  34.252  29.347  1.00  0.00    -0.206 F 
ATOM     79  C   UNL A   1      35.615  34.882  29.274  1.00  0.00     0.059 A 
ATOM     80  C   UNL A   1      34.034  33.876  30.817  1.00  0.00     0.059 A 
ATOM     81  F   UNL A   1      34.785  32.316  32.398  1.00  0.00    -0.206 F 
ATOM     82  C   UNL A   1      34.320  34.762  29.780  1.00  0.00     0.060 A 
BRANCH  82  83
ATOM     83  S   UNL A   1      33.012  35.779  29.062  1.00  0.00     0.124 S 
ATOM     84  O   UNL A   1      33.783  36.842  28.429  1.00  0.00    -0.237 OA
ATOM     85  O   UNL A   1      32.354  34.842  28.158  1.00  0.00    -0.237 OA
ATOM     86  O   UNL A   1      32.223  36.178  30.224  1.00  0.00    -0.744 OA
ENDBRANCH  82  83
ENDBRANCH  50  75
BRANCH  62  87
ATOM     87  C   UNL A   1      39.827  34.235  36.904  1.00  0.00     0.058 A 
ATOM     88  C   UNL A   1      40.428  35.491  36.729  1.00  0.00     0.135 A 
ATOM     89  C   UNL A   1      39.084  34.022  38.077  1.00  0.00     0.135 A 
ATOM     90  F   UNL A   1      41.153  35.745  35.628  1.00  0.00    -0.206 F 
ATOM     91  C   UNL A   1      40.310  36.491  37.687  1.00  0.00     0.059 A 
ATOM     92  C   UNL A   1      38.927  35.019  39.035  1.00  0.00     0.059 A 
ATOM     93  F   UNL A   1      38.480  32.842  38.290  1.00  0.00    -0.206 F 
ATOM     94  C   UNL A   1      39.552  36.248  38.835  1.00  0.00     0.060 A 
BRANCH  94  95
ATOM     95  S   UNL A   1      39.365  37.574  40.045  1.00  0.00     0.124 S 
ATOM     96  O   UNL A   1      38.835  36.850  41.196  1.00  0.00    -0.237 OA
ATOM     97  O   UNL A   1      40.732  38.067  40.180  1.00  0.00    -0.237 OA
ATOM     98  O   UNL A   1      38.433  38.495  39.401  1.00  0.00    -0.744 OA
ENDBRANCH  94  95
ENDBRANCH  62  87
ENDBRANCH  36  37
ENDBRANCH  28  31
ENDBRANCH  26  27
ENDBRANCH   1  26
TORSDOF 17
ENDMDL
MODEL 3
REMARK VINA RESULT:     -11.8      2.751      3.575
REMARK SMILES CC[C@@H](C(=O)NCCCNC(=O)c1ccc(-c2c3nc(c(-c4c(F)cc(S(=O)(=O)[O-])cc4F)c4ccc([nH]4)c(-c4c(F)cc(S(=O)(=O)[O-])cc4F)c4nc(c(-c5c(F)cc(S(=O)(=O)[O-])cc5F)c5ccc2[nH]5)C=C4)C=C3)cc1)N1CCN(Cc2cccc(C)c2)C(=O)C1=O
REMARK SMILES IDX 8 1 7 2 6 3 4 4 5 5 3 7 2 8 1 9 79 10 80 11 93 12 81 13
REMARK SMILES IDX 91 14 94 15 82 16 92 17 83 18 84 19 85 20 90 21 86 22 88 23
REMARK SMILES IDX 87 24 89 25 9 26 10 27 11 28 12 30 13 31 14 32 78 33 15 34
REMARK SMILES IDX 77 35 16 36 17 37 18 38 71 39 19 40 76 41 70 42 72 43 20 44
REMARK SMILES IDX 75 45 69 46 68 47 21 49 55 50 34 51 54 52 35 53 38 54 53 55
REMARK SMILES IDX 73 56 36 57 37 58 52 60 74 61 39 62 22 63 23 64 32 65 24 66
REMARK SMILES IDX 25 67 31 68 33 69 26 70 27 71 28 72 29 73 30 74 56 75 57 76
REMARK SMILES IDX 66 77 58 78 59 79 65 80 67 81 60 82 61 83 62 84 63 85 64 86
REMARK SMILES IDX 40 87 41 88 50 89 42 90 43 91 49 92 51 93 44 94 45 95 46 96
REMARK SMILES IDX 47 97 48 98
REMARK H PARENT 6 6 10 29 72 48 38 59
REMARK Flexibility Score: inf
ROOT
ATOM      1  C   UNL A   1      33.997  27.997  25.781  1.00  0.00     0.042 C 
ENDROOT
BRANCH   1   2
ATOM      2  C   UNL A   1      33.268  28.794  24.703  1.00  0.00     0.117 C 
BRANCH   2   3
ATOM      3  N   UNL A   1      33.529  28.241  23.385  1.00  0.00    -0.354 N 
ATOM      4  C   UNL A   1      32.850  27.332  22.626  1.00  0.00     0.242 C 
ATOM      5  O   UNL A   1      33.377  27.034  21.548  1.00  0.00    -0.273 OA
ATOM      6  H   UNL A   1      34.347  28.586  22.960  1.00  0.00     0.163 HD
BRANCH   4   7
ATOM      7  C   UNL A   1      31.446  26.794  23.035  1.00  0.00     0.174 C 
BRANCH   7   8
ATOM      8  C   UNL A   1      30.492  27.846  23.632  1.00  0.00     0.032 C 
ATOM      9  C   UNL A   1      29.586  28.610  22.687  1.00  0.00     0.006 C 
ENDBRANCH   7   8
BRANCH   7  10
ATOM     10  N   UNL A   1      31.673  25.641  23.972  1.00  0.00    -0.321 N 
ATOM     11  C   UNL A   1      32.580  24.576  23.552  1.00  0.00     0.142 C 
ATOM     12  C   UNL A   1      31.292  25.662  25.327  1.00  0.00     0.312 C 
ATOM     13  C   UNL A   1      33.569  24.241  24.676  1.00  0.00     0.142 C 
ATOM     14  C   UNL A   1      31.648  24.408  26.177  1.00  0.00     0.312 C 
ATOM     15  O   UNL A   1      30.722  26.588  25.893  1.00  0.00    -0.263 OA
ATOM     16  N   UNL A   1      32.841  23.772  25.847  1.00  0.00    -0.328 N 
ATOM     17  O   UNL A   1      30.908  24.051  27.089  1.00  0.00    -0.263 OA
BRANCH  16  18
ATOM     18  C   UNL A   1      33.431  22.809  26.769  1.00  0.00     0.155 C 
BRANCH  18  19
ATOM     19  C   UNL A   1      33.976  21.580  26.081  1.00  0.00    -0.028 A 
ATOM     20  C   UNL A   1      33.116  20.589  25.592  1.00  0.00     0.005 A 
ATOM     21  C   UNL A   1      35.357  21.421  25.900  1.00  0.00     0.009 A 
ATOM     22  C   UNL A   1      33.631  19.470  24.931  1.00  0.00     0.001 A 
ATOM     23  C   UNL A   1      35.876  20.347  25.172  1.00  0.00    -0.051 A 
ATOM     24  C   UNL A   1      35.004  19.356  24.711  1.00  0.00     0.003 A 
ATOM     25  C   UNL A   1      37.346  20.266  24.892  1.00  0.00     0.044 C 
ENDBRANCH  18  19
ENDBRANCH  16  18
ENDBRANCH   7  10
ENDBRANCH   4   7
ENDBRANCH   2   3
ENDBRANCH   1   2
BRANCH   1  26
ATOM     26  C   UNL A   1      33.526  28.280  27.200  1.00  0.00     0.118 C 
BRANCH  26  27
ATOM     27  N   UNL A   1      33.433  29.700  27.490  1.00  0.00    -0.352 N 
ATOM     28  C   UNL A   1      34.358  30.543  28.064  1.00  0.00     0.251 C 
ATOM     29  H   UNL A   1      32.581  30.124  27.239  1.00  0.00     0.163 HD
ATOM     30  O   UNL A   1      34.009  31.673  28.397  1.00  0.00    -0.269 OA
BRANCH  28  31
ATOM     31  C   UNL A   1      35.752  30.096  28.307  1.00  0.00     0.039 A 
ATOM     32  C   UNL A   1      36.672  30.141  27.255  1.00  0.00     0.014 A 
ATOM     33  C   UNL A   1      36.155  29.607  29.552  1.00  0.00     0.014 A 
ATOM     34  C   UNL A   1      38.001  29.757  27.470  1.00  0.00     0.010 A 
ATOM     35  C   UNL A   1      37.497  29.321  29.790  1.00  0.00     0.010 A 
ATOM     36  C   UNL A   1      38.435  29.376  28.750  1.00  0.00    -0.014 A 
BRANCH  36  37
ATOM     37  C   UNL A   1      39.847  28.984  29.015  1.00  0.00     0.031 A 
ATOM     38  C   UNL A   1      40.805  29.994  29.596  1.00  0.00     0.074 A 
ATOM     39  C   UNL A   1      40.285  27.750  28.690  1.00  0.00     0.049 A 
ATOM     40  N   UNL A   1      42.096  29.896  29.789  1.00  0.00    -0.248 NA
ATOM     41  C   UNL A   1      40.242  31.297  29.989  1.00  0.00     0.031 C 
ATOM     42  C   UNL A   1      39.468  26.689  28.096  1.00  0.00     0.029 A 
ATOM     43  N   UNL A   1      41.531  27.182  28.798  1.00  0.00    -0.354 N 
ATOM     44  C   UNL A   1      42.495  31.120  30.317  1.00  0.00     0.074 A 
ATOM     45  C   UNL A   1      41.325  31.969  30.351  1.00  0.00     0.031 C 
ATOM     46  C   UNL A   1      40.229  25.597  27.909  1.00  0.00     0.029 A 
ATOM     47  C   UNL A   1      41.597  25.891  28.324  1.00  0.00     0.049 A 
ATOM     48  H   UNL A   1      42.305  27.655  29.180  1.00  0.00     0.167 HD
ATOM     49  C   UNL A   1      43.715  31.493  30.769  1.00  0.00     0.037 A 
ATOM     50  C   UNL A   1      42.644  25.048  28.218  1.00  0.00     0.037 A 
ATOM     51  C   UNL A   1      44.873  30.639  30.759  1.00  0.00     0.049 A 
ATOM     52  C   UNL A   1      44.003  25.506  28.687  1.00  0.00     0.074 A 
ATOM     53  C   UNL A   1      46.152  30.918  31.208  1.00  0.00     0.029 A 
ATOM     54  N   UNL A   1      44.891  29.334  30.291  1.00  0.00    -0.354 N 
ATOM     55  N   UNL A   1      44.351  26.656  29.215  1.00  0.00    -0.248 NA
ATOM     56  C   UNL A   1      45.113  24.550  28.554  1.00  0.00     0.031 C 
ATOM     57  C   UNL A   1      46.952  29.796  30.976  1.00  0.00     0.029 A 
ATOM     58  C   UNL A   1      46.159  28.798  30.434  1.00  0.00     0.049 A 
ATOM     59  H   UNL A   1      44.116  28.859  29.911  1.00  0.00     0.167 HD
ATOM     60  C   UNL A   1      45.704  26.541  29.518  1.00  0.00     0.074 A 
ATOM     61  C   UNL A   1      46.110  25.210  29.123  1.00  0.00     0.031 C 
ATOM     62  C   UNL A   1      46.536  27.455  30.075  1.00  0.00     0.037 A 
BRANCH  49  63
ATOM     63  C   UNL A   1      43.861  32.875  31.345  1.00  0.00     0.058 A 
ATOM     64  C   UNL A   1      44.105  33.986  30.522  1.00  0.00     0.135 A 
ATOM     65  C   UNL A   1      43.683  33.107  32.719  1.00  0.00     0.135 A 
ATOM     66  F   UNL A   1      44.303  33.820  29.204  1.00  0.00    -0.206 F 
ATOM     67  C   UNL A   1      44.179  35.274  31.040  1.00  0.00     0.059 A 
ATOM     68  C   UNL A   1      43.723  34.391  33.255  1.00  0.00     0.059 A 
ATOM     69  F   UNL A   1      43.450  32.081  33.554  1.00  0.00    -0.206 F 
ATOM     70  C   UNL A   1      43.978  35.468  32.407  1.00  0.00     0.060 A 
BRANCH  70  71
ATOM     71  S   UNL A   1      44.036  37.152  33.051  1.00  0.00     0.124 S 
ATOM     72  O   UNL A   1      42.826  37.196  33.865  1.00  0.00    -0.237 OA
ATOM     73  O   UNL A   1      45.295  37.158  33.789  1.00  0.00    -0.237 OA
ATOM     74  O   UNL A   1      44.012  37.980  31.848  1.00  0.00    -0.744 OA
ENDBRANCH  70  71
ENDBRANCH  49  63
BRANCH  50  75
ATOM     75  C   UNL A   1      42.470  23.684  27.643  1.00  0.00     0.058 A 
ATOM     76  C   UNL A   1      42.277  22.568  28.473  1.00  0.00     0.135 A 
ATOM     77  C   UNL A   1      42.549  23.459  26.260  1.00  0.00     0.135 A 
ATOM     78  F   UNL A   1      42.196  22.727  29.803  1.00  0.00    -0.206 F 
ATOM     79  C   UNL A   1      42.221  21.276  27.960  1.00  0.00     0.059 A 
ATOM     80  C   UNL A   1      42.462  22.179  25.719  1.00  0.00     0.059 A 
ATOM     81  F   UNL A   1      42.712  24.490  25.417  1.00  0.00    -0.206 F 
ATOM     82  C   UNL A   1      42.324  21.091  26.579  1.00  0.00     0.060 A 
BRANCH  82  83
ATOM     83  S   UNL A   1      42.270  19.409  25.924  1.00  0.00     0.124 S 
ATOM     84  O   UNL A   1      40.839  19.225  25.711  1.00  0.00    -0.237 OA
ATOM     85  O   UNL A   1      43.085  19.522  24.720  1.00  0.00    -0.237 OA
ATOM     86  O   UNL A   1      42.856  18.613  26.998  1.00  0.00    -0.744 OA
ENDBRANCH  82  83
ENDBRANCH  50  75
BRANCH  62  87
ATOM     87  C   UNL A   1      47.949  27.032  30.367  1.00  0.00     0.058 A 
ATOM     88  C   UNL A   1      49.011  27.328  29.497  1.00  0.00     0.135 A 
ATOM     89  C   UNL A   1      48.253  26.380  31.574  1.00  0.00     0.135 A 
ATOM     90  F   UNL A   1      48.774  27.945  28.328  1.00  0.00    -0.206 F 
ATOM     91  C   UNL A   1      50.320  26.977  29.806  1.00  0.00     0.059 A 
ATOM     92  C   UNL A   1      49.560  26.048  31.916  1.00  0.00     0.059 A 
ATOM     93  F   UNL A   1      47.277  26.082  32.445  1.00  0.00    -0.206 F 
ATOM     94  C   UNL A   1      50.586  26.342  31.021  1.00  0.00     0.060 A 
BRANCH  94  95
ATOM     95  S   UNL A   1      52.297  25.941  31.430  1.00  0.00     0.124 S 
ATOM     96  O   UNL A   1      52.639  27.015  32.357  1.00  0.00    -0.237 OA
ATOM     97  O   UNL A   1      52.172  24.611  32.019  1.00  0.00    -0.237 OA
ATOM     98  O   UNL A   1      52.977  25.987  30.140  1.00  0.00    -0.744 OA
ENDBRANCH  94  95
ENDBRANCH  62  87
ENDBRANCH  36  37
ENDBRANCH  28  31
ENDBRANCH  26  27
ENDBRANCH   1  26
TORSDOF 17
ENDMDL
