MODEL 1
REMARK VINA RESULT:     -11.5      0.000      0.000
REMARK SMILES O=C(CC[N@H+]1CCC[C@@H](C(=O)NCCCNC(=O)c2ccc(-c3c4nc(c(-c5c(F)cc(S(=O)(=O)[O-])cc5F)c5ccc([nH]5)c(-c5c(F)cc(S(=O)(=O)[O-])cc5F)c5nc(c(-c6c(F)cc(S(=O)(=O)[O-])cc6F)c6ccc3[nH]6)C=C5)C=C4)cc2)C1)Nc1cccc(F)c1
REMARK SMILES IDX 13 1 12 2 10 3 11 4 9 6 5 7 6 8 85 9 7 11 8 12 4 13 3 14
REMARK SMILES IDX 2 15 1 16 86 17 87 19 88 20 93 21 89 22 91 23 90 24 92 25
REMARK SMILES IDX 14 26 15 27 16 28 17 29 18 31 19 32 20 33 84 34 21 35 83 36
REMARK SMILES IDX 22 37 23 38 24 39 77 40 25 41 82 42 76 43 78 44 26 45 81 46
REMARK SMILES IDX 75 47 74 48 27 50 61 51 40 52 60 53 41 54 44 55 59 56 79 57
REMARK SMILES IDX 42 58 43 59 58 61 80 62 45 63 28 64 29 65 38 66 30 67 31 68
REMARK SMILES IDX 37 69 39 70 32 71 33 72 34 73 35 74 36 75 62 76 63 77 72 78
REMARK SMILES IDX 64 79 65 80 71 81 73 82 66 83 67 84 68 85 69 86 70 87 46 88
REMARK SMILES IDX 47 89 56 90 48 91 49 92 55 93 57 94 50 95 51 96 52 97 53 98
REMARK SMILES IDX 54 99
REMARK H PARENT 12 5 5 10 86 18 16 30 78 49 44 60
REMARK Flexibility Score: inf
ROOT
ATOM      1  C   UNL A   1      33.097  28.488  24.626  1.00  0.00     0.117 C 
ENDROOT
BRANCH   1   2
ATOM      2  N   UNL A   1      33.521  27.877  23.382  1.00  0.00    -0.356 N 
ATOM      3  C   UNL A   1      33.047  26.816  22.681  1.00  0.00     0.228 C 
ATOM      4  O   UNL A   1      33.670  26.526  21.657  1.00  0.00    -0.275 OA
ATOM      5  H   UNL A   1      34.300  28.314  22.968  1.00  0.00     0.163 HD
BRANCH   3   6
ATOM      6  C   UNL A   1      31.822  26.019  23.143  1.00  0.00     0.133 C 
ATOM      7  N   UNL A   1      30.824  24.804  25.115  1.00  0.00    -0.334 N 
ATOM      8  C   UNL A   1      29.896  25.915  25.363  1.00  0.00     0.262 C 
ATOM      9  C   UNL A   1      32.061  25.368  24.515  1.00  0.00     0.275 C 
ATOM     10  H   UNL A   1      30.338  24.156  24.495  1.00  0.00     0.348 HD
ATOM     11  C   UNL A   1      29.438  26.433  24.001  1.00  0.00     0.062 C 
ATOM     12  C   UNL A   1      30.612  26.980  23.200  1.00  0.00     0.025 C 
BRANCH   7  13
ATOM     13  C   UNL A   1      31.186  24.002  26.301  1.00  0.00     0.272 C 
BRANCH  13  14
ATOM     14  C   UNL A   1      32.000  22.724  26.104  1.00  0.00     0.161 C 
BRANCH  14  15
ATOM     15  C   UNL A   1      33.451  22.675  26.556  1.00  0.00     0.230 C 
ATOM     16  O   UNL A   1      33.703  22.333  27.711  1.00  0.00    -0.275 OA
ATOM     17  N   UNL A   1      34.391  22.908  25.577  1.00  0.00    -0.326 N 
ATOM     18  H   UNL A   1      34.092  23.415  24.787  1.00  0.00     0.169 HD
BRANCH  17  19
ATOM     19  C   UNL A   1      35.740  22.494  25.590  1.00  0.00     0.044 A 
ATOM     20  C   UNL A   1      36.698  23.402  26.062  1.00  0.00     0.026 A 
ATOM     21  C   UNL A   1      36.168  21.264  25.087  1.00  0.00     0.065 A 
ATOM     22  C   UNL A   1      38.060  23.076  26.049  1.00  0.00     0.005 A 
ATOM     23  C   UNL A   1      37.525  20.956  25.063  1.00  0.00     0.125 A 
ATOM     24  C   UNL A   1      38.475  21.848  25.543  1.00  0.00     0.039 A 
ATOM     25  F   UNL A   1      37.926  19.784  24.550  1.00  0.00    -0.207 F 
ENDBRANCH  17  19
ENDBRANCH  14  15
ENDBRANCH  13  14
ENDBRANCH   7  13
ENDBRANCH   3   6
ENDBRANCH   1   2
BRANCH   1  26
ATOM     26  C   UNL A   1      33.928  28.045  25.820  1.00  0.00     0.042 C 
BRANCH  26  27
ATOM     27  C   UNL A   1      33.334  28.362  27.185  1.00  0.00     0.118 C 
BRANCH  27  28
ATOM     28  N   UNL A   1      33.317  29.783  27.499  1.00  0.00    -0.352 N 
ATOM     29  C   UNL A   1      34.302  30.586  28.031  1.00  0.00     0.251 C 
ATOM     30  H   UNL A   1      32.469  30.243  27.301  1.00  0.00     0.163 HD
ATOM     31  O   UNL A   1      34.035  31.742  28.335  1.00  0.00    -0.269 OA
BRANCH  29  32
ATOM     32  C   UNL A   1      35.661  30.048  28.271  1.00  0.00     0.039 A 
ATOM     33  C   UNL A   1      36.587  30.067  27.224  1.00  0.00     0.014 A 
ATOM     34  C   UNL A   1      36.032  29.532  29.515  1.00  0.00     0.014 A 
ATOM     35  C   UNL A   1      37.902  29.649  27.451  1.00  0.00     0.010 A 
ATOM     36  C   UNL A   1      37.363  29.208  29.765  1.00  0.00     0.010 A 
ATOM     37  C   UNL A   1      38.314  29.261  28.736  1.00  0.00    -0.014 A 
BRANCH  37  38
ATOM     38  C   UNL A   1      39.733  28.919  29.026  1.00  0.00     0.031 A 
ATOM     39  C   UNL A   1      40.654  29.944  29.632  1.00  0.00     0.074 A 
ATOM     40  C   UNL A   1      40.212  27.708  28.679  1.00  0.00     0.049 A 
ATOM     41  N   UNL A   1      41.931  29.850  29.903  1.00  0.00    -0.248 NA
ATOM     42  C   UNL A   1      40.069  31.257  29.949  1.00  0.00     0.031 C 
ATOM     43  C   UNL A   1      39.435  26.642  28.042  1.00  0.00     0.029 A 
ATOM     44  N   UNL A   1      41.468  27.169  28.808  1.00  0.00    -0.354 N 
ATOM     45  C   UNL A   1      42.305  31.091  30.407  1.00  0.00     0.074 A 
ATOM     46  C   UNL A   1      41.133  31.938  30.345  1.00  0.00     0.031 C 
ATOM     47  C   UNL A   1      40.221  25.569  27.866  1.00  0.00     0.029 A 
ATOM     48  C   UNL A   1      41.568  25.881  28.335  1.00  0.00     0.049 A 
ATOM     49  H   UNL A   1      42.226  27.657  29.202  1.00  0.00     0.167 HD
ATOM     50  C   UNL A   1      43.506  31.483  30.896  1.00  0.00     0.037 A 
ATOM     51  C   UNL A   1      42.624  25.046  28.277  1.00  0.00     0.037 A 
ATOM     52  C   UNL A   1      44.665  30.630  30.966  1.00  0.00     0.049 A 
ATOM     53  C   UNL A   1      43.954  25.507  28.810  1.00  0.00     0.074 A 
ATOM     54  C   UNL A   1      45.909  30.911  31.501  1.00  0.00     0.029 A 
ATOM     55  N   UNL A   1      44.726  29.333  30.476  1.00  0.00    -0.354 N 
ATOM     56  N   UNL A   1      44.271  26.661  29.347  1.00  0.00    -0.248 NA
ATOM     57  C   UNL A   1      45.067  24.552  28.730  1.00  0.00     0.031 C 
ATOM     58  C   UNL A   1      46.739  29.806  31.282  1.00  0.00     0.029 A 
ATOM     59  C   UNL A   1      45.996  28.812  30.666  1.00  0.00     0.049 A 
ATOM     60  H   UNL A   1      43.977  28.853  30.054  1.00  0.00     0.167 HD
ATOM     61  C   UNL A   1      45.614  26.560  29.696  1.00  0.00     0.074 A 
ATOM     62  C   UNL A   1      46.045  25.229  29.317  1.00  0.00     0.031 C 
ATOM     63  C   UNL A   1      46.416  27.486  30.281  1.00  0.00     0.037 A 
BRANCH  50  64
ATOM     64  C   UNL A   1      43.626  32.905  31.381  1.00  0.00     0.058 A 
ATOM     65  C   UNL A   1      44.029  33.948  30.530  1.00  0.00     0.135 A 
ATOM     66  C   UNL A   1      43.331  33.231  32.715  1.00  0.00     0.135 A 
ATOM     67  F   UNL A   1      44.334  33.694  29.247  1.00  0.00    -0.206 F 
ATOM     68  C   UNL A   1      44.187  35.249  30.995  1.00  0.00     0.059 A 
ATOM     69  C   UNL A   1      43.448  34.534  33.194  1.00  0.00     0.059 A 
ATOM     70  F   UNL A   1      42.935  32.278  33.573  1.00  0.00    -0.206 F 
ATOM     71  C   UNL A   1      43.900  35.530  32.331  1.00  0.00     0.060 A 
BRANCH  71  72
ATOM     72  S   UNL A   1      44.140  37.217  32.928  1.00  0.00     0.124 S 
ATOM     73  O   UNL A   1      44.108  37.973  31.679  1.00  0.00    -0.237 OA
ATOM     74  O   UNL A   1      42.992  37.403  33.809  1.00  0.00    -0.237 OA
ATOM     75  O   UNL A   1      45.438  37.162  33.594  1.00  0.00    -0.744 OA
ENDBRANCH  71  72
ENDBRANCH  50  64
BRANCH  51  76
ATOM     76  C   UNL A   1      42.451  23.676  27.727  1.00  0.00     0.058 A 
ATOM     77  C   UNL A   1      42.482  23.449  26.343  1.00  0.00     0.135 A 
ATOM     78  C   UNL A   1      42.297  22.563  28.568  1.00  0.00     0.135 A 
ATOM     79  F   UNL A   1      42.617  24.481  25.497  1.00  0.00    -0.206 F 
ATOM     80  C   UNL A   1      42.363  22.169  25.811  1.00  0.00     0.059 A 
ATOM     81  C   UNL A   1      42.202  21.270  28.062  1.00  0.00     0.059 A 
ATOM     82  F   UNL A   1      42.277  22.724  29.901  1.00  0.00    -0.206 F 
ATOM     83  C   UNL A   1      42.233  21.084  26.680  1.00  0.00     0.060 A 
BRANCH  83  84
ATOM     84  S   UNL A   1      42.163  19.421  25.979  1.00  0.00     0.124 S 
ATOM     85  O   UNL A   1      42.667  18.613  27.085  1.00  0.00    -0.237 OA
ATOM     86  O   UNL A   1      40.742  19.278  25.677  1.00  0.00    -0.237 OA
ATOM     87  O   UNL A   1      43.038  19.511  24.814  1.00  0.00    -0.744 OA
ENDBRANCH  83  84
ENDBRANCH  51  76
BRANCH  63  88
ATOM     88  C   UNL A   1      47.836  27.086  30.576  1.00  0.00     0.058 A 
ATOM     89  C   UNL A   1      48.858  27.220  29.623  1.00  0.00     0.135 A 
ATOM     90  C   UNL A   1      48.190  26.608  31.850  1.00  0.00     0.135 A 
ATOM     91  F   UNL A   1      48.576  27.664  28.388  1.00  0.00    -0.206 F 
ATOM     92  C   UNL A   1      50.174  26.873  29.913  1.00  0.00     0.059 A 
ATOM     93  C   UNL A   1      49.504  26.284  32.171  1.00  0.00     0.059 A 
ATOM     94  F   UNL A   1      47.255  26.469  32.804  1.00  0.00    -0.206 F 
ATOM     95  C   UNL A   1      50.487  26.408  31.193  1.00  0.00     0.060 A 
BRANCH  95  96
ATOM     96  S   UNL A   1      52.204  25.993  31.565  1.00  0.00     0.124 S 
ATOM     97  O   UNL A   1      52.496  26.906  32.665  1.00  0.00    -0.237 OA
ATOM     98  O   UNL A   1      52.114  24.580  31.921  1.00  0.00    -0.237 OA
ATOM     99  O   UNL A   1      52.902  26.274  30.313  1.00  0.00    -0.744 OA
ENDBRANCH  95  96
ENDBRANCH  63  88
ENDBRANCH  37  38
ENDBRANCH  29  32
ENDBRANCH  27  28
ENDBRANCH  26  27
ENDBRANCH   1  26
TORSDOF 17
ENDMDL
MODEL 2
REMARK VINA RESULT:     -11.4      5.156     10.623
REMARK SMILES O=C(CC[N@H+]1CCC[C@@H](C(=O)NCCCNC(=O)c2ccc(-c3c4nc(c(-c5c(F)cc(S(=O)(=O)[O-])cc5F)c5ccc([nH]5)c(-c5c(F)cc(S(=O)(=O)[O-])cc5F)c5nc(c(-c6c(F)cc(S(=O)(=O)[O-])cc6F)c6ccc3[nH]6)C=C5)C=C4)cc2)C1)Nc1cccc(F)c1
REMARK SMILES IDX 13 1 12 2 10 3 11 4 9 6 5 7 6 8 85 9 7 11 8 12 4 13 3 14
REMARK SMILES IDX 2 15 1 16 86 17 87 19 88 20 93 21 89 22 91 23 90 24 92 25
REMARK SMILES IDX 14 26 15 27 16 28 17 29 18 31 19 32 20 33 84 34 21 35 83 36
REMARK SMILES IDX 22 37 23 38 24 39 77 40 25 41 82 42 76 43 78 44 26 45 81 46
REMARK SMILES IDX 75 47 74 48 27 50 61 51 40 52 60 53 41 54 44 55 59 56 79 57
REMARK SMILES IDX 42 58 43 59 58 61 80 62 45 63 28 64 29 65 38 66 30 67 31 68
REMARK SMILES IDX 37 69 39 70 32 71 33 72 34 73 35 74 36 75 62 76 63 77 72 78
REMARK SMILES IDX 64 79 65 80 71 81 73 82 66 83 67 84 68 85 69 86 70 87 46 88
REMARK SMILES IDX 47 89 56 90 48 91 49 92 55 93 57 94 50 95 51 96 52 97 53 98
REMARK SMILES IDX 54 99
REMARK H PARENT 12 5 5 10 86 18 16 30 78 49 44 60
REMARK Flexibility Score: inf
ROOT
ATOM      1  C   UNL A   1      45.555  24.186  25.944  1.00  0.00     0.117 C 
ENDROOT
BRANCH   1   2
ATOM      2  N   UNL A   1      45.100  23.658  24.673  1.00  0.00    -0.356 N 
ATOM      3  C   UNL A   1      44.618  22.442  24.313  1.00  0.00     0.228 C 
ATOM      4  O   UNL A   1      44.349  22.302  23.117  1.00  0.00    -0.275 OA
ATOM      5  H   UNL A   1      45.152  24.303  23.931  1.00  0.00     0.163 HD
BRANCH   3   6
ATOM      6  C   UNL A   1      44.432  21.308  25.328  1.00  0.00     0.133 C 
ATOM      7  N   UNL A   1      42.711  20.113  26.733  1.00  0.00    -0.334 N 
ATOM      8  C   UNL A   1      42.720  18.966  25.814  1.00  0.00     0.262 C 
ATOM      9  C   UNL A   1      43.022  21.333  25.942  1.00  0.00     0.275 C 
ATOM     10  H   UNL A   1      43.408  19.912  27.451  1.00  0.00     0.348 HD
ATOM     11  C   UNL A   1      44.167  18.755  25.371  1.00  0.00     0.062 C 
ATOM     12  C   UNL A   1      44.687  19.965  24.607  1.00  0.00     0.025 C 
BRANCH   7  13
ATOM     13  C   UNL A   1      41.450  20.326  27.470  1.00  0.00     0.272 C 
BRANCH  13  14
ATOM     14  C   UNL A   1      40.512  21.442  27.015  1.00  0.00     0.161 C 
BRANCH  14  15
ATOM     15  C   UNL A   1      39.421  21.144  25.998  1.00  0.00     0.230 C 
ATOM     16  O   UNL A   1      39.252  19.981  25.631  1.00  0.00    -0.275 OA
ATOM     17  N   UNL A   1      38.615  22.207  25.655  1.00  0.00    -0.326 N 
ATOM     18  H   UNL A   1      38.989  23.107  25.793  1.00  0.00     0.169 HD
BRANCH  17  19
ATOM     19  C   UNL A   1      37.309  22.136  25.126  1.00  0.00     0.044 A 
ATOM     20  C   UNL A   1      36.995  22.973  24.046  1.00  0.00     0.026 A 
ATOM     21  C   UNL A   1      36.304  21.336  25.673  1.00  0.00     0.065 A 
ATOM     22  C   UNL A   1      35.701  22.995  23.511  1.00  0.00     0.005 A 
ATOM     23  C   UNL A   1      35.017  21.377  25.145  1.00  0.00     0.125 A 
ATOM     24  C   UNL A   1      34.707  22.195  24.066  1.00  0.00     0.039 A 
ATOM     25  F   UNL A   1      34.054  20.627  25.697  1.00  0.00    -0.207 F 
ENDBRANCH  17  19
ENDBRANCH  14  15
ENDBRANCH  13  14
ENDBRANCH   7  13
ENDBRANCH   3   6
ENDBRANCH   1   2
BRANCH   1  26
ATOM     26  C   UNL A   1      44.620  25.236  26.521  1.00  0.00     0.042 C 
BRANCH  26  27
ATOM     27  C   UNL A   1      43.404  24.696  27.259  1.00  0.00     0.118 C 
BRANCH  27  28
ATOM     28  N   UNL A   1      42.217  24.580  26.424  1.00  0.00    -0.352 N 
ATOM     29  C   UNL A   1      40.980  25.173  26.554  1.00  0.00     0.251 C 
ATOM     30  H   UNL A   1      42.313  23.985  25.646  1.00  0.00     0.163 HD
ATOM     31  O   UNL A   1      40.072  24.839  25.802  1.00  0.00    -0.269 OA
BRANCH  29  32
ATOM     32  C   UNL A   1      40.736  26.176  27.616  1.00  0.00     0.039 A 
ATOM     33  C   UNL A   1      39.816  25.876  28.626  1.00  0.00     0.014 A 
ATOM     34  C   UNL A   1      41.405  27.402  27.630  1.00  0.00     0.014 A 
ATOM     35  C   UNL A   1      39.635  26.767  29.688  1.00  0.00     0.010 A 
ATOM     36  C   UNL A   1      41.297  28.241  28.735  1.00  0.00     0.010 A 
ATOM     37  C   UNL A   1      40.409  27.936  29.777  1.00  0.00    -0.014 A 
BRANCH  37  38
ATOM     38  C   UNL A   1      40.314  28.842  30.953  1.00  0.00     0.031 A 
ATOM     39  C   UNL A   1      39.297  29.952  30.979  1.00  0.00     0.074 A 
ATOM     40  C   UNL A   1      41.188  28.709  31.971  1.00  0.00     0.049 A 
ATOM     41  N   UNL A   1      39.103  30.874  31.887  1.00  0.00    -0.248 NA
ATOM     42  C   UNL A   1      38.401  30.058  29.816  1.00  0.00     0.031 C 
ATOM     43  C   UNL A   1      42.251  27.704  32.046  1.00  0.00     0.029 A 
ATOM     44  N   UNL A   1      41.328  29.425  33.134  1.00  0.00    -0.354 N 
ATOM     45  C   UNL A   1      38.076  31.676  31.401  1.00  0.00     0.074 A 
ATOM     46  C   UNL A   1      37.732  31.167  30.091  1.00  0.00     0.031 C 
ATOM     47  C   UNL A   1      42.911  27.846  33.206  1.00  0.00     0.029 A 
ATOM     48  C   UNL A   1      42.350  28.979  33.938  1.00  0.00     0.049 A 
ATOM     49  H   UNL A   1      40.751  30.187  33.370  1.00  0.00     0.167 HD
ATOM     50  C   UNL A   1      37.460  32.723  32.000  1.00  0.00     0.037 A 
ATOM     51  C   UNL A   1      42.793  29.431  35.128  1.00  0.00     0.037 A 
ATOM     52  C   UNL A   1      37.799  33.216  33.310  1.00  0.00     0.049 A 
ATOM     53  C   UNL A   1      42.107  30.608  35.767  1.00  0.00     0.074 A 
ATOM     54  C   UNL A   1      37.195  34.231  34.031  1.00  0.00     0.029 A 
ATOM     55  N   UNL A   1      38.840  32.737  34.093  1.00  0.00    -0.354 N 
ATOM     56  N   UNL A   1      41.091  31.310  35.325  1.00  0.00    -0.248 NA
ATOM     57  C   UNL A   1      42.626  31.052  37.068  1.00  0.00     0.031 C 
ATOM     58  C   UNL A   1      37.907  34.405  35.223  1.00  0.00     0.029 A 
ATOM     59  C   UNL A   1      38.917  33.458  35.275  1.00  0.00     0.049 A 
ATOM     60  H   UNL A   1      39.437  31.995  33.845  1.00  0.00     0.167 HD
ATOM     61  C   UNL A   1      40.830  32.260  36.306  1.00  0.00     0.074 A 
ATOM     62  C   UNL A   1      41.790  32.036  37.369  1.00  0.00     0.031 C 
ATOM     63  C   UNL A   1      39.879  33.229  36.325  1.00  0.00     0.037 A 
BRANCH  50  64
ATOM     64  C   UNL A   1      36.364  33.415  31.230  1.00  0.00     0.058 A 
ATOM     65  C   UNL A   1      36.634  34.184  30.085  1.00  0.00     0.135 A 
ATOM     66  C   UNL A   1      35.025  33.305  31.639  1.00  0.00     0.135 A 
ATOM     67  F   UNL A   1      37.897  34.333  29.652  1.00  0.00    -0.206 F 
ATOM     68  C   UNL A   1      35.625  34.862  29.407  1.00  0.00     0.059 A 
ATOM     69  C   UNL A   1      33.995  33.946  30.956  1.00  0.00     0.059 A 
ATOM     70  F   UNL A   1      34.706  32.579  32.722  1.00  0.00    -0.206 F 
ATOM     71  C   UNL A   1      34.309  34.741  29.855  1.00  0.00     0.060 A 
BRANCH  71  72
ATOM     72  S   UNL A   1      33.017  35.652  28.985  1.00  0.00     0.124 S 
ATOM     73  O   UNL A   1      33.799  36.664  28.281  1.00  0.00    -0.237 OA
ATOM     74  O   UNL A   1      32.418  34.619  28.146  1.00  0.00    -0.237 OA
ATOM     75  O   UNL A   1      32.167  36.152  30.062  1.00  0.00    -0.744 OA
ENDBRANCH  71  72
ENDBRANCH  50  64
BRANCH  51  76
ATOM     76  C   UNL A   1      43.922  28.740  35.805  1.00  0.00     0.058 A 
ATOM     77  C   UNL A   1      43.688  27.654  36.662  1.00  0.00     0.135 A 
ATOM     78  C   UNL A   1      45.254  29.118  35.579  1.00  0.00     0.135 A 
ATOM     79  F   UNL A   1      42.431  27.261  36.919  1.00  0.00    -0.206 F 
ATOM     80  C   UNL A   1      44.733  26.968  37.273  1.00  0.00     0.059 A 
ATOM     81  C   UNL A   1      46.318  28.432  36.156  1.00  0.00     0.059 A 
ATOM     82  F   UNL A   1      45.533  30.141  34.755  1.00  0.00    -0.206 F 
ATOM     83  C   UNL A   1      46.047  27.359  37.005  1.00  0.00     0.060 A 
BRANCH  83  84
ATOM     84  S   UNL A   1      47.396  26.409  37.739  1.00  0.00     0.124 S 
ATOM     85  O   UNL A   1      47.388  25.204  36.917  1.00  0.00    -0.237 OA
ATOM     86  O   UNL A   1      48.534  27.303  37.553  1.00  0.00    -0.237 OA
ATOM     87  O   UNL A   1      46.967  26.232  39.123  1.00  0.00    -0.744 OA
ENDBRANCH  83  84
ENDBRANCH  51  76
BRANCH  63  88
ATOM     88  C   UNL A   1      39.807  34.105  37.547  1.00  0.00     0.058 A 
ATOM     89  C   UNL A   1      39.044  33.749  38.670  1.00  0.00     0.135 A 
ATOM     90  C   UNL A   1      40.552  35.295  37.613  1.00  0.00     0.135 A 
ATOM     91  F   UNL A   1      38.307  32.628  38.659  1.00  0.00    -0.206 F 
ATOM     92  C   UNL A   1      39.004  34.553  39.806  1.00  0.00     0.059 A 
ATOM     93  C   UNL A   1      40.550  36.097  38.750  1.00  0.00     0.059 A 
ATOM     94  F   UNL A   1      41.307  35.680  36.571  1.00  0.00    -0.206 F 
ATOM     95  C   UNL A   1      39.763  35.724  39.837  1.00  0.00     0.060 A 
BRANCH  95  96
ATOM     96  S   UNL A   1      39.727  36.739  41.329  1.00  0.00     0.124 S 
ATOM     97  O   UNL A   1      41.146  36.830  41.658  1.00  0.00    -0.237 OA
ATOM     98  O   UNL A   1      39.107  37.971  40.854  1.00  0.00    -0.237 OA
ATOM     99  O   UNL A   1      38.917  35.953  42.256  1.00  0.00    -0.744 OA
ENDBRANCH  95  96
ENDBRANCH  63  88
ENDBRANCH  37  38
ENDBRANCH  29  32
ENDBRANCH  27  28
ENDBRANCH  26  27
ENDBRANCH   1  26
TORSDOF 17
ENDMDL
MODEL 3
REMARK VINA RESULT:     -11.1      2.761      3.538
REMARK SMILES O=C(CC[N@H+]1CCC[C@@H](C(=O)NCCCNC(=O)c2ccc(-c3c4nc(c(-c5c(F)cc(S(=O)(=O)[O-])cc5F)c5ccc([nH]5)c(-c5c(F)cc(S(=O)(=O)[O-])cc5F)c5nc(c(-c6c(F)cc(S(=O)(=O)[O-])cc6F)c6ccc3[nH]6)C=C5)C=C4)cc2)C1)Nc1cccc(F)c1
REMARK SMILES IDX 13 1 12 2 10 3 11 4 9 6 5 7 6 8 85 9 7 11 8 12 4 13 3 14
REMARK SMILES IDX 2 15 1 16 86 17 87 19 88 20 93 21 89 22 91 23 90 24 92 25
REMARK SMILES IDX 14 26 15 27 16 28 17 29 18 31 19 32 20 33 84 34 21 35 83 36
REMARK SMILES IDX 22 37 23 38 24 39 77 40 25 41 82 42 76 43 78 44 26 45 81 46
REMARK SMILES IDX 75 47 74 48 27 50 61 51 40 52 60 53 41 54 44 55 59 56 79 57
REMARK SMILES IDX 42 58 43 59 58 61 80 62 45 63 28 64 29 65 38 66 30 67 31 68
REMARK SMILES IDX 37 69 39 70 32 71 33 72 34 73 35 74 36 75 62 76 63 77 72 78
REMARK SMILES IDX 64 79 65 80 71 81 73 82 66 83 67 84 68 85 69 86 70 87 46 88
REMARK SMILES IDX 47 89 56 90 48 91 49 92 55 93 57 94 50 95 51 96 52 97 53 98
REMARK SMILES IDX 54 99
REMARK H PARENT 12 5 5 10 86 18 16 30 78 49 44 60
REMARK Flexibility Score: inf
ROOT
ATOM      1  C   UNL A   1      34.347  29.684  27.246  1.00  0.00     0.117 C 
ENDROOT
BRANCH   1   2
ATOM      2  N   UNL A   1      33.177  28.922  27.636  1.00  0.00    -0.356 N 
ATOM      3  C   UNL A   1      32.267  28.220  26.916  1.00  0.00     0.228 C 
ATOM      4  O   UNL A   1      31.351  27.705  27.562  1.00  0.00    -0.275 OA
ATOM      5  H   UNL A   1      33.013  28.913  28.607  1.00  0.00     0.163 HD
BRANCH   3   6
ATOM      6  C   UNL A   1      32.364  28.087  25.392  1.00  0.00     0.133 C 
ATOM      7  N   UNL A   1      31.987  26.495  23.471  1.00  0.00    -0.334 N 
ATOM      8  C   UNL A   1      30.757  27.204  23.091  1.00  0.00     0.262 C 
ATOM      9  C   UNL A   1      32.156  26.632  24.942  1.00  0.00     0.275 C 
ATOM     10  H   UNL A   1      32.744  26.927  22.940  1.00  0.00     0.348 HD
ATOM     11  C   UNL A   1      31.016  28.696  23.293  1.00  0.00     0.062 C 
ATOM     12  C   UNL A   1      31.299  29.010  24.756  1.00  0.00     0.025 C 
BRANCH   7  13
ATOM     13  C   UNL A   1      32.033  25.064  23.112  1.00  0.00     0.272 C 
BRANCH  13  14
ATOM     14  C   UNL A   1      33.374  24.446  22.722  1.00  0.00     0.161 C 
BRANCH  14  15
ATOM     15  C   UNL A   1      34.090  23.520  23.693  1.00  0.00     0.230 C 
ATOM     16  O   UNL A   1      33.665  22.375  23.846  1.00  0.00    -0.275 OA
ATOM     17  N   UNL A   1      35.252  24.013  24.244  1.00  0.00    -0.326 N 
ATOM     18  H   UNL A   1      35.351  24.992  24.263  1.00  0.00     0.169 HD
BRANCH  17  19
ATOM     19  C   UNL A   1      36.314  23.257  24.781  1.00  0.00     0.044 A 
ATOM     20  C   UNL A   1      37.194  23.900  25.664  1.00  0.00     0.026 A 
ATOM     21  C   UNL A   1      36.573  21.934  24.418  1.00  0.00     0.065 A 
ATOM     22  C   UNL A   1      38.302  23.224  26.188  1.00  0.00     0.005 A 
ATOM     23  C   UNL A   1      37.687  21.275  24.932  1.00  0.00     0.125 A 
ATOM     24  C   UNL A   1      38.551  21.906  25.818  1.00  0.00     0.039 A 
ATOM     25  F   UNL A   1      37.941  20.015  24.553  1.00  0.00    -0.207 F 
ENDBRANCH  17  19
ENDBRANCH  14  15
ENDBRANCH  13  14
ENDBRANCH   7  13
ENDBRANCH   3   6
ENDBRANCH   1   2
BRANCH   1  26
ATOM     26  C   UNL A   1      34.345  31.101  27.796  1.00  0.00     0.042 C 
BRANCH  26  27
ATOM     27  C   UNL A   1      35.594  31.507  28.565  1.00  0.00     0.118 C 
BRANCH  27  28
ATOM     28  N   UNL A   1      35.485  31.310  30.003  1.00  0.00    -0.352 N 
ATOM     29  C   UNL A   1      36.318  30.642  30.873  1.00  0.00     0.251 C 
ATOM     30  H   UNL A   1      34.692  31.719  30.420  1.00  0.00     0.163 HD
ATOM     31  O   UNL A   1      35.973  30.489  32.038  1.00  0.00    -0.269 OA
BRANCH  29  32
ATOM     32  C   UNL A   1      37.603  30.076  30.397  1.00  0.00     0.039 A 
ATOM     33  C   UNL A   1      37.892  30.121  29.030  1.00  0.00     0.014 A 
ATOM     34  C   UNL A   1      38.522  29.510  31.282  1.00  0.00     0.014 A 
ATOM     35  C   UNL A   1      39.134  29.678  28.567  1.00  0.00     0.010 A 
ATOM     36  C   UNL A   1      39.794  29.159  30.834  1.00  0.00     0.010 A 
ATOM     37  C   UNL A   1      40.115  29.237  29.471  1.00  0.00    -0.014 A 
BRANCH  37  38
ATOM     38  C   UNL A   1      41.481  28.866  29.014  1.00  0.00     0.031 A 
ATOM     39  C   UNL A   1      42.575  29.899  28.965  1.00  0.00     0.074 A 
ATOM     40  C   UNL A   1      41.721  27.613  28.576  1.00  0.00     0.049 A 
ATOM     41  N   UNL A   1      43.807  29.779  28.544  1.00  0.00    -0.248 NA
ATOM     42  C   UNL A   1      42.228  31.254  29.423  1.00  0.00     0.031 C 
ATOM     43  C   UNL A   1      40.735  26.531  28.528  1.00  0.00     0.029 A 
ATOM     44  N   UNL A   1      42.866  27.039  28.083  1.00  0.00    -0.354 N 
ATOM     45  C   UNL A   1      44.378  31.040  28.671  1.00  0.00     0.074 A 
ATOM     46  C   UNL A   1      43.337  31.924  29.151  1.00  0.00     0.031 C 
ATOM     47  C   UNL A   1      41.325  25.418  28.065  1.00  0.00     0.029 A 
ATOM     48  C   UNL A   1      42.718  25.715  27.740  1.00  0.00     0.049 A 
ATOM     49  H   UNL A   1      43.715  27.528  27.985  1.00  0.00     0.167 HD
ATOM     50  C   UNL A   1      45.656  31.424  28.433  1.00  0.00     0.037 A 
ATOM     51  C   UNL A   1      43.598  24.839  27.218  1.00  0.00     0.037 A 
ATOM     52  C   UNL A   1      46.690  30.536  27.967  1.00  0.00     0.049 A 
ATOM     53  C   UNL A   1      45.007  25.289  26.944  1.00  0.00     0.074 A 
ATOM     54  C   UNL A   1      48.029  30.810  27.754  1.00  0.00     0.029 A 
ATOM     55  N   UNL A   1      46.499  29.202  27.631  1.00  0.00    -0.354 N 
ATOM     56  N   UNL A   1      45.548  26.469  27.137  1.00  0.00    -0.248 NA
ATOM     57  C   UNL A   1      45.926  24.289  26.383  1.00  0.00     0.031 C 
ATOM     58  C   UNL A   1      48.634  29.662  27.235  1.00  0.00     0.029 A 
ATOM     59  C   UNL A   1      47.688  28.651  27.181  1.00  0.00     0.049 A 
ATOM     60  H   UNL A   1      45.644  28.720  27.701  1.00  0.00     0.167 HD
ATOM     61  C   UNL A   1      46.877  26.346  26.749  1.00  0.00     0.074 A 
ATOM     62  C   UNL A   1      47.060  24.973  26.319  1.00  0.00     0.031 C 
ATOM     63  C   UNL A   1      47.859  27.284  26.751  1.00  0.00     0.037 A 
BRANCH  50  64
ATOM     64  C   UNL A   1      45.998  32.874  28.660  1.00  0.00     0.058 A 
ATOM     65  C   UNL A   1      45.902  33.829  27.633  1.00  0.00     0.135 A 
ATOM     66  C   UNL A   1      46.425  33.317  29.923  1.00  0.00     0.135 A 
ATOM     67  F   UNL A   1      45.508  33.461  26.403  1.00  0.00    -0.206 F 
ATOM     68  C   UNL A   1      46.267  35.156  27.836  1.00  0.00     0.059 A 
ATOM     69  C   UNL A   1      46.762  34.648  30.157  1.00  0.00     0.059 A 
ATOM     70  F   UNL A   1      46.530  32.451  30.944  1.00  0.00    -0.206 F 
ATOM     71  C   UNL A   1      46.702  35.554  29.100  1.00  0.00     0.060 A 
BRANCH  71  72
ATOM     72  S   UNL A   1      47.203  37.271  29.337  1.00  0.00     0.124 S 
ATOM     73  O   UNL A   1      46.858  37.482  30.741  1.00  0.00    -0.237 OA
ATOM     74  O   UNL A   1      48.631  37.225  29.037  1.00  0.00    -0.237 OA
ATOM     75  O   UNL A   1      46.385  38.002  28.374  1.00  0.00    -0.744 OA
ENDBRANCH  71  72
ENDBRANCH  50  64
BRANCH  51  76
ATOM     76  C   UNL A   1      43.176  23.437  26.958  1.00  0.00     0.058 A 
ATOM     77  C   UNL A   1      42.949  22.987  25.649  1.00  0.00     0.135 A 
ATOM     78  C   UNL A   1      43.035  22.509  28.001  1.00  0.00     0.135 A 
ATOM     79  F   UNL A   1      43.062  23.838  24.618  1.00  0.00    -0.206 F 
ATOM     80  C   UNL A   1      42.594  21.669  25.382  1.00  0.00     0.059 A 
ATOM     81  C   UNL A   1      42.707  21.179  27.759  1.00  0.00     0.059 A 
ATOM     82  F   UNL A   1      43.256  22.885  29.271  1.00  0.00    -0.206 F 
ATOM     83  C   UNL A   1      42.485  20.768  26.445  1.00  0.00     0.060 A 
BRANCH  83  84
ATOM     84  S   UNL A   1      42.105  19.042  26.077  1.00  0.00     0.124 S 
ATOM     85  O   UNL A   1      42.967  18.788  24.928  1.00  0.00    -0.237 OA
ATOM     86  O   UNL A   1      42.482  18.376  27.320  1.00  0.00    -0.237 OA
ATOM     87  O   UNL A   1      40.672  19.066  25.798  1.00  0.00    -0.744 OA
ENDBRANCH  83  84
ENDBRANCH  51  76
BRANCH  63  88
ATOM     88  C   UNL A   1      49.229  26.855  26.303  1.00  0.00     0.058 A 
ATOM     89  C   UNL A   1      49.679  27.061  24.989  1.00  0.00     0.135 A 
ATOM     90  C   UNL A   1      50.126  26.273  27.216  1.00  0.00     0.135 A 
ATOM     91  F   UNL A   1      48.862  27.605  24.074  1.00  0.00    -0.206 F 
ATOM     92  C   UNL A   1      50.958  26.685  24.590  1.00  0.00     0.059 A 
ATOM     93  C   UNL A   1      51.420  25.918  26.847  1.00  0.00     0.059 A 
ATOM     94  F   UNL A   1      49.753  26.061  28.489  1.00  0.00    -0.206 F 
ATOM     95  C   UNL A   1      51.823  26.117  25.528  1.00  0.00     0.060 A 
BRANCH  95  96
ATOM     96  S   UNL A   1      53.490  25.665  25.005  1.00  0.00     0.124 S 
ATOM     97  O   UNL A   1      53.369  25.725  23.551  1.00  0.00    -0.237 OA
ATOM     98  O   UNL A   1      54.304  26.710  25.617  1.00  0.00    -0.237 OA
ATOM     99  O   UNL A   1      53.672  24.328  25.564  1.00  0.00    -0.744 OA
ENDBRANCH  95  96
ENDBRANCH  63  88
ENDBRANCH  37  38
ENDBRANCH  29  32
ENDBRANCH  27  28
ENDBRANCH  26  27
ENDBRANCH   1  26
TORSDOF 17
ENDMDL
