MODEL 1
REMARK VINA RESULT:     -10.8      0.000      0.000
REMARK SMILES CC(C)(C)OC(=O)[C@]1(C(=O)NCCCNC(=O)c2ccc(-c3c4nc(c(-c5c(F)cc(S(=O)(=O)[O-])cc5F)c5ccc([nH]5)c(-c5c(F)cc(S(=O)(=O)[O-])cc5F)c5nc(c(-c6c(F)cc(S(=O)(=O)[O-])cc6F)c6ccc3[nH]6)C=C5)C=C4)cc2)CC=CC[C@@H]1[NH3+]
REMARK SMILES IDX 13 1 12 2 11 3 9 4 10 5 8 7 84 8 88 9 85 10 87 11 86 12 6 13
REMARK SMILES IDX 7 14 5 15 2 16 1 17 3 18 4 19 89 20 14 24 15 25 16 26 17 28
REMARK SMILES IDX 18 29 19 30 83 31 20 32 82 33 21 34 22 35 23 36 76 37 24 38
REMARK SMILES IDX 81 39 75 40 77 41 25 42 80 43 74 44 73 45 26 47 60 48 39 49
REMARK SMILES IDX 59 50 40 51 43 52 58 53 78 54 41 55 42 56 57 58 79 59 44 60
REMARK SMILES IDX 27 61 28 62 37 63 29 64 30 65 36 66 38 67 31 68 32 69 33 70
REMARK SMILES IDX 34 71 35 72 61 73 62 74 71 75 63 76 64 77 70 78 72 79 65 80
REMARK SMILES IDX 66 81 67 82 68 83 69 84 45 85 46 86 55 87 47 88 48 89 54 90
REMARK SMILES IDX 56 91 49 92 50 93 51 94 52 95 53 96
REMARK H PARENT 11 6 89 21 89 22 89 23 15 27 77 46 43 57
REMARK Flexibility Score: inf
ROOT
ATOM      1  C   UNL A   1      33.758  27.851  25.674  1.00  0.00     0.042 C 
ENDROOT
BRANCH   1   2
ATOM      2  C   UNL A   1      32.949  26.652  25.187  1.00  0.00     0.117 C 
BRANCH   2   3
ATOM      3  N   UNL A   1      33.291  26.285  23.828  1.00  0.00    -0.355 N 
ATOM      4  C   UNL A   1      33.887  25.222  23.246  1.00  0.00     0.244 C 
ATOM      5  O   UNL A   1      34.102  25.388  22.033  1.00  0.00    -0.274 OA
ATOM      6  H   UNL A   1      33.028  26.974  23.175  1.00  0.00     0.163 HD
BRANCH   4   7
ATOM      7  C   UNL A   1      34.206  23.844  23.874  1.00  0.00     0.201 C 
ATOM      8  C   UNL A   1      35.193  22.905  23.134  1.00  0.00     0.062 C 
ATOM      9  C   UNL A   1      34.660  24.165  25.358  1.00  0.00     0.212 C 
ATOM     10  C   UNL A   1      36.642  22.996  23.476  1.00  0.00    -0.029 C 
ATOM     11  C   UNL A   1      36.191  24.128  25.639  1.00  0.00     0.093 C 
ATOM     12  C   UNL A   1      37.088  23.569  24.592  1.00  0.00    -0.025 C 
BRANCH   7  13
ATOM     13  C   UNL A   1      32.875  23.058  23.717  1.00  0.00     0.328 C 
ATOM     14  O   UNL A   1      31.783  23.567  23.960  1.00  0.00    -0.251 OA
BRANCH  13  15
ATOM     15  O   UNL A   1      33.018  21.777  23.288  1.00  0.00    -0.459 OA
BRANCH  15  16
ATOM     16  C   UNL A   1      32.882  20.676  24.228  1.00  0.00     0.104 C 
ATOM     17  C   UNL A   1      32.322  19.511  23.395  1.00  0.00     0.056 C 
ATOM     18  C   UNL A   1      31.853  21.049  25.305  1.00  0.00     0.056 C 
ATOM     19  C   UNL A   1      34.211  20.229  24.846  1.00  0.00     0.056 C 
ENDBRANCH  15  16
ENDBRANCH  13  15
ENDBRANCH   7  13
BRANCH   9  20
ATOM     20  N   UNL A   1      34.029  23.398  26.457  1.00  0.00    -0.353 N 
ATOM     21  H   UNL A   1      33.088  23.120  26.180  1.00  0.00     0.344 HD
ATOM     22  H   UNL A   1      33.979  23.981  27.293  1.00  0.00     0.344 HD
ATOM     23  H   UNL A   1      34.586  22.567  26.655  1.00  0.00     0.344 HD
ENDBRANCH   9  20
ENDBRANCH   4   7
ENDBRANCH   2   3
ENDBRANCH   1   2
BRANCH   1  24
ATOM     24  C   UNL A   1      33.565  28.158  27.158  1.00  0.00     0.118 C 
BRANCH  24  25
ATOM     25  N   UNL A   1      33.445  29.588  27.414  1.00  0.00    -0.352 N 
ATOM     26  C   UNL A   1      34.321  30.460  28.013  1.00  0.00     0.251 C 
ATOM     27  H   UNL A   1      32.601  29.993  27.110  1.00  0.00     0.163 HD
ATOM     28  O   UNL A   1      33.925  31.578  28.329  1.00  0.00    -0.269 OA
BRANCH  26  29
ATOM     29  C   UNL A   1      35.722  30.067  28.282  1.00  0.00     0.039 A 
ATOM     30  C   UNL A   1      36.648  30.111  27.235  1.00  0.00     0.014 A 
ATOM     31  C   UNL A   1      36.117  29.605  29.540  1.00  0.00     0.014 A 
ATOM     32  C   UNL A   1      37.977  29.744  27.462  1.00  0.00     0.010 A 
ATOM     33  C   UNL A   1      37.456  29.304  29.783  1.00  0.00     0.010 A 
ATOM     34  C   UNL A   1      38.399  29.364  28.746  1.00  0.00    -0.014 A 
BRANCH  34  35
ATOM     35  C   UNL A   1      39.819  29.020  29.022  1.00  0.00     0.031 A 
ATOM     36  C   UNL A   1      40.751  30.055  29.593  1.00  0.00     0.074 A 
ATOM     37  C   UNL A   1      40.282  27.796  28.701  1.00  0.00     0.049 A 
ATOM     38  N   UNL A   1      42.036  29.973  29.823  1.00  0.00    -0.248 NA
ATOM     39  C   UNL A   1      40.165  31.364  29.927  1.00  0.00     0.031 C 
ATOM     40  C   UNL A   1      39.486  26.719  28.106  1.00  0.00     0.029 A 
ATOM     41  N   UNL A   1      41.537  27.253  28.819  1.00  0.00    -0.354 N 
ATOM     42  C   UNL A   1      42.415  31.217  30.314  1.00  0.00     0.074 A 
ATOM     43  C   UNL A   1      41.233  32.052  30.301  1.00  0.00     0.031 C 
ATOM     44  C   UNL A   1      40.268  25.641  27.929  1.00  0.00     0.029 A 
ATOM     45  C   UNL A   1      41.625  25.960  28.359  1.00  0.00     0.049 A 
ATOM     46  H   UNL A   1      42.303  27.743  29.196  1.00  0.00     0.167 HD
ATOM     47  C   UNL A   1      43.630  31.621  30.756  1.00  0.00     0.037 A 
ATOM     48  C   UNL A   1      42.682  25.129  28.283  1.00  0.00     0.037 A 
ATOM     49  C   UNL A   1      44.797  30.777  30.788  1.00  0.00     0.049 A 
ATOM     50  C   UNL A   1      44.025  25.601  28.774  1.00  0.00     0.074 A 
ATOM     51  C   UNL A   1      46.064  31.077  31.258  1.00  0.00     0.029 A 
ATOM     52  N   UNL A   1      44.841  29.467  30.333  1.00  0.00    -0.354 N 
ATOM     53  N   UNL A   1      44.353  26.767  29.280  1.00  0.00    -0.248 NA
ATOM     54  C   UNL A   1      45.138  24.647  28.687  1.00  0.00     0.031 C 
ATOM     55  C   UNL A   1      46.882  29.961  31.054  1.00  0.00     0.029 A 
ATOM     56  C   UNL A   1      46.114  28.950  30.498  1.00  0.00     0.049 A 
ATOM     57  H   UNL A   1      44.078  28.978  29.949  1.00  0.00     0.167 HD
ATOM     58  C   UNL A   1      45.703  26.674  29.601  1.00  0.00     0.074 A 
ATOM     59  C   UNL A   1      46.127  25.337  29.239  1.00  0.00     0.031 C 
ATOM     60  C   UNL A   1      46.517  27.612  30.145  1.00  0.00     0.037 A 
BRANCH  47  61
ATOM     61  C   UNL A   1      43.758  33.036  31.249  1.00  0.00     0.058 A 
ATOM     62  C   UNL A   1      43.581  33.362  32.604  1.00  0.00     0.135 A 
ATOM     63  C   UNL A   1      44.096  34.076  30.367  1.00  0.00     0.135 A 
ATOM     64  F   UNL A   1      43.243  32.412  33.489  1.00  0.00    -0.206 F 
ATOM     65  C   UNL A   1      43.704  34.671  33.061  1.00  0.00     0.059 A 
ATOM     66  C   UNL A   1      44.251  35.388  30.807  1.00  0.00     0.059 A 
ATOM     67  F   UNL A   1      44.278  33.822  29.062  1.00  0.00    -0.206 F 
ATOM     68  C   UNL A   1      44.038  35.677  32.154  1.00  0.00     0.060 A 
BRANCH  68  69
ATOM     69  S   UNL A   1      44.196  37.369  32.765  1.00  0.00     0.124 S 
ATOM     70  O   UNL A   1      45.518  37.333  33.381  1.00  0.00    -0.237 OA
ATOM     71  O   UNL A   1      44.091  38.155  31.539  1.00  0.00    -0.237 OA
ATOM     72  O   UNL A   1      43.075  37.503  33.690  1.00  0.00    -0.744 OA
ENDBRANCH  68  69
ENDBRANCH  47  61
BRANCH  48  73
ATOM     73  C   UNL A   1      42.511  23.753  27.743  1.00  0.00     0.058 A 
ATOM     74  C   UNL A   1      42.492  23.521  26.360  1.00  0.00     0.135 A 
ATOM     75  C   UNL A   1      42.372  22.645  28.593  1.00  0.00     0.135 A 
ATOM     76  F   UNL A   1      42.617  24.549  25.506  1.00  0.00    -0.206 F 
ATOM     77  C   UNL A   1      42.320  22.244  25.837  1.00  0.00     0.059 A 
ATOM     78  C   UNL A   1      42.224  21.355  28.094  1.00  0.00     0.059 A 
ATOM     79  F   UNL A   1      42.402  22.812  29.925  1.00  0.00    -0.206 F 
ATOM     80  C   UNL A   1      42.187  21.166  26.713  1.00  0.00     0.060 A 
BRANCH  80  81
ATOM     81  S   UNL A   1      42.005  19.507  26.024  1.00  0.00     0.124 S 
ATOM     82  O   UNL A   1      42.845  19.589  24.836  1.00  0.00    -0.237 OA
ATOM     83  O   UNL A   1      42.508  18.667  27.107  1.00  0.00    -0.237 OA
ATOM     84  O   UNL A   1      40.569  19.402  25.777  1.00  0.00    -0.744 OA
ENDBRANCH  80  81
ENDBRANCH  48  73
BRANCH  60  85
ATOM     85  C   UNL A   1      47.940  27.214  30.424  1.00  0.00     0.058 A 
ATOM     86  C   UNL A   1      48.975  27.485  29.516  1.00  0.00     0.135 A 
ATOM     87  C   UNL A   1      48.279  26.599  31.640  1.00  0.00     0.135 A 
ATOM     88  F   UNL A   1      48.704  28.065  28.336  1.00  0.00    -0.206 F 
ATOM     89  C   UNL A   1      50.294  27.141  29.794  1.00  0.00     0.059 A 
ATOM     90  C   UNL A   1      49.594  26.270  31.951  1.00  0.00     0.059 A 
ATOM     91  F   UNL A   1      47.328  26.326  32.548  1.00  0.00    -0.206 F 
ATOM     92  C   UNL A   1      50.594  26.534  31.015  1.00  0.00     0.060 A 
BRANCH  92  93
ATOM     93  S   UNL A   1      52.314  26.124  31.379  1.00  0.00     0.124 S 
ATOM     94  O   UNL A   1      52.690  27.207  32.282  1.00  0.00    -0.237 OA
ATOM     95  O   UNL A   1      52.200  24.803  31.986  1.00  0.00    -0.237 OA
ATOM     96  O   UNL A   1      52.954  26.151  30.066  1.00  0.00    -0.744 OA
ENDBRANCH  92  93
ENDBRANCH  60  85
ENDBRANCH  34  35
ENDBRANCH  26  29
ENDBRANCH  24  25
ENDBRANCH   1  24
TORSDOF 17
ENDMDL
MODEL 2
REMARK VINA RESULT:     -10.8      0.977      2.205
REMARK SMILES CC(C)(C)OC(=O)[C@]1(C(=O)NCCCNC(=O)c2ccc(-c3c4nc(c(-c5c(F)cc(S(=O)(=O)[O-])cc5F)c5ccc([nH]5)c(-c5c(F)cc(S(=O)(=O)[O-])cc5F)c5nc(c(-c6c(F)cc(S(=O)(=O)[O-])cc6F)c6ccc3[nH]6)C=C5)C=C4)cc2)CC=CC[C@@H]1[NH3+]
REMARK SMILES IDX 13 1 12 2 11 3 9 4 10 5 8 7 84 8 88 9 85 10 87 11 86 12 6 13
REMARK SMILES IDX 7 14 5 15 2 16 1 17 3 18 4 19 89 20 14 24 15 25 16 26 17 28
REMARK SMILES IDX 18 29 19 30 83 31 20 32 82 33 21 34 22 35 23 36 76 37 24 38
REMARK SMILES IDX 81 39 75 40 77 41 25 42 80 43 74 44 73 45 26 47 60 48 39 49
REMARK SMILES IDX 59 50 40 51 43 52 58 53 78 54 41 55 42 56 57 58 79 59 44 60
REMARK SMILES IDX 27 61 28 62 37 63 29 64 30 65 36 66 38 67 31 68 32 69 33 70
REMARK SMILES IDX 34 71 35 72 61 73 62 74 71 75 63 76 64 77 70 78 72 79 65 80
REMARK SMILES IDX 66 81 67 82 68 83 69 84 45 85 46 86 55 87 47 88 48 89 54 90
REMARK SMILES IDX 56 91 49 92 50 93 51 94 52 95 53 96
REMARK H PARENT 11 6 89 21 89 22 89 23 15 27 77 46 43 57
REMARK Flexibility Score: inf
ROOT
ATOM      1  C   UNL A   1      34.082  28.288  25.348  1.00  0.00     0.042 C 
ENDROOT
BRANCH   1   2
ATOM      2  C   UNL A   1      32.833  28.154  24.481  1.00  0.00     0.117 C 
BRANCH   2   3
ATOM      3  N   UNL A   1      33.124  27.520  23.211  1.00  0.00    -0.355 N 
ATOM      4  C   UNL A   1      33.312  26.248  22.799  1.00  0.00     0.244 C 
ATOM      5  O   UNL A   1      33.678  26.169  21.613  1.00  0.00    -0.274 OA
ATOM      6  H   UNL A   1      33.202  28.169  22.475  1.00  0.00     0.163 HD
BRANCH   4   7
ATOM      7  C   UNL A   1      33.022  24.940  23.574  1.00  0.00     0.201 C 
ATOM      8  C   UNL A   1      33.134  24.957  25.120  1.00  0.00     0.062 C 
ATOM      9  C   UNL A   1      31.597  24.470  23.067  1.00  0.00     0.212 C 
ATOM     10  C   UNL A   1      31.909  25.275  25.911  1.00  0.00    -0.029 C 
ATOM     11  C   UNL A   1      30.394  24.751  24.015  1.00  0.00     0.093 C 
ATOM     12  C   UNL A   1      30.680  25.205  25.403  1.00  0.00    -0.025 C 
BRANCH   7  13
ATOM     13  C   UNL A   1      34.221  24.024  23.201  1.00  0.00     0.328 C 
ATOM     14  O   UNL A   1      34.245  23.372  22.160  1.00  0.00    -0.251 OA
BRANCH  13  15
ATOM     15  O   UNL A   1      35.232  24.013  24.108  1.00  0.00    -0.459 OA
BRANCH  15  16
ATOM     16  C   UNL A   1      35.712  22.749  24.645  1.00  0.00     0.104 C 
ATOM     17  C   UNL A   1      36.189  23.081  26.068  1.00  0.00     0.056 C 
ATOM     18  C   UNL A   1      36.916  22.271  23.822  1.00  0.00     0.056 C 
ATOM     19  C   UNL A   1      34.627  21.672  24.741  1.00  0.00     0.056 C 
ENDBRANCH  15  16
ENDBRANCH  13  15
ENDBRANCH   7  13
BRANCH   9  20
ATOM     20  N   UNL A   1      31.446  23.063  22.630  1.00  0.00    -0.353 N 
ATOM     21  H   UNL A   1      30.907  23.032  21.764  1.00  0.00     0.344 HD
ATOM     22  H   UNL A   1      30.958  22.533  23.353  1.00  0.00     0.344 HD
ATOM     23  H   UNL A   1      32.367  22.655  22.472  1.00  0.00     0.344 HD
ENDBRANCH   9  20
ENDBRANCH   4   7
ENDBRANCH   2   3
ENDBRANCH   1   2
BRANCH   1  24
ATOM     24  C   UNL A   1      33.784  28.338  26.845  1.00  0.00     0.118 C 
BRANCH  24  25
ATOM     25  N   UNL A   1      33.614  29.702  27.329  1.00  0.00    -0.352 N 
ATOM     26  C   UNL A   1      34.443  30.485  28.094  1.00  0.00     0.251 C 
ATOM     27  H   UNL A   1      32.768  30.132  27.064  1.00  0.00     0.163 HD
ATOM     28  O   UNL A   1      34.003  31.526  28.575  1.00  0.00    -0.269 OA
BRANCH  26  29
ATOM     29  C   UNL A   1      35.845  30.088  28.346  1.00  0.00     0.039 A 
ATOM     30  C   UNL A   1      36.769  30.170  27.299  1.00  0.00     0.014 A 
ATOM     31  C   UNL A   1      36.245  29.584  29.587  1.00  0.00     0.014 A 
ATOM     32  C   UNL A   1      38.099  29.799  27.510  1.00  0.00     0.010 A 
ATOM     33  C   UNL A   1      37.586  29.280  29.817  1.00  0.00     0.010 A 
ATOM     34  C   UNL A   1      38.526  29.378  28.780  1.00  0.00    -0.014 A 
BRANCH  34  35
ATOM     35  C   UNL A   1      39.947  29.028  29.040  1.00  0.00     0.031 A 
ATOM     36  C   UNL A   1      40.887  30.058  29.610  1.00  0.00     0.074 A 
ATOM     37  C   UNL A   1      40.405  27.806  28.707  1.00  0.00     0.049 A 
ATOM     38  N   UNL A   1      42.173  29.972  29.828  1.00  0.00    -0.248 NA
ATOM     39  C   UNL A   1      40.306  31.366  29.958  1.00  0.00     0.031 C 
ATOM     40  C   UNL A   1      39.602  26.735  28.112  1.00  0.00     0.029 A 
ATOM     41  N   UNL A   1      41.659  27.260  28.809  1.00  0.00    -0.354 N 
ATOM     42  C   UNL A   1      42.560  31.211  30.324  1.00  0.00     0.074 A 
ATOM     43  C   UNL A   1      41.380  32.049  30.328  1.00  0.00     0.031 C 
ATOM     44  C   UNL A   1      40.379  25.656  27.920  1.00  0.00     0.029 A 
ATOM     45  C   UNL A   1      41.741  25.969  28.340  1.00  0.00     0.049 A 
ATOM     46  H   UNL A   1      42.430  27.745  29.183  1.00  0.00     0.167 HD
ATOM     47  C   UNL A   1      43.780  31.610  30.758  1.00  0.00     0.037 A 
ATOM     48  C   UNL A   1      42.796  25.136  28.249  1.00  0.00     0.037 A 
ATOM     49  C   UNL A   1      44.945  30.763  30.773  1.00  0.00     0.049 A 
ATOM     50  C   UNL A   1      44.144  25.603  28.730  1.00  0.00     0.074 A 
ATOM     51  C   UNL A   1      46.217  31.057  31.234  1.00  0.00     0.029 A 
ATOM     52  N   UNL A   1      44.982  29.456  30.309  1.00  0.00    -0.354 N 
ATOM     53  N   UNL A   1      44.479  26.764  29.241  1.00  0.00    -0.248 NA
ATOM     54  C   UNL A   1      45.254  24.647  28.627  1.00  0.00     0.031 C 
ATOM     55  C   UNL A   1      47.031  29.941  31.015  1.00  0.00     0.029 A 
ATOM     56  C   UNL A   1      46.256  28.935  30.459  1.00  0.00     0.049 A 
ATOM     57  H   UNL A   1      44.215  28.971  29.928  1.00  0.00     0.167 HD
ATOM     58  C   UNL A   1      45.831  26.667  29.550  1.00  0.00     0.074 A 
ATOM     59  C   UNL A   1      46.249  25.331  29.175  1.00  0.00     0.031 C 
ATOM     60  C   UNL A   1      46.652  27.598  30.093  1.00  0.00     0.037 A 
BRANCH  47  61
ATOM     61  C   UNL A   1      43.915  33.021  31.260  1.00  0.00     0.058 A 
ATOM     62  C   UNL A   1      44.320  34.067  30.415  1.00  0.00     0.135 A 
ATOM     63  C   UNL A   1      43.603  33.342  32.592  1.00  0.00     0.135 A 
ATOM     64  F   UNL A   1      44.644  33.816  29.137  1.00  0.00    -0.206 F 
ATOM     65  C   UNL A   1      44.440  35.374  30.879  1.00  0.00     0.059 A 
ATOM     66  C   UNL A   1      43.690  34.646  33.070  1.00  0.00     0.059 A 
ATOM     67  F   UNL A   1      43.209  32.382  33.444  1.00  0.00    -0.206 F 
ATOM     68  C   UNL A   1      44.124  35.653  32.209  1.00  0.00     0.060 A 
BRANCH  68  69
ATOM     69  S   UNL A   1      44.283  37.354  32.793  1.00  0.00     0.124 S 
ATOM     70  O   UNL A   1      45.711  37.427  33.089  1.00  0.00    -0.237 OA
ATOM     71  O   UNL A   1      43.837  38.125  31.637  1.00  0.00    -0.237 OA
ATOM     72  O   UNL A   1      43.398  37.400  33.952  1.00  0.00    -0.744 OA
ENDBRANCH  68  69
ENDBRANCH  47  61
BRANCH  48  73
ATOM     73  C   UNL A   1      42.617  23.765  27.700  1.00  0.00     0.058 A 
ATOM     74  C   UNL A   1      42.458  22.664  28.554  1.00  0.00     0.135 A 
ATOM     75  C   UNL A   1      42.594  23.528  26.317  1.00  0.00     0.135 A 
ATOM     76  F   UNL A   1      42.477  22.839  29.885  1.00  0.00    -0.206 F 
ATOM     77  C   UNL A   1      42.302  21.373  28.059  1.00  0.00     0.059 A 
ATOM     78  C   UNL A   1      42.415  22.250  25.798  1.00  0.00     0.059 A 
ATOM     79  F   UNL A   1      42.725  24.551  25.458  1.00  0.00    -0.206 F 
ATOM     80  C   UNL A   1      42.282  21.176  26.678  1.00  0.00     0.060 A 
BRANCH  80  81
ATOM     81  S   UNL A   1      42.040  19.502  26.045  1.00  0.00     0.124 S 
ATOM     82  O   UNL A   1      42.513  18.695  27.163  1.00  0.00    -0.237 OA
ATOM     83  O   UNL A   1      40.601  19.473  25.797  1.00  0.00    -0.237 OA
ATOM     84  O   UNL A   1      42.874  19.473  24.846  1.00  0.00    -0.744 OA
ENDBRANCH  80  81
ENDBRANCH  48  73
BRANCH  60  85
ATOM     85  C   UNL A   1      48.077  27.196  30.356  1.00  0.00     0.058 A 
ATOM     86  C   UNL A   1      49.113  27.515  29.464  1.00  0.00     0.135 A 
ATOM     87  C   UNL A   1      48.417  26.526  31.543  1.00  0.00     0.135 A 
ATOM     88  F   UNL A   1      48.840  28.149  28.313  1.00  0.00    -0.206 F 
ATOM     89  C   UNL A   1      50.432  27.166  29.729  1.00  0.00     0.059 A 
ATOM     90  C   UNL A   1      49.733  26.190  31.841  1.00  0.00     0.059 A 
ATOM     91  F   UNL A   1      47.465  26.206  32.435  1.00  0.00    -0.206 F 
ATOM     92  C   UNL A   1      50.733  26.504  30.921  1.00  0.00     0.060 A 
BRANCH  92  93
ATOM     93  S   UNL A   1      52.455  26.087  31.269  1.00  0.00     0.124 S 
ATOM     94  O   UNL A   1      52.860  27.198  32.123  1.00  0.00    -0.237 OA
ATOM     95  O   UNL A   1      52.336  24.790  31.929  1.00  0.00    -0.237 OA
ATOM     96  O   UNL A   1      53.071  26.054  29.945  1.00  0.00    -0.744 OA
ENDBRANCH  92  93
ENDBRANCH  60  85
ENDBRANCH  34  35
ENDBRANCH  26  29
ENDBRANCH  24  25
ENDBRANCH   1  24
TORSDOF 17
ENDMDL
MODEL 3
REMARK VINA RESULT:     -10.8      4.936     10.318
REMARK SMILES CC(C)(C)OC(=O)[C@]1(C(=O)NCCCNC(=O)c2ccc(-c3c4nc(c(-c5c(F)cc(S(=O)(=O)[O-])cc5F)c5ccc([nH]5)c(-c5c(F)cc(S(=O)(=O)[O-])cc5F)c5nc(c(-c6c(F)cc(S(=O)(=O)[O-])cc6F)c6ccc3[nH]6)C=C5)C=C4)cc2)CC=CC[C@@H]1[NH3+]
REMARK SMILES IDX 13 1 12 2 11 3 9 4 10 5 8 7 84 8 88 9 85 10 87 11 86 12 6 13
REMARK SMILES IDX 7 14 5 15 2 16 1 17 3 18 4 19 89 20 14 24 15 25 16 26 17 28
REMARK SMILES IDX 18 29 19 30 83 31 20 32 82 33 21 34 22 35 23 36 76 37 24 38
REMARK SMILES IDX 81 39 75 40 77 41 25 42 80 43 74 44 73 45 26 47 60 48 39 49
REMARK SMILES IDX 59 50 40 51 43 52 58 53 78 54 41 55 42 56 57 58 79 59 44 60
REMARK SMILES IDX 27 61 28 62 37 63 29 64 30 65 36 66 38 67 31 68 32 69 33 70
REMARK SMILES IDX 34 71 35 72 61 73 62 74 71 75 63 76 64 77 70 78 72 79 65 80
REMARK SMILES IDX 66 81 67 82 68 83 69 84 45 85 46 86 55 87 47 88 48 89 54 90
REMARK SMILES IDX 56 91 49 92 50 93 51 94 52 95 53 96
REMARK H PARENT 11 6 89 21 89 22 89 23 15 27 77 46 43 57
REMARK Flexibility Score: inf
ROOT
ATOM      1  C   UNL A   1      37.276  23.568  25.487  1.00  0.00     0.042 C 
ENDROOT
BRANCH   1   2
ATOM      2  C   UNL A   1      35.840  24.073  25.602  1.00  0.00     0.117 C 
BRANCH   2   3
ATOM      3  N   UNL A   1      35.052  23.728  24.436  1.00  0.00    -0.355 N 
ATOM      4  C   UNL A   1      34.152  22.765  24.143  1.00  0.00     0.244 C 
ATOM      5  O   UNL A   1      33.812  22.764  22.947  1.00  0.00    -0.274 OA
ATOM      6  H   UNL A   1      35.210  24.339  23.681  1.00  0.00     0.163 HD
BRANCH   4   7
ATOM      7  C   UNL A   1      33.448  21.787  25.115  1.00  0.00     0.201 C 
ATOM      8  C   UNL A   1      34.293  21.112  26.225  1.00  0.00     0.062 C 
ATOM      9  C   UNL A   1      32.215  22.599  25.690  1.00  0.00     0.212 C 
ATOM     10  C   UNL A   1      34.390  21.793  27.548  1.00  0.00    -0.029 C 
ATOM     11  C   UNL A   1      32.374  23.179  27.126  1.00  0.00     0.093 C 
ATOM     12  C   UNL A   1      33.540  22.740  27.940  1.00  0.00    -0.025 C 
BRANCH   7  13
ATOM     13  C   UNL A   1      33.108  20.566  24.216  1.00  0.00     0.328 C 
ATOM     14  O   UNL A   1      32.113  20.542  23.494  1.00  0.00    -0.251 OA
BRANCH  13  15
ATOM     15  O   UNL A   1      33.997  19.541  24.290  1.00  0.00    -0.459 OA
BRANCH  15  16
ATOM     16  C   UNL A   1      33.528  18.166  24.218  1.00  0.00     0.104 C 
ATOM     17  C   UNL A   1      32.538  18.025  25.385  1.00  0.00     0.056 C 
ATOM     18  C   UNL A   1      34.708  17.213  24.457  1.00  0.00     0.056 C 
ATOM     19  C   UNL A   1      32.788  17.838  22.917  1.00  0.00     0.056 C 
ENDBRANCH  15  16
ENDBRANCH  13  15
ENDBRANCH   7  13
BRANCH   9  20
ATOM     20  N   UNL A   1      30.884  21.950  25.663  1.00  0.00    -0.353 N 
ATOM     21  H   UNL A   1      30.546  21.909  24.701  1.00  0.00     0.344 HD
ATOM     22  H   UNL A   1      30.230  22.490  26.230  1.00  0.00     0.344 HD
ATOM     23  H   UNL A   1      30.959  21.004  26.038  1.00  0.00     0.344 HD
ENDBRANCH   9  20
ENDBRANCH   4   7
ENDBRANCH   2   3
ENDBRANCH   1   2
BRANCH   1  24
ATOM     24  C   UNL A   1      38.223  24.175  26.521  1.00  0.00     0.118 C 
BRANCH  24  25
ATOM     25  N   UNL A   1      39.621  24.041  26.134  1.00  0.00    -0.352 N 
ATOM     26  C   UNL A   1      40.718  24.787  26.489  1.00  0.00     0.251 C 
ATOM     27  H   UNL A   1      39.811  23.295  25.520  1.00  0.00     0.163 HD
ATOM     28  O   UNL A   1      41.767  24.638  25.869  1.00  0.00    -0.269 OA
BRANCH  26  29
ATOM     29  C   UNL A   1      40.646  25.766  27.597  1.00  0.00     0.039 A 
ATOM     30  C   UNL A   1      41.627  26.759  27.683  1.00  0.00     0.014 A 
ATOM     31  C   UNL A   1      39.656  25.679  28.580  1.00  0.00     0.014 A 
ATOM     32  C   UNL A   1      41.583  27.694  28.721  1.00  0.00     0.010 A 
ATOM     33  C   UNL A   1      39.574  26.652  29.574  1.00  0.00     0.010 A 
ATOM     34  C   UNL A   1      40.540  27.666  29.659  1.00  0.00    -0.014 A 
BRANCH  34  35
ATOM     35  C   UNL A   1      40.445  28.682  30.740  1.00  0.00     0.031 A 
ATOM     36  C   UNL A   1      41.323  28.574  31.959  1.00  0.00     0.074 A 
ATOM     37  C   UNL A   1      39.528  29.665  30.652  1.00  0.00     0.049 A 
ATOM     38  N   UNL A   1      41.330  29.310  33.040  1.00  0.00    -0.248 NA
ATOM     39  C   UNL A   1      42.307  27.479  31.973  1.00  0.00     0.031 C 
ATOM     40  C   UNL A   1      38.594  29.854  29.540  1.00  0.00     0.029 A 
ATOM     41  N   UNL A   1      39.221  30.685  31.517  1.00  0.00    -0.354 N 
ATOM     42  C   UNL A   1      42.303  28.762  33.868  1.00  0.00     0.074 A 
ATOM     43  C   UNL A   1      42.831  27.601  33.184  1.00  0.00     0.031 C 
ATOM     44  C   UNL A   1      37.833  30.934  29.782  1.00  0.00     0.029 A 
ATOM     45  C   UNL A   1      38.195  31.491  31.081  1.00  0.00     0.049 A 
ATOM     46  H   UNL A   1      39.691  30.828  32.371  1.00  0.00     0.167 HD
ATOM     47  C   UNL A   1      42.734  29.198  35.076  1.00  0.00     0.037 A 
ATOM     48  C   UNL A   1      37.607  32.552  31.666  1.00  0.00     0.037 A 
ATOM     49  C   UNL A   1      42.220  30.368  35.741  1.00  0.00     0.049 A 
ATOM     50  C   UNL A   1      38.097  33.014  33.013  1.00  0.00     0.074 A 
ATOM     51  C   UNL A   1      42.620  30.919  36.946  1.00  0.00     0.029 A 
ATOM     52  N   UNL A   1      41.195  31.168  35.257  1.00  0.00    -0.354 N 
ATOM     53  N   UNL A   1      39.052  32.511  33.758  1.00  0.00    -0.248 NA
ATOM     54  C   UNL A   1      37.433  34.188  33.594  1.00  0.00     0.031 C 
ATOM     55  C   UNL A   1      41.812  32.031  37.208  1.00  0.00     0.029 A 
ATOM     56  C   UNL A   1      40.940  32.200  36.144  1.00  0.00     0.049 A 
ATOM     57  H   UNL A   1      40.720  31.024  34.407  1.00  0.00     0.167 HD
ATOM     58  C   UNL A   1      39.125  33.326  34.882  1.00  0.00     0.074 A 
ATOM     59  C   UNL A   1      38.123  34.359  34.714  1.00  0.00     0.031 C 
ATOM     60  C   UNL A   1      39.947  33.228  35.956  1.00  0.00     0.037 A 
BRANCH  47  61
ATOM     61  C   UNL A   1      43.821  28.410  35.754  1.00  0.00     0.058 A 
ATOM     62  C   UNL A   1      45.177  28.736  35.589  1.00  0.00     0.135 A 
ATOM     63  C   UNL A   1      43.506  27.340  36.608  1.00  0.00     0.135 A 
ATOM     64  F   UNL A   1      45.537  29.739  34.774  1.00  0.00    -0.206 F 
ATOM     65  C   UNL A   1      46.183  28.010  36.221  1.00  0.00     0.059 A 
ATOM     66  C   UNL A   1      44.494  26.618  37.271  1.00  0.00     0.059 A 
ATOM     67  F   UNL A   1      42.226  26.986  36.804  1.00  0.00    -0.206 F 
ATOM     68  C   UNL A   1      45.831  26.951  37.059  1.00  0.00     0.060 A 
BRANCH  68  69
ATOM     69  S   UNL A   1      47.148  26.022  37.872  1.00  0.00     0.124 S 
ATOM     70  O   UNL A   1      47.840  25.436  36.728  1.00  0.00    -0.237 OA
ATOM     71  O   UNL A   1      47.877  27.069  38.583  1.00  0.00    -0.237 OA
ATOM     72  O   UNL A   1      46.426  25.079  38.720  1.00  0.00    -0.744 OA
ENDBRANCH  68  69
ENDBRANCH  47  61
BRANCH  48  73
ATOM     73  C   UNL A   1      36.502  33.268  30.973  1.00  0.00     0.058 A 
ATOM     74  C   UNL A   1      35.180  33.163  31.428  1.00  0.00     0.135 A 
ATOM     75  C   UNL A   1      36.745  34.074  29.850  1.00  0.00     0.135 A 
ATOM     76  F   UNL A   1      34.896  32.400  32.495  1.00  0.00    -0.206 F 
ATOM     77  C   UNL A   1      34.133  33.814  30.783  1.00  0.00     0.059 A 
ATOM     78  C   UNL A   1      35.718  34.756  29.204  1.00  0.00     0.059 A 
ATOM     79  F   UNL A   1      37.996  34.221  29.386  1.00  0.00    -0.206 F 
ATOM     80  C   UNL A   1      34.412  34.609  29.671  1.00  0.00     0.060 A 
BRANCH  80  81
ATOM     81  S   UNL A   1      33.052  35.483  28.867  1.00  0.00     0.124 S 
ATOM     82  O   UNL A   1      32.455  34.421  28.067  1.00  0.00    -0.237 OA
ATOM     83  O   UNL A   1      32.266  35.945  30.007  1.00  0.00    -0.237 OA
ATOM     84  O   UNL A   1      33.729  36.537  28.115  1.00  0.00    -0.744 OA
ENDBRANCH  80  81
ENDBRANCH  48  73
BRANCH  60  85
ATOM     85  C   UNL A   1      39.830  34.288  37.016  1.00  0.00     0.058 A 
ATOM     86  C   UNL A   1      40.443  35.542  36.879  1.00  0.00     0.135 A 
ATOM     87  C   UNL A   1      39.050  34.060  38.162  1.00  0.00     0.135 A 
ATOM     88  F   UNL A   1      41.205  35.807  35.807  1.00  0.00    -0.206 F 
ATOM     89  C   UNL A   1      40.306  36.528  37.851  1.00  0.00     0.059 A 
ATOM     90  C   UNL A   1      38.877  35.040  39.134  1.00  0.00     0.059 A 
ATOM     91  F   UNL A   1      38.434  32.880  38.338  1.00  0.00    -0.206 F 
ATOM     92  C   UNL A   1      39.519  36.268  38.975  1.00  0.00     0.060 A 
BRANCH  92  93
ATOM     93  S   UNL A   1      39.320  37.567  40.212  1.00  0.00     0.124 S 
ATOM     94  O   UNL A   1      40.661  38.139  40.257  1.00  0.00    -0.237 OA
ATOM     95  O   UNL A   1      38.290  38.412  39.616  1.00  0.00    -0.237 OA
ATOM     96  O   UNL A   1      38.908  36.837  41.408  1.00  0.00    -0.744 OA
ENDBRANCH  92  93
ENDBRANCH  60  85
ENDBRANCH  34  35
ENDBRANCH  26  29
ENDBRANCH  24  25
ENDBRANCH   1  24
TORSDOF 17
ENDMDL
