MODEL 1
REMARK VINA RESULT:     -11.5      0.000      0.000
REMARK SMILES CC(C)[NH+]1CCC(NC(=O)OC(C)(C)C)(C(=O)NCCCNC(=O)c2ccc(-c3c4nc(c(-c5c(F)cc(S(=O)(=O)[O-])cc5F)c5ccc([nH]5)c(-c5c(F)cc(S(=O)(=O)[O-])cc5F)c5nc(c(-c6c(F)cc(S(=O)(=O)[O-])cc6F)c6ccc3[nH]6)C=C5)C=C4)cc2)CC1
REMARK SMILES IDX 20 1 19 2 18 3 16 4 17 5 7 7 4 8 5 9 92 10 6 12 91 13 2 14
REMARK SMILES IDX 1 15 3 16 8 17 9 18 10 20 11 21 12 22 13 23 14 24 15 25
REMARK SMILES IDX 21 26 22 27 23 28 24 30 25 31 26 32 90 33 27 34 89 35 28 36
REMARK SMILES IDX 29 37 30 38 83 39 31 40 88 41 82 42 84 43 32 44 87 45 81 46
REMARK SMILES IDX 80 47 33 49 67 50 46 51 66 52 47 53 50 54 65 55 85 56 48 57
REMARK SMILES IDX 49 58 64 60 86 61 51 62 34 63 35 64 44 65 36 66 37 67 43 68
REMARK SMILES IDX 45 69 38 70 39 71 40 72 41 73 42 74 68 75 69 76 78 77 70 78
REMARK SMILES IDX 71 79 77 80 79 81 72 82 73 83 74 84 75 85 76 86 52 87 53 88
REMARK SMILES IDX 62 89 54 90 55 91 61 92 63 93 56 94 57 95 58 96 59 97 60 98
REMARK H PARENT 18 6 4 11 8 19 22 29 84 48 50 59
REMARK Flexibility Score: inf
ROOT
ATOM      1  C   UNL A   1      38.367  22.825  26.442  1.00  0.00     0.042 C 
ENDROOT
BRANCH   1   2
ATOM      2  C   UNL A   1      37.508  23.865  25.763  1.00  0.00     0.117 C 
BRANCH   2   3
ATOM      3  N   UNL A   1      36.952  23.361  24.525  1.00  0.00    -0.354 N 
ATOM      4  C   UNL A   1      35.654  23.298  24.126  1.00  0.00     0.246 C 
ATOM      5  O   UNL A   1      35.460  23.073  22.928  1.00  0.00    -0.272 OA
ATOM      6  H   UNL A   1      37.609  23.014  23.879  1.00  0.00     0.163 HD
BRANCH   4   7
ATOM      7  C   UNL A   1      34.492  23.486  25.147  1.00  0.00     0.132 C 
ATOM      8  N   UNL A   1      33.373  20.718  25.080  1.00  0.00    -0.333 N 
ATOM      9  C   UNL A   1      34.620  21.033  25.780  1.00  0.00     0.265 C 
ATOM     10  C   UNL A   1      33.042  21.686  24.024  1.00  0.00     0.265 C 
ATOM     11  H   UNL A   1      32.605  20.821  25.744  1.00  0.00     0.348 HD
ATOM     12  C   UNL A   1      34.616  22.463  26.304  1.00  0.00     0.100 C 
ATOM     13  C   UNL A   1      33.147  23.165  24.466  1.00  0.00     0.100 C 
BRANCH   8  14
ATOM     14  C   UNL A   1      33.357  19.296  24.646  1.00  0.00     0.177 C 
ATOM     15  C   UNL A   1      32.799  18.357  25.723  1.00  0.00     0.075 C 
ATOM     16  C   UNL A   1      32.647  19.015  23.309  1.00  0.00     0.075 C 
ENDBRANCH   8  14
BRANCH   7  17
ATOM     17  N   UNL A   1      34.466  24.862  25.727  1.00  0.00    -0.306 N 
ATOM     18  C   UNL A   1      34.141  26.071  25.168  1.00  0.00     0.408 C 
ATOM     19  H   UNL A   1      34.729  24.910  26.675  1.00  0.00     0.168 HD
ATOM     20  O   UNL A   1      34.018  27.066  25.875  1.00  0.00    -0.225 OA
BRANCH  18  21
ATOM     21  O   UNL A   1      34.088  26.067  23.821  1.00  0.00    -0.444 OA
BRANCH  21  22
ATOM     22  C   UNL A   1      33.013  26.690  23.059  1.00  0.00     0.106 C 
ATOM     23  C   UNL A   1      31.663  26.473  23.744  1.00  0.00     0.056 C 
ATOM     24  C   UNL A   1      33.253  28.182  22.786  1.00  0.00     0.056 C 
ATOM     25  C   UNL A   1      33.011  25.952  21.708  1.00  0.00     0.056 C 
ENDBRANCH  21  22
ENDBRANCH  18  21
ENDBRANCH   7  17
ENDBRANCH   4   7
ENDBRANCH   2   3
ENDBRANCH   1   2
BRANCH   1  26
ATOM     26  C   UNL A   1      39.601  23.440  27.083  1.00  0.00     0.118 C 
BRANCH  26  27
ATOM     27  N   UNL A   1      40.535  23.977  26.096  1.00  0.00    -0.352 N 
ATOM     28  C   UNL A   1      41.199  25.179  26.102  1.00  0.00     0.251 C 
ATOM     29  H   UNL A   1      40.712  23.398  25.320  1.00  0.00     0.163 HD
ATOM     30  O   UNL A   1      41.783  25.571  25.096  1.00  0.00    -0.269 OA
BRANCH  28  31
ATOM     31  C   UNL A   1      41.179  25.990  27.331  1.00  0.00     0.039 A 
ATOM     32  C   UNL A   1      42.214  26.892  27.576  1.00  0.00     0.014 A 
ATOM     33  C   UNL A   1      40.091  25.899  28.203  1.00  0.00     0.014 A 
ATOM     34  C   UNL A   1      42.117  27.758  28.663  1.00  0.00     0.010 A 
ATOM     35  C   UNL A   1      39.943  26.837  29.212  1.00  0.00     0.010 A 
ATOM     36  C   UNL A   1      40.960  27.768  29.462  1.00  0.00    -0.014 A 
BRANCH  36  37
ATOM     37  C   UNL A   1      40.793  28.735  30.574  1.00  0.00     0.031 A 
ATOM     38  C   UNL A   1      41.646  28.603  31.807  1.00  0.00     0.074 A 
ATOM     39  C   UNL A   1      39.834  29.678  30.501  1.00  0.00     0.049 A 
ATOM     40  N   UNL A   1      41.601  29.292  32.917  1.00  0.00    -0.248 NA
ATOM     41  C   UNL A   1      42.663  27.536  31.806  1.00  0.00     0.031 C 
ATOM     42  C   UNL A   1      38.908  29.863  29.379  1.00  0.00     0.029 A 
ATOM     43  N   UNL A   1      39.468  30.655  31.392  1.00  0.00    -0.354 N 
ATOM     44  C   UNL A   1      42.571  28.738  33.744  1.00  0.00     0.074 A 
ATOM     45  C   UNL A   1      43.141  27.612  33.039  1.00  0.00     0.031 C 
ATOM     46  C   UNL A   1      38.104  30.907  29.638  1.00  0.00     0.029 A 
ATOM     47  C   UNL A   1      38.422  31.437  30.959  1.00  0.00     0.049 A 
ATOM     48  H   UNL A   1      39.913  30.785  32.261  1.00  0.00     0.167 HD
ATOM     49  C   UNL A   1      42.973  29.150  34.969  1.00  0.00     0.037 A 
ATOM     50  C   UNL A   1      37.787  32.458  31.565  1.00  0.00     0.037 A 
ATOM     51  C   UNL A   1      42.418  30.288  35.650  1.00  0.00     0.049 A 
ATOM     52  C   UNL A   1      38.245  32.888  32.933  1.00  0.00     0.074 A 
ATOM     53  C   UNL A   1      42.789  30.824  36.870  1.00  0.00     0.029 A 
ATOM     54  N   UNL A   1      41.374  31.068  35.171  1.00  0.00    -0.354 N 
ATOM     55  N   UNL A   1      39.211  32.395  33.673  1.00  0.00    -0.248 NA
ATOM     56  C   UNL A   1      37.535  34.019  33.548  1.00  0.00     0.031 C 
ATOM     57  C   UNL A   1      41.936  31.895  37.154  1.00  0.00     0.029 A 
ATOM     58  C   UNL A   1      41.074  32.066  36.082  1.00  0.00     0.049 A 
ATOM     59  H   UNL A   1      40.916  30.931  34.310  1.00  0.00     0.167 HD
ATOM     60  C   UNL A   1      39.244  33.174  34.824  1.00  0.00     0.074 A 
ATOM     61  C   UNL A   1      38.213  34.182  34.675  1.00  0.00     0.031 C 
ATOM     62  C   UNL A   1      40.053  33.068  35.907  1.00  0.00     0.037 A 
BRANCH  49  63
ATOM     63  C   UNL A   1      44.073  28.379  35.644  1.00  0.00     0.058 A 
ATOM     64  C   UNL A   1      45.428  28.687  35.432  1.00  0.00     0.135 A 
ATOM     65  C   UNL A   1      43.772  27.354  36.556  1.00  0.00     0.135 A 
ATOM     66  F   UNL A   1      45.774  29.643  34.555  1.00  0.00    -0.206 F 
ATOM     67  C   UNL A   1      46.442  27.996  36.085  1.00  0.00     0.059 A 
ATOM     68  C   UNL A   1      44.770  26.672  37.245  1.00  0.00     0.059 A 
ATOM     69  F   UNL A   1      42.495  27.013  36.792  1.00  0.00    -0.206 F 
ATOM     70  C   UNL A   1      46.103  26.995  36.996  1.00  0.00     0.060 A 
BRANCH  70  71
ATOM     71  S   UNL A   1      47.434  26.135  37.860  1.00  0.00     0.124 S 
ATOM     72  O   UNL A   1      48.614  26.702  37.214  1.00  0.00    -0.237 OA
ATOM     73  O   UNL A   1      47.215  26.537  39.245  1.00  0.00    -0.237 OA
ATOM     74  O   UNL A   1      47.176  24.729  37.568  1.00  0.00    -0.744 OA
ENDBRANCH  70  71
ENDBRANCH  49  63
BRANCH  50  75
ATOM     75  C   UNL A   1      36.658  33.151  30.885  1.00  0.00     0.058 A 
ATOM     76  C   UNL A   1      36.886  34.026  29.812  1.00  0.00     0.135 A 
ATOM     77  C   UNL A   1      35.330  32.965  31.302  1.00  0.00     0.135 A 
ATOM     78  F   UNL A   1      38.137  34.241  29.377  1.00  0.00    -0.206 F 
ATOM     79  C   UNL A   1      35.845  34.716  29.199  1.00  0.00     0.059 A 
ATOM     80  C   UNL A   1      34.270  33.620  30.685  1.00  0.00     0.059 A 
ATOM     81  F   UNL A   1      35.053  32.123  32.310  1.00  0.00    -0.206 F 
ATOM     82  C   UNL A   1      34.540  34.507  29.644  1.00  0.00     0.060 A 
BRANCH  82  83
ATOM     83  S   UNL A   1      33.194  35.394  28.830  1.00  0.00     0.124 S 
ATOM     84  O   UNL A   1      32.451  35.913  29.972  1.00  0.00    -0.237 OA
ATOM     85  O   UNL A   1      33.916  36.381  28.033  1.00  0.00    -0.237 OA
ATOM     86  O   UNL A   1      32.521  34.351  28.062  1.00  0.00    -0.744 OA
ENDBRANCH  82  83
ENDBRANCH  50  75
BRANCH  62  87
ATOM     87  C   UNL A   1      39.888  34.091  36.999  1.00  0.00     0.058 A 
ATOM     88  C   UNL A   1      40.462  35.368  36.910  1.00  0.00     0.135 A 
ATOM     89  C   UNL A   1      39.097  33.803  38.123  1.00  0.00     0.135 A 
ATOM     90  F   UNL A   1      41.232  35.692  35.859  1.00  0.00    -0.206 F 
ATOM     91  C   UNL A   1      40.281  36.315  37.912  1.00  0.00     0.059 A 
ATOM     92  C   UNL A   1      38.874  34.747  39.120  1.00  0.00     0.059 A 
ATOM     93  F   UNL A   1      38.515  32.600  38.252  1.00  0.00    -0.206 F 
ATOM     94  C   UNL A   1      39.481  35.997  39.011  1.00  0.00     0.060 A 
BRANCH  94  95
ATOM     95  S   UNL A   1      39.227  37.250  40.285  1.00  0.00     0.124 S 
ATOM     96  O   UNL A   1      40.594  37.680  40.551  1.00  0.00    -0.237 OA
ATOM     97  O   UNL A   1      38.376  38.219  39.602  1.00  0.00    -0.237 OA
ATOM     98  O   UNL A   1      38.580  36.510  41.365  1.00  0.00    -0.744 OA
ENDBRANCH  94  95
ENDBRANCH  62  87
ENDBRANCH  36  37
ENDBRANCH  28  31
ENDBRANCH  26  27
ENDBRANCH   1  26
TORSDOF 17
ENDMDL
MODEL 2
REMARK VINA RESULT:     -11.4      3.372      9.218
REMARK SMILES CC(C)[NH+]1CCC(NC(=O)OC(C)(C)C)(C(=O)NCCCNC(=O)c2ccc(-c3c4nc(c(-c5c(F)cc(S(=O)(=O)[O-])cc5F)c5ccc([nH]5)c(-c5c(F)cc(S(=O)(=O)[O-])cc5F)c5nc(c(-c6c(F)cc(S(=O)(=O)[O-])cc6F)c6ccc3[nH]6)C=C5)C=C4)cc2)CC1
REMARK SMILES IDX 20 1 19 2 18 3 16 4 17 5 7 7 4 8 5 9 92 10 6 12 91 13 2 14
REMARK SMILES IDX 1 15 3 16 8 17 9 18 10 20 11 21 12 22 13 23 14 24 15 25
REMARK SMILES IDX 21 26 22 27 23 28 24 30 25 31 26 32 90 33 27 34 89 35 28 36
REMARK SMILES IDX 29 37 30 38 83 39 31 40 88 41 82 42 84 43 32 44 87 45 81 46
REMARK SMILES IDX 80 47 33 49 67 50 46 51 66 52 47 53 50 54 65 55 85 56 48 57
REMARK SMILES IDX 49 58 64 60 86 61 51 62 34 63 35 64 44 65 36 66 37 67 43 68
REMARK SMILES IDX 45 69 38 70 39 71 40 72 41 73 42 74 68 75 69 76 78 77 70 78
REMARK SMILES IDX 71 79 77 80 79 81 72 82 73 83 74 84 75 85 76 86 52 87 53 88
REMARK SMILES IDX 62 89 54 90 55 91 61 92 63 93 56 94 57 95 58 96 59 97 60 98
REMARK H PARENT 18 6 4 11 8 19 22 29 84 48 50 59
REMARK Flexibility Score: inf
ROOT
ATOM      1  C   UNL A   1      32.145  27.989  27.556  1.00  0.00     0.042 C 
ENDROOT
BRANCH   1   2
ATOM      2  C   UNL A   1      31.556  26.841  26.772  1.00  0.00     0.117 C 
BRANCH   2   3
ATOM      3  N   UNL A   1      32.477  26.367  25.760  1.00  0.00    -0.354 N 
ATOM      4  C   UNL A   1      32.232  25.612  24.657  1.00  0.00     0.246 C 
ATOM      5  O   UNL A   1      33.133  25.564  23.815  1.00  0.00    -0.272 OA
ATOM      6  H   UNL A   1      33.417  26.631  25.891  1.00  0.00     0.163 HD
BRANCH   4   7
ATOM      7  C   UNL A   1      30.886  24.844  24.496  1.00  0.00     0.132 C 
ATOM      8  N   UNL A   1      31.937  22.051  24.613  1.00  0.00    -0.333 N 
ATOM      9  C   UNL A   1      31.819  22.885  25.810  1.00  0.00     0.265 C 
ATOM     10  C   UNL A   1      32.020  22.832  23.370  1.00  0.00     0.265 C 
ATOM     11  H   UNL A   1      31.068  21.529  24.506  1.00  0.00     0.348 HD
ATOM     12  C   UNL A   1      30.668  23.875  25.686  1.00  0.00     0.100 C 
ATOM     13  C   UNL A   1      30.950  23.942  23.247  1.00  0.00     0.100 C 
BRANCH   8  14
ATOM     14  C   UNL A   1      33.011  21.035  24.781  1.00  0.00     0.177 C 
ATOM     15  C   UNL A   1      33.504  20.933  26.230  1.00  0.00     0.075 C 
ATOM     16  C   UNL A   1      32.684  19.626  24.254  1.00  0.00     0.075 C 
ENDBRANCH   8  14
BRANCH   7  17
ATOM     17  N   UNL A   1      29.714  25.766  24.412  1.00  0.00    -0.306 N 
ATOM     18  C   UNL A   1      29.488  26.868  23.628  1.00  0.00     0.408 C 
ATOM     19  H   UNL A   1      28.976  25.545  25.026  1.00  0.00     0.168 HD
ATOM     20  O   UNL A   1      28.377  27.385  23.595  1.00  0.00    -0.225 OA
BRANCH  18  21
ATOM     21  O   UNL A   1      30.589  27.359  23.025  1.00  0.00    -0.444 OA
BRANCH  21  22
ATOM     22  C   UNL A   1      30.958  28.769  23.054  1.00  0.00     0.106 C 
ATOM     23  C   UNL A   1      30.181  29.558  22.000  1.00  0.00     0.056 C 
ATOM     24  C   UNL A   1      30.795  29.406  24.442  1.00  0.00     0.056 C 
ATOM     25  C   UNL A   1      32.454  28.791  22.691  1.00  0.00     0.056 C 
ENDBRANCH  21  22
ENDBRANCH  18  21
ENDBRANCH   7  17
ENDBRANCH   4   7
ENDBRANCH   2   3
ENDBRANCH   1   2
BRANCH   1  26
ATOM     26  C   UNL A   1      33.429  28.505  26.926  1.00  0.00     0.118 C 
BRANCH  26  27
ATOM     27  N   UNL A   1      33.491  29.964  26.895  1.00  0.00    -0.352 N 
ATOM     28  C   UNL A   1      34.413  30.802  27.473  1.00  0.00     0.251 C 
ATOM     29  H   UNL A   1      32.771  30.409  26.392  1.00  0.00     0.163 HD
ATOM     30  O   UNL A   1      34.204  32.009  27.533  1.00  0.00    -0.269 OA
BRANCH  28  31
ATOM     31  C   UNL A   1      35.643  30.217  28.033  1.00  0.00     0.039 A 
ATOM     32  C   UNL A   1      36.820  30.247  27.286  1.00  0.00     0.014 A 
ATOM     33  C   UNL A   1      35.635  29.700  29.332  1.00  0.00     0.014 A 
ATOM     34  C   UNL A   1      38.010  29.826  27.877  1.00  0.00     0.010 A 
ATOM     35  C   UNL A   1      36.835  29.392  29.952  1.00  0.00     0.010 A 
ATOM     36  C   UNL A   1      38.034  29.438  29.228  1.00  0.00    -0.014 A 
BRANCH  36  37
ATOM     37  C   UNL A   1      39.299  29.064  29.906  1.00  0.00     0.031 A 
ATOM     38  C   UNL A   1      39.751  29.836  31.116  1.00  0.00     0.074 A 
ATOM     39  C   UNL A   1      40.065  28.081  29.393  1.00  0.00     0.049 A 
ATOM     40  N   UNL A   1      40.858  29.721  31.801  1.00  0.00    -0.248 NA
ATOM     41  C   UNL A   1      38.855  30.901  31.602  1.00  0.00     0.031 C 
ATOM     42  C   UNL A   1      39.757  27.303  28.191  1.00  0.00     0.029 A 
ATOM     43  N   UNL A   1      41.270  27.574  29.812  1.00  0.00    -0.354 N 
ATOM     44  C   UNL A   1      40.795  30.699  32.786  1.00  0.00     0.074 A 
ATOM     45  C   UNL A   1      39.577  31.446  32.570  1.00  0.00     0.031 C 
ATOM     46  C   UNL A   1      40.729  26.399  27.987  1.00  0.00     0.029 A 
ATOM     47  C   UNL A   1      41.752  26.563  29.014  1.00  0.00     0.049 A 
ATOM     48  H   UNL A   1      41.744  27.903  30.609  1.00  0.00     0.167 HD
ATOM     49  C   UNL A   1      41.660  30.933  33.800  1.00  0.00     0.037 A 
ATOM     50  C   UNL A   1      42.896  25.856  29.097  1.00  0.00     0.037 A 
ATOM     51  C   UNL A   1      42.856  30.166  34.023  1.00  0.00     0.049 A 
ATOM     52  C   UNL A   1      43.847  26.146  30.227  1.00  0.00     0.074 A 
ATOM     53  C   UNL A   1      43.774  30.286  35.050  1.00  0.00     0.029 A 
ATOM     54  N   UNL A   1      43.302  29.136  33.206  1.00  0.00    -0.354 N 
ATOM     55  N   UNL A   1      43.739  27.030  31.191  1.00  0.00    -0.248 NA
ATOM     56  C   UNL A   1      45.073  25.337  30.289  1.00  0.00     0.031 C 
ATOM     57  C   UNL A   1      44.801  29.364  34.827  1.00  0.00     0.029 A 
ATOM     58  C   UNL A   1      44.493  28.628  33.694  1.00  0.00     0.049 A 
ATOM     59  H   UNL A   1      42.838  28.815  32.398  1.00  0.00     0.167 HD
ATOM     60  C   UNL A   1      44.865  26.862  31.989  1.00  0.00     0.074 A 
ATOM     61  C   UNL A   1      45.633  25.781  31.405  1.00  0.00     0.031 C 
ATOM     62  C   UNL A   1      45.233  27.540  33.105  1.00  0.00     0.037 A 
BRANCH  49  63
ATOM     63  C   UNL A   1      41.339  32.051  34.754  1.00  0.00     0.058 A 
ATOM     64  C   UNL A   1      41.817  33.356  34.548  1.00  0.00     0.135 A 
ATOM     65  C   UNL A   1      40.499  31.829  35.858  1.00  0.00     0.135 A 
ATOM     66  F   UNL A   1      42.640  33.621  33.522  1.00  0.00    -0.206 F 
ATOM     67  C   UNL A   1      41.488  34.395  35.411  1.00  0.00     0.059 A 
ATOM     68  C   UNL A   1      40.131  32.862  36.715  1.00  0.00     0.059 A 
ATOM     69  F   UNL A   1      40.019  30.601  36.106  1.00  0.00    -0.206 F 
ATOM     70  C   UNL A   1      40.638  34.140  36.488  1.00  0.00     0.060 A 
BRANCH  70  71
ATOM     71  S   UNL A   1      40.196  35.511  37.576  1.00  0.00     0.124 S 
ATOM     72  O   UNL A   1      41.407  35.648  38.378  1.00  0.00    -0.237 OA
ATOM     73  O   UNL A   1      39.939  36.589  36.626  1.00  0.00    -0.237 OA
ATOM     74  O   UNL A   1      39.025  35.015  38.290  1.00  0.00    -0.744 OA
ENDBRANCH  70  71
ENDBRANCH  49  63
BRANCH  50  75
ATOM     75  C   UNL A   1      43.204  24.802  28.091  1.00  0.00     0.058 A 
ATOM     76  C   UNL A   1      42.876  23.459  28.327  1.00  0.00     0.135 A 
ATOM     77  C   UNL A   1      43.844  25.113  26.881  1.00  0.00     0.135 A 
ATOM     78  F   UNL A   1      42.266  23.108  29.469  1.00  0.00    -0.206 F 
ATOM     79  C   UNL A   1      43.200  22.458  27.417  1.00  0.00     0.059 A 
ATOM     80  C   UNL A   1      44.150  24.134  25.941  1.00  0.00     0.059 A 
ATOM     81  F   UNL A   1      44.161  26.386  26.594  1.00  0.00    -0.206 F 
ATOM     82  C   UNL A   1      43.839  22.806  26.227  1.00  0.00     0.060 A 
BRANCH  82  83
ATOM     83  S   UNL A   1      44.240  21.502  25.043  1.00  0.00     0.124 S 
ATOM     84  O   UNL A   1      43.156  20.553  25.274  1.00  0.00    -0.237 OA
ATOM     85  O   UNL A   1      44.202  22.219  23.773  1.00  0.00    -0.237 OA
ATOM     86  O   UNL A   1      45.565  21.060  25.466  1.00  0.00    -0.744 OA
ENDBRANCH  82  83
ENDBRANCH  50  75
BRANCH  62  87
ATOM     87  C   UNL A   1      46.498  27.107  33.794  1.00  0.00     0.058 A 
ATOM     88  C   UNL A   1      46.502  26.098  34.770  1.00  0.00     0.135 A 
ATOM     89  C   UNL A   1      47.731  27.674  33.431  1.00  0.00     0.135 A 
ATOM     90  F   UNL A   1      45.351  25.527  35.157  1.00  0.00    -0.206 F 
ATOM     91  C   UNL A   1      47.682  25.686  35.381  1.00  0.00     0.059 A 
ATOM     92  C   UNL A   1      48.926  27.252  34.004  1.00  0.00     0.059 A 
ATOM     93  F   UNL A   1      47.784  28.634  32.495  1.00  0.00    -0.206 F 
ATOM     94  C   UNL A   1      48.889  26.266  34.988  1.00  0.00     0.060 A 
BRANCH  94  95
ATOM     95  S   UNL A   1      50.414  25.694  35.765  1.00  0.00     0.124 S 
ATOM     96  O   UNL A   1      51.189  25.261  34.608  1.00  0.00    -0.237 OA
ATOM     97  O   UNL A   1      50.892  26.899  36.436  1.00  0.00    -0.237 OA
ATOM     98  O   UNL A   1      49.963  24.627  36.654  1.00  0.00    -0.744 OA
ENDBRANCH  94  95
ENDBRANCH  62  87
ENDBRANCH  36  37
ENDBRANCH  28  31
ENDBRANCH  26  27
ENDBRANCH   1  26
TORSDOF 17
ENDMDL
MODEL 3
REMARK VINA RESULT:     -11.4      4.734     10.116
REMARK SMILES CC(C)[NH+]1CCC(NC(=O)OC(C)(C)C)(C(=O)NCCCNC(=O)c2ccc(-c3c4nc(c(-c5c(F)cc(S(=O)(=O)[O-])cc5F)c5ccc([nH]5)c(-c5c(F)cc(S(=O)(=O)[O-])cc5F)c5nc(c(-c6c(F)cc(S(=O)(=O)[O-])cc6F)c6ccc3[nH]6)C=C5)C=C4)cc2)CC1
REMARK SMILES IDX 20 1 19 2 18 3 16 4 17 5 7 7 4 8 5 9 92 10 6 12 91 13 2 14
REMARK SMILES IDX 1 15 3 16 8 17 9 18 10 20 11 21 12 22 13 23 14 24 15 25
REMARK SMILES IDX 21 26 22 27 23 28 24 30 25 31 26 32 90 33 27 34 89 35 28 36
REMARK SMILES IDX 29 37 30 38 83 39 31 40 88 41 82 42 84 43 32 44 87 45 81 46
REMARK SMILES IDX 80 47 33 49 67 50 46 51 66 52 47 53 50 54 65 55 85 56 48 57
REMARK SMILES IDX 49 58 64 60 86 61 51 62 34 63 35 64 44 65 36 66 37 67 43 68
REMARK SMILES IDX 45 69 38 70 39 71 40 72 41 73 42 74 68 75 69 76 78 77 70 78
REMARK SMILES IDX 71 79 77 80 79 81 72 82 73 83 74 84 75 85 76 86 52 87 53 88
REMARK SMILES IDX 62 89 54 90 55 91 61 92 63 93 56 94 57 95 58 96 59 97 60 98
REMARK H PARENT 18 6 4 11 8 19 22 29 84 48 50 59
REMARK Flexibility Score: inf
ROOT
ATOM      1  C   UNL A   1      32.102  27.887  27.019  1.00  0.00     0.042 C 
ENDROOT
BRANCH   1   2
ATOM      2  C   UNL A   1      32.142  26.396  26.781  1.00  0.00     0.117 C 
BRANCH   2   3
ATOM      3  N   UNL A   1      32.858  26.077  25.564  1.00  0.00    -0.354 N 
ATOM      4  C   UNL A   1      32.402  25.491  24.425  1.00  0.00     0.246 C 
ATOM      5  O   UNL A   1      33.139  25.567  23.437  1.00  0.00    -0.272 OA
ATOM      6  H   UNL A   1      33.812  26.319  25.561  1.00  0.00     0.163 HD
BRANCH   4   7
ATOM      7  C   UNL A   1      31.029  24.754  24.397  1.00  0.00     0.132 C 
ATOM      8  N   UNL A   1      32.024  21.939  24.322  1.00  0.00    -0.333 N 
ATOM      9  C   UNL A   1      32.060  22.741  25.546  1.00  0.00     0.265 C 
ATOM     10  C   UNL A   1      31.984  22.753  23.098  1.00  0.00     0.265 C 
ATOM     11  H   UNL A   1      31.136  21.437  24.301  1.00  0.00     0.348 HD
ATOM     12  C   UNL A   1      30.925  23.757  25.578  1.00  0.00     0.100 C 
ATOM     13  C   UNL A   1      30.933  23.887  23.126  1.00  0.00     0.100 C 
BRANCH   8  14
ATOM     14  C   UNL A   1      33.086  20.898  24.342  1.00  0.00     0.177 C 
ATOM     15  C   UNL A   1      34.428  21.434  24.855  1.00  0.00     0.075 C 
ATOM     16  C   UNL A   1      32.735  19.601  25.093  1.00  0.00     0.075 C 
ENDBRANCH   8  14
BRANCH   7  17
ATOM     17  N   UNL A   1      29.877  25.701  24.470  1.00  0.00    -0.306 N 
ATOM     18  C   UNL A   1      29.562  26.798  23.710  1.00  0.00     0.408 C 
ATOM     19  H   UNL A   1      29.232  25.505  25.188  1.00  0.00     0.168 HD
ATOM     20  O   UNL A   1      28.468  27.340  23.830  1.00  0.00    -0.225 OA
BRANCH  18  21
ATOM     21  O   UNL A   1      30.572  27.257  22.945  1.00  0.00    -0.444 OA
BRANCH  21  22
ATOM     22  C   UNL A   1      30.994  28.652  22.926  1.00  0.00     0.106 C 
ATOM     23  C   UNL A   1      32.475  28.769  22.568  1.00  0.00     0.056 C 
ATOM     24  C   UNL A   1      30.137  29.529  22.001  1.00  0.00     0.056 C 
ATOM     25  C   UNL A   1      30.790  29.142  24.371  1.00  0.00     0.056 C 
ENDBRANCH  21  22
ENDBRANCH  18  21
ENDBRANCH   7  17
ENDBRANCH   4   7
ENDBRANCH   2   3
ENDBRANCH   1   2
BRANCH   1  26
ATOM     26  C   UNL A   1      33.489  28.458  27.267  1.00  0.00     0.118 C 
BRANCH  26  27
ATOM     27  N   UNL A   1      33.461  29.889  27.558  1.00  0.00    -0.352 N 
ATOM     28  C   UNL A   1      34.426  30.670  28.145  1.00  0.00     0.251 C 
ATOM     29  H   UNL A   1      32.635  30.359  27.300  1.00  0.00     0.163 HD
ATOM     30  O   UNL A   1      34.164  31.811  28.512  1.00  0.00    -0.269 OA
BRANCH  28  31
ATOM     31  C   UNL A   1      35.771  30.101  28.339  1.00  0.00     0.039 A 
ATOM     32  C   UNL A   1      36.690  30.140  27.292  1.00  0.00     0.014 A 
ATOM     33  C   UNL A   1      36.134  29.593  29.590  1.00  0.00     0.014 A 
ATOM     34  C   UNL A   1      38.003  29.734  27.526  1.00  0.00     0.010 A 
ATOM     35  C   UNL A   1      37.463  29.301  29.849  1.00  0.00     0.010 A 
ATOM     36  C   UNL A   1      38.410  29.355  28.817  1.00  0.00    -0.014 A 
BRANCH  36  37
ATOM     37  C   UNL A   1      39.818  28.998  29.114  1.00  0.00     0.031 A 
ATOM     38  C   UNL A   1      40.731  30.024  29.729  1.00  0.00     0.074 A 
ATOM     39  C   UNL A   1      40.286  27.783  28.768  1.00  0.00     0.049 A 
ATOM     40  N   UNL A   1      42.009  29.939  29.991  1.00  0.00    -0.248 NA
ATOM     41  C   UNL A   1      40.138  31.331  30.066  1.00  0.00     0.031 C 
ATOM     42  C   UNL A   1      39.508  26.728  28.113  1.00  0.00     0.029 A 
ATOM     43  N   UNL A   1      41.534  27.230  28.908  1.00  0.00    -0.354 N 
ATOM     44  C   UNL A   1      42.371  31.176  30.510  1.00  0.00     0.074 A 
ATOM     45  C   UNL A   1      41.198  32.019  30.463  1.00  0.00     0.031 C 
ATOM     46  C   UNL A   1      40.287  25.649  27.936  1.00  0.00     0.029 A 
ATOM     47  C   UNL A   1      41.630  25.947  28.421  1.00  0.00     0.049 A 
ATOM     48  H   UNL A   1      42.291  27.707  29.320  1.00  0.00     0.167 HD
ATOM     49  C   UNL A   1      43.567  31.564  31.012  1.00  0.00     0.037 A 
ATOM     50  C   UNL A   1      42.685  25.112  28.364  1.00  0.00     0.037 A 
ATOM     51  C   UNL A   1      44.720  30.708  31.080  1.00  0.00     0.049 A 
ATOM     52  C   UNL A   1      44.007  25.574  28.917  1.00  0.00     0.074 A 
ATOM     53  C   UNL A   1      45.964  30.985  31.618  1.00  0.00     0.029 A 
ATOM     54  N   UNL A   1      44.773  29.409  30.596  1.00  0.00    -0.354 N 
ATOM     55  N   UNL A   1      44.314  26.725  29.468  1.00  0.00    -0.248 NA
ATOM     56  C   UNL A   1      45.125  24.623  28.851  1.00  0.00     0.031 C 
ATOM     57  C   UNL A   1      46.785  29.872  31.412  1.00  0.00     0.029 A 
ATOM     58  C   UNL A   1      46.035  28.879  30.803  1.00  0.00     0.049 A 
ATOM     59  H   UNL A   1      44.023  28.934  30.170  1.00  0.00     0.167 HD
ATOM     60  C   UNL A   1      45.650  26.624  29.840  1.00  0.00     0.074 A 
ATOM     61  C   UNL A   1      46.086  25.293  29.468  1.00  0.00     0.031 C 
ATOM     62  C   UNL A   1      46.445  27.547  30.437  1.00  0.00     0.037 A 
BRANCH  49  63
ATOM     63  C   UNL A   1      43.684  32.967  31.541  1.00  0.00     0.058 A 
ATOM     64  C   UNL A   1      44.127  34.026  30.731  1.00  0.00     0.135 A 
ATOM     65  C   UNL A   1      43.298  33.270  32.858  1.00  0.00     0.135 A 
ATOM     66  F   UNL A   1      44.528  33.792  29.472  1.00  0.00    -0.206 F 
ATOM     67  C   UNL A   1      44.199  35.329  31.212  1.00  0.00     0.059 A 
ATOM     68  C   UNL A   1      43.332  34.571  33.349  1.00  0.00     0.059 A 
ATOM     69  F   UNL A   1      42.873  32.295  33.678  1.00  0.00    -0.206 F 
ATOM     70  C   UNL A   1      43.793  35.593  32.520  1.00  0.00     0.060 A 
BRANCH  70  71
ATOM     71  S   UNL A   1      43.862  37.296  33.113  1.00  0.00     0.124 S 
ATOM     72  O   UNL A   1      42.705  37.342  34.002  1.00  0.00    -0.237 OA
ATOM     73  O   UNL A   1      45.166  37.344  33.767  1.00  0.00    -0.237 OA
ATOM     74  O   UNL A   1      43.746  38.086  31.892  1.00  0.00    -0.744 OA
ENDBRANCH  70  71
ENDBRANCH  49  63
BRANCH  50  75
ATOM     75  C   UNL A   1      42.538  23.754  27.771  1.00  0.00     0.058 A 
ATOM     76  C   UNL A   1      42.374  22.623  28.584  1.00  0.00     0.135 A 
ATOM     77  C   UNL A   1      42.573  23.557  26.381  1.00  0.00     0.135 A 
ATOM     78  F   UNL A   1      42.337  22.756  29.919  1.00  0.00    -0.206 F 
ATOM     79  C   UNL A   1      42.283  21.343  28.046  1.00  0.00     0.059 A 
ATOM     80  C   UNL A   1      42.453  22.291  25.818  1.00  0.00     0.059 A 
ATOM     81  F   UNL A   1      42.706  24.607  25.555  1.00  0.00    -0.206 F 
ATOM     82  C   UNL A   1      42.325  21.188  26.660  1.00  0.00     0.060 A 
BRANCH  82  83
ATOM     83  S   UNL A   1      42.188  19.525  25.970  1.00  0.00     0.124 S 
ATOM     84  O   UNL A   1      43.063  19.617  24.806  1.00  0.00    -0.237 OA
ATOM     85  O   UNL A   1      42.672  18.696  27.070  1.00  0.00    -0.237 OA
ATOM     86  O   UNL A   1      40.763  19.398  25.679  1.00  0.00    -0.744 OA
ENDBRANCH  82  83
ENDBRANCH  50  75
BRANCH  62  87
ATOM     87  C   UNL A   1      47.856  27.138  30.765  1.00  0.00     0.058 A 
ATOM     88  C   UNL A   1      48.175  26.468  31.956  1.00  0.00     0.135 A 
ATOM     89  C   UNL A   1      48.891  27.374  29.846  1.00  0.00     0.135 A 
ATOM     90  F   UNL A   1      47.223  26.223  32.870  1.00  0.00    -0.206 F 
ATOM     91  C   UNL A   1      49.478  26.071  32.237  1.00  0.00     0.059 A 
ATOM     92  C   UNL A   1      50.194  26.954  30.091  1.00  0.00     0.059 A 
ATOM     93  F   UNL A   1      48.638  28.001  28.686  1.00  0.00    -0.206 F 
ATOM     94  C   UNL A   1      50.480  26.314  31.296  1.00  0.00     0.060 A 
BRANCH  94  95
ATOM     95  S   UNL A   1      52.159  25.760  31.660  1.00  0.00     0.124 S 
ATOM     96  O   UNL A   1      52.536  26.660  32.744  1.00  0.00    -0.237 OA
ATOM     97  O   UNL A   1      51.951  24.365  32.035  1.00  0.00    -0.237 OA
ATOM     98  O   UNL A   1      52.865  25.965  30.398  1.00  0.00    -0.744 OA
ENDBRANCH  94  95
ENDBRANCH  62  87
ENDBRANCH  36  37
ENDBRANCH  28  31
ENDBRANCH  26  27
ENDBRANCH   1  26
TORSDOF 17
ENDMDL
