MODEL 1
REMARK VINA RESULT:     -10.9      0.000      0.000
REMARK SMILES O=C(C[C@@H]1CN(C(=O)[C@H]2C[C@H](O)C[NH2+]2)CCO1)NCCCNC(=O)c1ccc(-c2c3nc(c(-c4c(F)cc(S(=O)(=O)[O-])cc4F)c4ccc([nH]4)c(-c4c(F)cc(S(=O)(=O)[O-])cc4F)c4nc(c(-c5c(F)cc(S(=O)(=O)[O-])cc5F)c5ccc2[nH]5)C=C4)C=C3)cc1
REMARK SMILES IDX 19 1 18 2 1 3 2 4 3 6 4 7 5 8 17 9 6 10 16 11 15 12 7 13
REMARK SMILES IDX 8 14 9 15 10 16 14 17 11 18 13 19 12 22 20 24 21 25 22 26
REMARK SMILES IDX 23 27 24 29 25 30 26 31 90 32 27 33 89 34 28 35 29 36 30 37
REMARK SMILES IDX 83 38 31 39 88 40 82 41 84 42 32 43 87 44 81 45 80 46 33 48
REMARK SMILES IDX 67 49 46 50 66 51 47 52 50 53 65 54 85 55 48 56 49 57 64 59
REMARK SMILES IDX 86 60 51 61 34 62 35 63 44 64 36 65 37 66 43 67 45 68 38 69
REMARK SMILES IDX 39 70 40 71 41 72 42 73 68 74 69 75 78 76 70 77 71 78 77 79
REMARK SMILES IDX 79 80 72 81 73 82 74 83 75 84 76 85 52 86 53 87 62 88 54 89
REMARK SMILES IDX 55 90 61 91 63 92 56 93 57 94 58 95 59 96 60 97
REMARK H PARENT 18 5 14 20 14 21 12 23 22 28 84 47 50 58
REMARK Flexibility Score: inf
ROOT
ATOM      1  C   UNL A   1      32.914  27.968  24.765  1.00  0.00     0.117 C 
ENDROOT
BRANCH   1   2
ATOM      2  N   UNL A   1      32.868  26.523  24.633  1.00  0.00    -0.356 N 
ATOM      3  O   UNL A   1      30.886  26.284  25.768  1.00  0.00    -0.275 OA
ATOM      4  C   UNL A   1      31.780  25.802  25.083  1.00  0.00     0.222 C 
ATOM      5  H   UNL A   1      33.625  26.051  24.217  1.00  0.00     0.163 HD
BRANCH   4   6
ATOM      6  C   UNL A   1      31.755  24.366  24.602  1.00  0.00     0.133 C 
BRANCH   6   7
ATOM      7  C   UNL A   1      32.936  23.550  25.139  1.00  0.00     0.147 C 
ATOM      8  C   UNL A   1      32.669  22.035  25.165  1.00  0.00     0.152 C 
ATOM      9  O   UNL A   1      33.303  24.006  26.453  1.00  0.00    -0.374 OA
ATOM     10  N   UNL A   1      33.838  21.314  25.650  1.00  0.00    -0.333 N 
ATOM     11  C   UNL A   1      34.470  23.319  26.939  1.00  0.00     0.182 C 
ATOM     12  C   UNL A   1      34.277  21.795  26.965  1.00  0.00     0.148 C 
BRANCH  10  13
ATOM     13  C   UNL A   1      34.466  20.217  25.079  1.00  0.00     0.281 C 
ATOM     14  O   UNL A   1      35.668  20.264  24.792  1.00  0.00    -0.268 OA
BRANCH  13  15
ATOM     15  C   UNL A   1      33.672  18.927  24.744  1.00  0.00     0.275 C 
ATOM     16  C   UNL A   1      34.487  17.712  24.315  1.00  0.00     0.113 C 
ATOM     17  N   UNL A   1      32.785  18.519  25.864  1.00  0.00    -0.334 N 
ATOM     18  C   UNL A   1      34.032  16.581  25.227  1.00  0.00     0.175 C 
ATOM     19  C   UNL A   1      32.699  17.059  25.796  1.00  0.00     0.293 C 
ATOM     20  H   UNL A   1      31.859  18.934  25.754  1.00  0.00     0.347 HD
ATOM     21  H   UNL A   1      33.148  18.831  26.764  1.00  0.00     0.347 HD
BRANCH  18  22
ATOM     22  O   UNL A   1      33.939  15.347  24.540  1.00  0.00    -0.387 OA
ATOM     23  H   UNL A   1      34.735  15.216  24.003  1.00  0.00     0.211 HD
ENDBRANCH  18  22
ENDBRANCH  13  15
ENDBRANCH  10  13
ENDBRANCH   6   7
ENDBRANCH   4   6
ENDBRANCH   1   2
BRANCH   1  24
ATOM     24  C   UNL A   1      34.044  28.457  25.660  1.00  0.00     0.042 C 
BRANCH  24  25
ATOM     25  C   UNL A   1      33.707  28.562  27.145  1.00  0.00     0.118 C 
BRANCH  25  26
ATOM     26  N   UNL A   1      33.633  29.928  27.638  1.00  0.00    -0.352 N 
ATOM     27  C   UNL A   1      34.597  30.672  28.283  1.00  0.00     0.251 C 
ATOM     28  H   UNL A   1      32.774  30.385  27.492  1.00  0.00     0.163 HD
ATOM     29  O   UNL A   1      34.311  31.789  28.709  1.00  0.00    -0.269 OA
BRANCH  27  30
ATOM     30  C   UNL A   1      35.955  30.119  28.506  1.00  0.00     0.039 A 
ATOM     31  C   UNL A   1      36.878  30.173  27.458  1.00  0.00     0.014 A 
ATOM     32  C   UNL A   1      36.327  29.565  29.733  1.00  0.00     0.014 A 
ATOM     33  C   UNL A   1      38.194  29.747  27.666  1.00  0.00     0.010 A 
ATOM     34  C   UNL A   1      37.657  29.207  29.960  1.00  0.00     0.010 A 
ATOM     35  C   UNL A   1      38.609  29.302  28.933  1.00  0.00    -0.014 A 
BRANCH  35  36
ATOM     36  C   UNL A   1      40.037  28.972  29.197  1.00  0.00     0.031 A 
ATOM     37  C   UNL A   1      40.960  29.983  29.823  1.00  0.00     0.074 A 
ATOM     38  C   UNL A   1      40.521  27.769  28.823  1.00  0.00     0.049 A 
ATOM     39  N   UNL A   1      42.236  29.877  30.099  1.00  0.00    -0.248 NA
ATOM     40  C   UNL A   1      40.382  31.292  30.162  1.00  0.00     0.031 C 
ATOM     41  C   UNL A   1      39.747  26.717  28.156  1.00  0.00     0.029 A 
ATOM     42  N   UNL A   1      41.776  27.226  28.943  1.00  0.00    -0.354 N 
ATOM     43  C   UNL A   1      42.614  31.102  30.637  1.00  0.00     0.074 A 
ATOM     44  C   UNL A   1      41.444  31.954  30.599  1.00  0.00     0.031 C 
ATOM     45  C   UNL A   1      40.537  25.651  27.953  1.00  0.00     0.029 A 
ATOM     46  C   UNL A   1      41.880  25.951  28.437  1.00  0.00     0.049 A 
ATOM     47  H   UNL A   1      42.533  27.705  29.353  1.00  0.00     0.167 HD
ATOM     48  C   UNL A   1      43.817  31.476  31.138  1.00  0.00     0.037 A 
ATOM     49  C   UNL A   1      42.936  25.116  28.366  1.00  0.00     0.037 A 
ATOM     50  C   UNL A   1      44.976  30.621  31.189  1.00  0.00     0.049 A 
ATOM     51  C   UNL A   1      44.260  25.554  28.929  1.00  0.00     0.074 A 
ATOM     52  C   UNL A   1      46.222  30.892  31.727  1.00  0.00     0.029 A 
ATOM     53  N   UNL A   1      45.036  29.331  30.681  1.00  0.00    -0.354 N 
ATOM     54  N   UNL A   1      44.580  26.694  29.495  1.00  0.00    -0.248 NA
ATOM     55  C   UNL A   1      45.366  24.589  28.853  1.00  0.00     0.031 C 
ATOM     56  C   UNL A   1      47.049  29.786  31.502  1.00  0.00     0.029 A 
ATOM     57  C   UNL A   1      46.304  28.803  30.873  1.00  0.00     0.049 A 
ATOM     58  H   UNL A   1      44.288  28.860  30.247  1.00  0.00     0.167 HD
ATOM     59  C   UNL A   1      45.914  26.571  29.868  1.00  0.00     0.074 A 
ATOM     60  C   UNL A   1      46.337  25.242  29.477  1.00  0.00     0.031 C 
ATOM     61  C   UNL A   1      46.715  27.478  30.481  1.00  0.00     0.037 A 
BRANCH  48  62
ATOM     62  C   UNL A   1      43.944  32.877  31.677  1.00  0.00     0.058 A 
ATOM     63  C   UNL A   1      43.779  33.160  33.042  1.00  0.00     0.135 A 
ATOM     64  C   UNL A   1      44.278  33.943  30.825  1.00  0.00     0.135 A 
ATOM     65  F   UNL A   1      43.446  32.182  33.900  1.00  0.00    -0.206 F 
ATOM     66  C   UNL A   1      43.909  34.453  33.539  1.00  0.00     0.059 A 
ATOM     67  C   UNL A   1      44.443  35.240  31.304  1.00  0.00     0.059 A 
ATOM     68  F   UNL A   1      44.450  33.731  29.511  1.00  0.00    -0.206 F 
ATOM     69  C   UNL A   1      44.240  35.487  32.661  1.00  0.00     0.060 A 
BRANCH  69  70
ATOM     70  S   UNL A   1      44.406  37.158  33.323  1.00  0.00     0.124 S 
ATOM     71  O   UNL A   1      45.117  36.905  34.572  1.00  0.00    -0.237 OA
ATOM     72  O   UNL A   1      45.173  37.832  32.282  1.00  0.00    -0.237 OA
ATOM     73  O   UNL A   1      43.024  37.605  33.469  1.00  0.00    -0.744 OA
ENDBRANCH  69  70
ENDBRANCH  48  62
BRANCH  49  74
ATOM     74  C   UNL A   1      42.777  23.767  27.756  1.00  0.00     0.058 A 
ATOM     75  C   UNL A   1      42.904  23.581  26.372  1.00  0.00     0.135 A 
ATOM     76  C   UNL A   1      42.506  22.639  28.544  1.00  0.00     0.135 A 
ATOM     77  F   UNL A   1      43.155  24.631  25.575  1.00  0.00    -0.206 F 
ATOM     78  C   UNL A   1      42.750  22.329  25.787  1.00  0.00     0.059 A 
ATOM     79  C   UNL A   1      42.375  21.370  27.986  1.00  0.00     0.059 A 
ATOM     80  F   UNL A   1      42.391  22.759  29.876  1.00  0.00    -0.206 F 
ATOM     81  C   UNL A   1      42.488  21.228  26.604  1.00  0.00     0.060 A 
BRANCH  81  82
ATOM     82  S   UNL A   1      42.339  19.598  25.841  1.00  0.00     0.124 S 
ATOM     83  O   UNL A   1      42.686  18.720  26.953  1.00  0.00    -0.237 OA
ATOM     84  O   UNL A   1      40.939  19.582  25.427  1.00  0.00    -0.237 OA
ATOM     85  O   UNL A   1      43.307  19.648  24.750  1.00  0.00    -0.744 OA
ENDBRANCH  81  82
ENDBRANCH  49  74
BRANCH  61  86
ATOM     86  C   UNL A   1      48.124  27.052  30.799  1.00  0.00     0.058 A 
ATOM     87  C   UNL A   1      49.201  27.361  29.953  1.00  0.00     0.135 A 
ATOM     88  C   UNL A   1      48.403  26.346  31.980  1.00  0.00     0.135 A 
ATOM     89  F   UNL A   1      48.992  28.029  28.807  1.00  0.00    -0.206 F 
ATOM     90  C   UNL A   1      50.499  26.954  30.249  1.00  0.00     0.059 A 
ATOM     91  C   UNL A   1      49.696  25.957  32.312  1.00  0.00     0.059 A 
ATOM     92  F   UNL A   1      47.413  26.035  32.832  1.00  0.00    -0.206 F 
ATOM     93  C   UNL A   1      50.736  26.251  31.431  1.00  0.00     0.060 A 
BRANCH  93  94
ATOM     94  S   UNL A   1      52.426  25.738  31.810  1.00  0.00     0.124 S 
ATOM     95  O   UNL A   1      53.086  25.929  30.523  1.00  0.00    -0.237 OA
ATOM     96  O   UNL A   1      52.807  26.672  32.864  1.00  0.00    -0.237 OA
ATOM     97  O   UNL A   1      52.272  24.350  32.238  1.00  0.00    -0.744 OA
ENDBRANCH  93  94
ENDBRANCH  61  86
ENDBRANCH  35  36
ENDBRANCH  27  30
ENDBRANCH  25  26
ENDBRANCH  24  25
ENDBRANCH   1  24
TORSDOF 17
ENDMDL
MODEL 2
REMARK VINA RESULT:     -10.9      1.265      8.413
REMARK SMILES O=C(C[C@@H]1CN(C(=O)[C@H]2C[C@H](O)C[NH2+]2)CCO1)NCCCNC(=O)c1ccc(-c2c3nc(c(-c4c(F)cc(S(=O)(=O)[O-])cc4F)c4ccc([nH]4)c(-c4c(F)cc(S(=O)(=O)[O-])cc4F)c4nc(c(-c5c(F)cc(S(=O)(=O)[O-])cc5F)c5ccc2[nH]5)C=C4)C=C3)cc1
REMARK SMILES IDX 19 1 18 2 1 3 2 4 3 6 4 7 5 8 17 9 6 10 16 11 15 12 7 13
REMARK SMILES IDX 8 14 9 15 10 16 14 17 11 18 13 19 12 22 20 24 21 25 22 26
REMARK SMILES IDX 23 27 24 29 25 30 26 31 90 32 27 33 89 34 28 35 29 36 30 37
REMARK SMILES IDX 83 38 31 39 88 40 82 41 84 42 32 43 87 44 81 45 80 46 33 48
REMARK SMILES IDX 67 49 46 50 66 51 47 52 50 53 65 54 85 55 48 56 49 57 64 59
REMARK SMILES IDX 86 60 51 61 34 62 35 63 44 64 36 65 37 66 43 67 45 68 38 69
REMARK SMILES IDX 39 70 40 71 41 72 42 73 68 74 69 75 78 76 70 77 71 78 77 79
REMARK SMILES IDX 79 80 72 81 73 82 74 83 75 84 76 85 52 86 53 87 62 88 54 89
REMARK SMILES IDX 55 90 61 91 63 92 56 93 57 94 58 95 59 96 60 97
REMARK H PARENT 18 5 14 20 14 21 12 23 22 28 84 47 50 58
REMARK Flexibility Score: inf
ROOT
ATOM      1  C   UNL A   1      34.027  27.644  24.211  1.00  0.00     0.117 C 
ENDROOT
BRANCH   1   2
ATOM      2  N   UNL A   1      33.219  26.474  23.919  1.00  0.00    -0.356 N 
ATOM      3  O   UNL A   1      33.684  26.470  21.671  1.00  0.00    -0.275 OA
ATOM      4  C   UNL A   1      33.193  25.926  22.652  1.00  0.00     0.222 C 
ATOM      5  H   UNL A   1      32.682  26.066  24.636  1.00  0.00     0.163 HD
BRANCH   4   6
ATOM      6  C   UNL A   1      32.555  24.554  22.591  1.00  0.00     0.133 C 
BRANCH   6   7
ATOM      7  C   UNL A   1      33.432  23.472  23.229  1.00  0.00     0.147 C 
ATOM      8  C   UNL A   1      33.185  23.297  24.738  1.00  0.00     0.152 C 
ATOM      9  O   UNL A   1      34.823  23.750  22.988  1.00  0.00    -0.374 OA
ATOM     10  N   UNL A   1      34.021  22.232  25.276  1.00  0.00    -0.333 N 
ATOM     11  C   UNL A   1      35.663  22.697  23.495  1.00  0.00     0.182 C 
ATOM     12  C   UNL A   1      35.445  22.454  24.996  1.00  0.00     0.148 C 
BRANCH  10  13
ATOM     13  C   UNL A   1      33.639  21.161  26.069  1.00  0.00     0.281 C 
ATOM     14  O   UNL A   1      34.030  21.080  27.240  1.00  0.00    -0.268 OA
BRANCH  13  15
ATOM     15  C   UNL A   1      32.753  20.022  25.501  1.00  0.00     0.275 C 
ATOM     16  C   UNL A   1      32.929  19.690  24.022  1.00  0.00     0.113 C 
ATOM     17  N   UNL A   1      32.903  18.765  26.279  1.00  0.00    -0.334 N 
ATOM     18  C   UNL A   1      33.179  18.189  23.975  1.00  0.00     0.175 C 
ATOM     19  C   UNL A   1      32.689  17.675  25.326  1.00  0.00     0.293 C 
ATOM     20  H   UNL A   1      32.209  18.725  27.026  1.00  0.00     0.347 HD
ATOM     21  H   UNL A   1      33.821  18.703  26.719  1.00  0.00     0.347 HD
BRANCH  18  22
ATOM     22  O   UNL A   1      32.535  17.576  22.874  1.00  0.00    -0.387 OA
ATOM     23  H   UNL A   1      31.602  17.838  22.859  1.00  0.00     0.211 HD
ENDBRANCH  18  22
ENDBRANCH  13  15
ENDBRANCH  10  13
ENDBRANCH   6   7
ENDBRANCH   4   6
ENDBRANCH   1   2
BRANCH   1  24
ATOM     24  C   UNL A   1      33.404  28.564  25.252  1.00  0.00     0.042 C 
BRANCH  24  25
ATOM     25  C   UNL A   1      34.079  28.561  26.621  1.00  0.00     0.118 C 
BRANCH  25  26
ATOM     26  N   UNL A   1      33.908  29.797  27.367  1.00  0.00    -0.352 N 
ATOM     27  C   UNL A   1      34.809  30.455  28.175  1.00  0.00     0.251 C 
ATOM     28  H   UNL A   1      33.024  30.223  27.283  1.00  0.00     0.163 HD
ATOM     29  O   UNL A   1      34.443  31.449  28.800  1.00  0.00    -0.269 OA
BRANCH  27  30
ATOM     30  C   UNL A   1      36.193  29.949  28.332  1.00  0.00     0.039 A 
ATOM     31  C   UNL A   1      37.079  30.081  27.259  1.00  0.00     0.014 A 
ATOM     32  C   UNL A   1      36.627  29.362  29.524  1.00  0.00     0.014 A 
ATOM     33  C   UNL A   1      38.416  29.700  27.408  1.00  0.00     0.010 A 
ATOM     34  C   UNL A   1      37.977  29.048  29.694  1.00  0.00     0.010 A 
ATOM     35  C   UNL A   1      38.890  29.222  28.642  1.00  0.00    -0.014 A 
BRANCH  35  36
ATOM     36  C   UNL A   1      40.338  28.940  28.847  1.00  0.00     0.031 A 
ATOM     37  C   UNL A   1      40.916  27.589  28.518  1.00  0.00     0.074 A 
ATOM     38  C   UNL A   1      41.131  29.891  29.383  1.00  0.00     0.049 A 
ATOM     39  N   UNL A   1      42.145  27.160  28.657  1.00  0.00    -0.248 NA
ATOM     40  C   UNL A   1      39.988  26.581  27.982  1.00  0.00     0.031 C 
ATOM     41  C   UNL A   1      40.687  31.225  29.799  1.00  0.00     0.029 A 
ATOM     42  N   UNL A   1      42.472  29.887  29.675  1.00  0.00    -0.354 N 
ATOM     43  C   UNL A   1      42.139  25.836  28.235  1.00  0.00     0.074 A 
ATOM     44  C   UNL A   1      40.771  25.516  27.884  1.00  0.00     0.031 C 
ATOM     45  C   UNL A   1      41.739  31.915  30.265  1.00  0.00     0.029 A 
ATOM     46  C   UNL A   1      42.926  31.066  30.219  1.00  0.00     0.049 A 
ATOM     47  H   UNL A   1      43.056  29.111  29.511  1.00  0.00     0.167 HD
ATOM     48  C   UNL A   1      43.178  24.972  28.127  1.00  0.00     0.037 A 
ATOM     49  C   UNL A   1      44.156  31.427  30.637  1.00  0.00     0.037 A 
ATOM     50  C   UNL A   1      44.541  25.298  28.462  1.00  0.00     0.049 A 
ATOM     51  C   UNL A   1      45.293  30.451  30.507  1.00  0.00     0.074 A 
ATOM     52  C   UNL A   1      45.671  24.508  28.335  1.00  0.00     0.029 A 
ATOM     53  N   UNL A   1      44.962  26.508  28.994  1.00  0.00    -0.354 N 
ATOM     54  N   UNL A   1      45.278  29.224  30.041  1.00  0.00    -0.248 NA
ATOM     55  C   UNL A   1      46.617  30.911  30.948  1.00  0.00     0.031 C 
ATOM     56  C   UNL A   1      46.766  25.222  28.834  1.00  0.00     0.029 A 
ATOM     57  C   UNL A   1      46.330  26.478  29.222  1.00  0.00     0.049 A 
ATOM     58  H   UNL A   1      44.376  27.277  29.183  1.00  0.00     0.167 HD
ATOM     59  C   UNL A   1      46.594  28.777  30.108  1.00  0.00     0.074 A 
ATOM     60  C   UNL A   1      47.379  29.870  30.644  1.00  0.00     0.031 C 
ATOM     61  C   UNL A   1      47.104  27.571  29.756  1.00  0.00     0.037 A 
BRANCH  48  62
ATOM     62  C   UNL A   1      42.884  23.585  27.621  1.00  0.00     0.058 A 
ATOM     63  C   UNL A   1      42.608  22.523  28.498  1.00  0.00     0.135 A 
ATOM     64  C   UNL A   1      42.833  23.322  26.242  1.00  0.00     0.135 A 
ATOM     65  F   UNL A   1      42.655  22.714  29.826  1.00  0.00    -0.206 F 
ATOM     66  C   UNL A   1      42.324  21.245  28.028  1.00  0.00     0.059 A 
ATOM     67  C   UNL A   1      42.522  22.058  25.748  1.00  0.00     0.059 A 
ATOM     68  F   UNL A   1      43.086  24.299  25.357  1.00  0.00    -0.206 F 
ATOM     69  C   UNL A   1      42.284  21.022  26.650  1.00  0.00     0.060 A 
BRANCH  69  70
ATOM     70  S   UNL A   1      41.913  19.358  26.058  1.00  0.00     0.124 S 
ATOM     71  O   UNL A   1      42.262  18.551  27.223  1.00  0.00    -0.237 OA
ATOM     72  O   UNL A   1      40.489  19.446  25.751  1.00  0.00    -0.237 OA
ATOM     73  O   UNL A   1      42.792  19.203  24.903  1.00  0.00    -0.744 OA
ENDBRANCH  69  70
ENDBRANCH  48  62
BRANCH  49  74
ATOM     74  C   UNL A   1      44.380  32.787  31.199  1.00  0.00     0.058 A 
ATOM     75  C   UNL A   1      44.266  33.027  32.576  1.00  0.00     0.135 A 
ATOM     76  C   UNL A   1      44.723  33.868  30.374  1.00  0.00     0.135 A 
ATOM     77  F   UNL A   1      43.933  32.027  33.406  1.00  0.00    -0.206 F 
ATOM     78  C   UNL A   1      44.465  34.294  33.115  1.00  0.00     0.059 A 
ATOM     79  C   UNL A   1      44.954  35.139  30.891  1.00  0.00     0.059 A 
ATOM     80  F   UNL A   1      44.861  33.689  29.051  1.00  0.00    -0.206 F 
ATOM     81  C   UNL A   1      44.813  35.344  32.263  1.00  0.00     0.060 A 
BRANCH  81  82
ATOM     82  S   UNL A   1      45.118  36.975  32.977  1.00  0.00     0.124 S 
ATOM     83  O   UNL A   1      44.304  37.828  32.120  1.00  0.00    -0.237 OA
ATOM     84  O   UNL A   1      44.640  36.803  34.346  1.00  0.00    -0.237 OA
ATOM     85  O   UNL A   1      46.562  37.135  32.841  1.00  0.00    -0.744 OA
ENDBRANCH  81  82
ENDBRANCH  49  74
BRANCH  61  86
ATOM     86  C   UNL A   1      48.590  27.379  29.905  1.00  0.00     0.058 A 
ATOM     87  C   UNL A   1      49.489  27.732  28.886  1.00  0.00     0.135 A 
ATOM     88  C   UNL A   1      49.123  26.858  31.095  1.00  0.00     0.135 A 
ATOM     89  F   UNL A   1      49.035  28.229  27.725  1.00  0.00    -0.206 F 
ATOM     90  C   UNL A   1      50.861  27.541  29.028  1.00  0.00     0.059 A 
ATOM     91  C   UNL A   1      50.492  26.687  31.271  1.00  0.00     0.059 A 
ATOM     92  F   UNL A   1      48.310  26.515  32.107  1.00  0.00    -0.206 F 
ATOM     93  C   UNL A   1      51.352  27.016  30.225  1.00  0.00     0.060 A 
BRANCH  93  94
ATOM     94  S   UNL A   1      53.134  26.784  30.401  1.00  0.00     0.124 S 
ATOM     95  O   UNL A   1      53.196  25.781  31.460  1.00  0.00    -0.237 OA
ATOM     96  O   UNL A   1      53.524  26.328  29.071  1.00  0.00    -0.237 OA
ATOM     97  O   UNL A   1      53.616  28.113  30.766  1.00  0.00    -0.744 OA
ENDBRANCH  93  94
ENDBRANCH  61  86
ENDBRANCH  35  36
ENDBRANCH  27  30
ENDBRANCH  25  26
ENDBRANCH  24  25
ENDBRANCH   1  24
TORSDOF 17
ENDMDL
MODEL 3
REMARK VINA RESULT:     -10.8      5.120     10.931
REMARK SMILES O=C(C[C@@H]1CN(C(=O)[C@H]2C[C@H](O)C[NH2+]2)CCO1)NCCCNC(=O)c1ccc(-c2c3nc(c(-c4c(F)cc(S(=O)(=O)[O-])cc4F)c4ccc([nH]4)c(-c4c(F)cc(S(=O)(=O)[O-])cc4F)c4nc(c(-c5c(F)cc(S(=O)(=O)[O-])cc5F)c5ccc2[nH]5)C=C4)C=C3)cc1
REMARK SMILES IDX 19 1 18 2 1 3 2 4 3 6 4 7 5 8 17 9 6 10 16 11 15 12 7 13
REMARK SMILES IDX 8 14 9 15 10 16 14 17 11 18 13 19 12 22 20 24 21 25 22 26
REMARK SMILES IDX 23 27 24 29 25 30 26 31 90 32 27 33 89 34 28 35 29 36 30 37
REMARK SMILES IDX 83 38 31 39 88 40 82 41 84 42 32 43 87 44 81 45 80 46 33 48
REMARK SMILES IDX 67 49 46 50 66 51 47 52 50 53 65 54 85 55 48 56 49 57 64 59
REMARK SMILES IDX 86 60 51 61 34 62 35 63 44 64 36 65 37 66 43 67 45 68 38 69
REMARK SMILES IDX 39 70 40 71 41 72 42 73 68 74 69 75 78 76 70 77 71 78 77 79
REMARK SMILES IDX 79 80 72 81 73 82 74 83 75 84 76 85 52 86 53 87 62 88 54 89
REMARK SMILES IDX 55 90 61 91 63 92 56 93 57 94 58 95 59 96 60 97
REMARK H PARENT 18 5 14 20 14 21 12 23 22 28 84 47 50 58
REMARK Flexibility Score: inf
ROOT
ATOM      1  C   UNL A   1      37.032  23.255  25.023  1.00  0.00     0.117 C 
ENDROOT
BRANCH   1   2
ATOM      2  N   UNL A   1      36.122  23.917  24.108  1.00  0.00    -0.356 N 
ATOM      3  O   UNL A   1      34.487  22.311  24.258  1.00  0.00    -0.275 OA
ATOM      4  C   UNL A   1      34.858  23.413  23.872  1.00  0.00     0.222 C 
ATOM      5  H   UNL A   1      36.410  24.738  23.647  1.00  0.00     0.163 HD
BRANCH   4   6
ATOM      6  C   UNL A   1      33.942  24.372  23.141  1.00  0.00     0.133 C 
BRANCH   6   7
ATOM      7  C   UNL A   1      33.335  25.426  24.074  1.00  0.00     0.147 C 
ATOM      8  C   UNL A   1      33.523  26.868  23.571  1.00  0.00     0.152 C 
ATOM      9  O   UNL A   1      33.879  25.294  25.399  1.00  0.00    -0.374 OA
ATOM     10  N   UNL A   1      32.895  27.817  24.480  1.00  0.00    -0.333 N 
ATOM     11  C   UNL A   1      33.255  26.210  26.316  1.00  0.00     0.182 C 
ATOM     12  C   UNL A   1      33.386  27.670  25.856  1.00  0.00     0.148 C 
BRANCH  10  13
ATOM     13  C   UNL A   1      32.022  28.849  24.171  1.00  0.00     0.281 C 
ATOM     14  O   UNL A   1      32.008  29.881  24.854  1.00  0.00    -0.268 OA
BRANCH  13  15
ATOM     15  C   UNL A   1      31.016  28.720  22.998  1.00  0.00     0.275 C 
ATOM     16  C   UNL A   1      29.555  28.488  23.370  1.00  0.00     0.113 C 
ATOM     17  N   UNL A   1      31.081  29.889  22.083  1.00  0.00    -0.334 N 
ATOM     18  C   UNL A   1      28.776  29.565  22.629  1.00  0.00     0.175 C 
ATOM     19  C   UNL A   1      29.730  30.051  21.542  1.00  0.00     0.293 C 
ATOM     20  H   UNL A   1      31.747  29.714  21.330  1.00  0.00     0.347 HD
ATOM     21  H   UNL A   1      31.392  30.729  22.570  1.00  0.00     0.347 HD
BRANCH  18  22
ATOM     22  O   UNL A   1      27.547  29.079  22.120  1.00  0.00    -0.387 OA
ATOM     23  H   UNL A   1      27.049  28.653  22.834  1.00  0.00     0.211 HD
ENDBRANCH  18  22
ENDBRANCH  13  15
ENDBRANCH  10  13
ENDBRANCH   6   7
ENDBRANCH   4   6
ENDBRANCH   1   2
BRANCH   1  24
ATOM     24  C   UNL A   1      37.344  24.077  26.266  1.00  0.00     0.042 C 
BRANCH  24  25
ATOM     25  C   UNL A   1      38.745  23.892  26.841  1.00  0.00     0.118 C 
BRANCH  25  26
ATOM     26  N   UNL A   1      39.810  24.351  25.963  1.00  0.00    -0.352 N 
ATOM     27  C   UNL A   1      40.692  25.394  26.141  1.00  0.00     0.251 C 
ATOM     28  H   UNL A   1      39.914  23.847  25.124  1.00  0.00     0.163 HD
ATOM     29  O   UNL A   1      41.468  25.687  25.233  1.00  0.00    -0.269 OA
BRANCH  27  30
ATOM     30  C   UNL A   1      40.680  26.190  27.391  1.00  0.00     0.039 A 
ATOM     31  C   UNL A   1      41.657  27.174  27.567  1.00  0.00     0.014 A 
ATOM     32  C   UNL A   1      39.712  25.987  28.379  1.00  0.00     0.014 A 
ATOM     33  C   UNL A   1      41.616  28.004  28.691  1.00  0.00     0.010 A 
ATOM     34  C   UNL A   1      39.630  26.863  29.463  1.00  0.00     0.010 A 
ATOM     35  C   UNL A   1      40.574  27.888  29.629  1.00  0.00    -0.014 A 
BRANCH  35  36
ATOM     36  C   UNL A   1      40.449  28.853  30.756  1.00  0.00     0.031 A 
ATOM     37  C   UNL A   1      41.311  28.723  31.983  1.00  0.00     0.074 A 
ATOM     38  C   UNL A   1      39.516  29.825  30.697  1.00  0.00     0.049 A 
ATOM     39  N   UNL A   1      41.319  29.456  33.068  1.00  0.00    -0.248 NA
ATOM     40  C   UNL A   1      42.275  27.613  32.005  1.00  0.00     0.031 C 
ATOM     41  C   UNL A   1      38.577  30.029  29.589  1.00  0.00     0.029 A 
ATOM     42  N   UNL A   1      39.195  30.822  31.585  1.00  0.00    -0.354 N 
ATOM     43  C   UNL A   1      42.279  28.894  33.903  1.00  0.00     0.074 A 
ATOM     44  C   UNL A   1      42.795  27.728  33.219  1.00  0.00     0.031 C 
ATOM     45  C   UNL A   1      37.809  31.098  29.853  1.00  0.00     0.029 A 
ATOM     46  C   UNL A   1      38.169  31.635  31.161  1.00  0.00     0.049 A 
ATOM     47  H   UNL A   1      39.657  30.943  32.447  1.00  0.00     0.167 HD
ATOM     48  C   UNL A   1      42.708  29.323  35.116  1.00  0.00     0.037 A 
ATOM     49  C   UNL A   1      37.581  32.691  31.756  1.00  0.00     0.037 A 
ATOM     50  C   UNL A   1      42.203  30.494  35.787  1.00  0.00     0.049 A 
ATOM     51  C   UNL A   1      38.074  33.148  33.102  1.00  0.00     0.074 A 
ATOM     52  C   UNL A   1      42.612  31.038  36.992  1.00  0.00     0.029 A 
ATOM     53  N   UNL A   1      41.175  31.299  35.317  1.00  0.00    -0.354 N 
ATOM     54  N   UNL A   1      39.030  32.642  33.845  1.00  0.00    -0.248 NA
ATOM     55  C   UNL A   1      37.417  34.324  33.687  1.00  0.00     0.031 C 
ATOM     56  C   UNL A   1      41.802  32.143  37.274  1.00  0.00     0.029 A 
ATOM     57  C   UNL A   1      40.923  32.322  36.219  1.00  0.00     0.049 A 
ATOM     58  H   UNL A   1      40.695  31.164  34.468  1.00  0.00     0.167 HD
ATOM     59  C   UNL A   1      39.107  33.456  34.970  1.00  0.00     0.074 A 
ATOM     60  C   UNL A   1      38.112  34.495  34.803  1.00  0.00     0.031 C 
ATOM     61  C   UNL A   1      39.930  33.352  36.044  1.00  0.00     0.037 A 
BRANCH  48  62
ATOM     62  C   UNL A   1      43.783  28.521  35.799  1.00  0.00     0.058 A 
ATOM     63  C   UNL A   1      45.146  28.781  35.586  1.00  0.00     0.135 A 
ATOM     64  C   UNL A   1      43.448  27.507  36.712  1.00  0.00     0.135 A 
ATOM     65  F   UNL A   1      45.525  29.730  34.715  1.00  0.00    -0.206 F 
ATOM     66  C   UNL A   1      46.138  28.047  36.229  1.00  0.00     0.059 A 
ATOM     67  C   UNL A   1      44.422  26.779  37.390  1.00  0.00     0.059 A 
ATOM     68  F   UNL A   1      42.160  27.215  36.957  1.00  0.00    -0.206 F 
ATOM     69  C   UNL A   1      45.766  27.046  37.128  1.00  0.00     0.060 A 
BRANCH  69  70
ATOM     70  S   UNL A   1      47.065  26.104  37.954  1.00  0.00     0.124 S 
ATOM     71  O   UNL A   1      46.364  24.865  38.277  1.00  0.00    -0.237 OA
ATOM     72  O   UNL A   1      48.086  26.004  36.917  1.00  0.00    -0.237 OA
ATOM     73  O   UNL A   1      47.417  26.940  39.098  1.00  0.00    -0.744 OA
ENDBRANCH  69  70
ENDBRANCH  48  62
BRANCH  49  74
ATOM     74  C   UNL A   1      36.470  33.406  31.070  1.00  0.00     0.058 A 
ATOM     75  C   UNL A   1      35.147  33.289  31.523  1.00  0.00     0.135 A 
ATOM     76  C   UNL A   1      36.709  34.228  29.959  1.00  0.00     0.135 A 
ATOM     77  F   UNL A   1      34.866  32.510  32.578  1.00  0.00    -0.206 F 
ATOM     78  C   UNL A   1      34.098  33.945  30.887  1.00  0.00     0.059 A 
ATOM     79  C   UNL A   1      35.680  34.916  29.322  1.00  0.00     0.059 A 
ATOM     80  F   UNL A   1      37.959  34.388  29.496  1.00  0.00    -0.206 F 
ATOM     81  C   UNL A   1      34.376  34.760  29.789  1.00  0.00     0.060 A 
BRANCH  81  82
ATOM     82  S   UNL A   1      33.014  35.647  29.000  1.00  0.00     0.124 S 
ATOM     83  O   UNL A   1      32.373  34.583  28.236  1.00  0.00    -0.237 OA
ATOM     84  O   UNL A   1      32.268  36.146  30.151  1.00  0.00    -0.237 OA
ATOM     85  O   UNL A   1      33.693  36.671  28.212  1.00  0.00    -0.744 OA
ENDBRANCH  81  82
ENDBRANCH  49  74
BRANCH  61  86
ATOM     86  C   UNL A   1      39.813  34.411  37.108  1.00  0.00     0.058 A 
ATOM     87  C   UNL A   1      40.536  35.613  37.041  1.00  0.00     0.135 A 
ATOM     88  C   UNL A   1      38.946  34.230  38.198  1.00  0.00     0.135 A 
ATOM     89  F   UNL A   1      41.384  35.836  36.025  1.00  0.00    -0.206 F 
ATOM     90  C   UNL A   1      40.430  36.581  38.036  1.00  0.00     0.059 A 
ATOM     91  C   UNL A   1      38.801  35.198  39.187  1.00  0.00     0.059 A 
ATOM     92  F   UNL A   1      38.221  33.105  38.306  1.00  0.00    -0.206 F 
ATOM     93  C   UNL A   1      39.561  36.364  39.105  1.00  0.00     0.060 A 
BRANCH  93  94
ATOM     94  S   UNL A   1      39.424  37.633  40.383  1.00  0.00     0.124 S 
ATOM     95  O   UNL A   1      38.250  38.374  39.934  1.00  0.00    -0.237 OA
ATOM     96  O   UNL A   1      39.249  36.839  41.594  1.00  0.00    -0.237 OA
ATOM     97  O   UNL A   1      40.693  38.348  40.288  1.00  0.00    -0.744 OA
ENDBRANCH  93  94
ENDBRANCH  61  86
ENDBRANCH  35  36
ENDBRANCH  27  30
ENDBRANCH  25  26
ENDBRANCH  24  25
ENDBRANCH   1  24
TORSDOF 17
ENDMDL
