MODEL 1
REMARK VINA RESULT:     -11.3      0.000      0.000
REMARK SMILES O=C(NCCCNC(=O)[C@H]1CCCN1C(=S)Nc1ccccc1)c1ccc(-c2c3nc(c(-c4c(F)cc(S(=O)(=O)[O-])cc4F)c4ccc([nH]4)c(-c4c(F)cc(S(=O)(=O)[O-])cc4F)c4nc(c(-c5c(F)cc(S(=O)(=O)[O-])cc5F)c5ccc2[nH]5)C=C4)C=C3)cc1
REMARK SMILES IDX 5 1 4 2 3 3 1 4 2 5 24 7 25 8 89 9 26 10 88 11 27 12 28 13
REMARK SMILES IDX 29 14 82 15 30 16 87 17 81 18 83 19 31 20 86 21 80 22 79 23
REMARK SMILES IDX 32 25 66 26 45 27 65 28 46 29 49 30 64 31 84 32 47 33 48 34
REMARK SMILES IDX 63 36 85 37 50 38 33 39 34 40 43 41 35 42 36 43 42 44 44 45
REMARK SMILES IDX 37 46 38 47 39 48 40 49 41 50 67 51 68 52 77 53 69 54 70 55
REMARK SMILES IDX 76 56 78 57 71 58 72 59 73 60 74 61 75 62 51 63 52 64 61 65
REMARK SMILES IDX 53 66 54 67 60 68 62 69 55 70 56 71 57 72 58 73 59 74 6 75
REMARK SMILES IDX 7 76 8 77 9 79 10 80 11 81 14 82 12 83 13 84 15 85 16 86
REMARK SMILES IDX 17 87 18 89 19 90 23 91 20 92 22 93 21 94
REMARK H PARENT 3 6 83 24 49 35 7 78 17 88
REMARK Flexibility Score: inf
ROOT
ATOM      1  C   UNL A   1      40.409  21.711  27.057  1.00  0.00     0.042 C 
ENDROOT
BRANCH   1   2
ATOM      2  C   UNL A   1      40.366  23.199  27.353  1.00  0.00     0.118 C 
BRANCH   2   3
ATOM      3  N   UNL A   1      40.851  24.003  26.233  1.00  0.00    -0.352 N 
ATOM      4  O   UNL A   1      41.327  25.884  25.090  1.00  0.00    -0.269 OA
ATOM      5  C   UNL A   1      41.100  25.356  26.168  1.00  0.00     0.251 C 
ATOM      6  H   UNL A   1      41.027  23.503  25.404  1.00  0.00     0.163 HD
BRANCH   5   7
ATOM      7  C   UNL A   1      41.061  26.159  27.410  1.00  0.00     0.039 A 
ATOM      8  C   UNL A   1      40.111  25.885  28.392  1.00  0.00     0.014 A 
ATOM      9  C   UNL A   1      41.965  27.211  27.581  1.00  0.00     0.014 A 
ATOM     10  C   UNL A   1      39.933  26.775  29.441  1.00  0.00     0.010 A 
ATOM     11  C   UNL A   1      41.860  28.037  28.704  1.00  0.00     0.010 A 
ATOM     12  C   UNL A   1      40.813  27.854  29.619  1.00  0.00    -0.014 A 
BRANCH  12  13
ATOM     13  C   UNL A   1      40.621  28.740  30.796  1.00  0.00     0.031 A 
ATOM     14  C   UNL A   1      41.549  28.683  31.978  1.00  0.00     0.074 A 
ATOM     15  C   UNL A   1      39.628  29.653  30.754  1.00  0.00     0.049 A 
ATOM     16  N   UNL A   1      41.550  29.423  33.058  1.00  0.00    -0.248 NA
ATOM     17  C   UNL A   1      42.606  27.659  31.957  1.00  0.00     0.031 C 
ATOM     18  C   UNL A   1      38.658  29.789  29.662  1.00  0.00     0.029 A 
ATOM     19  N   UNL A   1      39.291  30.659  31.621  1.00  0.00    -0.354 N 
ATOM     20  C   UNL A   1      42.576  28.933  33.859  1.00  0.00     0.074 A 
ATOM     21  C   UNL A   1      43.170  27.822  33.147  1.00  0.00     0.031 C 
ATOM     22  C   UNL A   1      37.891  30.865  29.885  1.00  0.00     0.029 A 
ATOM     23  C   UNL A   1      38.263  31.450  31.168  1.00  0.00     0.049 A 
ATOM     24  H   UNL A   1      39.743  30.802  32.484  1.00  0.00     0.167 HD
ATOM     25  C   UNL A   1      42.986  29.375  35.073  1.00  0.00     0.037 A 
ATOM     26  C   UNL A   1      37.675  32.525  31.725  1.00  0.00     0.037 A 
ATOM     27  C   UNL A   1      42.412  30.509  35.754  1.00  0.00     0.049 A 
ATOM     28  C   UNL A   1      38.165  33.009  33.055  1.00  0.00     0.074 A 
ATOM     29  C   UNL A   1      42.777  31.059  36.971  1.00  0.00     0.029 A 
ATOM     30  N   UNL A   1      41.357  31.271  35.273  1.00  0.00    -0.354 N 
ATOM     31  N   UNL A   1      39.144  32.538  33.792  1.00  0.00    -0.248 NA
ATOM     32  C   UNL A   1      37.473  34.165  33.636  1.00  0.00     0.031 C 
ATOM     33  C   UNL A   1      41.921  32.133  37.241  1.00  0.00     0.029 A 
ATOM     34  C   UNL A   1      41.050  32.279  36.175  1.00  0.00     0.049 A 
ATOM     35  H   UNL A   1      40.894  31.120  34.418  1.00  0.00     0.167 HD
ATOM     36  C   UNL A   1      39.193  33.349  34.918  1.00  0.00     0.074 A 
ATOM     37  C   UNL A   1      38.158  34.351  34.756  1.00  0.00     0.031 C 
ATOM     38  C   UNL A   1      40.018  33.268  35.991  1.00  0.00     0.037 A 
BRANCH  25  39
ATOM     39  C   UNL A   1      44.090  28.617  35.759  1.00  0.00     0.058 A 
ATOM     40  C   UNL A   1      43.830  27.553  36.637  1.00  0.00     0.135 A 
ATOM     41  C   UNL A   1      45.433  28.940  35.504  1.00  0.00     0.135 A 
ATOM     42  F   UNL A   1      42.566  27.211  36.929  1.00  0.00    -0.206 F 
ATOM     43  C   UNL A   1      44.862  26.853  37.257  1.00  0.00     0.059 A 
ATOM     44  C   UNL A   1      46.481  28.238  36.094  1.00  0.00     0.059 A 
ATOM     45  F   UNL A   1      45.740  29.948  34.672  1.00  0.00    -0.206 F 
ATOM     46  C   UNL A   1      46.184  27.205  36.982  1.00  0.00     0.060 A 
BRANCH  46  47
ATOM     47  S   UNL A   1      47.514  26.289  37.792  1.00  0.00     0.124 S 
ATOM     48  O   UNL A   1      47.641  25.128  36.916  1.00  0.00    -0.237 OA
ATOM     49  O   UNL A   1      48.621  27.238  37.751  1.00  0.00    -0.237 OA
ATOM     50  O   UNL A   1      46.976  26.015  39.121  1.00  0.00    -0.744 OA
ENDBRANCH  46  47
ENDBRANCH  25  39
BRANCH  26  51
ATOM     51  C   UNL A   1      36.566  33.210  31.011  1.00  0.00     0.058 A 
ATOM     52  C   UNL A   1      35.242  33.101  31.459  1.00  0.00     0.135 A 
ATOM     53  C   UNL A   1      36.814  34.020  29.892  1.00  0.00     0.135 A 
ATOM     54  F   UNL A   1      34.955  32.338  32.525  1.00  0.00    -0.206 F 
ATOM     55  C   UNL A   1      34.200  33.761  30.817  1.00  0.00     0.059 A 
ATOM     56  C   UNL A   1      35.793  34.712  29.249  1.00  0.00     0.059 A 
ATOM     57  F   UNL A   1      38.068  34.175  29.438  1.00  0.00    -0.206 F 
ATOM     58  C   UNL A   1      34.487  34.568  29.714  1.00  0.00     0.060 A 
BRANCH  58  59
ATOM     59  S   UNL A   1      33.139  35.470  28.920  1.00  0.00     0.124 S 
ATOM     60  O   UNL A   1      32.365  35.913  30.074  1.00  0.00    -0.237 OA
ATOM     61  O   UNL A   1      33.853  36.515  28.191  1.00  0.00    -0.237 OA
ATOM     62  O   UNL A   1      32.506  34.456  28.083  1.00  0.00    -0.744 OA
ENDBRANCH  58  59
ENDBRANCH  26  51
BRANCH  38  63
ATOM     63  C   UNL A   1      39.849  34.315  37.054  1.00  0.00     0.058 A 
ATOM     64  C   UNL A   1      38.975  34.131  38.137  1.00  0.00     0.135 A 
ATOM     65  C   UNL A   1      40.583  35.510  36.995  1.00  0.00     0.135 A 
ATOM     66  F   UNL A   1      38.246  33.008  38.234  1.00  0.00    -0.206 F 
ATOM     67  C   UNL A   1      38.811  35.111  39.110  1.00  0.00     0.059 A 
ATOM     68  C   UNL A   1      40.452  36.493  37.970  1.00  0.00     0.059 A 
ATOM     69  F   UNL A   1      41.438  35.729  35.984  1.00  0.00    -0.206 F 
ATOM     70  C   UNL A   1      39.550  36.292  39.015  1.00  0.00     0.060 A 
BRANCH  70  71
ATOM     71  S   UNL A   1      39.337  37.556  40.285  1.00  0.00     0.124 S 
ATOM     72  O   UNL A   1      40.650  38.192  40.288  1.00  0.00    -0.237 OA
ATOM     73  O   UNL A   1      38.245  38.362  39.749  1.00  0.00    -0.237 OA
ATOM     74  O   UNL A   1      39.010  36.783  41.479  1.00  0.00    -0.744 OA
ENDBRANCH  70  71
ENDBRANCH  38  63
ENDBRANCH  12  13
ENDBRANCH   5   7
ENDBRANCH   2   3
ENDBRANCH   1   2
BRANCH   1  75
ATOM     75  C   UNL A   1      41.673  21.320  26.317  1.00  0.00     0.117 C 
BRANCH  75  76
ATOM     76  N   UNL A   1      41.715  19.914  26.017  1.00  0.00    -0.354 N 
ATOM     77  C   UNL A   1      42.795  19.123  25.782  1.00  0.00     0.242 C 
ATOM     78  H   UNL A   1      40.841  19.462  25.978  1.00  0.00     0.163 HD
ATOM     79  O   UNL A   1      42.555  17.913  25.675  1.00  0.00    -0.273 OA
BRANCH  77  80
ATOM     80  C   UNL A   1      44.259  19.669  25.838  1.00  0.00     0.173 C 
ATOM     81  C   UNL A   1      45.178  18.694  25.092  1.00  0.00     0.037 C 
ATOM     82  N   UNL A   1      44.584  20.939  25.140  1.00  0.00    -0.337 N 
ATOM     83  C   UNL A   1      44.957  19.102  23.640  1.00  0.00     0.024 C 
ATOM     84  C   UNL A   1      44.780  20.614  23.715  1.00  0.00     0.120 C 
BRANCH  82  85
ATOM     85  C   UNL A   1      44.786  22.221  25.602  1.00  0.00     0.174 C 
ATOM     86  S   UNL A   1      44.276  23.600  24.766  1.00  0.00    -0.041 S 
BRANCH  85  87
ATOM     87  N   UNL A   1      45.301  22.511  26.824  1.00  0.00    -0.333 N 
ATOM     88  H   UNL A   1      46.158  22.056  26.993  1.00  0.00     0.169 HD
BRANCH  87  89
ATOM     89  C   UNL A   1      44.890  23.310  27.896  1.00  0.00     0.040 A 
ATOM     90  C   UNL A   1      45.640  24.466  28.148  1.00  0.00     0.026 A 
ATOM     91  C   UNL A   1      43.779  23.019  28.681  1.00  0.00     0.026 A 
ATOM     92  C   UNL A   1      45.176  25.413  29.058  1.00  0.00     0.002 A 
ATOM     93  C   UNL A   1      43.333  23.954  29.618  1.00  0.00     0.002 A 
ATOM     94  C   UNL A   1      44.012  25.165  29.779  1.00  0.00     0.000 A 
ENDBRANCH  87  89
ENDBRANCH  85  87
ENDBRANCH  82  85
ENDBRANCH  77  80
ENDBRANCH  75  76
ENDBRANCH   1  75
TORSDOF 16
ENDMDL
MODEL 2
REMARK VINA RESULT:     -11.1      6.546     10.041
REMARK SMILES O=C(NCCCNC(=O)[C@H]1CCCN1C(=S)Nc1ccccc1)c1ccc(-c2c3nc(c(-c4c(F)cc(S(=O)(=O)[O-])cc4F)c4ccc([nH]4)c(-c4c(F)cc(S(=O)(=O)[O-])cc4F)c4nc(c(-c5c(F)cc(S(=O)(=O)[O-])cc5F)c5ccc2[nH]5)C=C4)C=C3)cc1
REMARK SMILES IDX 5 1 4 2 3 3 1 4 2 5 24 7 25 8 89 9 26 10 88 11 27 12 28 13
REMARK SMILES IDX 29 14 82 15 30 16 87 17 81 18 83 19 31 20 86 21 80 22 79 23
REMARK SMILES IDX 32 25 66 26 45 27 65 28 46 29 49 30 64 31 84 32 47 33 48 34
REMARK SMILES IDX 63 36 85 37 50 38 33 39 34 40 43 41 35 42 36 43 42 44 44 45
REMARK SMILES IDX 37 46 38 47 39 48 40 49 41 50 67 51 68 52 77 53 69 54 70 55
REMARK SMILES IDX 76 56 78 57 71 58 72 59 73 60 74 61 75 62 51 63 52 64 61 65
REMARK SMILES IDX 53 66 54 67 60 68 62 69 55 70 56 71 57 72 58 73 59 74 6 75
REMARK SMILES IDX 7 76 8 77 9 79 10 80 11 81 14 82 12 83 13 84 15 85 16 86
REMARK SMILES IDX 17 87 18 89 19 90 23 91 20 92 22 93 21 94
REMARK H PARENT 3 6 83 24 49 35 7 78 17 88
REMARK Flexibility Score: inf
ROOT
ATOM      1  C   UNL A   1      38.234  19.912  25.250  1.00  0.00     0.042 C 
ENDROOT
BRANCH   1   2
ATOM      2  C   UNL A   1      39.489  20.288  26.017  1.00  0.00     0.118 C 
BRANCH   2   3
ATOM      3  N   UNL A   1      40.463  19.200  26.057  1.00  0.00    -0.352 N 
ATOM      4  O   UNL A   1      42.499  18.241  25.972  1.00  0.00    -0.269 OA
ATOM      5  C   UNL A   1      41.837  19.254  26.136  1.00  0.00     0.251 C 
ATOM      6  H   UNL A   1      40.080  18.293  26.024  1.00  0.00     0.163 HD
BRANCH   5   7
ATOM      7  C   UNL A   1      42.495  20.554  26.393  1.00  0.00     0.039 A 
ATOM      8  C   UNL A   1      42.582  21.052  27.692  1.00  0.00     0.014 A 
ATOM      9  C   UNL A   1      43.005  21.294  25.322  1.00  0.00     0.014 A 
ATOM     10  C   UNL A   1      42.990  22.360  27.899  1.00  0.00     0.010 A 
ATOM     11  C   UNL A   1      43.530  22.569  25.551  1.00  0.00     0.010 A 
ATOM     12  C   UNL A   1      43.484  23.131  26.835  1.00  0.00    -0.014 A 
BRANCH  12  13
ATOM     13  C   UNL A   1      43.972  24.505  27.120  1.00  0.00     0.031 A 
ATOM     14  C   UNL A   1      45.400  24.898  26.856  1.00  0.00     0.074 A 
ATOM     15  C   UNL A   1      43.085  25.421  27.562  1.00  0.00     0.049 A 
ATOM     16  N   UNL A   1      45.970  26.067  27.000  1.00  0.00    -0.248 NA
ATOM     17  C   UNL A   1      46.312  23.845  26.380  1.00  0.00     0.031 C 
ATOM     18  C   UNL A   1      41.676  25.147  27.865  1.00  0.00     0.029 A 
ATOM     19  N   UNL A   1      43.217  26.765  27.793  1.00  0.00    -0.354 N 
ATOM     20  C   UNL A   1      47.309  25.885  26.672  1.00  0.00     0.074 A 
ATOM     21  C   UNL A   1      47.471  24.488  26.332  1.00  0.00     0.031 C 
ATOM     22  C   UNL A   1      41.058  26.298  28.163  1.00  0.00     0.029 A 
ATOM     23  C   UNL A   1      42.038  27.378  28.145  1.00  0.00     0.049 A 
ATOM     24  H   UNL A   1      44.072  27.245  27.714  1.00  0.00     0.167 HD
ATOM     25  C   UNL A   1      48.307  26.803  26.651  1.00  0.00     0.037 A 
ATOM     26  C   UNL A   1      41.772  28.666  28.431  1.00  0.00     0.037 A 
ATOM     27  C   UNL A   1      48.123  28.200  26.953  1.00  0.00     0.049 A 
ATOM     28  C   UNL A   1      42.888  29.664  28.374  1.00  0.00     0.074 A 
ATOM     29  C   UNL A   1      49.062  29.218  26.927  1.00  0.00     0.029 A 
ATOM     30  N   UNL A   1      46.919  28.779  27.327  1.00  0.00    -0.354 N 
ATOM     31  N   UNL A   1      44.146  29.473  28.052  1.00  0.00    -0.248 NA
ATOM     32  C   UNL A   1      42.557  31.049  28.724  1.00  0.00     0.031 C 
ATOM     33  C   UNL A   1      48.432  30.405  27.319  1.00  0.00     0.029 A 
ATOM     34  C   UNL A   1      47.093  30.137  27.547  1.00  0.00     0.049 A 
ATOM     35  H   UNL A   1      46.066  28.298  27.422  1.00  0.00     0.167 HD
ATOM     36  C   UNL A   1      44.753  30.718  28.147  1.00  0.00     0.074 A 
ATOM     37  C   UNL A   1      43.720  31.657  28.539  1.00  0.00     0.031 C 
ATOM     38  C   UNL A   1      46.050  31.053  27.934  1.00  0.00     0.037 A 
BRANCH  25  39
ATOM     39  C   UNL A   1      49.694  26.323  26.317  1.00  0.00     0.058 A 
ATOM     40  C   UNL A   1      50.216  26.399  25.017  1.00  0.00     0.135 A 
ATOM     41  C   UNL A   1      50.527  25.812  27.326  1.00  0.00     0.135 A 
ATOM     42  F   UNL A   1      49.458  26.864  24.011  1.00  0.00    -0.206 F 
ATOM     43  C   UNL A   1      51.504  25.960  24.722  1.00  0.00     0.059 A 
ATOM     44  C   UNL A   1      51.827  25.390  27.060  1.00  0.00     0.059 A 
ATOM     45  F   UNL A   1      50.080  25.718  28.588  1.00  0.00    -0.206 F 
ATOM     46  C   UNL A   1      52.301  25.454  25.750  1.00  0.00     0.060 A 
BRANCH  46  47
ATOM     47  S   UNL A   1      53.971  24.890  25.357  1.00  0.00     0.124 S 
ATOM     48  O   UNL A   1      54.322  25.772  24.248  1.00  0.00    -0.237 OA
ATOM     49  O   UNL A   1      54.687  25.127  26.607  1.00  0.00    -0.237 OA
ATOM     50  O   UNL A   1      53.781  23.486  25.005  1.00  0.00    -0.744 OA
ENDBRANCH  46  47
ENDBRANCH  25  39
BRANCH  26  51
ATOM     51  C   UNL A   1      40.387  29.071  28.786  1.00  0.00     0.058 A 
ATOM     52  C   UNL A   1      39.988  29.184  30.125  1.00  0.00     0.135 A 
ATOM     53  C   UNL A   1      39.448  29.391  27.793  1.00  0.00     0.135 A 
ATOM     54  F   UNL A   1      40.851  28.888  31.110  1.00  0.00    -0.206 F 
ATOM     55  C   UNL A   1      38.704  29.591  30.470  1.00  0.00     0.059 A 
ATOM     56  C   UNL A   1      38.166  29.826  28.113  1.00  0.00     0.059 A 
ATOM     57  F   UNL A   1      39.788  29.319  26.497  1.00  0.00    -0.206 F 
ATOM     58  C   UNL A   1      37.801  29.912  29.455  1.00  0.00     0.060 A 
BRANCH  58  59
ATOM     59  S   UNL A   1      36.153  30.497  29.908  1.00  0.00     0.124 S 
ATOM     60  O   UNL A   1      35.903  29.747  31.133  1.00  0.00    -0.237 OA
ATOM     61  O   UNL A   1      36.367  31.932  30.071  1.00  0.00    -0.237 OA
ATOM     62  O   UNL A   1      35.338  30.122  28.758  1.00  0.00    -0.744 OA
ENDBRANCH  58  59
ENDBRANCH  26  51
BRANCH  38  63
ATOM     63  C   UNL A   1      46.408  32.503  28.090  1.00  0.00     0.058 A 
ATOM     64  C   UNL A   1      46.243  33.419  27.039  1.00  0.00     0.135 A 
ATOM     65  C   UNL A   1      46.906  32.983  29.311  1.00  0.00     0.135 A 
ATOM     66  F   UNL A   1      45.777  33.007  25.849  1.00  0.00    -0.206 F 
ATOM     67  C   UNL A   1      46.591  34.757  27.184  1.00  0.00     0.059 A 
ATOM     68  C   UNL A   1      47.237  34.323  29.485  1.00  0.00     0.059 A 
ATOM     69  F   UNL A   1      47.072  32.149  30.348  1.00  0.00    -0.206 F 
ATOM     70  C   UNL A   1      47.092  35.199  28.410  1.00  0.00     0.060 A 
BRANCH  70  71
ATOM     71  S   UNL A   1      47.534  36.940  28.592  1.00  0.00     0.124 S 
ATOM     72  O   UNL A   1      46.379  37.599  27.993  1.00  0.00    -0.237 OA
ATOM     73  O   UNL A   1      47.664  37.082  30.039  1.00  0.00    -0.237 OA
ATOM     74  O   UNL A   1      48.782  37.052  27.843  1.00  0.00    -0.744 OA
ENDBRANCH  70  71
ENDBRANCH  38  63
ENDBRANCH  12  13
ENDBRANCH   5   7
ENDBRANCH   2   3
ENDBRANCH   1   2
BRANCH   1  75
ATOM     75  C   UNL A   1      37.204  21.023  25.275  1.00  0.00     0.117 C 
BRANCH  75  76
ATOM     76  N   UNL A   1      37.141  21.736  24.028  1.00  0.00    -0.354 N 
ATOM     77  C   UNL A   1      36.194  22.605  23.588  1.00  0.00     0.242 C 
ATOM     78  H   UNL A   1      37.888  21.572  23.407  1.00  0.00     0.163 HD
ATOM     79  O   UNL A   1      36.452  23.178  22.521  1.00  0.00    -0.273 OA
BRANCH  77  80
ATOM     80  C   UNL A   1      34.958  23.005  24.458  1.00  0.00     0.173 C 
ATOM     81  C   UNL A   1      34.172  24.100  23.726  1.00  0.00     0.037 C 
ATOM     82  N   UNL A   1      33.883  22.007  24.690  1.00  0.00    -0.337 N 
ATOM     83  C   UNL A   1      33.355  23.287  22.729  1.00  0.00     0.024 C 
ATOM     84  C   UNL A   1      33.019  22.012  23.495  1.00  0.00     0.120 C 
BRANCH  82  85
ATOM     85  C   UNL A   1      33.570  21.224  25.779  1.00  0.00     0.174 C 
ATOM     86  S   UNL A   1      33.856  21.700  27.377  1.00  0.00    -0.041 S 
BRANCH  85  87
ATOM     87  N   UNL A   1      32.891  20.052  25.697  1.00  0.00    -0.333 N 
ATOM     88  H   UNL A   1      31.947  20.139  25.961  1.00  0.00     0.169 HD
BRANCH  87  89
ATOM     89  C   UNL A   1      33.231  18.747  25.322  1.00  0.00     0.040 A 
ATOM     90  C   UNL A   1      34.354  18.598  24.499  1.00  0.00     0.026 A 
ATOM     91  C   UNL A   1      32.528  17.625  25.747  1.00  0.00     0.026 A 
ATOM     92  C   UNL A   1      34.874  17.329  24.254  1.00  0.00     0.002 A 
ATOM     93  C   UNL A   1      33.032  16.351  25.473  1.00  0.00     0.002 A 
ATOM     94  C   UNL A   1      34.223  16.206  24.758  1.00  0.00     0.000 A 
ENDBRANCH  87  89
ENDBRANCH  85  87
ENDBRANCH  82  85
ENDBRANCH  77  80
ENDBRANCH  75  76
ENDBRANCH   1  75
TORSDOF 16
ENDMDL
MODEL 3
REMARK VINA RESULT:     -11.1      3.575      5.447
REMARK SMILES O=C(NCCCNC(=O)[C@H]1CCCN1C(=S)Nc1ccccc1)c1ccc(-c2c3nc(c(-c4c(F)cc(S(=O)(=O)[O-])cc4F)c4ccc([nH]4)c(-c4c(F)cc(S(=O)(=O)[O-])cc4F)c4nc(c(-c5c(F)cc(S(=O)(=O)[O-])cc5F)c5ccc2[nH]5)C=C4)C=C3)cc1
REMARK SMILES IDX 5 1 4 2 3 3 1 4 2 5 24 7 25 8 89 9 26 10 88 11 27 12 28 13
REMARK SMILES IDX 29 14 82 15 30 16 87 17 81 18 83 19 31 20 86 21 80 22 79 23
REMARK SMILES IDX 32 25 66 26 45 27 65 28 46 29 49 30 64 31 84 32 47 33 48 34
REMARK SMILES IDX 63 36 85 37 50 38 33 39 34 40 43 41 35 42 36 43 42 44 44 45
REMARK SMILES IDX 37 46 38 47 39 48 40 49 41 50 67 51 68 52 77 53 69 54 70 55
REMARK SMILES IDX 76 56 78 57 71 58 72 59 73 60 74 61 75 62 51 63 52 64 61 65
REMARK SMILES IDX 53 66 54 67 60 68 62 69 55 70 56 71 57 72 58 73 59 74 6 75
REMARK SMILES IDX 7 76 8 77 9 79 10 80 11 81 14 82 12 83 13 84 15 85 16 86
REMARK SMILES IDX 17 87 18 89 19 90 23 91 20 92 22 93 21 94
REMARK H PARENT 3 6 83 24 49 35 7 78 17 88
REMARK Flexibility Score: inf
ROOT
ATOM      1  C   UNL A   1      38.989  22.333  26.185  1.00  0.00     0.042 C 
ENDROOT
BRANCH   1   2
ATOM      2  C   UNL A   1      39.771  23.406  26.920  1.00  0.00     0.118 C 
BRANCH   2   3
ATOM      3  N   UNL A   1      40.873  23.936  26.121  1.00  0.00    -0.352 N 
ATOM      4  O   UNL A   1      42.260  25.506  25.293  1.00  0.00    -0.269 OA
ATOM      5  C   UNL A   1      41.473  25.176  26.166  1.00  0.00     0.251 C 
ATOM      6  H   UNL A   1      41.243  23.316  25.452  1.00  0.00     0.163 HD
BRANCH   5   7
ATOM      7  C   UNL A   1      41.129  26.105  27.265  1.00  0.00     0.039 A 
ATOM      8  C   UNL A   1      41.756  27.346  27.356  1.00  0.00     0.014 A 
ATOM      9  C   UNL A   1      40.192  25.719  28.228  1.00  0.00     0.014 A 
ATOM     10  C   UNL A   1      41.601  28.110  28.503  1.00  0.00     0.010 A 
ATOM     11  C   UNL A   1      39.946  26.550  29.325  1.00  0.00     0.010 A 
ATOM     12  C   UNL A   1      40.684  27.731  29.495  1.00  0.00    -0.014 A 
BRANCH  12  13
ATOM     13  C   UNL A   1      40.505  28.618  30.674  1.00  0.00     0.031 A 
ATOM     14  C   UNL A   1      41.430  28.543  31.856  1.00  0.00     0.074 A 
ATOM     15  C   UNL A   1      39.527  29.547  30.632  1.00  0.00     0.049 A 
ATOM     16  N   UNL A   1      41.442  29.281  32.937  1.00  0.00    -0.248 NA
ATOM     17  C   UNL A   1      42.470  27.501  31.835  1.00  0.00     0.031 C 
ATOM     18  C   UNL A   1      38.561  29.701  29.539  1.00  0.00     0.029 A 
ATOM     19  N   UNL A   1      39.206  30.556  31.500  1.00  0.00    -0.354 N 
ATOM     20  C   UNL A   1      42.460  28.772  33.739  1.00  0.00     0.074 A 
ATOM     21  C   UNL A   1      43.035  27.653  33.025  1.00  0.00     0.031 C 
ATOM     22  C   UNL A   1      37.811  30.789  29.764  1.00  0.00     0.029 A 
ATOM     23  C   UNL A   1      38.191  31.366  31.048  1.00  0.00     0.049 A 
ATOM     24  H   UNL A   1      39.659  30.690  32.364  1.00  0.00     0.167 HD
ATOM     25  C   UNL A   1      42.875  29.206  34.955  1.00  0.00     0.037 A 
ATOM     26  C   UNL A   1      37.620  32.450  31.606  1.00  0.00     0.037 A 
ATOM     27  C   UNL A   1      42.319  30.347  35.636  1.00  0.00     0.049 A 
ATOM     28  C   UNL A   1      38.118  32.923  32.938  1.00  0.00     0.074 A 
ATOM     29  C   UNL A   1      42.692  30.889  36.855  1.00  0.00     0.029 A 
ATOM     30  N   UNL A   1      41.277  31.128  35.156  1.00  0.00    -0.354 N 
ATOM     31  N   UNL A   1      39.087  32.434  33.675  1.00  0.00    -0.248 NA
ATOM     32  C   UNL A   1      37.443  34.088  33.521  1.00  0.00     0.031 C 
ATOM     33  C   UNL A   1      41.853  31.976  37.127  1.00  0.00     0.029 A 
ATOM     34  C   UNL A   1      40.986  32.138  36.059  1.00  0.00     0.049 A 
ATOM     35  H   UNL A   1      40.813  30.986  34.300  1.00  0.00     0.167 HD
ATOM     36  C   UNL A   1      39.148  33.242  34.803  1.00  0.00     0.074 A 
ATOM     37  C   UNL A   1      38.131  34.261  34.641  1.00  0.00     0.031 C 
ATOM     38  C   UNL A   1      39.970  33.145  35.877  1.00  0.00     0.037 A 
BRANCH  25  39
ATOM     39  C   UNL A   1      43.966  28.428  35.640  1.00  0.00     0.058 A 
ATOM     40  C   UNL A   1      43.687  27.379  36.529  1.00  0.00     0.135 A 
ATOM     41  C   UNL A   1      45.314  28.716  35.372  1.00  0.00     0.135 A 
ATOM     42  F   UNL A   1      42.417  27.070  36.833  1.00  0.00    -0.206 F 
ATOM     43  C   UNL A   1      44.706  26.660  37.150  1.00  0.00     0.059 A 
ATOM     44  C   UNL A   1      46.349  27.995  35.962  1.00  0.00     0.059 A 
ATOM     45  F   UNL A   1      45.639  29.708  34.528  1.00  0.00    -0.206 F 
ATOM     46  C   UNL A   1      46.035  26.978  36.862  1.00  0.00     0.060 A 
BRANCH  46  47
ATOM     47  S   UNL A   1      47.347  26.038  37.671  1.00  0.00     0.124 S 
ATOM     48  O   UNL A   1      48.184  27.109  38.205  1.00  0.00    -0.237 OA
ATOM     49  O   UNL A   1      46.612  25.256  38.660  1.00  0.00    -0.237 OA
ATOM     50  O   UNL A   1      47.936  25.268  36.580  1.00  0.00    -0.744 OA
ENDBRANCH  46  47
ENDBRANCH  25  39
BRANCH  26  51
ATOM     51  C   UNL A   1      36.524  33.154  30.893  1.00  0.00     0.058 A 
ATOM     52  C   UNL A   1      35.196  33.054  31.330  1.00  0.00     0.135 A 
ATOM     53  C   UNL A   1      36.788  33.973  29.784  1.00  0.00     0.135 A 
ATOM     54  F   UNL A   1      34.894  32.283  32.387  1.00  0.00    -0.206 F 
ATOM     55  C   UNL A   1      34.165  33.732  30.689  1.00  0.00     0.059 A 
ATOM     56  C   UNL A   1      35.779  34.683  29.142  1.00  0.00     0.059 A 
ATOM     57  F   UNL A   1      38.047  34.119  29.340  1.00  0.00    -0.206 F 
ATOM     58  C   UNL A   1      34.469  34.547  29.596  1.00  0.00     0.060 A 
BRANCH  58  59
ATOM     59  S   UNL A   1      33.136  35.473  28.803  1.00  0.00     0.124 S 
ATOM     60  O   UNL A   1      32.483  34.431  28.019  1.00  0.00    -0.237 OA
ATOM     61  O   UNL A   1      32.384  35.976  29.949  1.00  0.00    -0.237 OA
ATOM     62  O   UNL A   1      33.847  36.491  28.037  1.00  0.00    -0.744 OA
ENDBRANCH  58  59
ENDBRANCH  26  51
BRANCH  38  63
ATOM     63  C   UNL A   1      39.818  34.193  36.941  1.00  0.00     0.058 A 
ATOM     64  C   UNL A   1      40.447  35.444  36.838  1.00  0.00     0.135 A 
ATOM     65  C   UNL A   1      39.019  33.948  38.069  1.00  0.00     0.135 A 
ATOM     66  F   UNL A   1      41.227  35.723  35.782  1.00  0.00    -0.206 F 
ATOM     67  C   UNL A   1      40.315  36.405  37.834  1.00  0.00     0.059 A 
ATOM     68  C   UNL A   1      38.854  34.904  39.065  1.00  0.00     0.059 A 
ATOM     69  F   UNL A   1      38.389  32.771  38.208  1.00  0.00    -0.206 F 
ATOM     70  C   UNL A   1      39.520  36.124  38.947  1.00  0.00     0.060 A 
BRANCH  70  71
ATOM     71  S   UNL A   1      39.347  37.380  40.232  1.00  0.00     0.124 S 
ATOM     72  O   UNL A   1      38.704  36.620  41.298  1.00  0.00    -0.237 OA
ATOM     73  O   UNL A   1      40.732  37.771  40.479  1.00  0.00    -0.237 OA
ATOM     74  O   UNL A   1      38.518  38.400  39.597  1.00  0.00    -0.744 OA
ENDBRANCH  70  71
ENDBRANCH  38  63
ENDBRANCH  12  13
ENDBRANCH   5   7
ENDBRANCH   2   3
ENDBRANCH   1   2
BRANCH   1  75
ATOM     75  C   UNL A   1      37.596  22.802  25.816  1.00  0.00     0.117 C 
BRANCH  75  76
ATOM     76  N   UNL A   1      37.378  22.793  24.395  1.00  0.00    -0.354 N 
ATOM     77  C   UNL A   1      36.221  22.983  23.708  1.00  0.00     0.242 C 
ATOM     78  H   UNL A   1      38.176  22.628  23.843  1.00  0.00     0.163 HD
ATOM     79  O   UNL A   1      36.338  23.052  22.477  1.00  0.00    -0.273 OA
BRANCH  77  80
ATOM     80  C   UNL A   1      34.865  23.291  24.423  1.00  0.00     0.173 C 
ATOM     81  C   UNL A   1      34.182  24.460  23.703  1.00  0.00     0.037 C 
ATOM     82  N   UNL A   1      33.781  22.277  24.386  1.00  0.00    -0.337 N 
ATOM     83  C   UNL A   1      33.532  23.761  22.515  1.00  0.00     0.024 C 
ATOM     84  C   UNL A   1      33.103  22.413  23.083  1.00  0.00     0.120 C 
BRANCH  82  85
ATOM     85  C   UNL A   1      33.320  21.383  25.327  1.00  0.00     0.174 C 
ATOM     86  S   UNL A   1      33.612  21.549  26.984  1.00  0.00    -0.041 S 
BRANCH  85  87
ATOM     87  N   UNL A   1      32.486  20.350  25.044  1.00  0.00    -0.333 N 
ATOM     88  H   UNL A   1      31.543  20.628  24.983  1.00  0.00     0.169 HD
BRANCH  87  89
ATOM     89  C   UNL A   1      32.664  18.981  24.819  1.00  0.00     0.040 A 
ATOM     90  C   UNL A   1      32.778  18.568  23.485  1.00  0.00     0.026 A 
ATOM     91  C   UNL A   1      32.756  18.046  25.845  1.00  0.00     0.026 A 
ATOM     92  C   UNL A   1      33.160  17.262  23.190  1.00  0.00     0.002 A 
ATOM     93  C   UNL A   1      33.107  16.727  25.546  1.00  0.00     0.002 A 
ATOM     94  C   UNL A   1      33.344  16.346  24.223  1.00  0.00     0.000 A 
ENDBRANCH  87  89
ENDBRANCH  85  87
ENDBRANCH  82  85
ENDBRANCH  77  80
ENDBRANCH  75  76
ENDBRANCH   1  75
TORSDOF 16
ENDMDL
