MODEL 1
REMARK VINA RESULT:     -12.9      0.000      0.000
REMARK SMILES CC(C)(C)c1cc2c(cc1Cl)C=C(C(=O)NCCCNC(=O)c1ccc(-c3c4nc(c(-c5c(F)cc(S(=O)(=O)[O-])cc5F)c5ccc([nH]5)c(-c5c(F)cc(S(=O)(=O)[O-])cc5F)c5nc(c(-c6c(F)cc(S(=O)(=O)[O-])cc6F)c6ccc3[nH]6)C=C5)C=C4)cc1)[C@@H](C(F)(F)F)O2
REMARK SMILES IDX 19 1 18 2 17 3 16 4 14 5 15 6 13 8 5 9 6 10 10 11 7 12 9 13
REMARK SMILES IDX 11 14 8 15 94 16 12 17 89 18 2 19 1 20 3 21 4 22 90 23 91 24
REMARK SMILES IDX 92 25 93 26 20 27 21 28 22 30 23 31 24 32 88 33 25 34 87 35
REMARK SMILES IDX 26 36 27 37 28 38 81 39 29 40 86 41 80 42 82 43 30 44 85 45
REMARK SMILES IDX 79 46 78 47 31 49 65 50 44 51 64 52 45 53 48 54 63 55 83 56
REMARK SMILES IDX 46 57 47 58 62 60 84 61 49 62 32 63 33 64 42 65 34 66 35 67
REMARK SMILES IDX 41 68 43 69 36 70 37 71 38 72 39 73 40 74 66 75 67 76 76 77
REMARK SMILES IDX 68 78 69 79 75 80 77 81 70 82 71 83 72 84 73 85 74 86 50 87
REMARK SMILES IDX 51 88 60 89 52 90 53 91 59 92 61 93 54 94 55 95 56 96 57 97
REMARK SMILES IDX 58 98
REMARK H PARENT 16 7 20 29 82 48 48 59
REMARK Flexibility Score: inf
ROOT
ATOM      1  C   UNL A   1      38.399  24.176  26.183  1.00  0.00     0.118 C 
ENDROOT
BRANCH   1   2
ATOM      2  C   UNL A   1      37.632  22.860  26.224  1.00  0.00     0.042 C 
BRANCH   2   3
ATOM      3  C   UNL A   1      37.774  22.067  24.934  1.00  0.00     0.118 C 
BRANCH   3   4
ATOM      4  N   UNL A   1      36.887  20.913  24.903  1.00  0.00    -0.352 N 
ATOM      5  C   UNL A   1      35.554  20.684  24.861  1.00  0.00     0.251 C 
ATOM      6  O   UNL A   1      35.227  19.493  24.855  1.00  0.00    -0.270 OA
ATOM      7  H   UNL A   1      37.396  20.070  24.917  1.00  0.00     0.163 HD
BRANCH   5   8
ATOM      8  C   UNL A   1      34.501  21.738  24.810  1.00  0.00     0.067 C 
ATOM      9  C   UNL A   1      31.804  25.922  23.791  1.00  0.00    -0.020 A 
ATOM     10  C   UNL A   1      31.579  24.711  24.481  1.00  0.00     0.053 A 
ATOM     11  C   UNL A   1      33.031  26.014  23.089  1.00  0.00     0.045 A 
ATOM     12  C   UNL A   1      32.527  23.689  24.516  1.00  0.00     0.128 A 
ATOM     13  C   UNL A   1      33.976  24.969  23.118  1.00  0.00     0.032 A 
ATOM     14  Cl  UNL A   1      33.503  27.376  22.129  1.00  0.00    -0.084 Cl
ATOM     15  C   UNL A   1      33.732  23.808  23.843  1.00  0.00     0.019 A 
ATOM     16  O   UNL A   1      32.190  22.567  25.220  1.00  0.00    -0.475 OA
ATOM     17  C   UNL A   1      34.693  22.714  23.901  1.00  0.00     0.025 C 
ATOM     18  C   UNL A   1      33.309  21.787  25.724  1.00  0.00     0.314 C 
BRANCH   9  19
ATOM     19  C   UNL A   1      30.727  27.035  23.845  1.00  0.00    -0.012 C 
ATOM     20  C   UNL A   1      30.438  27.687  22.462  1.00  0.00     0.016 C 
ATOM     21  C   UNL A   1      31.188  28.189  24.760  1.00  0.00     0.016 C 
ATOM     22  C   UNL A   1      29.366  26.477  24.316  1.00  0.00     0.016 C 
ENDBRANCH   9  19
BRANCH  18  23
ATOM     23  C   UNL A   1      33.664  22.276  27.142  1.00  0.00     0.429 C 
ATOM     24  F   UNL A   1      32.545  22.642  27.814  1.00  0.00    -0.167 F 
ATOM     25  F   UNL A   1      34.265  21.320  27.889  1.00  0.00    -0.167 F 
ATOM     26  F   UNL A   1      34.498  23.341  27.135  1.00  0.00    -0.167 F 
ENDBRANCH  18  23
ENDBRANCH   5   8
ENDBRANCH   3   4
ENDBRANCH   2   3
ENDBRANCH   1   2
BRANCH   1  27
ATOM     27  N   UNL A   1      39.843  23.970  26.096  1.00  0.00    -0.352 N 
ATOM     28  C   UNL A   1      40.880  24.703  26.621  1.00  0.00     0.251 C 
ATOM     29  H   UNL A   1      40.118  23.179  25.576  1.00  0.00     0.163 HD
ATOM     30  O   UNL A   1      42.029  24.495  26.236  1.00  0.00    -0.269 OA
BRANCH  28  31
ATOM     31  C   UNL A   1      40.610  25.749  27.627  1.00  0.00     0.039 A 
ATOM     32  C   UNL A   1      41.378  26.912  27.650  1.00  0.00     0.014 A 
ATOM     33  C   UNL A   1      39.586  25.567  28.561  1.00  0.00     0.014 A 
ATOM     34  C   UNL A   1      41.265  27.789  28.719  1.00  0.00     0.010 A 
ATOM     35  C   UNL A   1      39.398  26.512  29.575  1.00  0.00     0.010 A 
ATOM     36  C   UNL A   1      40.271  27.604  29.694  1.00  0.00    -0.014 A 
BRANCH  36  37
ATOM     37  C   UNL A   1      40.182  28.570  30.819  1.00  0.00     0.031 A 
ATOM     38  C   UNL A   1      41.156  28.510  31.967  1.00  0.00     0.074 A 
ATOM     39  C   UNL A   1      39.263  29.556  30.759  1.00  0.00     0.049 A 
ATOM     40  N   UNL A   1      41.233  29.284  33.018  1.00  0.00    -0.248 NA
ATOM     41  C   UNL A   1      42.169  27.443  31.939  1.00  0.00     0.031 C 
ATOM     42  C   UNL A   1      38.271  29.719  29.692  1.00  0.00     0.029 A 
ATOM     43  N   UNL A   1      39.033  30.624  31.587  1.00  0.00    -0.354 N 
ATOM     44  C   UNL A   1      42.277  28.784  33.787  1.00  0.00     0.074 A 
ATOM     45  C   UNL A   1      42.797  27.628  33.092  1.00  0.00     0.031 C 
ATOM     46  C   UNL A   1      37.587  30.854  29.893  1.00  0.00     0.029 A 
ATOM     47  C   UNL A   1      38.037  31.462  31.140  1.00  0.00     0.049 A 
ATOM     48  H   UNL A   1      39.532  30.778  32.421  1.00  0.00     0.167 HD
ATOM     49  C   UNL A   1      42.765  29.256  34.959  1.00  0.00     0.037 A 
ATOM     50  C   UNL A   1      37.529  32.586  31.679  1.00  0.00     0.037 A 
ATOM     51  C   UNL A   1      42.270  30.435  35.622  1.00  0.00     0.049 A 
ATOM     52  C   UNL A   1      38.081  33.079  32.985  1.00  0.00     0.074 A 
ATOM     53  C   UNL A   1      42.716  31.008  36.801  1.00  0.00     0.029 A 
ATOM     54  N   UNL A   1      41.230  31.228  35.161  1.00  0.00    -0.354 N 
ATOM     55  N   UNL A   1      39.063  32.583  33.700  1.00  0.00    -0.248 NA
ATOM     56  C   UNL A   1      37.451  34.271  33.565  1.00  0.00     0.031 C 
ATOM     57  C   UNL A   1      41.923  32.128  37.071  1.00  0.00     0.029 A 
ATOM     58  C   UNL A   1      41.009  32.275  36.039  1.00  0.00     0.049 A 
ATOM     59  H   UNL A   1      40.724  31.069  34.332  1.00  0.00     0.167 HD
ATOM     60  C   UNL A   1      39.165  33.401  34.817  1.00  0.00     0.074 A 
ATOM     61  C   UNL A   1      38.166  34.440  34.669  1.00  0.00     0.031 C 
ATOM     62  C   UNL A   1      40.005  33.296  35.876  1.00  0.00     0.037 A 
BRANCH  49  63
ATOM     63  C   UNL A   1      43.889  28.503  35.615  1.00  0.00     0.058 A 
ATOM     64  C   UNL A   1      45.233  28.821  35.368  1.00  0.00     0.135 A 
ATOM     65  C   UNL A   1      43.615  27.505  36.565  1.00  0.00     0.135 A 
ATOM     66  F   UNL A   1      45.549  29.753  34.455  1.00  0.00    -0.206 F 
ATOM     67  C   UNL A   1      46.267  28.173  36.036  1.00  0.00     0.059 A 
ATOM     68  C   UNL A   1      44.633  26.858  37.260  1.00  0.00     0.059 A 
ATOM     69  F   UNL A   1      42.347  27.159  36.836  1.00  0.00    -0.206 F 
ATOM     70  C   UNL A   1      45.957  27.197  36.985  1.00  0.00     0.060 A 
BRANCH  70  71
ATOM     71  S   UNL A   1      47.312  26.394  37.868  1.00  0.00     0.124 S 
ATOM     72  O   UNL A   1      47.310  25.067  37.260  1.00  0.00    -0.237 OA
ATOM     73  O   UNL A   1      48.450  27.243  37.531  1.00  0.00    -0.237 OA
ATOM     74  O   UNL A   1      46.887  26.444  39.263  1.00  0.00    -0.744 OA
ENDBRANCH  70  71
ENDBRANCH  49  63
BRANCH  50  75
ATOM     75  C   UNL A   1      36.424  33.299  30.989  1.00  0.00     0.058 A 
ATOM     76  C   UNL A   1      35.114  33.259  31.486  1.00  0.00     0.135 A 
ATOM     77  C   UNL A   1      36.664  34.064  29.837  1.00  0.00     0.135 A 
ATOM     78  F   UNL A   1      34.833  32.536  32.582  1.00  0.00    -0.206 F 
ATOM     79  C   UNL A   1      34.079  33.950  30.864  1.00  0.00     0.059 A 
ATOM     80  C   UNL A   1      35.652  34.785  29.212  1.00  0.00     0.059 A 
ATOM     81  F   UNL A   1      37.904  34.146  29.331  1.00  0.00    -0.206 F 
ATOM     82  C   UNL A   1      34.360  34.715  29.730  1.00  0.00     0.060 A 
BRANCH  82  83
ATOM     83  S   UNL A   1      33.024  35.657  28.964  1.00  0.00     0.124 S 
ATOM     84  O   UNL A   1      33.761  36.723  28.299  1.00  0.00    -0.237 OA
ATOM     85  O   UNL A   1      32.409  34.663  28.090  1.00  0.00    -0.237 OA
ATOM     86  O   UNL A   1      32.208  36.067  30.104  1.00  0.00    -0.744 OA
ENDBRANCH  82  83
ENDBRANCH  50  75
BRANCH  62  87
ATOM     87  C   UNL A   1      39.880  34.329  36.957  1.00  0.00     0.058 A 
ATOM     88  C   UNL A   1      40.515  35.575  36.850  1.00  0.00     0.135 A 
ATOM     89  C   UNL A   1      39.068  34.094  38.078  1.00  0.00     0.135 A 
ATOM     90  F   UNL A   1      41.308  35.842  35.800  1.00  0.00    -0.206 F 
ATOM     91  C   UNL A   1      40.359  36.552  37.826  1.00  0.00     0.059 A 
ATOM     92  C   UNL A   1      38.880  35.066  39.055  1.00  0.00     0.059 A 
ATOM     93  F   UNL A   1      38.433  32.919  38.219  1.00  0.00    -0.206 F 
ATOM     94  C   UNL A   1      39.538  36.289  38.924  1.00  0.00     0.060 A 
BRANCH  94  95
ATOM     95  S   UNL A   1      39.311  37.583  40.161  1.00  0.00     0.124 S 
ATOM     96  O   UNL A   1      38.238  38.373  39.566  1.00  0.00    -0.237 OA
ATOM     97  O   UNL A   1      38.950  36.818  41.351  1.00  0.00    -0.237 OA
ATOM     98  O   UNL A   1      40.617  38.234  40.215  1.00  0.00    -0.744 OA
ENDBRANCH  94  95
ENDBRANCH  62  87
ENDBRANCH  36  37
ENDBRANCH  28  31
ENDBRANCH   1  27
TORSDOF 15
ENDMDL
MODEL 2
REMARK VINA RESULT:     -12.6      6.790     12.190
REMARK SMILES CC(C)(C)c1cc2c(cc1Cl)C=C(C(=O)NCCCNC(=O)c1ccc(-c3c4nc(c(-c5c(F)cc(S(=O)(=O)[O-])cc5F)c5ccc([nH]5)c(-c5c(F)cc(S(=O)(=O)[O-])cc5F)c5nc(c(-c6c(F)cc(S(=O)(=O)[O-])cc6F)c6ccc3[nH]6)C=C5)C=C4)cc1)[C@@H](C(F)(F)F)O2
REMARK SMILES IDX 19 1 18 2 17 3 16 4 14 5 15 6 13 8 5 9 6 10 10 11 7 12 9 13
REMARK SMILES IDX 11 14 8 15 94 16 12 17 89 18 2 19 1 20 3 21 4 22 90 23 91 24
REMARK SMILES IDX 92 25 93 26 20 27 21 28 22 30 23 31 24 32 88 33 25 34 87 35
REMARK SMILES IDX 26 36 27 37 28 38 81 39 29 40 86 41 80 42 82 43 30 44 85 45
REMARK SMILES IDX 79 46 78 47 31 49 65 50 44 51 64 52 45 53 48 54 63 55 83 56
REMARK SMILES IDX 46 57 47 58 62 60 84 61 49 62 32 63 33 64 42 65 34 66 35 67
REMARK SMILES IDX 41 68 43 69 36 70 37 71 38 72 39 73 40 74 66 75 67 76 76 77
REMARK SMILES IDX 68 78 69 79 75 80 77 81 70 82 71 83 72 84 73 85 74 86 50 87
REMARK SMILES IDX 51 88 60 89 52 90 53 91 59 92 61 93 54 94 55 95 56 96 57 97
REMARK SMILES IDX 58 98
REMARK H PARENT 16 7 20 29 82 48 48 59
REMARK Flexibility Score: inf
ROOT
ATOM      1  C   UNL A   1      34.990  29.356  27.857  1.00  0.00     0.118 C 
ENDROOT
BRANCH   1   2
ATOM      2  C   UNL A   1      34.063  29.934  26.795  1.00  0.00     0.042 C 
BRANCH   2   3
ATOM      3  C   UNL A   1      32.618  30.004  27.264  1.00  0.00     0.118 C 
BRANCH   3   4
ATOM      4  N   UNL A   1      31.705  30.312  26.173  1.00  0.00    -0.352 N 
ATOM      5  C   UNL A   1      31.200  29.678  25.089  1.00  0.00     0.251 C 
ATOM      6  O   UNL A   1      30.428  30.352  24.400  1.00  0.00    -0.270 OA
ATOM      7  H   UNL A   1      31.361  31.232  26.242  1.00  0.00     0.163 HD
BRANCH   5   8
ATOM      8  C   UNL A   1      31.498  28.270  24.701  1.00  0.00     0.067 C 
ATOM      9  C   UNL A   1      32.447  23.278  24.725  1.00  0.00    -0.020 A 
ATOM     10  C   UNL A   1      32.206  24.262  23.742  1.00  0.00     0.053 A 
ATOM     11  C   UNL A   1      32.291  23.698  26.069  1.00  0.00     0.045 A 
ATOM     12  C   UNL A   1      31.888  25.580  24.071  1.00  0.00     0.128 A 
ATOM     13  C   UNL A   1      31.953  25.028  26.392  1.00  0.00     0.032 A 
ATOM     14  Cl  UNL A   1      32.478  22.658  27.441  1.00  0.00    -0.084 Cl
ATOM     15  C   UNL A   1      31.763  25.976  25.392  1.00  0.00     0.019 A 
ATOM     16  O   UNL A   1      31.680  26.436  23.027  1.00  0.00    -0.475 OA
ATOM     17  C   UNL A   1      31.423  27.361  25.693  1.00  0.00     0.025 C 
ATOM     18  C   UNL A   1      31.907  27.842  23.320  1.00  0.00     0.314 C 
BRANCH   9  19
ATOM     19  C   UNL A   1      32.852  21.850  24.283  1.00  0.00    -0.012 C 
ATOM     20  C   UNL A   1      34.355  21.526  24.530  1.00  0.00     0.016 C 
ATOM     21  C   UNL A   1      32.631  21.670  22.766  1.00  0.00     0.016 C 
ATOM     22  C   UNL A   1      32.078  20.775  25.077  1.00  0.00     0.016 C 
ENDBRANCH   9  19
BRANCH  18  23
ATOM     23  C   UNL A   1      33.374  28.191  22.999  1.00  0.00     0.429 C 
ATOM     24  F   UNL A   1      33.839  27.415  21.988  1.00  0.00    -0.167 F 
ATOM     25  F   UNL A   1      33.530  29.476  22.598  1.00  0.00    -0.167 F 
ATOM     26  F   UNL A   1      34.198  28.014  24.057  1.00  0.00    -0.167 F 
ENDBRANCH  18  23
ENDBRANCH   5   8
ENDBRANCH   3   4
ENDBRANCH   2   3
ENDBRANCH   1   2
BRANCH   1  27
ATOM     27  N   UNL A   1      35.209  30.287  28.962  1.00  0.00    -0.352 N 
ATOM     28  C   UNL A   1      36.330  30.517  29.724  1.00  0.00     0.251 C 
ATOM     29  H   UNL A   1      34.428  30.839  29.200  1.00  0.00     0.163 HD
ATOM     30  O   UNL A   1      36.239  31.175  30.758  1.00  0.00    -0.269 OA
BRANCH  28  31
ATOM     31  C   UNL A   1      37.632  29.957  29.309  1.00  0.00     0.039 A 
ATOM     32  C   UNL A   1      38.557  29.555  30.271  1.00  0.00     0.014 A 
ATOM     33  C   UNL A   1      37.936  29.837  27.951  1.00  0.00     0.014 A 
ATOM     34  C   UNL A   1      39.851  29.231  29.886  1.00  0.00     0.010 A 
ATOM     35  C   UNL A   1      39.207  29.402  27.562  1.00  0.00     0.010 A 
ATOM     36  C   UNL A   1      40.193  29.147  28.527  1.00  0.00    -0.014 A 
BRANCH  36  37
ATOM     37  C   UNL A   1      41.588  28.792  28.160  1.00  0.00     0.031 A 
ATOM     38  C   UNL A   1      42.692  29.814  28.245  1.00  0.00     0.074 A 
ATOM     39  C   UNL A   1      41.869  27.517  27.824  1.00  0.00     0.049 A 
ATOM     40  N   UNL A   1      43.965  29.670  27.981  1.00  0.00    -0.248 NA
ATOM     41  C   UNL A   1      42.323  31.173  28.675  1.00  0.00     0.031 C 
ATOM     42  C   UNL A   1      40.882  26.438  27.714  1.00  0.00     0.029 A 
ATOM     43  N   UNL A   1      43.062  26.899  27.548  1.00  0.00    -0.354 N 
ATOM     44  C   UNL A   1      44.542  30.919  28.183  1.00  0.00     0.074 A 
ATOM     45  C   UNL A   1      43.479  31.817  28.576  1.00  0.00     0.031 C 
ATOM     46  C   UNL A   1      41.515  25.283  27.462  1.00  0.00     0.029 A 
ATOM     47  C   UNL A   1      42.941  25.548  27.318  1.00  0.00     0.049 A 
ATOM     48  H   UNL A   1      43.922  27.377  27.517  1.00  0.00     0.167 HD
ATOM     49  C   UNL A   1      45.842  31.278  28.063  1.00  0.00     0.037 A 
ATOM     50  C   UNL A   1      43.871  24.625  27.009  1.00  0.00     0.037 A 
ATOM     51  C   UNL A   1      46.902  30.367  27.715  1.00  0.00     0.049 A 
ATOM     52  C   UNL A   1      45.303  25.054  26.872  1.00  0.00     0.074 A 
ATOM     53  C   UNL A   1      48.255  30.630  27.593  1.00  0.00     0.029 A 
ATOM     54  N   UNL A   1      46.731  29.017  27.444  1.00  0.00    -0.354 N 
ATOM     55  N   UNL A   1      45.824  26.243  27.057  1.00  0.00    -0.248 NA
ATOM     56  C   UNL A   1      46.269  24.025  26.469  1.00  0.00     0.031 C 
ATOM     57  C   UNL A   1      48.899  29.448  27.216  1.00  0.00     0.029 A 
ATOM     58  C   UNL A   1      47.952  28.439  27.140  1.00  0.00     0.049 A 
ATOM     59  H   UNL A   1      45.870  28.542  27.464  1.00  0.00     0.167 HD
ATOM     60  C   UNL A   1      47.180  26.106  26.790  1.00  0.00     0.074 A 
ATOM     61  C   UNL A   1      47.403  24.714  26.459  1.00  0.00     0.031 C 
ATOM     62  C   UNL A   1      48.151  27.051  26.808  1.00  0.00     0.037 A 
BRANCH  49  63
ATOM     63  C   UNL A   1      46.205  32.717  28.304  1.00  0.00     0.058 A 
ATOM     64  C   UNL A   1      46.651  33.166  29.556  1.00  0.00     0.135 A 
ATOM     65  C   UNL A   1      46.187  33.640  27.245  1.00  0.00     0.135 A 
ATOM     66  F   UNL A   1      46.670  32.329  30.606  1.00  0.00    -0.206 F 
ATOM     67  C   UNL A   1      47.061  34.481  29.753  1.00  0.00     0.059 A 
ATOM     68  C   UNL A   1      46.611  34.955  27.414  1.00  0.00     0.059 A 
ATOM     69  F   UNL A   1      45.766  33.263  26.028  1.00  0.00    -0.206 F 
ATOM     70  C   UNL A   1      47.043  35.367  28.674  1.00  0.00     0.060 A 
BRANCH  70  71
ATOM     71  S   UNL A   1      47.613  37.060  28.941  1.00  0.00     0.124 S 
ATOM     72  O   UNL A   1      46.995  37.755  27.816  1.00  0.00    -0.237 OA
ATOM     73  O   UNL A   1      47.064  37.370  30.255  1.00  0.00    -0.237 OA
ATOM     74  O   UNL A   1      49.067  36.943  28.882  1.00  0.00    -0.744 OA
ENDBRANCH  70  71
ENDBRANCH  49  63
BRANCH  50  75
ATOM     75  C   UNL A   1      43.463  23.214  26.788  1.00  0.00     0.058 A 
ATOM     76  C   UNL A   1      43.391  22.674  25.497  1.00  0.00     0.135 A 
ATOM     77  C   UNL A   1      43.170  22.368  27.870  1.00  0.00     0.135 A 
ATOM     78  F   UNL A   1      43.656  23.445  24.431  1.00  0.00    -0.206 F 
ATOM     79  C   UNL A   1      43.041  21.345  25.284  1.00  0.00     0.059 A 
ATOM     80  C   UNL A   1      42.843  21.029  27.684  1.00  0.00     0.059 A 
ATOM     81  F   UNL A   1      43.239  22.834  29.126  1.00  0.00    -0.206 F 
ATOM     82  C   UNL A   1      42.773  20.528  26.385  1.00  0.00     0.060 A 
BRANCH  82  83
ATOM     83  S   UNL A   1      42.379  18.790  26.103  1.00  0.00     0.124 S 
ATOM     84  O   UNL A   1      42.566  18.227  27.435  1.00  0.00    -0.237 OA
ATOM     85  O   UNL A   1      41.001  18.860  25.627  1.00  0.00    -0.237 OA
ATOM     86  O   UNL A   1      43.360  18.382  25.101  1.00  0.00    -0.744 OA
ENDBRANCH  82  83
ENDBRANCH  50  75
BRANCH  62  87
ATOM     87  C   UNL A   1      49.543  26.611  26.460  1.00  0.00     0.058 A 
ATOM     88  C   UNL A   1      50.353  25.952  27.396  1.00  0.00     0.135 A 
ATOM     89  C   UNL A   1      50.046  26.794  25.162  1.00  0.00     0.135 A 
ATOM     90  F   UNL A   1      49.918  25.762  28.652  1.00  0.00    -0.206 F 
ATOM     91  C   UNL A   1      51.624  25.499  27.061  1.00  0.00     0.059 A 
ATOM     92  C   UNL A   1      51.306  26.329  24.799  1.00  0.00     0.059 A 
ATOM     93  F   UNL A   1      49.303  27.412  24.230  1.00  0.00    -0.206 F 
ATOM     94  C   UNL A   1      52.090  25.690  25.759  1.00  0.00     0.060 A 
BRANCH  94  95
ATOM     95  S   UNL A   1      53.724  25.058  25.326  1.00  0.00     0.124 S 
ATOM     96  O   UNL A   1      53.908  25.611  23.988  1.00  0.00    -0.237 OA
ATOM     97  O   UNL A   1      54.568  25.631  26.371  1.00  0.00    -0.237 OA
ATOM     98  O   UNL A   1      53.556  23.609  25.390  1.00  0.00    -0.744 OA
ENDBRANCH  94  95
ENDBRANCH  62  87
ENDBRANCH  36  37
ENDBRANCH  28  31
ENDBRANCH   1  27
TORSDOF 15
ENDMDL
MODEL 3
REMARK VINA RESULT:     -12.6      6.296      8.417
REMARK SMILES CC(C)(C)c1cc2c(cc1Cl)C=C(C(=O)NCCCNC(=O)c1ccc(-c3c4nc(c(-c5c(F)cc(S(=O)(=O)[O-])cc5F)c5ccc([nH]5)c(-c5c(F)cc(S(=O)(=O)[O-])cc5F)c5nc(c(-c6c(F)cc(S(=O)(=O)[O-])cc6F)c6ccc3[nH]6)C=C5)C=C4)cc1)[C@@H](C(F)(F)F)O2
REMARK SMILES IDX 19 1 18 2 17 3 16 4 14 5 15 6 13 8 5 9 6 10 10 11 7 12 9 13
REMARK SMILES IDX 11 14 8 15 94 16 12 17 89 18 2 19 1 20 3 21 4 22 90 23 91 24
REMARK SMILES IDX 92 25 93 26 20 27 21 28 22 30 23 31 24 32 88 33 25 34 87 35
REMARK SMILES IDX 26 36 27 37 28 38 81 39 29 40 86 41 80 42 82 43 30 44 85 45
REMARK SMILES IDX 79 46 78 47 31 49 65 50 44 51 64 52 45 53 48 54 63 55 83 56
REMARK SMILES IDX 46 57 47 58 62 60 84 61 49 62 32 63 33 64 42 65 34 66 35 67
REMARK SMILES IDX 41 68 43 69 36 70 37 71 38 72 39 73 40 74 66 75 67 76 76 77
REMARK SMILES IDX 68 78 69 79 75 80 77 81 70 82 71 83 72 84 73 85 74 86 50 87
REMARK SMILES IDX 51 88 60 89 52 90 53 91 59 92 61 93 54 94 55 95 56 96 57 97
REMARK SMILES IDX 58 98
REMARK H PARENT 16 7 20 29 82 48 48 59
REMARK Flexibility Score: inf
ROOT
ATOM      1  C   UNL A   1      39.294  20.551  25.751  1.00  0.00     0.118 C 
ENDROOT
BRANCH   1   2
ATOM      2  C   UNL A   1      38.044  20.108  25.001  1.00  0.00     0.042 C 
BRANCH   2   3
ATOM      3  C   UNL A   1      36.823  20.933  25.375  1.00  0.00     0.118 C 
BRANCH   3   4
ATOM      4  N   UNL A   1      35.591  20.341  24.875  1.00  0.00    -0.352 N 
ATOM      5  C   UNL A   1      34.295  20.708  24.739  1.00  0.00     0.251 C 
ATOM      6  O   UNL A   1      33.556  19.848  24.248  1.00  0.00    -0.270 OA
ATOM      7  H   UNL A   1      35.740  19.425  24.546  1.00  0.00     0.163 HD
BRANCH   5   8
ATOM      8  C   UNL A   1      33.732  22.035  25.119  1.00  0.00     0.067 C 
ATOM      9  C   UNL A   1      32.574  26.977  25.361  1.00  0.00    -0.020 A 
ATOM     10  C   UNL A   1      32.133  25.797  25.999  1.00  0.00     0.053 A 
ATOM     11  C   UNL A   1      33.492  26.796  24.296  1.00  0.00     0.045 A 
ATOM     12  C   UNL A   1      32.610  24.536  25.642  1.00  0.00     0.128 A 
ATOM     13  C   UNL A   1      33.956  25.516  23.932  1.00  0.00     0.032 A 
ATOM     14  Cl  UNL A   1      34.128  28.086  23.332  1.00  0.00    -0.084 Cl
ATOM     15  C   UNL A   1      33.526  24.383  24.614  1.00  0.00     0.019 A 
ATOM     16  O   UNL A   1      32.106  23.473  26.337  1.00  0.00    -0.475 OA
ATOM     17  C   UNL A   1      33.994  23.047  24.268  1.00  0.00     0.025 C 
ATOM     18  C   UNL A   1      32.958  22.296  26.380  1.00  0.00     0.314 C 
BRANCH   9  19
ATOM     19  C   UNL A   1      32.042  28.346  25.851  1.00  0.00    -0.012 C 
ATOM     20  C   UNL A   1      33.153  29.426  26.003  1.00  0.00     0.016 C 
ATOM     21  C   UNL A   1      31.402  28.209  27.248  1.00  0.00     0.016 C 
ATOM     22  C   UNL A   1      31.035  28.950  24.847  1.00  0.00     0.016 C 
ENDBRANCH   9  19
BRANCH  18  23
ATOM     23  C   UNL A   1      33.860  22.374  27.628  1.00  0.00     0.429 C 
ATOM     24  F   UNL A   1      34.877  23.249  27.426  1.00  0.00    -0.167 F 
ATOM     25  F   UNL A   1      33.197  22.804  28.727  1.00  0.00    -0.167 F 
ATOM     26  F   UNL A   1      34.411  21.181  27.951  1.00  0.00    -0.167 F 
ENDBRANCH  18  23
ENDBRANCH   5   8
ENDBRANCH   3   4
ENDBRANCH   2   3
ENDBRANCH   1   2
BRANCH   1  27
ATOM     27  N   UNL A   1      40.219  19.442  25.981  1.00  0.00    -0.352 N 
ATOM     28  C   UNL A   1      41.580  19.445  26.176  1.00  0.00     0.251 C 
ATOM     29  H   UNL A   1      39.801  18.550  26.000  1.00  0.00     0.163 HD
ATOM     30  O   UNL A   1      42.205  18.388  26.118  1.00  0.00    -0.269 OA
BRANCH  28  31
ATOM     31  C   UNL A   1      42.287  20.715  26.433  1.00  0.00     0.039 A 
ATOM     32  C   UNL A   1      42.408  21.196  27.736  1.00  0.00     0.014 A 
ATOM     33  C   UNL A   1      42.830  21.437  25.366  1.00  0.00     0.014 A 
ATOM     34  C   UNL A   1      42.881  22.482  27.952  1.00  0.00     0.010 A 
ATOM     35  C   UNL A   1      43.410  22.688  25.602  1.00  0.00     0.010 A 
ATOM     36  C   UNL A   1      43.392  23.244  26.889  1.00  0.00    -0.014 A 
BRANCH  36  37
ATOM     37  C   UNL A   1      43.893  24.616  27.166  1.00  0.00     0.031 A 
ATOM     38  C   UNL A   1      45.326  24.984  26.883  1.00  0.00     0.074 A 
ATOM     39  C   UNL A   1      43.024  25.551  27.600  1.00  0.00     0.049 A 
ATOM     40  N   UNL A   1      45.924  26.136  27.046  1.00  0.00    -0.248 NA
ATOM     41  C   UNL A   1      46.205  23.928  26.354  1.00  0.00     0.031 C 
ATOM     42  C   UNL A   1      41.610  25.311  27.903  1.00  0.00     0.029 A 
ATOM     43  N   UNL A   1      43.186  26.893  27.830  1.00  0.00    -0.354 N 
ATOM     44  C   UNL A   1      47.248  25.938  26.671  1.00  0.00     0.074 A 
ATOM     45  C   UNL A   1      47.374  24.550  26.287  1.00  0.00     0.031 C 
ATOM     46  C   UNL A   1      41.020  26.475  28.211  1.00  0.00     0.029 A 
ATOM     47  C   UNL A   1      42.025  27.531  28.202  1.00  0.00     0.049 A 
ATOM     48  H   UNL A   1      44.050  27.356  27.737  1.00  0.00     0.167 HD
ATOM     49  C   UNL A   1      48.261  26.836  26.640  1.00  0.00     0.037 A 
ATOM     50  C   UNL A   1      41.795  28.819  28.518  1.00  0.00     0.037 A 
ATOM     51  C   UNL A   1      48.116  28.228  26.983  1.00  0.00     0.049 A 
ATOM     52  C   UNL A   1      42.939  29.790  28.485  1.00  0.00     0.074 A 
ATOM     53  C   UNL A   1      49.077  29.223  26.957  1.00  0.00     0.029 A 
ATOM     54  N   UNL A   1      46.935  28.824  27.400  1.00  0.00    -0.354 N 
ATOM     55  N   UNL A   1      44.186  29.578  28.138  1.00  0.00    -0.248 NA
ATOM     56  C   UNL A   1      42.653  31.169  28.901  1.00  0.00     0.031 C 
ATOM     57  C   UNL A   1      48.487  30.414  27.392  1.00  0.00     0.029 A 
ATOM     58  C   UNL A   1      47.148  30.168  27.651  1.00  0.00     0.049 A 
ATOM     59  H   UNL A   1      46.074  28.359  27.503  1.00  0.00     0.167 HD
ATOM     60  C   UNL A   1      44.834  30.796  28.296  1.00  0.00     0.074 A 
ATOM     61  C   UNL A   1      43.837  31.746  28.742  1.00  0.00     0.031 C 
ATOM     62  C   UNL A   1      46.141  31.097  28.099  1.00  0.00     0.037 A 
BRANCH  49  63
ATOM     63  C   UNL A   1      49.623  26.355  26.227  1.00  0.00     0.058 A 
ATOM     64  C   UNL A   1      50.131  26.590  24.941  1.00  0.00     0.135 A 
ATOM     65  C   UNL A   1      50.464  25.722  27.158  1.00  0.00     0.135 A 
ATOM     66  F   UNL A   1      49.362  27.174  24.008  1.00  0.00    -0.206 F 
ATOM     67  C   UNL A   1      51.423  26.212  24.589  1.00  0.00     0.059 A 
ATOM     68  C   UNL A   1      51.767  25.352  26.834  1.00  0.00     0.059 A 
ATOM     69  F   UNL A   1      50.027  25.468  28.401  1.00  0.00    -0.206 F 
ATOM     70  C   UNL A   1      52.235  25.598  25.544  1.00  0.00     0.060 A 
BRANCH  70  71
ATOM     71  S   UNL A   1      53.921  25.147  25.078  1.00  0.00     0.124 S 
ATOM     72  O   UNL A   1      54.065  25.838  23.800  1.00  0.00    -0.237 OA
ATOM     73  O   UNL A   1      54.705  25.690  26.182  1.00  0.00    -0.237 OA
ATOM     74  O   UNL A   1      53.876  23.691  25.001  1.00  0.00    -0.744 OA
ENDBRANCH  70  71
ENDBRANCH  49  63
BRANCH  50  75
ATOM     75  C   UNL A   1      40.429  29.248  28.912  1.00  0.00     0.058 A 
ATOM     76  C   UNL A   1      40.093  29.451  30.258  1.00  0.00     0.135 A 
ATOM     77  C   UNL A   1      39.442  29.497  27.946  1.00  0.00     0.135 A 
ATOM     78  F   UNL A   1      41.002  29.221  31.219  1.00  0.00    -0.206 F 
ATOM     79  C   UNL A   1      38.826  29.884  30.633  1.00  0.00     0.059 A 
ATOM     80  C   UNL A   1      38.175  29.955  28.294  1.00  0.00     0.059 A 
ATOM     81  F   UNL A   1      39.719  29.332  26.643  1.00  0.00    -0.206 F 
ATOM     82  C   UNL A   1      37.874  30.138  29.643  1.00  0.00     0.060 A 
BRANCH  82  83
ATOM     83  S   UNL A   1      36.251  30.756  30.134  1.00  0.00     0.124 S 
ATOM     84  O   UNL A   1      35.487  30.583  28.905  1.00  0.00    -0.237 OA
ATOM     85  O   UNL A   1      35.903  29.864  31.235  1.00  0.00    -0.237 OA
ATOM     86  O   UNL A   1      36.523  32.138  30.520  1.00  0.00    -0.744 OA
ENDBRANCH  82  83
ENDBRANCH  50  75
BRANCH  62  87
ATOM     87  C   UNL A   1      46.567  32.511  28.366  1.00  0.00     0.058 A 
ATOM     88  C   UNL A   1      47.074  32.894  29.616  1.00  0.00     0.135 A 
ATOM     89  C   UNL A   1      46.526  33.473  27.345  1.00  0.00     0.135 A 
ATOM     90  F   UNL A   1      47.125  32.010  30.625  1.00  0.00    -0.206 F 
ATOM     91  C   UNL A   1      47.517  34.191  29.850  1.00  0.00     0.059 A 
ATOM     92  C   UNL A   1      46.984  34.771  27.551  1.00  0.00     0.059 A 
ATOM     93  F   UNL A   1      46.056  33.151  26.129  1.00  0.00    -0.206 F 
ATOM     94  C   UNL A   1      47.471  35.121  28.810  1.00  0.00     0.060 A 
BRANCH  94  95
ATOM     95  S   UNL A   1      48.089  36.789  29.116  1.00  0.00     0.124 S 
ATOM     96  O   UNL A   1      49.162  36.889  28.133  1.00  0.00    -0.237 OA
ATOM     97  O   UNL A   1      46.911  37.611  28.856  1.00  0.00    -0.237 OA
ATOM     98  O   UNL A   1      48.517  36.741  30.512  1.00  0.00    -0.744 OA
ENDBRANCH  94  95
ENDBRANCH  62  87
ENDBRANCH  36  37
ENDBRANCH  28  31
ENDBRANCH   1  27
TORSDOF 15
ENDMDL
