MODEL 1
REMARK VINA RESULT:     -12.3      0.000      0.000
REMARK SMILES N#C[C@H]1CN(c2cc(C(=O)NCCCNC(=O)c3ccc(-c4c5nc(c(-c6c(F)cc(S(=O)(=O)[O-])cc6F)c6ccc([nH]6)c(-c6c(F)cc(S(=O)(=O)[O-])cc6F)c6nc(c(-c7c(F)cc(S(=O)(=O)[O-])cc7F)c7ccc4[nH]7)C=C6)C=C5)cc3)c(N)cc2F)CCO1
REMARK SMILES IDX 13 1 12 2 11 3 9 4 10 5 8 7 6 8 7 9 87 10 86 11 88 12 84 13
REMARK SMILES IDX 5 14 3 15 4 16 91 17 90 18 89 19 2 20 1 21 85 22 14 25 15 26
REMARK SMILES IDX 16 27 17 29 18 30 19 31 83 32 20 33 82 34 21 35 22 36 23 37
REMARK SMILES IDX 76 38 24 39 81 40 75 41 77 42 25 43 80 44 74 45 73 46 26 48
REMARK SMILES IDX 60 49 39 50 59 51 40 52 43 53 58 54 78 55 41 56 42 57 57 59
REMARK SMILES IDX 79 60 44 61 27 62 28 63 37 64 29 65 30 66 36 67 38 68 31 69
REMARK SMILES IDX 32 70 33 71 34 72 35 73 61 74 62 75 71 76 63 77 64 78 70 79
REMARK SMILES IDX 72 80 65 81 66 82 67 83 68 84 69 85 45 86 46 87 55 88 47 89
REMARK SMILES IDX 48 90 54 91 56 92 49 93 50 94 51 95 52 96 53 97
REMARK H PARENT 11 6 85 23 85 24 15 28 77 47 43 58
REMARK Flexibility Score: inf
ROOT
ATOM      1  C   UNL A   1      38.744  22.512  26.538  1.00  0.00     0.042 C 
ENDROOT
BRANCH   1   2
ATOM      2  C   UNL A   1      37.700  23.407  25.908  1.00  0.00     0.118 C 
BRANCH   2   3
ATOM      3  N   UNL A   1      37.590  23.339  24.463  1.00  0.00    -0.352 N 
ATOM      4  C   UNL A   1      36.537  22.939  23.668  1.00  0.00     0.253 C 
ATOM      5  O   UNL A   1      36.677  23.047  22.448  1.00  0.00    -0.269 OA
ATOM      6  H   UNL A   1      38.394  23.624  23.972  1.00  0.00     0.163 HD
BRANCH   4   7
ATOM      7  C   UNL A   1      35.286  22.315  24.203  1.00  0.00     0.065 A 
ATOM      8  C   UNL A   1      32.905  22.710  24.660  1.00  0.00     0.074 A 
ATOM      9  C   UNL A   1      34.143  23.151  24.184  1.00  0.00     0.045 A 
ATOM     10  C   UNL A   1      32.794  21.349  24.971  1.00  0.00     0.148 A 
ATOM     11  C   UNL A   1      33.900  20.515  25.011  1.00  0.00     0.067 A 
ATOM     12  F   UNL A   1      31.603  20.837  25.323  1.00  0.00    -0.205 F 
ATOM     13  C   UNL A   1      35.174  21.024  24.756  1.00  0.00     0.047 A 
BRANCH   8  14
ATOM     14  N   UNL A   1      31.887  23.599  24.925  1.00  0.00    -0.363 N 
ATOM     15  C   UNL A   1      31.819  25.985  25.531  1.00  0.00     0.240 C 
ATOM     16  C   UNL A   1      31.889  24.528  26.058  1.00  0.00     0.164 C 
ATOM     17  O   UNL A   1      30.713  26.160  24.606  1.00  0.00    -0.360 OA
ATOM     18  C   UNL A   1      30.848  25.280  23.477  1.00  0.00     0.183 C 
ATOM     19  C   UNL A   1      30.839  23.814  23.920  1.00  0.00     0.145 C 
BRANCH  15  20
ATOM     20  C   UNL A   1      31.665  26.917  26.663  1.00  0.00     0.096 C 
ATOM     21  N   UNL A   1      31.551  27.653  27.551  1.00  0.00    -0.195 NA
ENDBRANCH  15  20
ENDBRANCH   8  14
BRANCH  13  22
ATOM     22  N   UNL A   1      36.248  20.246  25.163  1.00  0.00    -0.398 N 
ATOM     23  H   UNL A   1      36.089  19.393  25.630  1.00  0.00     0.156 HD
ATOM     24  H   UNL A   1      37.169  20.546  24.986  1.00  0.00     0.156 HD
ENDBRANCH  13  22
ENDBRANCH   4   7
ENDBRANCH   2   3
ENDBRANCH   1   2
BRANCH   1  25
ATOM     25  C   UNL A   1      39.992  23.216  27.035  1.00  0.00     0.118 C 
BRANCH  25  26
ATOM     26  N   UNL A   1      40.635  24.065  26.038  1.00  0.00    -0.352 N 
ATOM     27  C   UNL A   1      41.077  25.369  26.101  1.00  0.00     0.251 C 
ATOM     28  H   UNL A   1      40.779  23.630  25.167  1.00  0.00     0.163 HD
ATOM     29  O   UNL A   1      41.479  25.912  25.074  1.00  0.00    -0.269 OA
BRANCH  27  30
ATOM     30  C   UNL A   1      41.029  26.132  27.370  1.00  0.00     0.039 A 
ATOM     31  C   UNL A   1      42.068  27.017  27.672  1.00  0.00     0.014 A 
ATOM     32  C   UNL A   1      39.968  25.994  28.262  1.00  0.00     0.014 A 
ATOM     33  C   UNL A   1      41.982  27.828  28.807  1.00  0.00     0.010 A 
ATOM     34  C   UNL A   1      39.813  26.899  29.306  1.00  0.00     0.010 A 
ATOM     35  C   UNL A   1      40.823  27.822  29.600  1.00  0.00    -0.014 A 
BRANCH  35  36
ATOM     36  C   UNL A   1      40.653  28.772  30.734  1.00  0.00     0.031 A 
ATOM     37  C   UNL A   1      41.500  28.640  31.974  1.00  0.00     0.074 A 
ATOM     38  C   UNL A   1      39.694  29.719  30.668  1.00  0.00     0.049 A 
ATOM     39  N   UNL A   1      41.475  29.354  33.069  1.00  0.00    -0.248 NA
ATOM     40  C   UNL A   1      42.485  27.545  32.001  1.00  0.00     0.031 C 
ATOM     41  C   UNL A   1      38.763  29.905  29.552  1.00  0.00     0.029 A 
ATOM     42  N   UNL A   1      39.340  30.703  31.557  1.00  0.00    -0.354 N 
ATOM     43  C   UNL A   1      42.427  28.793  33.913  1.00  0.00     0.074 A 
ATOM     44  C   UNL A   1      42.961  27.634  33.233  1.00  0.00     0.031 C 
ATOM     45  C   UNL A   1      37.979  30.964  29.802  1.00  0.00     0.029 A 
ATOM     46  C   UNL A   1      38.310  31.502  31.117  1.00  0.00     0.049 A 
ATOM     47  H   UNL A   1      39.782  30.825  32.428  1.00  0.00     0.167 HD
ATOM     48  C   UNL A   1      42.842  29.220  35.129  1.00  0.00     0.037 A 
ATOM     49  C   UNL A   1      37.695  32.547  31.706  1.00  0.00     0.037 A 
ATOM     50  C   UNL A   1      42.316  30.384  35.791  1.00  0.00     0.049 A 
ATOM     51  C   UNL A   1      38.165  32.994  33.065  1.00  0.00     0.074 A 
ATOM     52  C   UNL A   1      42.709  30.938  36.997  1.00  0.00     0.029 A 
ATOM     53  N   UNL A   1      41.278  31.170  35.311  1.00  0.00    -0.354 N 
ATOM     54  N   UNL A   1      39.125  32.500  33.810  1.00  0.00    -0.248 NA
ATOM     55  C   UNL A   1      37.474  34.146  33.659  1.00  0.00     0.031 C 
ATOM     56  C   UNL A   1      41.863  32.015  37.278  1.00  0.00     0.029 A 
ATOM     57  C   UNL A   1      40.992  32.182  36.213  1.00  0.00     0.049 A 
ATOM     58  H   UNL A   1      40.812  31.030  34.455  1.00  0.00     0.167 HD
ATOM     59  C   UNL A   1      39.172  33.297  34.949  1.00  0.00     0.074 A 
ATOM     60  C   UNL A   1      38.158  34.317  34.782  1.00  0.00     0.031 C 
ATOM     61  C   UNL A   1      39.977  33.192  36.035  1.00  0.00     0.037 A 
BRANCH  48  62
ATOM     62  C   UNL A   1      43.917  28.425  35.824  1.00  0.00     0.058 A 
ATOM     63  C   UNL A   1      43.611  27.370  36.700  1.00  0.00     0.135 A 
ATOM     64  C   UNL A   1      45.274  28.694  35.579  1.00  0.00     0.135 A 
ATOM     65  F   UNL A   1      42.332  27.076  36.987  1.00  0.00    -0.206 F 
ATOM     66  C   UNL A   1      44.609  26.631  37.329  1.00  0.00     0.059 A 
ATOM     67  C   UNL A   1      46.288  27.944  36.169  1.00  0.00     0.059 A 
ATOM     68  F   UNL A   1      45.628  29.692  34.753  1.00  0.00    -0.206 F 
ATOM     69  C   UNL A   1      45.945  26.923  37.053  1.00  0.00     0.060 A 
BRANCH  69  70
ATOM     70  S   UNL A   1      47.224  25.943  37.867  1.00  0.00     0.124 S 
ATOM     71  O   UNL A   1      46.423  25.040  38.686  1.00  0.00    -0.237 OA
ATOM     72  O   UNL A   1      47.911  25.331  36.734  1.00  0.00    -0.237 OA
ATOM     73  O   UNL A   1      47.999  26.937  38.603  1.00  0.00    -0.744 OA
ENDBRANCH  69  70
ENDBRANCH  48  62
BRANCH  49  74
ATOM     74  C   UNL A   1      36.582  33.248  31.010  1.00  0.00     0.058 A 
ATOM     75  C   UNL A   1      35.251  33.091  31.426  1.00  0.00     0.135 A 
ATOM     76  C   UNL A   1      36.826  34.099  29.920  1.00  0.00     0.135 A 
ATOM     77  F   UNL A   1      34.961  32.285  32.459  1.00  0.00    -0.206 F 
ATOM     78  C   UNL A   1      34.201  33.734  30.776  1.00  0.00     0.059 A 
ATOM     79  C   UNL A   1      35.797  34.778  29.275  1.00  0.00     0.059 A 
ATOM     80  F   UNL A   1      38.082  34.300  29.491  1.00  0.00    -0.206 F 
ATOM     81  C   UNL A   1      34.486  34.580  29.704  1.00  0.00     0.060 A 
BRANCH  81  82
ATOM     82  S   UNL A   1      33.122  35.448  28.899  1.00  0.00     0.124 S 
ATOM     83  O   UNL A   1      32.374  35.947  30.047  1.00  0.00    -0.237 OA
ATOM     84  O   UNL A   1      33.824  36.452  28.108  1.00  0.00    -0.237 OA
ATOM     85  O   UNL A   1      32.465  34.398  28.127  1.00  0.00    -0.744 OA
ENDBRANCH  81  82
ENDBRANCH  49  74
BRANCH  61  86
ATOM     86  C   UNL A   1      39.819  34.227  37.116  1.00  0.00     0.058 A 
ATOM     87  C   UNL A   1      40.442  35.483  37.040  1.00  0.00     0.135 A 
ATOM     88  C   UNL A   1      38.998  33.972  38.228  1.00  0.00     0.135 A 
ATOM     89  F   UNL A   1      41.242  35.778  36.003  1.00  0.00    -0.206 F 
ATOM     90  C   UNL A   1      40.287  36.434  38.043  1.00  0.00     0.059 A 
ATOM     91  C   UNL A   1      38.798  34.923  39.224  1.00  0.00     0.059 A 
ATOM     92  F   UNL A   1      38.367  32.794  38.348  1.00  0.00    -0.206 F 
ATOM     93  C   UNL A   1      39.461  36.145  39.130  1.00  0.00     0.060 A 
BRANCH  93  94
ATOM     94  S   UNL A   1      39.255  37.396  40.413  1.00  0.00     0.124 S 
ATOM     95  O   UNL A   1      38.822  36.586  41.548  1.00  0.00    -0.237 OA
ATOM     96  O   UNL A   1      40.597  37.962  40.514  1.00  0.00    -0.237 OA
ATOM     97  O   UNL A   1      38.243  38.291  39.859  1.00  0.00    -0.744 OA
ENDBRANCH  93  94
ENDBRANCH  61  86
ENDBRANCH  35  36
ENDBRANCH  27  30
ENDBRANCH  25  26
ENDBRANCH   1  25
TORSDOF 16
ENDMDL
MODEL 2
REMARK VINA RESULT:     -12.2      1.204      1.988
REMARK SMILES N#C[C@H]1CN(c2cc(C(=O)NCCCNC(=O)c3ccc(-c4c5nc(c(-c6c(F)cc(S(=O)(=O)[O-])cc6F)c6ccc([nH]6)c(-c6c(F)cc(S(=O)(=O)[O-])cc6F)c6nc(c(-c7c(F)cc(S(=O)(=O)[O-])cc7F)c7ccc4[nH]7)C=C6)C=C5)cc3)c(N)cc2F)CCO1
REMARK SMILES IDX 13 1 12 2 11 3 9 4 10 5 8 7 6 8 7 9 87 10 86 11 88 12 84 13
REMARK SMILES IDX 5 14 3 15 4 16 91 17 90 18 89 19 2 20 1 21 85 22 14 25 15 26
REMARK SMILES IDX 16 27 17 29 18 30 19 31 83 32 20 33 82 34 21 35 22 36 23 37
REMARK SMILES IDX 76 38 24 39 81 40 75 41 77 42 25 43 80 44 74 45 73 46 26 48
REMARK SMILES IDX 60 49 39 50 59 51 40 52 43 53 58 54 78 55 41 56 42 57 57 59
REMARK SMILES IDX 79 60 44 61 27 62 28 63 37 64 29 65 30 66 36 67 38 68 31 69
REMARK SMILES IDX 32 70 33 71 34 72 35 73 61 74 62 75 71 76 63 77 64 78 70 79
REMARK SMILES IDX 72 80 65 81 66 82 67 83 68 84 69 85 45 86 46 87 55 88 47 89
REMARK SMILES IDX 48 90 54 91 56 92 49 93 50 94 51 95 52 96 53 97
REMARK H PARENT 11 6 85 23 85 24 15 28 77 47 43 58
REMARK Flexibility Score: inf
ROOT
ATOM      1  C   UNL A   1      39.113  22.648  26.620  1.00  0.00     0.042 C 
ENDROOT
BRANCH   1   2
ATOM      2  C   UNL A   1      38.191  23.690  26.024  1.00  0.00     0.118 C 
BRANCH   2   3
ATOM      3  N   UNL A   1      37.684  23.408  24.695  1.00  0.00    -0.352 N 
ATOM      4  C   UNL A   1      36.398  23.464  24.203  1.00  0.00     0.253 C 
ATOM      5  O   UNL A   1      36.243  23.243  23.000  1.00  0.00    -0.269 OA
ATOM      6  H   UNL A   1      38.367  23.132  24.041  1.00  0.00     0.163 HD
BRANCH   4   7
ATOM      7  C   UNL A   1      35.193  23.697  25.059  1.00  0.00     0.065 A 
ATOM      8  C   UNL A   1      33.405  25.298  25.584  1.00  0.00     0.074 A 
ATOM      9  C   UNL A   1      34.539  24.936  24.851  1.00  0.00     0.045 A 
ATOM     10  C   UNL A   1      32.827  24.307  26.388  1.00  0.00     0.148 A 
ATOM     11  C   UNL A   1      33.455  23.093  26.618  1.00  0.00     0.067 A 
ATOM     12  F   UNL A   1      31.672  24.553  27.027  1.00  0.00    -0.205 F 
ATOM     13  C   UNL A   1      34.707  22.833  26.060  1.00  0.00     0.047 A 
BRANCH   8  14
ATOM     14  N   UNL A   1      32.958  26.600  25.605  1.00  0.00    -0.363 N 
ATOM     15  C   UNL A   1      34.047  28.772  26.007  1.00  0.00     0.240 C 
ATOM     16  C   UNL A   1      33.311  27.567  26.648  1.00  0.00     0.164 C 
ATOM     17  O   UNL A   1      33.288  29.326  24.899  1.00  0.00    -0.360 OA
ATOM     18  C   UNL A   1      33.077  28.334  23.879  1.00  0.00     0.183 C 
ATOM     19  C   UNL A   1      32.278  27.148  24.425  1.00  0.00     0.145 C 
BRANCH  15  20
ATOM     20  C   UNL A   1      34.268  29.819  27.022  1.00  0.00     0.096 C 
ATOM     21  N   UNL A   1      34.449  30.640  27.820  1.00  0.00    -0.195 NA
ENDBRANCH  15  20
ENDBRANCH   8  14
BRANCH  13  22
ATOM     22  N   UNL A   1      35.428  21.783  26.612  1.00  0.00    -0.398 N 
ATOM     23  H   UNL A   1      35.458  20.912  26.153  1.00  0.00     0.156 HD
ATOM     24  H   UNL A   1      35.907  21.908  27.462  1.00  0.00     0.156 HD
ENDBRANCH  13  22
ENDBRANCH   4   7
ENDBRANCH   2   3
ENDBRANCH   1   2
BRANCH   1  25
ATOM     25  C   UNL A   1      40.500  23.139  26.988  1.00  0.00     0.118 C 
BRANCH  25  26
ATOM     26  N   UNL A   1      41.107  24.014  25.991  1.00  0.00    -0.352 N 
ATOM     27  C   UNL A   1      41.495  25.335  26.054  1.00  0.00     0.251 C 
ATOM     28  H   UNL A   1      41.268  23.586  25.119  1.00  0.00     0.163 HD
ATOM     29  O   UNL A   1      41.874  25.895  25.027  1.00  0.00    -0.269 OA
BRANCH  27  30
ATOM     30  C   UNL A   1      41.417  26.094  27.324  1.00  0.00     0.039 A 
ATOM     31  C   UNL A   1      42.401  27.046  27.609  1.00  0.00     0.014 A 
ATOM     32  C   UNL A   1      40.380  25.889  28.232  1.00  0.00     0.014 A 
ATOM     33  C   UNL A   1      42.279  27.851  28.746  1.00  0.00     0.010 A 
ATOM     34  C   UNL A   1      40.183  26.783  29.278  1.00  0.00     0.010 A 
ATOM     35  C   UNL A   1      41.135  27.771  29.557  1.00  0.00    -0.014 A 
BRANCH  35  36
ATOM     36  C   UNL A   1      40.920  28.708  30.693  1.00  0.00     0.031 A 
ATOM     37  C   UNL A   1      41.749  28.591  31.946  1.00  0.00     0.074 A 
ATOM     38  C   UNL A   1      39.938  29.630  30.616  1.00  0.00     0.049 A 
ATOM     39  N   UNL A   1      41.687  29.297  33.044  1.00  0.00    -0.248 NA
ATOM     40  C   UNL A   1      42.762  27.522  31.984  1.00  0.00     0.031 C 
ATOM     41  C   UNL A   1      39.023  29.799  29.484  1.00  0.00     0.029 A 
ATOM     42  N   UNL A   1      39.543  30.599  31.504  1.00  0.00    -0.354 N 
ATOM     43  C   UNL A   1      42.638  28.755  33.902  1.00  0.00     0.074 A 
ATOM     44  C   UNL A   1      43.214  27.616  33.225  1.00  0.00     0.031 C 
ATOM     45  C   UNL A   1      38.206  30.836  29.726  1.00  0.00     0.029 A 
ATOM     46  C   UNL A   1      38.501  31.374  31.050  1.00  0.00     0.049 A 
ATOM     47  H   UNL A   1      39.967  30.728  32.383  1.00  0.00     0.167 HD
ATOM     48  C   UNL A   1      43.020  29.186  35.127  1.00  0.00     0.037 A 
ATOM     49  C   UNL A   1      37.849  32.399  31.635  1.00  0.00     0.037 A 
ATOM     50  C   UNL A   1      42.452  30.332  35.787  1.00  0.00     0.049 A 
ATOM     51  C   UNL A   1      38.283  32.850  33.004  1.00  0.00     0.074 A 
ATOM     52  C   UNL A   1      42.810  30.888  37.003  1.00  0.00     0.029 A 
ATOM     53  N   UNL A   1      41.403  31.093  35.293  1.00  0.00    -0.354 N 
ATOM     54  N   UNL A   1      39.243  32.376  33.763  1.00  0.00    -0.248 NA
ATOM     55  C   UNL A   1      37.552  33.980  33.592  1.00  0.00     0.031 C 
ATOM     56  C   UNL A   1      41.931  31.941  37.275  1.00  0.00     0.029 A 
ATOM     57  C   UNL A   1      41.075  32.092  36.196  1.00  0.00     0.049 A 
ATOM     58  H   UNL A   1      40.956  30.946  34.429  1.00  0.00     0.167 HD
ATOM     59  C   UNL A   1      39.248  33.167  34.907  1.00  0.00     0.074 A 
ATOM     60  C   UNL A   1      38.211  34.161  34.728  1.00  0.00     0.031 C 
ATOM     61  C   UNL A   1      40.037  33.076  36.007  1.00  0.00     0.037 A 
BRANCH  48  62
ATOM     62  C   UNL A   1      44.104  28.415  35.837  1.00  0.00     0.058 A 
ATOM     63  C   UNL A   1      45.465  28.727  35.674  1.00  0.00     0.135 A 
ATOM     64  C   UNL A   1      43.776  27.377  36.725  1.00  0.00     0.135 A 
ATOM     65  F   UNL A   1      45.841  29.698  34.827  1.00  0.00    -0.206 F 
ATOM     66  C   UNL A   1      46.460  28.020  36.343  1.00  0.00     0.059 A 
ATOM     67  C   UNL A   1      44.754  26.681  37.431  1.00  0.00     0.059 A 
ATOM     68  F   UNL A   1      42.493  27.032  36.918  1.00  0.00    -0.206 F 
ATOM     69  C   UNL A   1      46.094  27.001  37.222  1.00  0.00     0.060 A 
BRANCH  69  70
ATOM     70  S   UNL A   1      47.399  26.107  38.092  1.00  0.00     0.124 S 
ATOM     71  O   UNL A   1      46.917  24.732  38.005  1.00  0.00    -0.237 OA
ATOM     72  O   UNL A   1      48.576  26.419  37.287  1.00  0.00    -0.237 OA
ATOM     73  O   UNL A   1      47.383  26.694  39.428  1.00  0.00    -0.744 OA
ENDBRANCH  69  70
ENDBRANCH  48  62
BRANCH  49  74
ATOM     74  C   UNL A   1      36.729  33.075  30.924  1.00  0.00     0.058 A 
ATOM     75  C   UNL A   1      35.392  32.821  31.264  1.00  0.00     0.135 A 
ATOM     76  C   UNL A   1      36.974  33.998  29.894  1.00  0.00     0.135 A 
ATOM     77  F   UNL A   1      35.102  31.943  32.237  1.00  0.00    -0.206 F 
ATOM     78  C   UNL A   1      34.338  33.440  30.599  1.00  0.00     0.059 A 
ATOM     79  C   UNL A   1      35.938  34.655  29.236  1.00  0.00     0.059 A 
ATOM     80  F   UNL A   1      38.234  34.293  29.539  1.00  0.00    -0.206 F 
ATOM     81  C   UNL A   1      34.622  34.360  29.589  1.00  0.00     0.060 A 
BRANCH  81  82
ATOM     82  S   UNL A   1      33.248  35.194  28.766  1.00  0.00     0.124 S 
ATOM     83  O   UNL A   1      33.946  36.202  27.977  1.00  0.00    -0.237 OA
ATOM     84  O   UNL A   1      32.636  34.104  28.014  1.00  0.00    -0.237 OA
ATOM     85  O   UNL A   1      32.451  35.704  29.878  1.00  0.00    -0.744 OA
ENDBRANCH  81  82
ENDBRANCH  49  74
BRANCH  61  86
ATOM     86  C   UNL A   1      39.833  34.100  37.091  1.00  0.00     0.058 A 
ATOM     87  C   UNL A   1      39.030  33.843  38.213  1.00  0.00     0.135 A 
ATOM     88  C   UNL A   1      40.484  35.344  37.024  1.00  0.00     0.135 A 
ATOM     89  F   UNL A   1      38.380  32.674  38.326  1.00  0.00    -0.206 F 
ATOM     90  C   UNL A   1      38.849  34.795  39.211  1.00  0.00     0.059 A 
ATOM     91  C   UNL A   1      40.349  36.296  38.030  1.00  0.00     0.059 A 
ATOM     92  F   UNL A   1      41.276  35.639  35.981  1.00  0.00    -0.206 F 
ATOM     93  C   UNL A   1      39.515  36.018  39.112  1.00  0.00     0.060 A 
BRANCH  93  94
ATOM     94  S   UNL A   1      39.288  37.234  40.424  1.00  0.00     0.124 S 
ATOM     95  O   UNL A   1      38.451  38.229  39.761  1.00  0.00    -0.237 OA
ATOM     96  O   UNL A   1      38.633  36.448  41.466  1.00  0.00    -0.237 OA
ATOM     97  O   UNL A   1      40.648  37.664  40.732  1.00  0.00    -0.744 OA
ENDBRANCH  93  94
ENDBRANCH  61  86
ENDBRANCH  35  36
ENDBRANCH  27  30
ENDBRANCH  25  26
ENDBRANCH   1  25
TORSDOF 16
ENDMDL
MODEL 3
REMARK VINA RESULT:     -11.9      1.297      2.192
REMARK SMILES N#C[C@H]1CN(c2cc(C(=O)NCCCNC(=O)c3ccc(-c4c5nc(c(-c6c(F)cc(S(=O)(=O)[O-])cc6F)c6ccc([nH]6)c(-c6c(F)cc(S(=O)(=O)[O-])cc6F)c6nc(c(-c7c(F)cc(S(=O)(=O)[O-])cc7F)c7ccc4[nH]7)C=C6)C=C5)cc3)c(N)cc2F)CCO1
REMARK SMILES IDX 13 1 12 2 11 3 9 4 10 5 8 7 6 8 7 9 87 10 86 11 88 12 84 13
REMARK SMILES IDX 5 14 3 15 4 16 91 17 90 18 89 19 2 20 1 21 85 22 14 25 15 26
REMARK SMILES IDX 16 27 17 29 18 30 19 31 83 32 20 33 82 34 21 35 22 36 23 37
REMARK SMILES IDX 76 38 24 39 81 40 75 41 77 42 25 43 80 44 74 45 73 46 26 48
REMARK SMILES IDX 60 49 39 50 59 51 40 52 43 53 58 54 78 55 41 56 42 57 57 59
REMARK SMILES IDX 79 60 44 61 27 62 28 63 37 64 29 65 30 66 36 67 38 68 31 69
REMARK SMILES IDX 32 70 33 71 34 72 35 73 61 74 62 75 71 76 63 77 64 78 70 79
REMARK SMILES IDX 72 80 65 81 66 82 67 83 68 84 69 85 45 86 46 87 55 88 47 89
REMARK SMILES IDX 48 90 54 91 56 92 49 93 50 94 51 95 52 96 53 97
REMARK H PARENT 11 6 85 23 85 24 15 28 77 47 43 58
REMARK Flexibility Score: inf
ROOT
ATOM      1  C   UNL A   1      37.631  23.284  25.818  1.00  0.00     0.042 C 
ENDROOT
BRANCH   1   2
ATOM      2  C   UNL A   1      36.172  23.680  25.878  1.00  0.00     0.118 C 
BRANCH   2   3
ATOM      3  N   UNL A   1      35.410  23.139  26.988  1.00  0.00    -0.352 N 
ATOM      4  C   UNL A   1      34.325  22.290  26.993  1.00  0.00     0.253 C 
ATOM      5  O   UNL A   1      33.903  21.918  28.090  1.00  0.00    -0.269 OA
ATOM      6  H   UNL A   1      35.719  23.422  27.880  1.00  0.00     0.163 HD
BRANCH   4   7
ATOM      7  C   UNL A   1      33.595  21.872  25.754  1.00  0.00     0.065 A 
ATOM      8  C   UNL A   1      32.570  22.690  23.677  1.00  0.00     0.074 A 
ATOM      9  C   UNL A   1      33.260  22.926  24.870  1.00  0.00     0.045 A 
ATOM     10  C   UNL A   1      32.399  21.353  23.298  1.00  0.00     0.148 A 
ATOM     11  C   UNL A   1      32.706  20.305  24.151  1.00  0.00     0.067 A 
ATOM     12  F   UNL A   1      31.848  21.059  22.109  1.00  0.00    -0.205 F 
ATOM     13  C   UNL A   1      33.183  20.563  25.438  1.00  0.00     0.047 A 
BRANCH   8  14
ATOM     14  N   UNL A   1      31.981  23.721  22.980  1.00  0.00    -0.363 N 
ATOM     15  C   UNL A   1      30.714  25.726  23.644  1.00  0.00     0.240 C 
ATOM     16  C   UNL A   1      30.634  24.227  23.254  1.00  0.00     0.164 C 
ATOM     17  O   UNL A   1      31.460  26.489  22.659  1.00  0.00    -0.360 OA
ATOM     18  C   UNL A   1      32.801  25.986  22.531  1.00  0.00     0.183 C 
ATOM     19  C   UNL A   1      32.797  24.528  22.064  1.00  0.00     0.145 C 
BRANCH  15  20
ATOM     20  C   UNL A   1      29.354  26.282  23.769  1.00  0.00     0.096 C 
ATOM     21  N   UNL A   1      28.283  26.714  23.874  1.00  0.00    -0.195 NA
ENDBRANCH  15  20
ENDBRANCH   8  14
BRANCH  13  22
ATOM     22  N   UNL A   1      33.121  19.515  26.345  1.00  0.00    -0.398 N 
ATOM     23  H   UNL A   1      33.234  19.690  27.308  1.00  0.00     0.156 HD
ATOM     24  H   UNL A   1      32.964  18.596  26.027  1.00  0.00     0.156 HD
ENDBRANCH  13  22
ENDBRANCH   4   7
ENDBRANCH   2   3
ENDBRANCH   1   2
BRANCH   1  25
ATOM     25  C   UNL A   1      38.586  24.198  26.561  1.00  0.00     0.118 C 
BRANCH  25  26
ATOM     26  N   UNL A   1      39.794  24.534  25.816  1.00  0.00    -0.352 N 
ATOM     27  C   UNL A   1      40.798  25.443  26.070  1.00  0.00     0.251 C 
ATOM     28  H   UNL A   1      39.913  24.020  24.984  1.00  0.00     0.163 HD
ATOM     29  O   UNL A   1      41.660  25.633  25.214  1.00  0.00    -0.269 OA
BRANCH  27  30
ATOM     30  C   UNL A   1      40.823  26.221  27.330  1.00  0.00     0.039 A 
ATOM     31  C   UNL A   1      41.746  27.262  27.469  1.00  0.00     0.014 A 
ATOM     32  C   UNL A   1      39.940  25.946  28.373  1.00  0.00     0.014 A 
ATOM     33  C   UNL A   1      41.705  28.079  28.602  1.00  0.00     0.010 A 
ATOM     34  C   UNL A   1      39.805  26.843  29.426  1.00  0.00     0.010 A 
ATOM     35  C   UNL A   1      40.693  27.917  29.562  1.00  0.00    -0.014 A 
BRANCH  35  36
ATOM     36  C   UNL A   1      40.549  28.858  30.706  1.00  0.00     0.031 A 
ATOM     37  C   UNL A   1      41.416  28.709  31.930  1.00  0.00     0.074 A 
ATOM     38  C   UNL A   1      39.596  29.812  30.665  1.00  0.00     0.049 A 
ATOM     39  N   UNL A   1      41.415  29.414  33.032  1.00  0.00    -0.248 NA
ATOM     40  C   UNL A   1      42.393  27.606  31.932  1.00  0.00     0.031 C 
ATOM     41  C   UNL A   1      38.649  30.015  29.566  1.00  0.00     0.029 A 
ATOM     42  N   UNL A   1      39.265  30.791  31.568  1.00  0.00    -0.354 N 
ATOM     43  C   UNL A   1      42.376  28.838  33.855  1.00  0.00     0.074 A 
ATOM     44  C   UNL A   1      42.890  27.681  33.157  1.00  0.00     0.031 C 
ATOM     45  C   UNL A   1      37.876  31.078  29.838  1.00  0.00     0.029 A 
ATOM     46  C   UNL A   1      38.234  31.602  31.152  1.00  0.00     0.049 A 
ATOM     47  H   UNL A   1      39.723  30.903  32.433  1.00  0.00     0.167 HD
ATOM     48  C   UNL A   1      42.814  29.251  35.067  1.00  0.00     0.037 A 
ATOM     49  C   UNL A   1      37.637  32.647  31.760  1.00  0.00     0.037 A 
ATOM     50  C   UNL A   1      42.308  30.414  35.749  1.00  0.00     0.049 A 
ATOM     51  C   UNL A   1      38.133  33.079  33.114  1.00  0.00     0.074 A 
ATOM     52  C   UNL A   1      42.726  30.954  36.952  1.00  0.00     0.029 A 
ATOM     53  N   UNL A   1      41.269  31.211  35.292  1.00  0.00    -0.354 N 
ATOM     54  N   UNL A   1      39.102  32.571  33.839  1.00  0.00    -0.248 NA
ATOM     55  C   UNL A   1      37.461  34.231  33.729  1.00  0.00     0.031 C 
ATOM     56  C   UNL A   1      41.893  32.035  37.257  1.00  0.00     0.029 A 
ATOM     57  C   UNL A   1      41.006  32.218  36.208  1.00  0.00     0.049 A 
ATOM     58  H   UNL A   1      40.787  31.082  34.443  1.00  0.00     0.167 HD
ATOM     59  C   UNL A   1      39.173  33.357  34.984  1.00  0.00     0.074 A 
ATOM     60  C   UNL A   1      38.164  34.387  34.842  1.00  0.00     0.031 C 
ATOM     61  C   UNL A   1      39.996  33.237  36.056  1.00  0.00     0.037 A 
BRANCH  48  62
ATOM     62  C   UNL A   1      43.895  28.442  35.738  1.00  0.00     0.058 A 
ATOM     63  C   UNL A   1      45.259  28.705  35.524  1.00  0.00     0.135 A 
ATOM     64  C   UNL A   1      43.563  27.418  36.640  1.00  0.00     0.135 A 
ATOM     65  F   UNL A   1      45.638  29.661  34.660  1.00  0.00    -0.206 F 
ATOM     66  C   UNL A   1      46.252  27.963  36.157  1.00  0.00     0.059 A 
ATOM     67  C   UNL A   1      44.540  26.688  37.311  1.00  0.00     0.059 A 
ATOM     68  F   UNL A   1      42.277  27.120  36.882  1.00  0.00    -0.206 F 
ATOM     69  C   UNL A   1      45.882  26.959  37.052  1.00  0.00     0.060 A 
BRANCH  69  70
ATOM     70  S   UNL A   1      47.186  26.019  37.874  1.00  0.00     0.124 S 
ATOM     71  O   UNL A   1      47.721  25.232  36.767  1.00  0.00    -0.237 OA
ATOM     72  O   UNL A   1      48.056  27.075  38.380  1.00  0.00    -0.237 OA
ATOM     73  O   UNL A   1      46.468  25.259  38.893  1.00  0.00    -0.744 OA
ENDBRANCH  69  70
ENDBRANCH  48  62
BRANCH  49  74
ATOM     74  C   UNL A   1      36.517  33.363  31.089  1.00  0.00     0.058 A 
ATOM     75  C   UNL A   1      36.744  34.184  29.974  1.00  0.00     0.135 A 
ATOM     76  C   UNL A   1      35.195  33.233  31.544  1.00  0.00     0.135 A 
ATOM     77  F   UNL A   1      37.989  34.347  29.503  1.00  0.00    -0.206 F 
ATOM     78  C   UNL A   1      35.706  34.866  29.346  1.00  0.00     0.059 A 
ATOM     79  C   UNL A   1      34.136  33.878  30.912  1.00  0.00     0.059 A 
ATOM     80  F   UNL A   1      34.918  32.446  32.595  1.00  0.00    -0.206 F 
ATOM     81  C   UNL A   1      34.404  34.702  29.820  1.00  0.00     0.060 A 
BRANCH  81  82
ATOM     82  S   UNL A   1      33.058  35.553  28.967  1.00  0.00     0.124 S 
ATOM     83  O   UNL A   1      32.270  36.053  30.087  1.00  0.00    -0.237 OA
ATOM     84  O   UNL A   1      33.777  36.557  28.191  1.00  0.00    -0.237 OA
ATOM     85  O   UNL A   1      32.435  34.492  28.182  1.00  0.00    -0.744 OA
ENDBRANCH  81  82
ENDBRANCH  49  74
BRANCH  61  86
ATOM     86  C   UNL A   1      39.864  34.264  37.148  1.00  0.00     0.058 A 
ATOM     87  C   UNL A   1      39.026  34.065  38.257  1.00  0.00     0.135 A 
ATOM     88  C   UNL A   1      40.618  35.449  37.103  1.00  0.00     0.135 A 
ATOM     89  F   UNL A   1      38.278  32.954  38.348  1.00  0.00    -0.206 F 
ATOM     90  C   UNL A   1      38.912  35.019  39.263  1.00  0.00     0.059 A 
ATOM     91  C   UNL A   1      40.549  36.399  38.117  1.00  0.00     0.059 A 
ATOM     92  F   UNL A   1      41.446  35.686  36.073  1.00  0.00    -0.206 F 
ATOM     93  C   UNL A   1      39.680  36.182  39.185  1.00  0.00     0.060 A 
BRANCH  93  94
ATOM     94  S   UNL A   1      39.537  37.401  40.507  1.00  0.00     0.124 S 
ATOM     95  O   UNL A   1      40.729  38.214  40.289  1.00  0.00    -0.237 OA
ATOM     96  O   UNL A   1      38.265  38.046  40.198  1.00  0.00    -0.237 OA
ATOM     97  O   UNL A   1      39.544  36.591  41.721  1.00  0.00    -0.744 OA
ENDBRANCH  93  94
ENDBRANCH  61  86
ENDBRANCH  35  36
ENDBRANCH  27  30
ENDBRANCH  25  26
ENDBRANCH   1  25
TORSDOF 16
ENDMDL
