MODEL 1
REMARK VINA RESULT:     -12.6      0.000      0.000
REMARK SMILES COc1cc(/C=N/NC(N)=O)ccc1OCc1cccc(C(=O)NCCCNC(=O)c2ccc(-c3c4nc(c(-c5c(F)cc(S(=O)(=O)[O-])cc5F)c5ccc([nH]5)c(-c5c(F)cc(S(=O)(=O)[O-])cc5F)c5nc(c(-c6c(F)cc(S(=O)(=O)[O-])cc6F)c6ccc3[nH]6)C=C5)C=C4)cc2)c1
REMARK SMILES IDX 25 1 24 2 22 3 23 4 21 6 17 7 18 8 97 9 19 10 20 11 16 12
REMARK SMILES IDX 15 13 14 14 3 15 4 16 5 17 13 18 12 19 2 20 1 21 6 22 7 23
REMARK SMILES IDX 8 24 9 25 10 27 11 28 26 31 27 32 28 33 29 34 30 36 31 37
REMARK SMILES IDX 32 38 96 39 33 40 95 41 34 42 35 43 36 44 89 45 37 46 94 47
REMARK SMILES IDX 88 48 90 49 38 50 93 51 87 52 86 53 39 55 73 56 52 57 72 58
REMARK SMILES IDX 53 59 56 60 71 61 91 62 54 63 55 64 70 66 92 67 57 68 40 69
REMARK SMILES IDX 41 70 50 71 42 72 43 73 49 74 51 75 44 76 45 77 46 78 47 79
REMARK SMILES IDX 48 80 74 81 75 82 84 83 76 84 77 85 83 86 85 87 78 88 79 89
REMARK SMILES IDX 80 90 81 91 82 92 58 93 59 94 68 95 60 96 61 97 67 98 69 99
REMARK SMILES IDX 62 100 63 101 64 102 65 103 66 104
REMARK H PARENT 24 5 8 26 10 29 10 30 28 35 90 54 56 65
REMARK Flexibility Score: inf
ROOT
ATOM      1  C   UNL A   1      37.769  23.358  25.999  1.00  0.00     0.118 C 
ENDROOT
BRANCH   1   2
ATOM      2  N   UNL A   1      37.617  23.353  24.552  1.00  0.00    -0.352 N 
ATOM      3  C   UNL A   1      36.600  22.891  23.752  1.00  0.00     0.251 C 
ATOM      4  O   UNL A   1      36.685  23.050  22.537  1.00  0.00    -0.269 OA
ATOM      5  H   UNL A   1      38.374  23.747  24.061  1.00  0.00     0.163 HD
BRANCH   3   6
ATOM      6  C   UNL A   1      35.364  22.306  24.333  1.00  0.00     0.040 A 
ATOM      7  C   UNL A   1      32.954  22.317  24.692  1.00  0.00    -0.010 A 
ATOM      8  C   UNL A   1      33.027  20.971  25.071  1.00  0.00     0.007 A 
ATOM      9  C   UNL A   1      34.143  22.981  24.369  1.00  0.00     0.021 A 
ATOM     10  C   UNL A   1      34.263  20.330  25.185  1.00  0.00     0.001 A 
ATOM     11  C   UNL A   1      35.429  20.993  24.808  1.00  0.00     0.014 A 
BRANCH   7  12
ATOM     12  C   UNL A   1      31.621  23.024  24.529  1.00  0.00     0.265 C 
BRANCH  12  13
ATOM     13  O   UNL A   1      31.355  23.534  23.215  1.00  0.00    -0.485 OA
BRANCH  13  14
ATOM     14  C   UNL A   1      31.113  24.876  23.072  1.00  0.00     0.161 A 
ATOM     15  C   UNL A   1      31.743  25.749  22.173  1.00  0.00     0.161 A 
ATOM     16  C   UNL A   1      31.329  27.084  22.094  1.00  0.00     0.060 A 
ATOM     17  C   UNL A   1      30.318  27.558  22.942  1.00  0.00    -0.002 A 
ATOM     18  C   UNL A   1      30.130  25.372  23.940  1.00  0.00     0.051 A 
ATOM     19  C   UNL A   1      29.731  26.709  23.880  1.00  0.00     0.014 A 
BRANCH  15  20
ATOM     20  O   UNL A   1      32.851  25.316  21.496  1.00  0.00    -0.493 OA
ATOM     21  C   UNL A   1      32.686  25.226  20.087  1.00  0.00     0.278 C 
ENDBRANCH  15  20
BRANCH  17  22
ATOM     22  C   UNL A   1      29.898  28.977  22.898  1.00  0.00     0.141 C 
ATOM     23  N   UNL A   1      29.835  29.619  21.775  1.00  0.00    -0.179 NA
BRANCH  23  24
ATOM     24  N   UNL A   1      29.530  30.954  21.772  1.00  0.00    -0.229 N 
ATOM     25  C   UNL A   1      28.442  31.578  21.202  1.00  0.00     0.332 C 
ATOM     26  H   UNL A   1      30.168  31.541  22.236  1.00  0.00     0.195 HD
ATOM     27  N   UNL A   1      28.374  32.902  21.520  1.00  0.00    -0.350 N 
ATOM     28  O   UNL A   1      27.574  31.086  20.490  1.00  0.00    -0.247 OA
ATOM     29  H   UNL A   1      29.066  33.307  22.091  1.00  0.00     0.161 HD
ATOM     30  H   UNL A   1      27.632  33.453  21.180  1.00  0.00     0.161 HD
ENDBRANCH  23  24
ENDBRANCH  17  22
ENDBRANCH  13  14
ENDBRANCH  12  13
ENDBRANCH   7  12
ENDBRANCH   3   6
ENDBRANCH   1   2
BRANCH   1  31
ATOM     31  C   UNL A   1      38.961  22.503  26.420  1.00  0.00     0.042 C 
BRANCH  31  32
ATOM     32  C   UNL A   1      40.049  23.321  27.101  1.00  0.00     0.118 C 
BRANCH  32  33
ATOM     33  N   UNL A   1      40.920  23.960  26.124  1.00  0.00    -0.352 N 
ATOM     34  C   UNL A   1      41.336  25.263  26.046  1.00  0.00     0.251 C 
ATOM     35  H   UNL A   1      41.261  23.368  25.415  1.00  0.00     0.163 HD
ATOM     36  O   UNL A   1      41.832  25.676  25.001  1.00  0.00    -0.269 OA
BRANCH  34  37
ATOM     37  C   UNL A   1      41.188  26.158  27.211  1.00  0.00     0.039 A 
ATOM     38  C   UNL A   1      42.097  27.205  27.380  1.00  0.00     0.014 A 
ATOM     39  C   UNL A   1      40.179  25.942  28.154  1.00  0.00     0.014 A 
ATOM     40  C   UNL A   1      41.968  28.058  28.475  1.00  0.00     0.010 A 
ATOM     41  C   UNL A   1      39.995  26.849  29.192  1.00  0.00     0.010 A 
ATOM     42  C   UNL A   1      40.898  27.904  29.374  1.00  0.00    -0.014 A 
BRANCH  42  43
ATOM     43  C   UNL A   1      40.722  28.825  30.522  1.00  0.00     0.031 A 
ATOM     44  C   UNL A   1      41.572  28.667  31.754  1.00  0.00     0.074 A 
ATOM     45  C   UNL A   1      39.758  29.766  30.470  1.00  0.00     0.049 A 
ATOM     46  N   UNL A   1      41.531  29.337  32.875  1.00  0.00    -0.248 NA
ATOM     47  C   UNL A   1      42.581  27.594  31.734  1.00  0.00     0.031 C 
ATOM     48  C   UNL A   1      38.838  29.973  29.349  1.00  0.00     0.029 A 
ATOM     49  N   UNL A   1      39.386  30.718  31.384  1.00  0.00    -0.354 N 
ATOM     50  C   UNL A   1      42.497  28.763  33.694  1.00  0.00     0.074 A 
ATOM     51  C   UNL A   1      43.061  27.648  32.967  1.00  0.00     0.031 C 
ATOM     52  C   UNL A   1      38.030  31.007  29.629  1.00  0.00     0.029 A 
ATOM     53  C   UNL A   1      38.343  31.508  30.963  1.00  0.00     0.049 A 
ATOM     54  H   UNL A   1      39.825  30.826  32.259  1.00  0.00     0.167 HD
ATOM     55  C   UNL A   1      42.897  29.149  34.929  1.00  0.00     0.037 A 
ATOM     56  C   UNL A   1      37.706  32.518  31.586  1.00  0.00     0.037 A 
ATOM     57  C   UNL A   1      42.338  30.273  35.634  1.00  0.00     0.049 A 
ATOM     58  C   UNL A   1      38.166  32.928  32.958  1.00  0.00     0.074 A 
ATOM     59  C   UNL A   1      42.702  30.782  36.868  1.00  0.00     0.029 A 
ATOM     60  N   UNL A   1      41.295  31.062  35.167  1.00  0.00    -0.354 N 
ATOM     61  N   UNL A   1      39.125  32.415  33.694  1.00  0.00    -0.248 NA
ATOM     62  C   UNL A   1      37.467  34.058  33.582  1.00  0.00     0.031 C 
ATOM     63  C   UNL A   1      41.845  31.845  37.170  1.00  0.00     0.029 A 
ATOM     64  C   UNL A   1      40.988  32.041  36.099  1.00  0.00     0.049 A 
ATOM     65  H   UNL A   1      40.840  30.943  34.303  1.00  0.00     0.167 HD
ATOM     66  C   UNL A   1      39.161  33.178  34.856  1.00  0.00     0.074 A 
ATOM     67  C   UNL A   1      38.140  34.195  34.716  1.00  0.00     0.031 C 
ATOM     68  C   UNL A   1      39.968  33.048  35.939  1.00  0.00     0.037 A 
BRANCH  55  69
ATOM     69  C   UNL A   1      43.993  28.355  35.589  1.00  0.00     0.058 A 
ATOM     70  C   UNL A   1      43.712  27.284  36.454  1.00  0.00     0.135 A 
ATOM     71  C   UNL A   1      45.343  28.645  35.331  1.00  0.00     0.135 A 
ATOM     72  F   UNL A   1      42.441  26.970  36.751  1.00  0.00    -0.206 F 
ATOM     73  C   UNL A   1      44.726  26.551  37.063  1.00  0.00     0.059 A 
ATOM     74  C   UNL A   1      46.375  27.905  35.904  1.00  0.00     0.059 A 
ATOM     75  F   UNL A   1      45.673  29.659  34.515  1.00  0.00    -0.206 F 
ATOM     76  C   UNL A   1      46.055  26.868  36.780  1.00  0.00     0.060 A 
BRANCH  76  77
ATOM     77  S   UNL A   1      47.357  25.900  37.571  1.00  0.00     0.124 S 
ATOM     78  O   UNL A   1      48.410  26.899  37.723  1.00  0.00    -0.237 OA
ATOM     79  O   UNL A   1      46.714  25.467  38.808  1.00  0.00    -0.237 OA
ATOM     80  O   UNL A   1      47.632  24.841  36.605  1.00  0.00    -0.744 OA
ENDBRANCH  76  77
ENDBRANCH  55  69
BRANCH  56  81
ATOM     81  C   UNL A   1      36.589  33.224  30.902  1.00  0.00     0.058 A 
ATOM     82  C   UNL A   1      35.257  33.008  31.285  1.00  0.00     0.135 A 
ATOM     83  C   UNL A   1      36.832  34.146  29.872  1.00  0.00     0.135 A 
ATOM     84  F   UNL A   1      34.972  32.135  32.262  1.00  0.00    -0.206 F 
ATOM     85  C   UNL A   1      34.203  33.668  30.660  1.00  0.00     0.059 A 
ATOM     86  C   UNL A   1      35.796  34.840  29.252  1.00  0.00     0.059 A 
ATOM     87  F   UNL A   1      38.089  34.404  29.482  1.00  0.00    -0.206 F 
ATOM     88  C   UNL A   1      34.483  34.586  29.647  1.00  0.00     0.060 A 
BRANCH  88  89
ATOM     89  S   UNL A   1      33.110  35.474  28.882  1.00  0.00     0.124 S 
ATOM     90  O   UNL A   1      32.394  35.972  30.051  1.00  0.00    -0.237 OA
ATOM     91  O   UNL A   1      33.804  36.479  28.083  1.00  0.00    -0.237 OA
ATOM     92  O   UNL A   1      32.425  34.438  28.116  1.00  0.00    -0.744 OA
ENDBRANCH  88  89
ENDBRANCH  56  81
BRANCH  68  93
ATOM     93  C   UNL A   1      39.804  34.055  37.045  1.00  0.00     0.058 A 
ATOM     94  C   UNL A   1      38.986  33.806  38.158  1.00  0.00     0.135 A 
ATOM     95  C   UNL A   1      40.514  35.266  37.011  1.00  0.00     0.135 A 
ATOM     96  F   UNL A   1      38.282  32.666  38.239  1.00  0.00    -0.206 F 
ATOM     97  C   UNL A   1      38.854  34.736  39.184  1.00  0.00     0.059 A 
ATOM     98  C   UNL A   1      40.423  36.196  38.041  1.00  0.00     0.059 A 
ATOM     99  F   UNL A   1      41.321  35.549  35.975  1.00  0.00    -0.206 F 
ATOM    100  C   UNL A   1      39.578  35.928  39.117  1.00  0.00     0.060 A 
BRANCH 100 101
ATOM    101  S   UNL A   1      39.418  37.114  40.468  1.00  0.00     0.124 S 
ATOM    102  O   UNL A   1      38.184  37.804  40.108  1.00  0.00    -0.237 OA
ATOM    103  O   UNL A   1      39.339  36.245  41.638  1.00  0.00    -0.237 OA
ATOM    104  O   UNL A   1      40.636  37.911  40.369  1.00  0.00    -0.744 OA
ENDBRANCH 100 101
ENDBRANCH  68  93
ENDBRANCH  42  43
ENDBRANCH  34  37
ENDBRANCH  32  33
ENDBRANCH  31  32
ENDBRANCH   1  31
TORSDOF 19
ENDMDL
MODEL 2
REMARK VINA RESULT:     -12.5      1.190      2.025
REMARK SMILES COc1cc(/C=N/NC(N)=O)ccc1OCc1cccc(C(=O)NCCCNC(=O)c2ccc(-c3c4nc(c(-c5c(F)cc(S(=O)(=O)[O-])cc5F)c5ccc([nH]5)c(-c5c(F)cc(S(=O)(=O)[O-])cc5F)c5nc(c(-c6c(F)cc(S(=O)(=O)[O-])cc6F)c6ccc3[nH]6)C=C5)C=C4)cc2)c1
REMARK SMILES IDX 25 1 24 2 22 3 23 4 21 6 17 7 18 8 97 9 19 10 20 11 16 12
REMARK SMILES IDX 15 13 14 14 3 15 4 16 5 17 13 18 12 19 2 20 1 21 6 22 7 23
REMARK SMILES IDX 8 24 9 25 10 27 11 28 26 31 27 32 28 33 29 34 30 36 31 37
REMARK SMILES IDX 32 38 96 39 33 40 95 41 34 42 35 43 36 44 89 45 37 46 94 47
REMARK SMILES IDX 88 48 90 49 38 50 93 51 87 52 86 53 39 55 73 56 52 57 72 58
REMARK SMILES IDX 53 59 56 60 71 61 91 62 54 63 55 64 70 66 92 67 57 68 40 69
REMARK SMILES IDX 41 70 50 71 42 72 43 73 49 74 51 75 44 76 45 77 46 78 47 79
REMARK SMILES IDX 48 80 74 81 75 82 84 83 76 84 77 85 83 86 85 87 78 88 79 89
REMARK SMILES IDX 80 90 81 91 82 92 58 93 59 94 68 95 60 96 61 97 67 98 69 99
REMARK SMILES IDX 62 100 63 101 64 102 65 103 66 104
REMARK H PARENT 24 5 8 26 10 29 10 30 28 35 90 54 56 65
REMARK Flexibility Score: inf
ROOT
ATOM      1  C   UNL A   1      37.789  22.280  25.962  1.00  0.00     0.118 C 
ENDROOT
BRANCH   1   2
ATOM      2  N   UNL A   1      37.633  22.504  24.532  1.00  0.00    -0.352 N 
ATOM      3  C   UNL A   1      36.533  22.854  23.788  1.00  0.00     0.251 C 
ATOM      4  O   UNL A   1      36.670  23.036  22.580  1.00  0.00    -0.269 OA
ATOM      5  H   UNL A   1      38.458  22.385  24.009  1.00  0.00     0.163 HD
BRANCH   3   6
ATOM      6  C   UNL A   1      35.217  23.115  24.427  1.00  0.00     0.040 A 
ATOM      7  C   UNL A   1      33.604  24.615  25.468  1.00  0.00    -0.010 A 
ATOM      8  C   UNL A   1      32.603  23.665  25.232  1.00  0.00     0.007 A 
ATOM      9  C   UNL A   1      34.917  24.302  25.098  1.00  0.00     0.021 A 
ATOM     10  C   UNL A   1      32.920  22.413  24.700  1.00  0.00     0.001 A 
ATOM     11  C   UNL A   1      34.224  22.141  24.289  1.00  0.00     0.014 A 
BRANCH   7  12
ATOM     12  C   UNL A   1      33.277  25.993  26.013  1.00  0.00     0.265 C 
BRANCH  12  13
ATOM     13  O   UNL A   1      31.879  26.300  26.102  1.00  0.00    -0.485 OA
BRANCH  13  14
ATOM     14  C   UNL A   1      31.373  27.280  25.288  1.00  0.00     0.161 A 
ATOM     15  C   UNL A   1      31.523  28.665  25.452  1.00  0.00     0.161 A 
ATOM     16  C   UNL A   1      31.009  29.539  24.487  1.00  0.00     0.060 A 
ATOM     17  C   UNL A   1      30.307  29.035  23.384  1.00  0.00    -0.002 A 
ATOM     18  C   UNL A   1      30.637  26.791  24.200  1.00  0.00     0.051 A 
ATOM     19  C   UNL A   1      30.102  27.662  23.249  1.00  0.00     0.014 A 
BRANCH  15  20
ATOM     20  O   UNL A   1      32.040  29.140  26.627  1.00  0.00    -0.493 OA
ATOM     21  C   UNL A   1      33.335  29.716  26.514  1.00  0.00     0.278 C 
ENDBRANCH  15  20
BRANCH  17  22
ATOM     22  C   UNL A   1      29.722  29.949  22.377  1.00  0.00     0.141 C 
ATOM     23  N   UNL A   1      28.537  29.740  21.897  1.00  0.00    -0.179 NA
BRANCH  23  24
ATOM     24  N   UNL A   1      28.054  30.550  20.904  1.00  0.00    -0.229 N 
ATOM     25  C   UNL A   1      27.850  31.912  20.937  1.00  0.00     0.332 C 
ATOM     26  H   UNL A   1      27.824  30.101  20.059  1.00  0.00     0.195 HD
ATOM     27  N   UNL A   1      27.501  32.418  19.721  1.00  0.00    -0.350 N 
ATOM     28  O   UNL A   1      27.960  32.670  21.894  1.00  0.00    -0.247 OA
ATOM     29  H   UNL A   1      27.410  31.818  18.946  1.00  0.00     0.161 HD
ATOM     30  H   UNL A   1      27.340  33.384  19.617  1.00  0.00     0.161 HD
ENDBRANCH  23  24
ENDBRANCH  17  22
ENDBRANCH  13  14
ENDBRANCH  12  13
ENDBRANCH   7  12
ENDBRANCH   3   6
ENDBRANCH   1   2
BRANCH   1  31
ATOM     31  C   UNL A   1      39.250  22.427  26.377  1.00  0.00     0.042 C 
BRANCH  31  32
ATOM     32  C   UNL A   1      39.608  23.861  26.739  1.00  0.00     0.118 C 
BRANCH  32  33
ATOM     33  N   UNL A   1      40.726  24.345  25.940  1.00  0.00    -0.352 N 
ATOM     34  C   UNL A   1      41.391  25.541  26.003  1.00  0.00     0.251 C 
ATOM     35  H   UNL A   1      41.054  23.719  25.254  1.00  0.00     0.163 HD
ATOM     36  O   UNL A   1      42.113  25.879  25.069  1.00  0.00    -0.269 OA
BRANCH  34  37
ATOM     37  C   UNL A   1      41.238  26.412  27.185  1.00  0.00     0.039 A 
ATOM     38  C   UNL A   1      41.880  27.652  27.201  1.00  0.00     0.014 A 
ATOM     39  C   UNL A   1      40.495  25.990  28.292  1.00  0.00     0.014 A 
ATOM     40  C   UNL A   1      41.742  28.483  28.311  1.00  0.00     0.010 A 
ATOM     41  C   UNL A   1      40.281  26.858  29.356  1.00  0.00     0.010 A 
ATOM     42  C   UNL A   1      40.919  28.105  29.386  1.00  0.00    -0.014 A 
BRANCH  42  43
ATOM     43  C   UNL A   1      40.729  28.994  30.557  1.00  0.00     0.031 A 
ATOM     44  C   UNL A   1      41.579  28.814  31.786  1.00  0.00     0.074 A 
ATOM     45  C   UNL A   1      39.754  29.923  30.528  1.00  0.00     0.049 A 
ATOM     46  N   UNL A   1      41.528  29.453  32.924  1.00  0.00    -0.248 NA
ATOM     47  C   UNL A   1      42.602  27.755  31.740  1.00  0.00     0.031 C 
ATOM     48  C   UNL A   1      38.833  30.149  29.412  1.00  0.00     0.029 A 
ATOM     49  N   UNL A   1      39.369  30.847  31.466  1.00  0.00    -0.354 N 
ATOM     50  C   UNL A   1      42.500  28.870  33.730  1.00  0.00     0.074 A 
ATOM     51  C   UNL A   1      43.079  27.782  32.974  1.00  0.00     0.031 C 
ATOM     52  C   UNL A   1      38.012  31.165  29.717  1.00  0.00     0.029 A 
ATOM     53  C   UNL A   1      38.316  31.634  31.064  1.00  0.00     0.049 A 
ATOM     54  H   UNL A   1      39.804  30.937  32.345  1.00  0.00     0.167 HD
ATOM     55  C   UNL A   1      42.894  29.229  34.975  1.00  0.00     0.037 A 
ATOM     56  C   UNL A   1      37.666  32.620  31.712  1.00  0.00     0.037 A 
ATOM     57  C   UNL A   1      42.320  30.327  35.708  1.00  0.00     0.049 A 
ATOM     58  C   UNL A   1      38.119  32.999  33.096  1.00  0.00     0.074 A 
ATOM     59  C   UNL A   1      42.675  30.808  36.956  1.00  0.00     0.029 A 
ATOM     60  N   UNL A   1      41.268  31.114  35.261  1.00  0.00    -0.354 N 
ATOM     61  N   UNL A   1      39.083  32.479  33.820  1.00  0.00    -0.248 NA
ATOM     62  C   UNL A   1      37.405  34.103  33.748  1.00  0.00     0.031 C 
ATOM     63  C   UNL A   1      41.805  31.851  37.284  1.00  0.00     0.029 A 
ATOM     64  C   UNL A   1      40.947  32.064  36.217  1.00  0.00     0.049 A 
ATOM     65  H   UNL A   1      40.816  31.012  34.392  1.00  0.00     0.167 HD
ATOM     66  C   UNL A   1      39.108  33.211  35.001  1.00  0.00     0.074 A 
ATOM     67  C   UNL A   1      38.074  34.219  34.886  1.00  0.00     0.031 C 
ATOM     68  C   UNL A   1      39.915  33.063  36.082  1.00  0.00     0.037 A 
BRANCH  55  69
ATOM     69  C   UNL A   1      43.999  28.431  35.616  1.00  0.00     0.058 A 
ATOM     70  C   UNL A   1      45.352  28.745  35.410  1.00  0.00     0.135 A 
ATOM     71  C   UNL A   1      43.703  27.358  36.474  1.00  0.00     0.135 A 
ATOM     72  F   UNL A   1      45.697  29.750  34.589  1.00  0.00    -0.206 F 
ATOM     73  C   UNL A   1      46.372  28.007  36.004  1.00  0.00     0.059 A 
ATOM     74  C   UNL A   1      44.706  26.626  37.104  1.00  0.00     0.059 A 
ATOM     75  F   UNL A   1      42.427  27.010  36.706  1.00  0.00    -0.206 F 
ATOM     76  C   UNL A   1      46.038  26.950  36.851  1.00  0.00     0.060 A 
BRANCH  76  77
ATOM     77  S   UNL A   1      47.373  26.009  37.620  1.00  0.00     0.124 S 
ATOM     78  O   UNL A   1      48.490  26.942  37.503  1.00  0.00    -0.237 OA
ATOM     79  O   UNL A   1      46.865  25.797  38.971  1.00  0.00    -0.237 OA
ATOM     80  O   UNL A   1      47.468  24.811  36.792  1.00  0.00    -0.744 OA
ENDBRANCH  76  77
ENDBRANCH  55  69
BRANCH  56  81
ATOM     81  C   UNL A   1      36.541  33.329  31.045  1.00  0.00     0.058 A 
ATOM     82  C   UNL A   1      36.773  34.203  29.973  1.00  0.00     0.135 A 
ATOM     83  C   UNL A   1      35.212  33.127  31.448  1.00  0.00     0.135 A 
ATOM     84  F   UNL A   1      38.026  34.432  29.552  1.00  0.00    -0.206 F 
ATOM     85  C   UNL A   1      35.729  34.866  29.334  1.00  0.00     0.059 A 
ATOM     86  C   UNL A   1      34.149  33.757  30.806  1.00  0.00     0.059 A 
ATOM     87  F   UNL A   1      34.934  32.286  32.455  1.00  0.00    -0.206 F 
ATOM     88  C   UNL A   1      34.420  34.632  29.755  1.00  0.00     0.060 A 
BRANCH  88  89
ATOM     89  S   UNL A   1      33.071  35.459  28.882  1.00  0.00     0.124 S 
ATOM     90  O   UNL A   1      32.491  34.355  28.127  1.00  0.00    -0.237 OA
ATOM     91  O   UNL A   1      32.265  35.972  29.984  1.00  0.00    -0.237 OA
ATOM     92  O   UNL A   1      33.757  36.475  28.091  1.00  0.00    -0.744 OA
ENDBRANCH  88  89
ENDBRANCH  56  81
BRANCH  68  93
ATOM     93  C   UNL A   1      39.736  34.038  37.214  1.00  0.00     0.058 A 
ATOM     94  C   UNL A   1      38.999  33.712  38.363  1.00  0.00     0.135 A 
ATOM     95  C   UNL A   1      40.352  35.299  37.165  1.00  0.00     0.135 A 
ATOM     96  F   UNL A   1      38.386  32.522  38.459  1.00  0.00    -0.206 F 
ATOM     97  C   UNL A   1      38.854  34.614  39.412  1.00  0.00     0.059 A 
ATOM     98  C   UNL A   1      40.248  36.204  38.216  1.00  0.00     0.059 A 
ATOM     99  F   UNL A   1      41.080  35.657  36.095  1.00  0.00    -0.206 F 
ATOM    100  C   UNL A   1      39.484  35.858  39.330  1.00  0.00     0.060 A 
BRANCH 100 101
ATOM    101  S   UNL A   1      39.309  37.009  40.710  1.00  0.00     0.124 S 
ATOM    102  O   UNL A   1      38.547  36.210  41.663  1.00  0.00    -0.237 OA
ATOM    103  O   UNL A   1      40.699  37.273  41.073  1.00  0.00    -0.237 OA
ATOM    104  O   UNL A   1      38.596  38.138  40.123  1.00  0.00    -0.744 OA
ENDBRANCH 100 101
ENDBRANCH  68  93
ENDBRANCH  42  43
ENDBRANCH  34  37
ENDBRANCH  32  33
ENDBRANCH  31  32
ENDBRANCH   1  31
TORSDOF 19
ENDMDL
MODEL 3
REMARK VINA RESULT:     -12.4      6.052      8.215
REMARK SMILES COc1cc(/C=N/NC(N)=O)ccc1OCc1cccc(C(=O)NCCCNC(=O)c2ccc(-c3c4nc(c(-c5c(F)cc(S(=O)(=O)[O-])cc5F)c5ccc([nH]5)c(-c5c(F)cc(S(=O)(=O)[O-])cc5F)c5nc(c(-c6c(F)cc(S(=O)(=O)[O-])cc6F)c6ccc3[nH]6)C=C5)C=C4)cc2)c1
REMARK SMILES IDX 25 1 24 2 22 3 23 4 21 6 17 7 18 8 97 9 19 10 20 11 16 12
REMARK SMILES IDX 15 13 14 14 3 15 4 16 5 17 13 18 12 19 2 20 1 21 6 22 7 23
REMARK SMILES IDX 8 24 9 25 10 27 11 28 26 31 27 32 28 33 29 34 30 36 31 37
REMARK SMILES IDX 32 38 96 39 33 40 95 41 34 42 35 43 36 44 89 45 37 46 94 47
REMARK SMILES IDX 88 48 90 49 38 50 93 51 87 52 86 53 39 55 73 56 52 57 72 58
REMARK SMILES IDX 53 59 56 60 71 61 91 62 54 63 55 64 70 66 92 67 57 68 40 69
REMARK SMILES IDX 41 70 50 71 42 72 43 73 49 74 51 75 44 76 45 77 46 78 47 79
REMARK SMILES IDX 48 80 74 81 75 82 84 83 76 84 77 85 83 86 85 87 78 88 79 89
REMARK SMILES IDX 80 90 81 91 82 92 58 93 59 94 68 95 60 96 61 97 67 98 69 99
REMARK SMILES IDX 62 100 63 101 64 102 65 103 66 104
REMARK H PARENT 24 5 8 26 10 29 10 30 28 35 90 54 56 65
REMARK Flexibility Score: inf
ROOT
ATOM      1  C   UNL A   1      37.011  20.727  25.148  1.00  0.00     0.118 C 
ENDROOT
BRANCH   1   2
ATOM      2  N   UNL A   1      37.155  21.669  24.049  1.00  0.00    -0.352 N 
ATOM      3  C   UNL A   1      36.300  22.630  23.565  1.00  0.00     0.251 C 
ATOM      4  O   UNL A   1      36.679  23.347  22.642  1.00  0.00    -0.269 OA
ATOM      5  H   UNL A   1      38.013  21.608  23.569  1.00  0.00     0.163 HD
BRANCH   3   6
ATOM      6  C   UNL A   1      34.982  22.884  24.201  1.00  0.00     0.040 A 
ATOM      7  C   UNL A   1      33.398  24.350  25.330  1.00  0.00    -0.010 A 
ATOM      8  C   UNL A   1      32.372  23.454  25.006  1.00  0.00     0.007 A 
ATOM      9  C   UNL A   1      34.706  24.024  24.957  1.00  0.00     0.021 A 
ATOM     10  C   UNL A   1      32.660  22.237  24.384  1.00  0.00     0.001 A 
ATOM     11  C   UNL A   1      33.962  21.956  23.974  1.00  0.00     0.014 A 
BRANCH   7  12
ATOM     12  C   UNL A   1      33.103  25.692  25.975  1.00  0.00     0.265 C 
BRANCH  12  13
ATOM     13  O   UNL A   1      31.712  25.993  26.156  1.00  0.00    -0.485 OA
BRANCH  13  14
ATOM     14  C   UNL A   1      31.121  26.887  25.302  1.00  0.00     0.161 A 
ATOM     15  C   UNL A   1      31.528  28.207  25.059  1.00  0.00     0.161 A 
ATOM     16  C   UNL A   1      30.863  28.974  24.095  1.00  0.00     0.060 A 
ATOM     17  C   UNL A   1      29.766  28.439  23.406  1.00  0.00    -0.002 A 
ATOM     18  C   UNL A   1      30.000  26.377  24.633  1.00  0.00     0.051 A 
ATOM     19  C   UNL A   1      29.319  27.148  23.688  1.00  0.00     0.014 A 
BRANCH  15  20
ATOM     20  O   UNL A   1      32.472  28.770  25.876  1.00  0.00    -0.493 OA
ATOM     21  C   UNL A   1      31.959  29.706  26.815  1.00  0.00     0.278 C 
ENDBRANCH  15  20
BRANCH  17  22
ATOM     22  C   UNL A   1      29.027  29.252  22.414  1.00  0.00     0.141 C 
ATOM     23  N   UNL A   1      29.636  30.140  21.693  1.00  0.00    -0.179 NA
BRANCH  23  24
ATOM     24  N   UNL A   1      28.915  30.939  20.847  1.00  0.00    -0.229 N 
ATOM     25  C   UNL A   1      28.149  32.040  21.159  1.00  0.00     0.332 C 
ATOM     26  H   UNL A   1      28.949  30.695  19.894  1.00  0.00     0.195 HD
ATOM     27  N   UNL A   1      27.691  32.689  20.051  1.00  0.00    -0.350 N 
ATOM     28  O   UNL A   1      27.867  32.475  22.270  1.00  0.00    -0.247 OA
ATOM     29  H   UNL A   1      27.912  32.348  19.155  1.00  0.00     0.161 HD
ATOM     30  H   UNL A   1      27.140  33.500  20.147  1.00  0.00     0.161 HD
ENDBRANCH  23  24
ENDBRANCH  17  22
ENDBRANCH  13  14
ENDBRANCH  12  13
ENDBRANCH   7  12
ENDBRANCH   3   6
ENDBRANCH   1   2
BRANCH   1  31
ATOM     31  C   UNL A   1      38.197  19.767  25.196  1.00  0.00     0.042 C 
BRANCH  31  32
ATOM     32  C   UNL A   1      39.366  20.329  25.991  1.00  0.00     0.118 C 
BRANCH  32  33
ATOM     33  N   UNL A   1      40.453  19.364  26.089  1.00  0.00    -0.352 N 
ATOM     34  C   UNL A   1      41.807  19.573  26.106  1.00  0.00     0.251 C 
ATOM     35  H   UNL A   1      40.173  18.423  26.153  1.00  0.00     0.163 HD
ATOM     36  O   UNL A   1      42.565  18.627  25.907  1.00  0.00    -0.269 OA
BRANCH  34  37
ATOM     37  C   UNL A   1      42.345  20.924  26.362  1.00  0.00     0.039 A 
ATOM     38  C   UNL A   1      42.627  21.757  25.278  1.00  0.00     0.014 A 
ATOM     39  C   UNL A   1      42.606  21.354  27.667  1.00  0.00     0.014 A 
ATOM     40  C   UNL A   1      43.134  23.035  25.506  1.00  0.00     0.010 A 
ATOM     41  C   UNL A   1      43.020  22.660  27.897  1.00  0.00     0.010 A 
ATOM     42  C   UNL A   1      43.308  23.507  26.819  1.00  0.00    -0.014 A 
BRANCH  42  43
ATOM     43  C   UNL A   1      43.808  24.878  27.082  1.00  0.00     0.031 A 
ATOM     44  C   UNL A   1      45.269  25.194  26.903  1.00  0.00     0.074 A 
ATOM     45  C   UNL A   1      42.953  25.817  27.533  1.00  0.00     0.049 A 
ATOM     46  N   UNL A   1      45.904  26.313  27.133  1.00  0.00    -0.248 NA
ATOM     47  C   UNL A   1      46.136  24.100  26.434  1.00  0.00     0.031 C 
ATOM     48  C   UNL A   1      41.528  25.606  27.795  1.00  0.00     0.029 A 
ATOM     49  N   UNL A   1      43.158  27.133  27.858  1.00  0.00    -0.354 N 
ATOM     50  C   UNL A   1      47.240  26.056  26.847  1.00  0.00     0.074 A 
ATOM     51  C   UNL A   1      47.335  24.658  26.492  1.00  0.00     0.031 C 
ATOM     52  C   UNL A   1      40.982  26.759  28.210  1.00  0.00     0.029 A 
ATOM     53  C   UNL A   1      42.023  27.778  28.286  1.00  0.00     0.049 A 
ATOM     54  H   UNL A   1      44.037  27.574  27.791  1.00  0.00     0.167 HD
ATOM     55  C   UNL A   1      48.287  26.915  26.852  1.00  0.00     0.037 A 
ATOM     56  C   UNL A   1      41.844  29.047  28.699  1.00  0.00     0.037 A 
ATOM     57  C   UNL A   1      48.173  28.310  27.190  1.00  0.00     0.049 A 
ATOM     58  C   UNL A   1      43.022  29.983  28.699  1.00  0.00     0.074 A 
ATOM     59  C   UNL A   1      49.159  29.281  27.181  1.00  0.00     0.029 A 
ATOM     60  N   UNL A   1      47.002  28.932  27.601  1.00  0.00    -0.354 N 
ATOM     61  N   UNL A   1      44.268  29.740  28.364  1.00  0.00    -0.248 NA
ATOM     62  C   UNL A   1      42.770  31.366  29.122  1.00  0.00     0.031 C 
ATOM     63  C   UNL A   1      48.596  30.477  27.635  1.00  0.00     0.029 A 
ATOM     64  C   UNL A   1      47.245  30.270  27.869  1.00  0.00     0.049 A 
ATOM     65  H   UNL A   1      46.128  28.489  27.690  1.00  0.00     0.167 HD
ATOM     66  C   UNL A   1      44.942  30.947  28.511  1.00  0.00     0.074 A 
ATOM     67  C   UNL A   1      43.962  31.920  28.948  1.00  0.00     0.031 C 
ATOM     68  C   UNL A   1      46.254  31.224  28.301  1.00  0.00     0.037 A 
BRANCH  55  69
ATOM     69  C   UNL A   1      49.640  26.372  26.474  1.00  0.00     0.058 A 
ATOM     70  C   UNL A   1      50.134  26.466  25.162  1.00  0.00     0.135 A 
ATOM     71  C   UNL A   1      50.468  25.777  27.440  1.00  0.00     0.135 A 
ATOM     72  F   UNL A   1      49.381  27.009  24.193  1.00  0.00    -0.206 F 
ATOM     73  C   UNL A   1      51.384  25.963  24.816  1.00  0.00     0.059 A 
ATOM     74  C   UNL A   1      51.736  25.296  27.123  1.00  0.00     0.059 A 
ATOM     75  F   UNL A   1      50.048  25.657  28.710  1.00  0.00    -0.206 F 
ATOM     76  C   UNL A   1      52.179  25.381  25.804  1.00  0.00     0.060 A 
BRANCH  76  77
ATOM     77  S   UNL A   1      53.801  24.743  25.338  1.00  0.00     0.124 S 
ATOM     78  O   UNL A   1      54.557  24.942  26.570  1.00  0.00    -0.237 OA
ATOM     79  O   UNL A   1      53.503  23.356  24.995  1.00  0.00    -0.237 OA
ATOM     80  O   UNL A   1      54.194  25.592  24.218  1.00  0.00    -0.744 OA
ENDBRANCH  76  77
ENDBRANCH  55  69
BRANCH  56  81
ATOM     81  C   UNL A   1      40.492  29.506  29.118  1.00  0.00     0.058 A 
ATOM     82  C   UNL A   1      39.472  29.706  28.176  1.00  0.00     0.135 A 
ATOM     83  C   UNL A   1      40.184  29.728  30.470  1.00  0.00     0.135 A 
ATOM     84  F   UNL A   1      39.716  29.509  26.871  1.00  0.00    -0.206 F 
ATOM     85  C   UNL A   1      38.201  30.126  28.554  1.00  0.00     0.059 A 
ATOM     86  C   UNL A   1      38.912  30.121  30.876  1.00  0.00     0.059 A 
ATOM     87  F   UNL A   1      41.117  29.533  31.414  1.00  0.00    -0.206 F 
ATOM     88  C   UNL A   1      37.929  30.326  29.908  1.00  0.00     0.060 A 
BRANCH  88  89
ATOM     89  S   UNL A   1      36.260  30.820  30.390  1.00  0.00     0.124 S 
ATOM     90  O   UNL A   1      35.548  30.728  29.120  1.00  0.00    -0.237 OA
ATOM     91  O   UNL A   1      35.919  29.811  31.388  1.00  0.00    -0.237 OA
ATOM     92  O   UNL A   1      36.447  32.170  30.913  1.00  0.00    -0.744 OA
ENDBRANCH  88  89
ENDBRANCH  56  81
BRANCH  68  93
ATOM     93  C   UNL A   1      46.698  32.647  28.506  1.00  0.00     0.058 A 
ATOM     94  C   UNL A   1      47.129  33.116  29.757  1.00  0.00     0.135 A 
ATOM     95  C   UNL A   1      46.739  33.539  27.422  1.00  0.00     0.135 A 
ATOM     96  F   UNL A   1      47.106  32.306  30.827  1.00  0.00    -0.206 F 
ATOM     97  C   UNL A   1      47.554  34.429  29.932  1.00  0.00     0.059 A 
ATOM     98  C   UNL A   1      47.192  34.846  27.567  1.00  0.00     0.059 A 
ATOM     99  F   UNL A   1      46.350  33.139  26.200  1.00  0.00    -0.206 F 
ATOM    100  C   UNL A   1      47.584  35.286  28.831  1.00  0.00     0.060 A 
BRANCH 100 101
ATOM    101  S   UNL A   1      48.163  36.979  29.068  1.00  0.00     0.124 S 
ATOM    102  O   UNL A   1      46.909  37.724  29.049  1.00  0.00    -0.237 OA
ATOM    103  O   UNL A   1      48.834  36.900  30.362  1.00  0.00    -0.237 OA
ATOM    104  O   UNL A   1      49.044  37.201  27.925  1.00  0.00    -0.744 OA
ENDBRANCH 100 101
ENDBRANCH  68  93
ENDBRANCH  42  43
ENDBRANCH  34  37
ENDBRANCH  32  33
ENDBRANCH  31  32
ENDBRANCH   1  31
TORSDOF 19
ENDMDL
