MODEL 1
REMARK VINA RESULT:     -11.2      0.000      0.000
REMARK SMILES CCn1cnc(S(=O)(=O)NC[C@H]2CC[C@@H](C(=O)NCCCNC(=O)c3ccc(-c4c5nc(c(-c6c(F)cc(S(=O)(=O)[O-])cc6F)c6ccc([nH]6)c(-c6c(F)cc(S(=O)(=O)[O-])cc6F)c6nc(c(-c7c(F)cc(S(=O)(=O)[O-])cc7F)c7ccc4[nH]7)C=C6)C=C5)cc3)O2)c1
REMARK SMILES IDX 19 1 18 2 16 3 17 4 15 6 12 7 13 8 91 9 14 10 11 11 10 12
REMARK SMILES IDX 7 14 8 15 9 16 6 17 3 18 4 19 92 20 5 21 2 22 1 23 20 24
REMARK SMILES IDX 21 25 22 26 23 27 24 29 25 30 26 31 90 32 27 33 89 34 28 35
REMARK SMILES IDX 29 36 30 37 83 38 31 39 88 40 82 41 84 42 32 43 87 44 81 45
REMARK SMILES IDX 80 46 33 48 67 49 46 50 66 51 47 52 50 53 65 54 85 55 48 56
REMARK SMILES IDX 49 57 64 59 86 60 51 61 34 62 35 63 44 64 36 65 37 66 43 67
REMARK SMILES IDX 45 68 38 69 39 70 40 71 41 72 42 73 68 74 69 75 78 76 70 77
REMARK SMILES IDX 71 78 77 79 79 80 72 81 73 82 74 83 75 84 76 85 52 86 53 87
REMARK SMILES IDX 62 88 54 89 55 90 61 91 63 92 56 93 57 94 58 95 59 96 60 97
REMARK H PARENT 18 5 10 13 22 28 84 47 50 58
REMARK Flexibility Score: inf
ROOT
ATOM      1  C   UNL A   1      42.632  19.850  25.674  1.00  0.00     0.117 C 
ENDROOT
BRANCH   1   2
ATOM      2  N   UNL A   1      44.053  20.132  25.559  1.00  0.00    -0.354 N 
ATOM      3  C   UNL A   1      44.705  21.326  25.711  1.00  0.00     0.249 C 
ATOM      4  O   UNL A   1      45.932  21.341  25.618  1.00  0.00    -0.272 OA
ATOM      5  H   UNL A   1      44.625  19.359  25.343  1.00  0.00     0.163 HD
BRANCH   3   6
ATOM      6  C   UNL A   1      43.884  22.586  26.026  1.00  0.00     0.207 C 
ATOM      7  C   UNL A   1      44.621  24.802  26.320  1.00  0.00     0.134 C 
ATOM      8  C   UNL A   1      43.477  24.804  25.321  1.00  0.00     0.037 C 
ATOM      9  O   UNL A   1      44.659  23.465  26.865  1.00  0.00    -0.364 OA
ATOM     10  C   UNL A   1      43.495  23.389  24.795  1.00  0.00     0.045 C 
BRANCH   7  11
ATOM     11  C   UNL A   1      45.984  25.125  25.685  1.00  0.00     0.131 C 
BRANCH  11  12
ATOM     12  N   UNL A   1      45.927  26.108  24.580  1.00  0.00    -0.207 NA
ATOM     13  H   UNL A   1      46.176  25.611  23.725  1.00  0.00     0.141 HD
BRANCH  12  14
ATOM     14  S   UNL A   1      46.907  27.489  24.652  1.00  0.00     0.259 S 
ATOM     15  O   UNL A   1      47.740  27.369  25.834  1.00  0.00    -0.205 OA
ATOM     16  O   UNL A   1      46.035  28.621  24.453  1.00  0.00    -0.205 OA
BRANCH  14  17
ATOM     17  C   UNL A   1      48.005  27.506  23.297  1.00  0.00     0.188 A 
ATOM     18  N   UNL A   1      49.810  27.302  22.088  1.00  0.00    -0.336 N 
ATOM     19  C   UNL A   1      48.875  28.040  21.412  1.00  0.00     0.201 A 
ATOM     20  C   UNL A   1      49.242  26.889  23.257  1.00  0.00     0.129 A 
ATOM     21  N   UNL A   1      47.776  28.192  22.115  1.00  0.00    -0.224 NA
BRANCH  18  22
ATOM     22  C   UNL A   1      51.162  27.064  21.621  1.00  0.00     0.120 C 
ATOM     23  C   UNL A   1      52.244  27.865  22.330  1.00  0.00     0.027 C 
ENDBRANCH  18  22
ENDBRANCH  14  17
ENDBRANCH  12  14
ENDBRANCH  11  12
ENDBRANCH   7  11
ENDBRANCH   3   6
ENDBRANCH   1   2
BRANCH   1  24
ATOM     24  C   UNL A   1      42.183  19.662  27.127  1.00  0.00     0.042 C 
BRANCH  24  25
ATOM     25  C   UNL A   1      41.025  20.576  27.516  1.00  0.00     0.118 C 
BRANCH  25  26
ATOM     26  N   UNL A   1      40.214  20.982  26.371  1.00  0.00    -0.352 N 
ATOM     27  C   UNL A   1      39.547  22.174  26.175  1.00  0.00     0.251 C 
ATOM     28  H   UNL A   1      40.131  20.320  25.648  1.00  0.00     0.163 HD
ATOM     29  O   UNL A   1      38.674  22.254  25.318  1.00  0.00    -0.269 OA
BRANCH  27  30
ATOM     30  C   UNL A   1      39.869  23.335  27.027  1.00  0.00     0.039 A 
ATOM     31  C   UNL A   1      41.067  23.365  27.745  1.00  0.00     0.014 A 
ATOM     32  C   UNL A   1      38.987  24.412  27.085  1.00  0.00     0.014 A 
ATOM     33  C   UNL A   1      41.416  24.524  28.437  1.00  0.00     0.010 A 
ATOM     34  C   UNL A   1      39.382  25.595  27.678  1.00  0.00     0.010 A 
ATOM     35  C   UNL A   1      40.587  25.656  28.376  1.00  0.00    -0.014 A 
BRANCH  35  36
ATOM     36  C   UNL A   1      41.051  26.924  28.953  1.00  0.00     0.031 A 
ATOM     37  C   UNL A   1      42.223  27.559  28.274  1.00  0.00     0.074 A 
ATOM     38  C   UNL A   1      40.382  27.630  29.888  1.00  0.00     0.049 A 
ATOM     39  N   UNL A   1      43.397  27.802  28.760  1.00  0.00    -0.248 NA
ATOM     40  C   UNL A   1      42.092  27.899  26.848  1.00  0.00     0.031 C 
ATOM     41  C   UNL A   1      39.052  27.375  30.454  1.00  0.00     0.029 A 
ATOM     42  N   UNL A   1      40.725  28.821  30.455  1.00  0.00    -0.354 N 
ATOM     43  C   UNL A   1      44.100  28.491  27.770  1.00  0.00     0.074 A 
ATOM     44  C   UNL A   1      43.298  28.400  26.577  1.00  0.00     0.031 C 
ATOM     45  C   UNL A   1      38.612  28.485  31.085  1.00  0.00     0.029 A 
ATOM     46  C   UNL A   1      39.687  29.458  31.122  1.00  0.00     0.049 A 
ATOM     47  H   UNL A   1      41.632  29.200  30.395  1.00  0.00     0.167 HD
ATOM     48  C   UNL A   1      45.205  29.240  28.050  1.00  0.00     0.037 A 
ATOM     49  C   UNL A   1      39.697  30.710  31.639  1.00  0.00     0.037 A 
ATOM     50  C   UNL A   1      45.739  28.928  29.351  1.00  0.00     0.049 A 
ATOM     51  C   UNL A   1      41.118  31.091  31.844  1.00  0.00     0.074 A 
ATOM     52  C   UNL A   1      46.214  27.780  29.958  1.00  0.00     0.029 A 
ATOM     53  N   UNL A   1      45.517  29.816  30.375  1.00  0.00    -0.354 N 
ATOM     54  N   UNL A   1      41.912  30.521  32.709  1.00  0.00    -0.248 NA
ATOM     55  C   UNL A   1      41.782  31.845  30.793  1.00  0.00     0.031 C 
ATOM     56  C   UNL A   1      45.761  27.864  31.307  1.00  0.00     0.029 A 
ATOM     57  C   UNL A   1      45.089  29.078  31.449  1.00  0.00     0.049 A 
ATOM     58  H   UNL A   1      45.643  30.792  30.344  1.00  0.00     0.167 HD
ATOM     59  C   UNL A   1      43.149  30.486  32.087  1.00  0.00     0.074 A 
ATOM     60  C   UNL A   1      43.033  31.407  30.960  1.00  0.00     0.031 C 
ATOM     61  C   UNL A   1      44.067  29.515  32.376  1.00  0.00     0.037 A 
BRANCH  48  62
ATOM     62  C   UNL A   1      45.634  30.476  27.290  1.00  0.00     0.058 A 
ATOM     63  C   UNL A   1      47.008  30.778  27.164  1.00  0.00     0.135 A 
ATOM     64  C   UNL A   1      44.750  31.514  26.925  1.00  0.00     0.135 A 
ATOM     65  F   UNL A   1      47.943  29.870  27.487  1.00  0.00    -0.206 F 
ATOM     66  C   UNL A   1      47.467  32.040  26.779  1.00  0.00     0.059 A 
ATOM     67  C   UNL A   1      45.185  32.762  26.487  1.00  0.00     0.059 A 
ATOM     68  F   UNL A   1      43.424  31.402  27.070  1.00  0.00    -0.206 F 
ATOM     69  C   UNL A   1      46.544  33.032  26.461  1.00  0.00     0.060 A 
BRANCH  69  70
ATOM     70  S   UNL A   1      47.125  34.696  26.086  1.00  0.00     0.124 S 
ATOM     71  O   UNL A   1      45.876  35.368  25.747  1.00  0.00    -0.237 OA
ATOM     72  O   UNL A   1      47.745  35.094  27.345  1.00  0.00    -0.237 OA
ATOM     73  O   UNL A   1      48.052  34.484  24.978  1.00  0.00    -0.744 OA
ENDBRANCH  69  70
ENDBRANCH  48  62
BRANCH  49  74
ATOM     74  C   UNL A   1      38.583  31.692  31.682  1.00  0.00     0.058 A 
ATOM     75  C   UNL A   1      38.038  32.221  30.500  1.00  0.00     0.135 A 
ATOM     76  C   UNL A   1      37.845  31.914  32.862  1.00  0.00     0.135 A 
ATOM     77  F   UNL A   1      38.666  32.041  29.327  1.00  0.00    -0.206 F 
ATOM     78  C   UNL A   1      36.806  32.881  30.478  1.00  0.00     0.059 A 
ATOM     79  C   UNL A   1      36.622  32.582  32.869  1.00  0.00     0.059 A 
ATOM     80  F   UNL A   1      38.245  31.404  34.037  1.00  0.00    -0.206 F 
ATOM     81  C   UNL A   1      36.093  33.036  31.667  1.00  0.00     0.060 A 
BRANCH  81  82
ATOM     82  S   UNL A   1      34.416  33.712  31.615  1.00  0.00     0.124 S 
ATOM     83  O   UNL A   1      33.710  32.836  32.542  1.00  0.00    -0.237 OA
ATOM     84  O   UNL A   1      34.625  35.084  32.065  1.00  0.00    -0.237 OA
ATOM     85  O   UNL A   1      34.039  33.572  30.211  1.00  0.00    -0.744 OA
ENDBRANCH  81  82
ENDBRANCH  49  74
BRANCH  61  86
ATOM     86  C   UNL A   1      43.865  28.665  33.605  1.00  0.00     0.058 A 
ATOM     87  C   UNL A   1      44.288  29.021  34.897  1.00  0.00     0.135 A 
ATOM     88  C   UNL A   1      43.059  27.521  33.490  1.00  0.00     0.135 A 
ATOM     89  F   UNL A   1      44.972  30.154  35.115  1.00  0.00    -0.206 F 
ATOM     90  C   UNL A   1      43.956  28.255  36.017  1.00  0.00     0.059 A 
ATOM     91  C   UNL A   1      42.688  26.761  34.596  1.00  0.00     0.059 A 
ATOM     92  F   UNL A   1      42.571  27.160  32.292  1.00  0.00    -0.206 F 
ATOM     93  C   UNL A   1      43.151  27.129  35.857  1.00  0.00     0.060 A 
BRANCH  93  94
ATOM     94  S   UNL A   1      42.643  26.195  37.318  1.00  0.00     0.124 S 
ATOM     95  O   UNL A   1      41.236  26.562  37.444  1.00  0.00    -0.237 OA
ATOM     96  O   UNL A   1      42.904  24.814  36.921  1.00  0.00    -0.237 OA
ATOM     97  O   UNL A   1      43.517  26.706  38.371  1.00  0.00    -0.744 OA
ENDBRANCH  93  94
ENDBRANCH  61  86
ENDBRANCH  35  36
ENDBRANCH  27  30
ENDBRANCH  25  26
ENDBRANCH  24  25
ENDBRANCH   1  24
TORSDOF 18
ENDMDL
MODEL 2
REMARK VINA RESULT:     -10.9      3.702      7.163
REMARK SMILES CCn1cnc(S(=O)(=O)NC[C@H]2CC[C@@H](C(=O)NCCCNC(=O)c3ccc(-c4c5nc(c(-c6c(F)cc(S(=O)(=O)[O-])cc6F)c6ccc([nH]6)c(-c6c(F)cc(S(=O)(=O)[O-])cc6F)c6nc(c(-c7c(F)cc(S(=O)(=O)[O-])cc7F)c7ccc4[nH]7)C=C6)C=C5)cc3)O2)c1
REMARK SMILES IDX 19 1 18 2 16 3 17 4 15 6 12 7 13 8 91 9 14 10 11 11 10 12
REMARK SMILES IDX 7 14 8 15 9 16 6 17 3 18 4 19 92 20 5 21 2 22 1 23 20 24
REMARK SMILES IDX 21 25 22 26 23 27 24 29 25 30 26 31 90 32 27 33 89 34 28 35
REMARK SMILES IDX 29 36 30 37 83 38 31 39 88 40 82 41 84 42 32 43 87 44 81 45
REMARK SMILES IDX 80 46 33 48 67 49 46 50 66 51 47 52 50 53 65 54 85 55 48 56
REMARK SMILES IDX 49 57 64 59 86 60 51 61 34 62 35 63 44 64 36 65 37 66 43 67
REMARK SMILES IDX 45 68 38 69 39 70 40 71 41 72 42 73 68 74 69 75 78 76 70 77
REMARK SMILES IDX 71 78 77 79 79 80 72 81 73 82 74 83 75 84 76 85 52 86 53 87
REMARK SMILES IDX 62 88 54 89 55 90 61 91 63 92 56 93 57 94 58 95 59 96 60 97
REMARK H PARENT 18 5 10 13 22 28 84 47 50 58
REMARK Flexibility Score: inf
ROOT
ATOM      1  C   UNL A   1      36.323  20.822  25.070  1.00  0.00     0.117 C 
ENDROOT
BRANCH   1   2
ATOM      2  N   UNL A   1      35.195  21.207  25.901  1.00  0.00    -0.354 N 
ATOM      3  C   UNL A   1      33.947  21.618  25.515  1.00  0.00     0.249 C 
ATOM      4  O   UNL A   1      33.111  21.854  26.387  1.00  0.00    -0.272 OA
ATOM      5  H   UNL A   1      35.349  21.167  26.873  1.00  0.00     0.163 HD
BRANCH   3   6
ATOM      6  C   UNL A   1      33.632  21.730  24.016  1.00  0.00     0.207 C 
ATOM      7  C   UNL A   1      31.758  22.686  22.960  1.00  0.00     0.134 C 
ATOM      8  C   UNL A   1      33.012  23.257  22.322  1.00  0.00     0.037 C 
ATOM      9  O   UNL A   1      32.210  21.613  23.815  1.00  0.00    -0.364 OA
ATOM     10  C   UNL A   1      34.052  23.055  23.398  1.00  0.00     0.045 C 
BRANCH   7  11
ATOM     11  C   UNL A   1      30.986  23.711  23.808  1.00  0.00     0.131 C 
BRANCH  11  12
ATOM     12  N   UNL A   1      31.790  24.360  24.867  1.00  0.00    -0.207 NA
ATOM     13  H   UNL A   1      32.391  23.640  25.269  1.00  0.00     0.141 HD
BRANCH  12  14
ATOM     14  S   UNL A   1      30.997  25.120  26.159  1.00  0.00     0.259 S 
ATOM     15  O   UNL A   1      31.137  24.260  27.319  1.00  0.00    -0.205 OA
ATOM     16  O   UNL A   1      29.702  25.520  25.665  1.00  0.00    -0.205 OA
BRANCH  14  17
ATOM     17  C   UNL A   1      31.817  26.604  26.564  1.00  0.00     0.188 A 
ATOM     18  N   UNL A   1      33.377  28.108  26.821  1.00  0.00    -0.336 N 
ATOM     19  C   UNL A   1      32.266  28.459  27.540  1.00  0.00     0.201 A 
ATOM     20  C   UNL A   1      33.079  26.969  26.132  1.00  0.00     0.129 A 
ATOM     21  N   UNL A   1      31.307  27.570  27.418  1.00  0.00    -0.224 NA
BRANCH  18  22
ATOM     22  C   UNL A   1      34.636  28.828  26.851  1.00  0.00     0.120 C 
ATOM     23  C   UNL A   1      34.579  30.208  27.488  1.00  0.00     0.027 C 
ENDBRANCH  18  22
ENDBRANCH  14  17
ENDBRANCH  12  14
ENDBRANCH  11  12
ENDBRANCH   7  11
ENDBRANCH   3   6
ENDBRANCH   1   2
BRANCH   1  24
ATOM     24  C   UNL A   1      37.199  22.014  24.671  1.00  0.00     0.042 C 
BRANCH  24  25
ATOM     25  C   UNL A   1      37.991  22.590  25.841  1.00  0.00     0.118 C 
BRANCH  25  26
ATOM     26  N   UNL A   1      39.086  21.722  26.265  1.00  0.00    -0.352 N 
ATOM     27  C   UNL A   1      40.337  22.085  26.721  1.00  0.00     0.251 C 
ATOM     28  H   UNL A   1      38.910  20.755  26.219  1.00  0.00     0.163 HD
ATOM     29  O   UNL A   1      41.242  21.257  26.752  1.00  0.00    -0.269 OA
BRANCH  27  30
ATOM     30  C   UNL A   1      40.584  23.480  27.135  1.00  0.00     0.039 A 
ATOM     31  C   UNL A   1      39.572  24.435  27.010  1.00  0.00     0.014 A 
ATOM     32  C   UNL A   1      41.818  23.828  27.681  1.00  0.00     0.014 A 
ATOM     33  C   UNL A   1      39.777  25.714  27.527  1.00  0.00     0.010 A 
ATOM     34  C   UNL A   1      41.978  25.057  28.289  1.00  0.00     0.010 A 
ATOM     35  C   UNL A   1      40.972  26.017  28.201  1.00  0.00    -0.014 A 
BRANCH  35  36
ATOM     36  C   UNL A   1      41.102  27.301  28.900  1.00  0.00     0.031 A 
ATOM     37  C   UNL A   1      42.159  28.223  28.381  1.00  0.00     0.074 A 
ATOM     38  C   UNL A   1      40.221  27.769  29.811  1.00  0.00     0.049 A 
ATOM     39  N   UNL A   1      43.209  28.666  28.993  1.00  0.00    -0.248 NA
ATOM     40  C   UNL A   1      42.073  28.646  26.975  1.00  0.00     0.031 C 
ATOM     41  C   UNL A   1      38.938  27.193  30.227  1.00  0.00     0.029 A 
ATOM     42  N   UNL A   1      40.251  28.954  30.484  1.00  0.00    -0.354 N 
ATOM     43  C   UNL A   1      43.823  29.568  28.123  1.00  0.00     0.074 A 
ATOM     44  C   UNL A   1      43.160  29.411  26.855  1.00  0.00     0.031 C 
ATOM     45  C   UNL A   1      38.218  28.129  30.883  1.00  0.00     0.029 A 
ATOM     46  C   UNL A   1      39.050  29.300  31.087  1.00  0.00     0.049 A 
ATOM     47  H   UNL A   1      41.057  29.518  30.537  1.00  0.00     0.167 HD
ATOM     48  C   UNL A   1      44.713  30.506  28.558  1.00  0.00     0.037 A 
ATOM     49  C   UNL A   1      38.746  30.478  31.683  1.00  0.00     0.037 A 
ATOM     50  C   UNL A   1      45.195  30.204  29.881  1.00  0.00     0.049 A 
ATOM     51  C   UNL A   1      40.029  31.130  32.049  1.00  0.00     0.074 A 
ATOM     52  C   UNL A   1      45.857  29.136  30.455  1.00  0.00     0.029 A 
ATOM     53  N   UNL A   1      44.704  30.937  30.934  1.00  0.00    -0.354 N 
ATOM     54  N   UNL A   1      40.854  30.669  32.948  1.00  0.00    -0.248 NA
ATOM     55  C   UNL A   1      40.596  32.092  31.118  1.00  0.00     0.031 C 
ATOM     56  C   UNL A   1      45.290  29.009  31.757  1.00  0.00     0.029 A 
ATOM     57  C   UNL A   1      44.361  30.038  31.912  1.00  0.00     0.049 A 
ATOM     58  H   UNL A   1      44.617  31.916  30.979  1.00  0.00     0.167 HD
ATOM     59  C   UNL A   1      42.117  30.947  32.449  1.00  0.00     0.074 A 
ATOM     60  C   UNL A   1      41.894  31.915  31.378  1.00  0.00     0.031 C 
ATOM     61  C   UNL A   1      43.197  30.170  32.761  1.00  0.00     0.037 A 
BRANCH  48  62
ATOM     62  C   UNL A   1      44.924  31.864  27.924  1.00  0.00     0.058 A 
ATOM     63  C   UNL A   1      46.179  32.188  27.364  1.00  0.00     0.135 A 
ATOM     64  C   UNL A   1      44.038  32.950  28.093  1.00  0.00     0.135 A 
ATOM     65  F   UNL A   1      47.106  31.236  27.162  1.00  0.00    -0.206 F 
ATOM     66  C   UNL A   1      46.553  33.500  27.068  1.00  0.00     0.059 A 
ATOM     67  C   UNL A   1      44.371  34.259  27.755  1.00  0.00     0.059 A 
ATOM     68  F   UNL A   1      42.847  32.810  28.687  1.00  0.00    -0.206 F 
ATOM     69  C   UNL A   1      45.646  34.532  27.287  1.00  0.00     0.060 A 
BRANCH  69  70
ATOM     70  S   UNL A   1      46.164  36.239  27.027  1.00  0.00     0.124 S 
ATOM     71  O   UNL A   1      47.137  36.411  28.100  1.00  0.00    -0.237 OA
ATOM     72  O   UNL A   1      46.705  36.191  25.673  1.00  0.00    -0.237 OA
ATOM     73  O   UNL A   1      44.920  36.990  27.171  1.00  0.00    -0.744 OA
ENDBRANCH  69  70
ENDBRANCH  48  62
BRANCH  49  74
ATOM     74  C   UNL A   1      37.446  31.196  31.681  1.00  0.00     0.058 A 
ATOM     75  C   UNL A   1      36.783  31.496  32.884  1.00  0.00     0.135 A 
ATOM     76  C   UNL A   1      36.967  31.848  30.527  1.00  0.00     0.135 A 
ATOM     77  F   UNL A   1      37.184  30.934  34.034  1.00  0.00    -0.206 F 
ATOM     78  C   UNL A   1      35.746  32.432  32.949  1.00  0.00     0.059 A 
ATOM     79  C   UNL A   1      35.926  32.774  30.564  1.00  0.00     0.059 A 
ATOM     80  F   UNL A   1      37.562  31.677  29.336  1.00  0.00    -0.206 F 
ATOM     81  C   UNL A   1      35.340  33.084  31.785  1.00  0.00     0.060 A 
BRANCH  81  82
ATOM     82  S   UNL A   1      34.139  34.431  31.895  1.00  0.00     0.124 S 
ATOM     83  O   UNL A   1      33.608  34.473  30.537  1.00  0.00    -0.237 OA
ATOM     84  O   UNL A   1      33.225  33.945  32.923  1.00  0.00    -0.237 OA
ATOM     85  O   UNL A   1      34.954  35.579  32.283  1.00  0.00    -0.744 OA
ENDBRANCH  81  82
ENDBRANCH  49  74
BRANCH  61  86
ATOM     86  C   UNL A   1      43.085  29.197  33.907  1.00  0.00     0.058 A 
ATOM     87  C   UNL A   1      43.279  29.532  35.259  1.00  0.00     0.135 A 
ATOM     88  C   UNL A   1      42.596  27.909  33.633  1.00  0.00     0.135 A 
ATOM     89  F   UNL A   1      43.642  30.771  35.619  1.00  0.00    -0.206 F 
ATOM     90  C   UNL A   1      43.032  28.618  36.286  1.00  0.00     0.059 A 
ATOM     91  C   UNL A   1      42.312  26.993  34.642  1.00  0.00     0.059 A 
ATOM     92  F   UNL A   1      42.332  27.545  32.367  1.00  0.00    -0.206 F 
ATOM     93  C   UNL A   1      42.543  27.352  35.968  1.00  0.00     0.060 A 
BRANCH  93  94
ATOM     94  S   UNL A   1      42.135  26.206  37.303  1.00  0.00     0.124 S 
ATOM     95  O   UNL A   1      40.761  26.581  37.621  1.00  0.00    -0.237 OA
ATOM     96  O   UNL A   1      42.303  24.901  36.668  1.00  0.00    -0.237 OA
ATOM     97  O   UNL A   1      43.120  26.517  38.335  1.00  0.00    -0.744 OA
ENDBRANCH  93  94
ENDBRANCH  61  86
ENDBRANCH  35  36
ENDBRANCH  27  30
ENDBRANCH  25  26
ENDBRANCH  24  25
ENDBRANCH   1  24
TORSDOF 18
ENDMDL
MODEL 3
REMARK VINA RESULT:     -10.9      4.222      7.429
REMARK SMILES CCn1cnc(S(=O)(=O)NC[C@H]2CC[C@@H](C(=O)NCCCNC(=O)c3ccc(-c4c5nc(c(-c6c(F)cc(S(=O)(=O)[O-])cc6F)c6ccc([nH]6)c(-c6c(F)cc(S(=O)(=O)[O-])cc6F)c6nc(c(-c7c(F)cc(S(=O)(=O)[O-])cc7F)c7ccc4[nH]7)C=C6)C=C5)cc3)O2)c1
REMARK SMILES IDX 19 1 18 2 16 3 17 4 15 6 12 7 13 8 91 9 14 10 11 11 10 12
REMARK SMILES IDX 7 14 8 15 9 16 6 17 3 18 4 19 92 20 5 21 2 22 1 23 20 24
REMARK SMILES IDX 21 25 22 26 23 27 24 29 25 30 26 31 90 32 27 33 89 34 28 35
REMARK SMILES IDX 29 36 30 37 83 38 31 39 88 40 82 41 84 42 32 43 87 44 81 45
REMARK SMILES IDX 80 46 33 48 67 49 46 50 66 51 47 52 50 53 65 54 85 55 48 56
REMARK SMILES IDX 49 57 64 59 86 60 51 61 34 62 35 63 44 64 36 65 37 66 43 67
REMARK SMILES IDX 45 68 38 69 39 70 40 71 41 72 42 73 68 74 69 75 78 76 70 77
REMARK SMILES IDX 71 78 77 79 79 80 72 81 73 82 74 83 75 84 76 85 52 86 53 87
REMARK SMILES IDX 62 88 54 89 55 90 61 91 63 92 56 93 57 94 58 95 59 96 60 97
REMARK H PARENT 18 5 10 13 22 28 84 47 50 58
REMARK Flexibility Score: inf
ROOT
ATOM      1  C   UNL A   1      38.125  21.622  25.376  1.00  0.00     0.117 C 
ENDROOT
BRANCH   1   2
ATOM      2  N   UNL A   1      37.543  22.137  24.148  1.00  0.00    -0.354 N 
ATOM      3  C   UNL A   1      36.244  22.488  23.896  1.00  0.00     0.249 C 
ATOM      4  O   UNL A   1      35.965  22.954  22.791  1.00  0.00    -0.272 OA
ATOM      5  H   UNL A   1      38.168  22.250  23.395  1.00  0.00     0.163 HD
BRANCH   3   6
ATOM      6  C   UNL A   1      35.200  22.321  25.010  1.00  0.00     0.207 C 
ATOM      7  C   UNL A   1      33.019  23.197  25.144  1.00  0.00     0.134 C 
ATOM      8  C   UNL A   1      32.956  21.705  25.423  1.00  0.00     0.037 C 
ATOM      9  O   UNL A   1      34.424  23.530  25.125  1.00  0.00    -0.364 OA
ATOM     10  C   UNL A   1      34.212  21.191  24.761  1.00  0.00     0.045 C 
BRANCH   7  11
ATOM     11  C   UNL A   1      32.392  23.590  23.796  1.00  0.00     0.131 C 
BRANCH  11  12
ATOM     12  N   UNL A   1      33.314  24.283  22.869  1.00  0.00    -0.207 NA
ATOM     13  H   UNL A   1      34.262  24.024  23.143  1.00  0.00     0.141 HD
BRANCH  12  14
ATOM     14  S   UNL A   1      33.271  25.975  22.772  1.00  0.00     0.259 S 
ATOM     15  O   UNL A   1      33.651  26.341  21.420  1.00  0.00    -0.205 OA
ATOM     16  O   UNL A   1      33.991  26.469  23.920  1.00  0.00    -0.205 OA
BRANCH  14  17
ATOM     17  C   UNL A   1      31.633  26.537  22.975  1.00  0.00     0.188 A 
ATOM     18  N   UNL A   1      29.855  27.802  22.936  1.00  0.00    -0.336 N 
ATOM     19  C   UNL A   1      29.650  26.731  23.765  1.00  0.00     0.201 A 
ATOM     20  C   UNL A   1      31.084  27.651  22.365  1.00  0.00     0.129 A 
ATOM     21  N   UNL A   1      30.706  25.952  23.821  1.00  0.00    -0.224 NA
BRANCH  18  22
ATOM     22  C   UNL A   1      28.919  28.896  22.762  1.00  0.00     0.120 C 
ATOM     23  C   UNL A   1      27.476  28.580  23.126  1.00  0.00     0.027 C 
ENDBRANCH  18  22
ENDBRANCH  14  17
ENDBRANCH  12  14
ENDBRANCH  11  12
ENDBRANCH   7  11
ENDBRANCH   3   6
ENDBRANCH   1   2
BRANCH   1  24
ATOM     24  C   UNL A   1      38.920  22.683  26.144  1.00  0.00     0.042 C 
BRANCH  24  25
ATOM     25  C   UNL A   1      40.096  22.101  26.921  1.00  0.00     0.118 C 
BRANCH  25  26
ATOM     26  N   UNL A   1      41.272  21.873  26.083  1.00  0.00    -0.352 N 
ATOM     27  C   UNL A   1      42.207  22.792  25.654  1.00  0.00     0.251 C 
ATOM     28  H   UNL A   1      41.413  20.946  25.786  1.00  0.00     0.163 HD
ATOM     29  O   UNL A   1      42.956  22.516  24.723  1.00  0.00    -0.269 OA
BRANCH  27  30
ATOM     30  C   UNL A   1      42.273  24.117  26.299  1.00  0.00     0.039 A 
ATOM     31  C   UNL A   1      41.623  25.211  25.721  1.00  0.00     0.014 A 
ATOM     32  C   UNL A   1      42.957  24.262  27.505  1.00  0.00     0.014 A 
ATOM     33  C   UNL A   1      41.584  26.421  26.411  1.00  0.00     0.010 A 
ATOM     34  C   UNL A   1      42.824  25.426  28.236  1.00  0.00     0.010 A 
ATOM     35  C   UNL A   1      42.157  26.521  27.690  1.00  0.00    -0.014 A 
BRANCH  35  36
ATOM     36  C   UNL A   1      41.949  27.739  28.482  1.00  0.00     0.031 A 
ATOM     37  C   UNL A   1      43.031  28.769  28.392  1.00  0.00     0.074 A 
ATOM     38  C   UNL A   1      40.792  28.066  29.095  1.00  0.00     0.049 A 
ATOM     39  N   UNL A   1      43.795  29.215  29.336  1.00  0.00    -0.248 NA
ATOM     40  C   UNL A   1      43.352  29.316  27.064  1.00  0.00     0.031 C 
ATOM     41  C   UNL A   1      39.498  27.377  29.039  1.00  0.00     0.029 A 
ATOM     42  N   UNL A   1      40.506  29.182  29.823  1.00  0.00    -0.354 N 
ATOM     43  C   UNL A   1      44.569  30.230  28.772  1.00  0.00     0.074 A 
ATOM     44  C   UNL A   1      44.351  30.153  27.351  1.00  0.00     0.031 C 
ATOM     45  C   UNL A   1      38.530  28.201  29.495  1.00  0.00     0.029 A 
ATOM     46  C   UNL A   1      39.151  29.397  30.035  1.00  0.00     0.049 A 
ATOM     47  H   UNL A   1      41.202  29.787  30.170  1.00  0.00     0.167 HD
ATOM     48  C   UNL A   1      45.193  31.176  29.532  1.00  0.00     0.037 A 
ATOM     49  C   UNL A   1      38.575  30.493  30.583  1.00  0.00     0.037 A 
ATOM     50  C   UNL A   1      45.262  30.782  30.915  1.00  0.00     0.049 A 
ATOM     51  C   UNL A   1      39.617  31.184  31.384  1.00  0.00     0.074 A 
ATOM     52  C   UNL A   1      45.803  29.706  31.594  1.00  0.00     0.029 A 
ATOM     53  N   UNL A   1      44.405  31.381  31.805  1.00  0.00    -0.354 N 
ATOM     54  N   UNL A   1      40.157  30.692  32.465  1.00  0.00    -0.248 NA
ATOM     55  C   UNL A   1      40.361  32.262  30.752  1.00  0.00     0.031 C 
ATOM     56  C   UNL A   1      44.870  29.423  32.635  1.00  0.00     0.029 A 
ATOM     57  C   UNL A   1      43.853  30.375  32.557  1.00  0.00     0.049 A 
ATOM     58  H   UNL A   1      44.222  32.345  31.888  1.00  0.00     0.167 HD
ATOM     59  C   UNL A   1      41.483  31.092  32.414  1.00  0.00     0.074 A 
ATOM     60  C   UNL A   1      41.523  32.141  31.398  1.00  0.00     0.031 C 
ATOM     61  C   UNL A   1      42.475  30.356  32.999  1.00  0.00     0.037 A 
BRANCH  48  62
ATOM     62  C   UNL A   1      45.471  32.597  29.095  1.00  0.00     0.058 A 
ATOM     63  C   UNL A   1      44.415  33.400  28.611  1.00  0.00     0.135 A 
ATOM     64  C   UNL A   1      46.769  33.106  28.869  1.00  0.00     0.135 A 
ATOM     65  F   UNL A   1      43.137  33.016  28.762  1.00  0.00    -0.206 F 
ATOM     66  C   UNL A   1      44.634  34.577  27.891  1.00  0.00     0.059 A 
ATOM     67  C   UNL A   1      47.009  34.303  28.202  1.00  0.00     0.059 A 
ATOM     68  F   UNL A   1      47.869  32.416  29.197  1.00  0.00    -0.206 F 
ATOM     69  C   UNL A   1      45.939  35.009  27.676  1.00  0.00     0.060 A 
BRANCH  69  70
ATOM     70  S   UNL A   1      46.235  36.456  26.643  1.00  0.00     0.124 S 
ATOM     71  O   UNL A   1      47.232  37.174  27.429  1.00  0.00    -0.237 OA
ATOM     72  O   UNL A   1      46.709  35.854  25.402  1.00  0.00    -0.237 OA
ATOM     73  O   UNL A   1      44.918  37.084  26.564  1.00  0.00    -0.744 OA
ENDBRANCH  69  70
ENDBRANCH  48  62
BRANCH  49  74
ATOM     74  C   UNL A   1      37.282  31.127  30.218  1.00  0.00     0.058 A 
ATOM     75  C   UNL A   1      36.489  31.764  31.187  1.00  0.00     0.135 A 
ATOM     76  C   UNL A   1      36.936  31.370  28.872  1.00  0.00     0.135 A 
ATOM     77  F   UNL A   1      36.758  31.603  32.492  1.00  0.00    -0.206 F 
ATOM     78  C   UNL A   1      35.451  32.636  30.844  1.00  0.00     0.059 A 
ATOM     79  C   UNL A   1      35.897  32.222  28.506  1.00  0.00     0.059 A 
ATOM     80  F   UNL A   1      37.662  30.857  27.867  1.00  0.00    -0.206 F 
ATOM     81  C   UNL A   1      35.177  32.877  29.498  1.00  0.00     0.060 A 
BRANCH  81  82
ATOM     82  S   UNL A   1      33.971  34.147  29.051  1.00  0.00     0.124 S 
ATOM     83  O   UNL A   1      33.277  34.363  30.315  1.00  0.00    -0.237 OA
ATOM     84  O   UNL A   1      34.827  35.238  28.598  1.00  0.00    -0.237 OA
ATOM     85  O   UNL A   1      33.178  33.506  28.004  1.00  0.00    -0.744 OA
ENDBRANCH  81  82
ENDBRANCH  49  74
BRANCH  61  86
ATOM     86  C   UNL A   1      42.097  29.275  33.979  1.00  0.00     0.058 A 
ATOM     87  C   UNL A   1      41.739  27.963  33.619  1.00  0.00     0.135 A 
ATOM     88  C   UNL A   1      42.269  29.536  35.348  1.00  0.00     0.135 A 
ATOM     89  F   UNL A   1      41.656  27.597  32.332  1.00  0.00    -0.206 F 
ATOM     90  C   UNL A   1      41.528  26.969  34.578  1.00  0.00     0.059 A 
ATOM     91  C   UNL A   1      42.096  28.552  36.318  1.00  0.00     0.059 A 
ATOM     92  F   UNL A   1      42.670  30.752  35.755  1.00  0.00    -0.206 F 
ATOM     93  C   UNL A   1      41.714  27.272  35.925  1.00  0.00     0.060 A 
BRANCH  93  94
ATOM     94  S   UNL A   1      41.533  25.961  37.155  1.00  0.00     0.124 S 
ATOM     95  O   UNL A   1      40.194  26.214  37.678  1.00  0.00    -0.237 OA
ATOM     96  O   UNL A   1      41.681  24.749  36.354  1.00  0.00    -0.237 OA
ATOM     97  O   UNL A   1      42.626  26.216  38.089  1.00  0.00    -0.744 OA
ENDBRANCH  93  94
ENDBRANCH  61  86
ENDBRANCH  35  36
ENDBRANCH  27  30
ENDBRANCH  25  26
ENDBRANCH  24  25
ENDBRANCH   1  24
TORSDOF 18
ENDMDL
