MODEL 1
REMARK VINA RESULT:     -13.4      0.000      0.000
REMARK SMILES CCOC(=O)[C@H]1CCCN(c2cc(C(=O)NCCCNC(=O)c3ccc(-c4c5nc(c(-c6c(F)cc(S(=O)(=O)[O-])cc6F)c6ccc([nH]6)c(-c6c(F)cc(S(=O)(=O)[O-])cc6F)c6nc(c(-c7c(F)cc(S(=O)(=O)[O-])cc7F)c7ccc4[nH]7)C=C6)C=C5)cc3)c3cc(NC(=O)c4ccc(Cl)cc4)ccc3n2)C1
REMARK SMILES IDX 17 1 16 2 14 3 15 4 13 6 11 7 12 8 105 9 104 10 89 11 103 12
REMARK SMILES IDX 90 13 102 14 91 15 10 16 6 17 7 18 106 19 8 20 9 21 4 22
REMARK SMILES IDX 5 23 3 24 2 25 1 26 92 27 93 28 94 30 95 31 96 32 101 33
REMARK SMILES IDX 97 34 100 35 98 36 99 37 18 38 19 39 20 40 21 41 22 43 23 44
REMARK SMILES IDX 24 45 88 46 25 47 87 48 26 49 27 50 28 51 81 52 29 53 86 54
REMARK SMILES IDX 80 55 82 56 30 57 85 58 79 59 78 60 31 62 65 63 44 64 64 65
REMARK SMILES IDX 45 66 48 67 63 68 83 69 46 70 47 71 62 73 84 74 49 75 32 76
REMARK SMILES IDX 33 77 42 78 34 79 35 80 41 81 43 82 36 83 37 84 38 85 39 86
REMARK SMILES IDX 40 87 66 88 67 89 76 90 68 91 69 92 75 93 77 94 70 95 71 96
REMARK SMILES IDX 72 97 73 98 74 99 50 100 51 101 60 102 52 103 53 104 59 105
REMARK SMILES IDX 61 106 54 107 55 108 56 109 57 110 58 111
REMARK H PARENT 16 5 92 29 20 42 82 61 48 72
REMARK Flexibility Score: inf
ROOT
ATOM      1  C   UNL A   1      37.908  23.302  25.860  1.00  0.00     0.118 C 
ENDROOT
BRANCH   1   2
ATOM      2  N   UNL A   1      37.346  23.500  24.531  1.00  0.00    -0.352 N 
ATOM      3  C   UNL A   1      36.091  23.307  24.000  1.00  0.00     0.252 C 
ATOM      4  O   UNL A   1      35.931  23.660  22.828  1.00  0.00    -0.269 OA
ATOM      5  H   UNL A   1      37.998  23.844  23.878  1.00  0.00     0.163 HD
BRANCH   3   6
ATOM      6  C   UNL A   1      34.931  22.667  24.696  1.00  0.00     0.052 A 
ATOM      7  C   UNL A   1      33.653  20.621  24.889  1.00  0.00     0.130 A 
ATOM      8  C   UNL A   1      34.769  21.303  24.426  1.00  0.00     0.061 A 
ATOM      9  N   UNL A   1      32.781  21.216  25.725  1.00  0.00    -0.231 NA
ATOM     10  C   UNL A   1      32.915  22.519  26.005  1.00  0.00     0.074 A 
ATOM     11  C   UNL A   1      33.918  23.313  25.430  1.00  0.00     0.015 A 
ATOM     12  C   UNL A   1      31.978  23.123  26.839  1.00  0.00     0.031 A 
ATOM     13  C   UNL A   1      33.779  24.704  25.538  1.00  0.00     0.037 A 
ATOM     14  C   UNL A   1      31.919  24.511  27.006  1.00  0.00     0.028 A 
ATOM     15  C   UNL A   1      32.769  25.320  26.267  1.00  0.00     0.042 A 
BRANCH   7  16
ATOM     16  N   UNL A   1      33.354  19.368  24.400  1.00  0.00    -0.356 N 
ATOM     17  C   UNL A   1      34.287  17.135  24.150  1.00  0.00     0.118 C 
ATOM     18  C   UNL A   1      33.300  16.897  22.993  1.00  0.00     0.019 C 
ATOM     19  C   UNL A   1      33.728  18.166  25.131  1.00  0.00     0.133 C 
ATOM     20  C   UNL A   1      32.889  18.213  22.324  1.00  0.00     0.022 C 
ATOM     21  C   UNL A   1      32.361  19.229  23.344  1.00  0.00     0.118 C 
BRANCH  17  22
ATOM     22  C   UNL A   1      34.639  15.902  24.953  1.00  0.00     0.310 C 
ATOM     23  O   UNL A   1      35.632  15.831  25.667  1.00  0.00    -0.252 OA
BRANCH  22  24
ATOM     24  O   UNL A   1      33.732  14.901  24.800  1.00  0.00    -0.466 OA
BRANCH  24  25
ATOM     25  C   UNL A   1      32.960  14.582  25.967  1.00  0.00     0.229 C 
ATOM     26  C   UNL A   1      31.689  15.408  26.001  1.00  0.00     0.049 C 
ENDBRANCH  24  25
ENDBRANCH  22  24
ENDBRANCH  17  22
ENDBRANCH   7  16
BRANCH  15  27
ATOM     27  N   UNL A   1      32.568  26.710  26.275  1.00  0.00    -0.322 N 
ATOM     28  C   UNL A   1      32.550  27.643  25.251  1.00  0.00     0.255 C 
ATOM     29  H   UNL A   1      32.410  27.091  27.168  1.00  0.00     0.170 HD
ATOM     30  O   UNL A   1      32.574  28.840  25.530  1.00  0.00    -0.269 OA
BRANCH  28  31
ATOM     31  C   UNL A   1      32.458  27.247  23.818  1.00  0.00     0.040 A 
ATOM     32  C   UNL A   1      33.604  27.358  23.026  1.00  0.00     0.015 A 
ATOM     33  C   UNL A   1      31.286  26.720  23.255  1.00  0.00     0.015 A 
ATOM     34  C   UNL A   1      33.622  26.833  21.729  1.00  0.00     0.021 A 
ATOM     35  C   UNL A   1      31.319  26.151  21.977  1.00  0.00     0.021 A 
ATOM     36  C   UNL A   1      32.493  26.192  21.228  1.00  0.00     0.041 A 
ATOM     37  Cl  UNL A   1      32.554  25.432  19.686  1.00  0.00    -0.084 Cl
ENDBRANCH  28  31
ENDBRANCH  15  27
ENDBRANCH   3   6
ENDBRANCH   1   2
BRANCH   1  38
ATOM     38  C   UNL A   1      38.696  22.013  26.050  1.00  0.00     0.042 C 
BRANCH  38  39
ATOM     39  C   UNL A   1      40.029  22.171  26.779  1.00  0.00     0.118 C 
BRANCH  39  40
ATOM     40  N   UNL A   1      41.160  22.570  25.937  1.00  0.00    -0.352 N 
ATOM     41  C   UNL A   1      41.888  23.737  25.856  1.00  0.00     0.251 C 
ATOM     42  H   UNL A   1      41.455  21.872  25.309  1.00  0.00     0.163 HD
ATOM     43  O   UNL A   1      42.811  23.848  25.053  1.00  0.00    -0.269 OA
BRANCH  41  44
ATOM     44  C   UNL A   1      41.553  24.870  26.724  1.00  0.00     0.039 A 
ATOM     45  C   UNL A   1      40.747  24.689  27.855  1.00  0.00     0.014 A 
ATOM     46  C   UNL A   1      42.085  26.115  26.423  1.00  0.00     0.014 A 
ATOM     47  C   UNL A   1      40.594  25.739  28.763  1.00  0.00     0.010 A 
ATOM     48  C   UNL A   1      42.041  27.106  27.380  1.00  0.00     0.010 A 
ATOM     49  C   UNL A   1      41.303  26.930  28.565  1.00  0.00    -0.014 A 
BRANCH  49  50
ATOM     50  C   UNL A   1      41.343  28.059  29.525  1.00  0.00     0.031 A 
ATOM     51  C   UNL A   1      42.281  27.936  30.693  1.00  0.00     0.074 A 
ATOM     52  C   UNL A   1      40.388  29.008  29.491  1.00  0.00     0.049 A 
ATOM     53  N   UNL A   1      42.183  28.440  31.892  1.00  0.00    -0.248 NA
ATOM     54  C   UNL A   1      43.418  27.016  30.513  1.00  0.00     0.031 C 
ATOM     55  C   UNL A   1      39.398  29.191  28.427  1.00  0.00     0.029 A 
ATOM     56  N   UNL A   1      40.056  29.962  30.417  1.00  0.00    -0.354 N 
ATOM     57  C   UNL A   1      43.183  27.820  32.634  1.00  0.00     0.074 A 
ATOM     58  C   UNL A   1      43.846  26.881  31.759  1.00  0.00     0.031 C 
ATOM     59  C   UNL A   1      38.568  30.193  28.762  1.00  0.00     0.029 A 
ATOM     60  C   UNL A   1      38.927  30.678  30.088  1.00  0.00     0.049 A 
ATOM     61  H   UNL A   1      40.574  30.121  31.239  1.00  0.00     0.167 HD
ATOM     62  C   UNL A   1      43.511  28.031  33.931  1.00  0.00     0.037 A 
ATOM     63  C   UNL A   1      38.245  31.597  30.798  1.00  0.00     0.037 A 
ATOM     64  C   UNL A   1      42.893  29.052  34.733  1.00  0.00     0.049 A 
ATOM     65  C   UNL A   1      38.718  31.920  32.189  1.00  0.00     0.074 A 
ATOM     66  C   UNL A   1      43.204  29.449  36.020  1.00  0.00     0.029 A 
ATOM     67  N   UNL A   1      41.858  29.869  34.297  1.00  0.00    -0.354 N 
ATOM     68  N   UNL A   1      39.670  31.344  32.885  1.00  0.00    -0.248 NA
ATOM     69  C   UNL A   1      38.034  33.012  32.892  1.00  0.00     0.031 C 
ATOM     70  C   UNL A   1      42.354  30.505  36.363  1.00  0.00     0.029 A 
ATOM     71  C   UNL A   1      41.533  30.784  35.279  1.00  0.00     0.049 A 
ATOM     72  H   UNL A   1      41.419  29.805  33.417  1.00  0.00     0.167 HD
ATOM     73  C   UNL A   1      39.724  32.025  34.094  1.00  0.00     0.074 A 
ATOM     74  C   UNL A   1      38.705  33.056  34.035  1.00  0.00     0.031 C 
ATOM     75  C   UNL A   1      40.537  31.820  35.159  1.00  0.00     0.037 A 
BRANCH  62  76
ATOM     76  C   UNL A   1      44.588  27.169  34.534  1.00  0.00     0.058 A 
ATOM     77  C   UNL A   1      45.924  27.594  34.605  1.00  0.00     0.135 A 
ATOM     78  C   UNL A   1      44.284  25.897  35.051  1.00  0.00     0.135 A 
ATOM     79  F   UNL A   1      46.279  28.793  34.118  1.00  0.00    -0.206 F 
ATOM     80  C   UNL A   1      46.926  26.775  35.116  1.00  0.00     0.059 A 
ATOM     81  C   UNL A   1      45.265  25.075  35.600  1.00  0.00     0.059 A 
ATOM     82  F   UNL A   1      43.023  25.434  35.015  1.00  0.00    -0.206 F 
ATOM     83  C   UNL A   1      46.587  25.514  35.608  1.00  0.00     0.060 A 
BRANCH  83  84
ATOM     84  S   UNL A   1      47.901  24.464  36.263  1.00  0.00     0.124 S 
ATOM     85  O   UNL A   1      48.256  23.676  35.086  1.00  0.00    -0.237 OA
ATOM     86  O   UNL A   1      48.897  25.438  36.697  1.00  0.00    -0.237 OA
ATOM     87  O   UNL A   1      47.241  23.727  37.336  1.00  0.00    -0.744 OA
ENDBRANCH  83  84
ENDBRANCH  62  76
BRANCH  63  88
ATOM     88  C   UNL A   1      37.087  32.303  30.186  1.00  0.00     0.058 A 
ATOM     89  C   UNL A   1      35.777  31.900  30.488  1.00  0.00     0.135 A 
ATOM     90  C   UNL A   1      37.250  33.413  29.342  1.00  0.00     0.135 A 
ATOM     91  F   UNL A   1      35.571  30.846  31.291  1.00  0.00    -0.206 F 
ATOM     92  C   UNL A   1      34.671  32.562  29.966  1.00  0.00     0.059 A 
ATOM     93  C   UNL A   1      36.156  34.103  28.823  1.00  0.00     0.059 A 
ATOM     94  F   UNL A   1      38.481  33.855  29.042  1.00  0.00    -0.206 F 
ATOM     95  C   UNL A   1      34.870  33.667  29.137  1.00  0.00     0.060 A 
BRANCH  95  96
ATOM     96  S   UNL A   1      33.421  34.554  28.520  1.00  0.00     0.124 S 
ATOM     97  O   UNL A   1      34.038  35.682  27.833  1.00  0.00    -0.237 OA
ATOM     98  O   UNL A   1      32.790  33.554  27.665  1.00  0.00    -0.237 OA
ATOM     99  O   UNL A   1      32.685  34.880  29.738  1.00  0.00    -0.744 OA
ENDBRANCH  95  96
ENDBRANCH  63  88
BRANCH  75 100
ATOM    100  C   UNL A   1      40.410  32.765  36.316  1.00  0.00     0.058 A 
ATOM    101  C   UNL A   1      41.260  33.870  36.459  1.00  0.00     0.135 A 
ATOM    102  C   UNL A   1      39.350  32.619  37.226  1.00  0.00     0.135 A 
ATOM    103  F   UNL A   1      42.290  34.044  35.615  1.00  0.00    -0.206 F 
ATOM    104  C   UNL A   1      41.061  34.806  37.465  1.00  0.00     0.059 A 
ATOM    105  C   UNL A   1      39.121  33.553  38.227  1.00  0.00     0.059 A 
ATOM    106  F   UNL A   1      38.508  31.578  37.121  1.00  0.00    -0.206 F 
ATOM    107  C   UNL A   1      39.982  34.644  38.338  1.00  0.00     0.060 A 
BRANCH 107 108
ATOM    108  S   UNL A   1      39.683  35.913  39.587  1.00  0.00     0.124 S 
ATOM    109  O   UNL A   1      39.295  37.051  38.762  1.00  0.00    -0.237 OA
ATOM    110  O   UNL A   1      38.618  35.317  40.388  1.00  0.00    -0.237 OA
ATOM    111  O   UNL A   1      40.972  36.036  40.262  1.00  0.00    -0.744 OA
ENDBRANCH 107 108
ENDBRANCH  75 100
ENDBRANCH  49  50
ENDBRANCH  41  44
ENDBRANCH  39  40
ENDBRANCH  38  39
ENDBRANCH   1  38
TORSDOF 19
ENDMDL
MODEL 2
REMARK VINA RESULT:     -12.5      1.423      7.877
REMARK SMILES CCOC(=O)[C@H]1CCCN(c2cc(C(=O)NCCCNC(=O)c3ccc(-c4c5nc(c(-c6c(F)cc(S(=O)(=O)[O-])cc6F)c6ccc([nH]6)c(-c6c(F)cc(S(=O)(=O)[O-])cc6F)c6nc(c(-c7c(F)cc(S(=O)(=O)[O-])cc7F)c7ccc4[nH]7)C=C6)C=C5)cc3)c3cc(NC(=O)c4ccc(Cl)cc4)ccc3n2)C1
REMARK SMILES IDX 17 1 16 2 14 3 15 4 13 6 11 7 12 8 105 9 104 10 89 11 103 12
REMARK SMILES IDX 90 13 102 14 91 15 10 16 6 17 7 18 106 19 8 20 9 21 4 22
REMARK SMILES IDX 5 23 3 24 2 25 1 26 92 27 93 28 94 30 95 31 96 32 101 33
REMARK SMILES IDX 97 34 100 35 98 36 99 37 18 38 19 39 20 40 21 41 22 43 23 44
REMARK SMILES IDX 24 45 88 46 25 47 87 48 26 49 27 50 28 51 81 52 29 53 86 54
REMARK SMILES IDX 80 55 82 56 30 57 85 58 79 59 78 60 31 62 65 63 44 64 64 65
REMARK SMILES IDX 45 66 48 67 63 68 83 69 46 70 47 71 62 73 84 74 49 75 32 76
REMARK SMILES IDX 33 77 42 78 34 79 35 80 41 81 43 82 36 83 37 84 38 85 39 86
REMARK SMILES IDX 40 87 66 88 67 89 76 90 68 91 69 92 75 93 77 94 70 95 71 96
REMARK SMILES IDX 72 97 73 98 74 99 50 100 51 101 60 102 52 103 53 104 59 105
REMARK SMILES IDX 61 106 54 107 55 108 56 109 57 110 58 111
REMARK H PARENT 16 5 92 29 20 42 82 61 48 72
REMARK Flexibility Score: inf
ROOT
ATOM      1  C   UNL A   1      37.238  22.832  25.967  1.00  0.00     0.118 C 
ENDROOT
BRANCH   1   2
ATOM      2  N   UNL A   1      36.692  23.271  24.690  1.00  0.00    -0.352 N 
ATOM      3  C   UNL A   1      35.425  23.257  24.152  1.00  0.00     0.252 C 
ATOM      4  O   UNL A   1      35.292  23.793  23.048  1.00  0.00    -0.269 OA
ATOM      5  H   UNL A   1      37.368  23.657  24.087  1.00  0.00     0.163 HD
BRANCH   3   6
ATOM      6  C   UNL A   1      34.219  22.612  24.760  1.00  0.00     0.052 A 
ATOM      7  C   UNL A   1      32.925  20.569  24.838  1.00  0.00     0.130 A 
ATOM      8  C   UNL A   1      34.072  21.252  24.461  1.00  0.00     0.061 A 
ATOM      9  N   UNL A   1      32.001  21.156  25.622  1.00  0.00    -0.231 NA
ATOM     10  C   UNL A   1      32.120  22.454  25.929  1.00  0.00     0.074 A 
ATOM     11  C   UNL A   1      33.162  23.252  25.434  1.00  0.00     0.015 A 
ATOM     12  C   UNL A   1      31.131  23.050  26.707  1.00  0.00     0.031 A 
ATOM     13  C   UNL A   1      33.019  24.642  25.552  1.00  0.00     0.037 A 
ATOM     14  C   UNL A   1      31.065  24.436  26.889  1.00  0.00     0.028 A 
ATOM     15  C   UNL A   1      31.965  25.251  26.220  1.00  0.00     0.042 A 
BRANCH   7  16
ATOM     16  N   UNL A   1      32.656  19.324  24.312  1.00  0.00    -0.356 N 
ATOM     17  C   UNL A   1      33.310  16.987  24.486  1.00  0.00     0.118 C 
ATOM     18  C   UNL A   1      32.777  16.775  23.057  1.00  0.00     0.019 C 
ATOM     19  C   UNL A   1      32.581  18.147  25.166  1.00  0.00     0.133 C 
ATOM     20  C   UNL A   1      32.811  18.074  22.246  1.00  0.00     0.022 C 
ATOM     21  C   UNL A   1      32.095  19.218  22.973  1.00  0.00     0.118 C 
BRANCH  17  22
ATOM     22  C   UNL A   1      33.185  15.787  25.400  1.00  0.00     0.310 C 
ATOM     23  O   UNL A   1      32.125  15.439  25.903  1.00  0.00    -0.252 OA
BRANCH  22  24
ATOM     24  O   UNL A   1      34.370  15.146  25.584  1.00  0.00    -0.466 OA
BRANCH  24  25
ATOM     25  C   UNL A   1      35.516  15.782  25.001  1.00  0.00     0.229 C 
ATOM     26  C   UNL A   1      36.509  16.170  26.079  1.00  0.00     0.049 C 
ENDBRANCH  24  25
ENDBRANCH  22  24
ENDBRANCH  17  22
ENDBRANCH   7  16
BRANCH  15  27
ATOM     27  N   UNL A   1      31.768  26.642  26.234  1.00  0.00    -0.322 N 
ATOM     28  C   UNL A   1      31.904  27.601  25.244  1.00  0.00     0.255 C 
ATOM     29  H   UNL A   1      31.482  27.001  27.105  1.00  0.00     0.170 HD
ATOM     30  O   UNL A   1      31.889  28.790  25.554  1.00  0.00    -0.269 OA
BRANCH  28  31
ATOM     31  C   UNL A   1      32.023  27.242  23.803  1.00  0.00     0.040 A 
ATOM     32  C   UNL A   1      33.291  27.266  23.218  1.00  0.00     0.015 A 
ATOM     33  C   UNL A   1      30.923  26.832  23.035  1.00  0.00     0.015 A 
ATOM     34  C   UNL A   1      33.484  26.766  21.925  1.00  0.00     0.021 A 
ATOM     35  C   UNL A   1      31.123  26.286  21.762  1.00  0.00     0.021 A 
ATOM     36  C   UNL A   1      32.407  26.237  21.222  1.00  0.00     0.041 A 
ATOM     37  Cl  UNL A   1      32.663  25.504  19.687  1.00  0.00    -0.084 Cl
ENDBRANCH  28  31
ENDBRANCH  15  27
ENDBRANCH   3   6
ENDBRANCH   1   2
BRANCH   1  38
ATOM     38  C   UNL A   1      38.733  23.056  26.149  1.00  0.00     0.042 C 
BRANCH  38  39
ATOM     39  C   UNL A   1      39.126  24.455  26.623  1.00  0.00     0.118 C 
BRANCH  39  40
ATOM     40  N   UNL A   1      40.089  25.157  25.771  1.00  0.00    -0.352 N 
ATOM     41  C   UNL A   1      40.993  26.164  26.030  1.00  0.00     0.251 C 
ATOM     42  H   UNL A   1      40.088  24.853  24.835  1.00  0.00     0.163 HD
ATOM     43  O   UNL A   1      41.709  26.611  25.138  1.00  0.00    -0.269 OA
BRANCH  41  44
ATOM     44  C   UNL A   1      41.095  26.726  27.380  1.00  0.00     0.039 A 
ATOM     45  C   UNL A   1      41.793  27.920  27.606  1.00  0.00     0.014 A 
ATOM     46  C   UNL A   1      40.450  26.073  28.420  1.00  0.00     0.014 A 
ATOM     47  C   UNL A   1      41.721  28.529  28.860  1.00  0.00     0.010 A 
ATOM     48  C   UNL A   1      40.273  26.737  29.614  1.00  0.00     0.010 A 
ATOM     49  C   UNL A   1      40.897  27.976  29.849  1.00  0.00    -0.014 A 
BRANCH  49  50
ATOM     50  C   UNL A   1      40.619  28.601  31.164  1.00  0.00     0.031 A 
ATOM     51  C   UNL A   1      39.511  29.615  31.224  1.00  0.00     0.074 A 
ATOM     52  C   UNL A   1      41.498  28.464  32.175  1.00  0.00     0.049 A 
ATOM     53  N   UNL A   1      39.372  30.648  32.009  1.00  0.00    -0.248 NA
ATOM     54  C   UNL A   1      38.487  29.514  30.168  1.00  0.00     0.031 C 
ATOM     55  C   UNL A   1      42.636  27.543  32.204  1.00  0.00     0.029 A 
ATOM     56  N   UNL A   1      41.604  29.155  33.355  1.00  0.00    -0.354 N 
ATOM     57  C   UNL A   1      38.308  31.372  31.480  1.00  0.00     0.074 A 
ATOM     58  C   UNL A   1      37.868  30.678  30.291  1.00  0.00     0.031 C 
ATOM     59  C   UNL A   1      43.326  27.727  33.342  1.00  0.00     0.029 A 
ATOM     60  C   UNL A   1      42.718  28.821  34.090  1.00  0.00     0.049 A 
ATOM     61  H   UNL A   1      40.946  29.827  33.649  1.00  0.00     0.167 HD
ATOM     62  C   UNL A   1      37.756  32.511  31.958  1.00  0.00     0.037 A 
ATOM     63  C   UNL A   1      43.207  29.363  35.221  1.00  0.00     0.037 A 
ATOM     64  C   UNL A   1      38.159  33.107  33.203  1.00  0.00     0.049 A 
ATOM     65  C   UNL A   1      42.488  30.543  35.815  1.00  0.00     0.074 A 
ATOM     66  C   UNL A   1      37.612  34.192  33.861  1.00  0.00     0.029 A 
ATOM     67  N   UNL A   1      39.193  32.630  34.000  1.00  0.00    -0.354 N 
ATOM     68  N   UNL A   1      41.476  31.219  35.322  1.00  0.00    -0.248 NA
ATOM     69  C   UNL A   1      42.968  31.037  37.112  1.00  0.00     0.031 C 
ATOM     70  C   UNL A   1      38.317  34.374  35.055  1.00  0.00     0.029 A 
ATOM     71  C   UNL A   1      39.285  33.384  35.154  1.00  0.00     0.049 A 
ATOM     72  H   UNL A   1      39.775  31.869  33.775  1.00  0.00     0.167 HD
ATOM     73  C   UNL A   1      41.174  32.195  36.264  1.00  0.00     0.074 A 
ATOM     74  C   UNL A   1      42.114  32.022  37.355  1.00  0.00     0.031 C 
ATOM     75  C   UNL A   1      40.212  33.148  36.233  1.00  0.00     0.037 A 
BRANCH  62  76
ATOM     76  C   UNL A   1      36.656  33.153  31.154  1.00  0.00     0.058 A 
ATOM     77  C   UNL A   1      36.922  33.878  29.981  1.00  0.00     0.135 A 
ATOM     78  C   UNL A   1      35.315  33.043  31.559  1.00  0.00     0.135 A 
ATOM     79  F   UNL A   1      38.185  34.027  29.551  1.00  0.00    -0.206 F 
ATOM     80  C   UNL A   1      35.910  34.513  29.269  1.00  0.00     0.059 A 
ATOM     81  C   UNL A   1      34.281  33.640  30.841  1.00  0.00     0.059 A 
ATOM     82  F   UNL A   1      34.995  32.360  32.670  1.00  0.00    -0.206 F 
ATOM     83  C   UNL A   1      34.592  34.392  29.709  1.00  0.00     0.060 A 
BRANCH  83  84
ATOM     84  S   UNL A   1      33.292  35.226  28.775  1.00  0.00     0.124 S 
ATOM     85  O   UNL A   1      32.462  35.763  29.849  1.00  0.00    -0.237 OA
ATOM     86  O   UNL A   1      34.042  36.212  28.002  1.00  0.00    -0.237 OA
ATOM     87  O   UNL A   1      32.691  34.149  27.995  1.00  0.00    -0.744 OA
ENDBRANCH  83  84
ENDBRANCH  62  76
BRANCH  63  88
ATOM     88  C   UNL A   1      44.398  28.765  35.881  1.00  0.00     0.058 A 
ATOM     89  C   UNL A   1      45.679  29.278  35.624  1.00  0.00     0.135 A 
ATOM     90  C   UNL A   1      44.290  27.720  36.812  1.00  0.00     0.135 A 
ATOM     91  F   UNL A   1      45.833  30.278  34.743  1.00  0.00    -0.206 F 
ATOM     92  C   UNL A   1      46.810  28.771  36.253  1.00  0.00     0.059 A 
ATOM     93  C   UNL A   1      45.407  27.208  37.470  1.00  0.00     0.059 A 
ATOM     94  F   UNL A   1      43.086  27.209  37.114  1.00  0.00    -0.206 F 
ATOM     95  C   UNL A   1      46.664  27.737  37.179  1.00  0.00     0.060 A 
BRANCH  95  96
ATOM     96  S   UNL A   1      48.136  27.132  38.036  1.00  0.00     0.124 S 
ATOM     97  O   UNL A   1      48.547  28.314  38.785  1.00  0.00    -0.237 OA
ATOM     98  O   UNL A   1      47.600  26.029  38.827  1.00  0.00    -0.237 OA
ATOM     99  O   UNL A   1      49.020  26.737  36.942  1.00  0.00    -0.744 OA
ENDBRANCH  95  96
ENDBRANCH  63  88
BRANCH  75 100
ATOM    100  C   UNL A   1      40.078  34.033  37.436  1.00  0.00     0.058 A 
ATOM    101  C   UNL A   1      40.829  35.209  37.569  1.00  0.00     0.135 A 
ATOM    102  C   UNL A   1      39.104  33.753  38.407  1.00  0.00     0.135 A 
ATOM    103  F   UNL A   1      41.776  35.512  36.666  1.00  0.00    -0.206 F 
ATOM    104  C   UNL A   1      40.614  36.084  38.626  1.00  0.00     0.059 A 
ATOM    105  C   UNL A   1      38.859  34.623  39.461  1.00  0.00     0.059 A 
ATOM    106  F   UNL A   1      38.358  32.640  38.315  1.00  0.00    -0.206 F 
ATOM    107  C   UNL A   1      39.620  35.788  39.561  1.00  0.00     0.060 A 
BRANCH 107 108
ATOM    108  S   UNL A   1      39.292  36.975  40.880  1.00  0.00     0.124 S 
ATOM    109  O   UNL A   1      38.362  37.890  40.228  1.00  0.00    -0.237 OA
ATOM    110  O   UNL A   1      38.723  36.130  41.926  1.00  0.00    -0.237 OA
ATOM    111  O   UNL A   1      40.611  37.525  41.177  1.00  0.00    -0.744 OA
ENDBRANCH 107 108
ENDBRANCH  75 100
ENDBRANCH  49  50
ENDBRANCH  41  44
ENDBRANCH  39  40
ENDBRANCH  38  39
ENDBRANCH   1  38
TORSDOF 19
ENDMDL
MODEL 3
REMARK VINA RESULT:     -12.3      1.769      2.332
REMARK SMILES CCOC(=O)[C@H]1CCCN(c2cc(C(=O)NCCCNC(=O)c3ccc(-c4c5nc(c(-c6c(F)cc(S(=O)(=O)[O-])cc6F)c6ccc([nH]6)c(-c6c(F)cc(S(=O)(=O)[O-])cc6F)c6nc(c(-c7c(F)cc(S(=O)(=O)[O-])cc7F)c7ccc4[nH]7)C=C6)C=C5)cc3)c3cc(NC(=O)c4ccc(Cl)cc4)ccc3n2)C1
REMARK SMILES IDX 17 1 16 2 14 3 15 4 13 6 11 7 12 8 105 9 104 10 89 11 103 12
REMARK SMILES IDX 90 13 102 14 91 15 10 16 6 17 7 18 106 19 8 20 9 21 4 22
REMARK SMILES IDX 5 23 3 24 2 25 1 26 92 27 93 28 94 30 95 31 96 32 101 33
REMARK SMILES IDX 97 34 100 35 98 36 99 37 18 38 19 39 20 40 21 41 22 43 23 44
REMARK SMILES IDX 24 45 88 46 25 47 87 48 26 49 27 50 28 51 81 52 29 53 86 54
REMARK SMILES IDX 80 55 82 56 30 57 85 58 79 59 78 60 31 62 65 63 44 64 64 65
REMARK SMILES IDX 45 66 48 67 63 68 83 69 46 70 47 71 62 73 84 74 49 75 32 76
REMARK SMILES IDX 33 77 42 78 34 79 35 80 41 81 43 82 36 83 37 84 38 85 39 86
REMARK SMILES IDX 40 87 66 88 67 89 76 90 68 91 69 92 75 93 77 94 70 95 71 96
REMARK SMILES IDX 72 97 73 98 74 99 50 100 51 101 60 102 52 103 53 104 59 105
REMARK SMILES IDX 61 106 54 107 55 108 56 109 57 110 58 111
REMARK H PARENT 16 5 92 29 20 42 82 61 48 72
REMARK Flexibility Score: inf
ROOT
ATOM      1  C   UNL A   1      37.116  22.409  24.202  1.00  0.00     0.118 C 
ENDROOT
BRANCH   1   2
ATOM      2  N   UNL A   1      36.331  23.291  23.350  1.00  0.00    -0.352 N 
ATOM      3  C   UNL A   1      34.982  23.535  23.234  1.00  0.00     0.252 C 
ATOM      4  O   UNL A   1      34.651  24.426  22.446  1.00  0.00    -0.269 OA
ATOM      5  H   UNL A   1      36.879  23.824  22.729  1.00  0.00     0.163 HD
BRANCH   3   6
ATOM      6  C   UNL A   1      33.890  22.787  23.935  1.00  0.00     0.052 A 
ATOM      7  C   UNL A   1      33.100  20.577  24.521  1.00  0.00     0.130 A 
ATOM      8  C   UNL A   1      34.097  21.406  24.027  1.00  0.00     0.061 A 
ATOM      9  N   UNL A   1      31.977  21.094  25.054  1.00  0.00    -0.231 NA
ATOM     10  C   UNL A   1      31.756  22.413  24.984  1.00  0.00     0.074 A 
ATOM     11  C   UNL A   1      32.640  23.291  24.339  1.00  0.00     0.015 A 
ATOM     12  C   UNL A   1      30.569  22.920  25.505  1.00  0.00     0.031 A 
ATOM     13  C   UNL A   1      32.168  24.579  24.048  1.00  0.00     0.037 A 
ATOM     14  C   UNL A   1      30.165  24.242  25.281  1.00  0.00     0.028 A 
ATOM     15  C   UNL A   1      30.929  25.053  24.457  1.00  0.00     0.042 A 
BRANCH   7  16
ATOM     16  N   UNL A   1      33.190  19.212  24.359  1.00  0.00    -0.356 N 
ATOM     17  C   UNL A   1      34.806  17.395  24.267  1.00  0.00     0.118 C 
ATOM     18  C   UNL A   1      33.773  16.572  23.476  1.00  0.00     0.019 C 
ATOM     19  C   UNL A   1      34.107  18.417  25.164  1.00  0.00     0.133 C 
ATOM     20  C   UNL A   1      32.794  17.475  22.720  1.00  0.00     0.022 C 
ATOM     21  C   UNL A   1      32.136  18.503  23.647  1.00  0.00     0.118 C 
BRANCH  17  22
ATOM     22  C   UNL A   1      35.728  16.583  25.152  1.00  0.00     0.310 C 
ATOM     23  O   UNL A   1      35.548  15.396  25.392  1.00  0.00    -0.252 OA
BRANCH  22  24
ATOM     24  O   UNL A   1      36.768  17.315  25.632  1.00  0.00    -0.466 OA
BRANCH  24  25
ATOM     25  C   UNL A   1      37.033  18.543  24.940  1.00  0.00     0.229 C 
ATOM     26  C   UNL A   1      38.422  19.050  25.278  1.00  0.00     0.049 C 
ENDBRANCH  24  25
ENDBRANCH  22  24
ENDBRANCH  17  22
ENDBRANCH   7  16
BRANCH  15  27
ATOM     27  N   UNL A   1      30.417  26.301  24.063  1.00  0.00    -0.322 N 
ATOM     28  C   UNL A   1      30.642  27.580  24.545  1.00  0.00     0.255 C 
ATOM     29  H   UNL A   1      29.786  26.260  23.309  1.00  0.00     0.170 HD
ATOM     30  O   UNL A   1      29.907  28.496  24.180  1.00  0.00    -0.269 OA
BRANCH  28  31
ATOM     31  C   UNL A   1      31.774  27.897  25.459  1.00  0.00     0.040 A 
ATOM     32  C   UNL A   1      33.031  28.136  24.896  1.00  0.00     0.015 A 
ATOM     33  C   UNL A   1      31.612  28.018  26.847  1.00  0.00     0.015 A 
ATOM     34  C   UNL A   1      34.081  28.614  25.688  1.00  0.00     0.021 A 
ATOM     35  C   UNL A   1      32.647  28.542  27.629  1.00  0.00     0.021 A 
ATOM     36  C   UNL A   1      33.870  28.858  27.042  1.00  0.00     0.041 A 
ATOM     37  Cl  UNL A   1      35.119  29.566  27.988  1.00  0.00    -0.084 Cl
ENDBRANCH  28  31
ENDBRANCH  15  27
ENDBRANCH   3   6
ENDBRANCH   1   2
BRANCH   1  38
ATOM     38  C   UNL A   1      37.125  22.768  25.681  1.00  0.00     0.042 C 
BRANCH  38  39
ATOM     39  C   UNL A   1      38.021  23.948  26.056  1.00  0.00     0.118 C 
BRANCH  39  40
ATOM     40  N   UNL A   1      39.459  23.665  26.065  1.00  0.00    -0.352 N 
ATOM     41  C   UNL A   1      40.524  24.295  26.672  1.00  0.00     0.251 C 
ATOM     42  H   UNL A   1      39.713  22.875  25.535  1.00  0.00     0.163 HD
ATOM     43  O   UNL A   1      41.668  23.873  26.530  1.00  0.00    -0.269 OA
BRANCH  41  44
ATOM     44  C   UNL A   1      40.298  25.495  27.484  1.00  0.00     0.039 A 
ATOM     45  C   UNL A   1      39.451  25.453  28.599  1.00  0.00     0.014 A 
ATOM     46  C   UNL A   1      40.973  26.659  27.148  1.00  0.00     0.014 A 
ATOM     47  C   UNL A   1      39.396  26.552  29.459  1.00  0.00     0.010 A 
ATOM     48  C   UNL A   1      41.018  27.689  28.063  1.00  0.00     0.010 A 
ATOM     49  C   UNL A   1      40.239  27.647  29.233  1.00  0.00    -0.014 A 
BRANCH  49  50
ATOM     50  C   UNL A   1      40.383  28.805  30.147  1.00  0.00     0.031 A 
ATOM     51  C   UNL A   1      41.335  28.657  31.301  1.00  0.00     0.074 A 
ATOM     52  C   UNL A   1      39.499  29.820  30.095  1.00  0.00     0.049 A 
ATOM     53  N   UNL A   1      41.302  29.211  32.481  1.00  0.00    -0.248 NA
ATOM     54  C   UNL A   1      42.397  27.648  31.134  1.00  0.00     0.031 C 
ATOM     55  C   UNL A   1      38.502  30.036  29.045  1.00  0.00     0.029 A 
ATOM     56  N   UNL A   1      39.259  30.830  30.990  1.00  0.00    -0.354 N 
ATOM     57  C   UNL A   1      42.271  28.547  33.227  1.00  0.00     0.074 A 
ATOM     58  C   UNL A   1      42.843  27.529  32.375  1.00  0.00     0.031 C 
ATOM     59  C   UNL A   1      37.755  31.109  29.356  1.00  0.00     0.029 A 
ATOM     60  C   UNL A   1      38.179  31.616  30.656  1.00  0.00     0.049 A 
ATOM     61  H   UNL A   1      39.807  30.981  31.795  1.00  0.00     0.167 HD
ATOM     62  C   UNL A   1      42.642  28.780  34.507  1.00  0.00     0.037 A 
ATOM     63  C   UNL A   1      37.583  32.608  31.342  1.00  0.00     0.037 A 
ATOM     64  C   UNL A   1      42.119  29.874  35.281  1.00  0.00     0.049 A 
ATOM     65  C   UNL A   1      38.109  32.947  32.710  1.00  0.00     0.074 A 
ATOM     66  C   UNL A   1      42.487  30.294  36.545  1.00  0.00     0.029 A 
ATOM     67  N   UNL A   1      41.137  30.749  34.834  1.00  0.00    -0.354 N 
ATOM     68  N   UNL A   1      39.032  32.328  33.410  1.00  0.00    -0.248 NA
ATOM     69  C   UNL A   1      37.523  34.112  33.384  1.00  0.00     0.031 C 
ATOM     70  C   UNL A   1      41.725  31.423  36.864  1.00  0.00     0.029 A 
ATOM     71  C   UNL A   1      40.902  31.722  35.786  1.00  0.00     0.049 A 
ATOM     72  H   UNL A   1      40.675  30.685  33.967  1.00  0.00     0.167 HD
ATOM     73  C   UNL A   1      39.163  33.048  34.590  1.00  0.00     0.074 A 
ATOM     74  C   UNL A   1      38.222  34.149  34.511  1.00  0.00     0.031 C 
ATOM     75  C   UNL A   1      39.983  32.824  35.645  1.00  0.00     0.037 A 
BRANCH  62  76
ATOM     76  C   UNL A   1      43.666  27.864  35.122  1.00  0.00     0.058 A 
ATOM     77  C   UNL A   1      45.042  28.134  35.048  1.00  0.00     0.135 A 
ATOM     78  C   UNL A   1      43.270  26.697  35.798  1.00  0.00     0.135 A 
ATOM     79  F   UNL A   1      45.482  29.228  34.406  1.00  0.00    -0.206 F 
ATOM     80  C   UNL A   1      45.989  27.259  35.572  1.00  0.00     0.059 A 
ATOM     81  C   UNL A   1      44.199  25.825  36.362  1.00  0.00     0.059 A 
ATOM     82  F   UNL A   1      41.968  26.384  35.906  1.00  0.00    -0.206 F 
ATOM     83  C   UNL A   1      45.557  26.104  36.224  1.00  0.00     0.060 A 
BRANCH  83  84
ATOM     84  S   UNL A   1      46.799  24.979  36.894  1.00  0.00     0.124 S 
ATOM     85  O   UNL A   1      47.726  25.913  37.525  1.00  0.00    -0.237 OA
ATOM     86  O   UNL A   1      46.017  24.151  37.806  1.00  0.00    -0.237 OA
ATOM     87  O   UNL A   1      47.308  24.292  35.710  1.00  0.00    -0.744 OA
ENDBRANCH  83  84
ENDBRANCH  62  76
BRANCH  63  88
ATOM     88  C   UNL A   1      36.466  33.375  30.727  1.00  0.00     0.058 A 
ATOM     89  C   UNL A   1      35.166  33.263  31.243  1.00  0.00     0.135 A 
ATOM     90  C   UNL A   1      36.670  34.265  29.661  1.00  0.00     0.135 A 
ATOM     91  F   UNL A   1      34.922  32.426  32.262  1.00  0.00    -0.206 F 
ATOM     92  C   UNL A   1      34.106  33.995  30.719  1.00  0.00     0.059 A 
ATOM     93  C   UNL A   1      35.627  35.023  29.132  1.00  0.00     0.059 A 
ATOM     94  F   UNL A   1      37.899  34.429  29.146  1.00  0.00    -0.206 F 
ATOM     95  C   UNL A   1      34.347  34.877  29.665  1.00  0.00     0.060 A 
BRANCH  95  96
ATOM     96  S   UNL A   1      32.971  35.867  29.038  1.00  0.00     0.124 S 
ATOM     97  O   UNL A   1      33.672  36.987  28.420  1.00  0.00    -0.237 OA
ATOM     98  O   UNL A   1      32.318  34.939  28.120  1.00  0.00    -0.237 OA
ATOM     99  O   UNL A   1      32.211  36.184  30.243  1.00  0.00    -0.744 OA
ENDBRANCH  95  96
ENDBRANCH  63  88
BRANCH  75 100
ATOM    100  C   UNL A   1      39.951  33.817  36.767  1.00  0.00     0.058 A 
ATOM    101  C   UNL A   1      40.697  35.003  36.718  1.00  0.00     0.135 A 
ATOM    102  C   UNL A   1      39.076  33.626  37.848  1.00  0.00     0.135 A 
ATOM    103  F   UNL A   1      41.550  35.224  35.706  1.00  0.00    -0.206 F 
ATOM    104  C   UNL A   1      40.570  35.974  37.704  1.00  0.00     0.059 A 
ATOM    105  C   UNL A   1      38.920  34.590  38.834  1.00  0.00     0.059 A 
ATOM    106  F   UNL A   1      38.339  32.506  37.931  1.00  0.00    -0.206 F 
ATOM    107  C   UNL A   1      39.672  35.762  38.753  1.00  0.00     0.060 A 
BRANCH 107 108
ATOM    108  S   UNL A   1      39.454  37.068  39.980  1.00  0.00     0.124 S 
ATOM    109  O   UNL A   1      38.727  36.364  41.031  1.00  0.00    -0.237 OA
ATOM    110  O   UNL A   1      40.832  37.432  40.296  1.00  0.00    -0.237 OA
ATOM    111  O   UNL A   1      38.693  38.085  39.262  1.00  0.00    -0.744 OA
ENDBRANCH 107 108
ENDBRANCH  75 100
ENDBRANCH  49  50
ENDBRANCH  41  44
ENDBRANCH  39  40
ENDBRANCH  38  39
ENDBRANCH   1  38
TORSDOF 19
ENDMDL
