MODEL 1
REMARK VINA RESULT:     -11.0      0.000      0.000
REMARK SMILES C=CCN(CC(=O)NCCCNC(=O)c1ccc(-c2c3nc(c(-c4c(F)cc(S(=O)(=O)[O-])cc4F)c4ccc([nH]4)c(-c4c(F)cc(S(=O)(=O)[O-])cc4F)c4nc(c(-c5c(F)cc(S(=O)(=O)[O-])cc5F)c5ccc2[nH]5)C=C4)C=C3)cc1)C(=O)c1cn(C2C[NH2+]C2)nn1
REMARK SMILES IDX 9 1 8 2 6 3 7 4 5 6 4 7 3 8 2 9 1 10 81 11 82 12 83 13 84 14
REMARK SMILES IDX 91 15 85 16 90 17 86 18 87 19 89 20 88 21 10 24 11 25 12 26
REMARK SMILES IDX 13 27 14 29 15 30 16 31 80 32 17 33 79 34 18 35 19 36 20 37
REMARK SMILES IDX 73 38 21 39 78 40 72 41 74 42 22 43 77 44 71 45 70 46 23 48
REMARK SMILES IDX 57 49 36 50 56 51 37 52 40 53 55 54 75 55 38 56 39 57 54 59
REMARK SMILES IDX 76 60 41 61 24 62 25 63 34 64 26 65 27 66 33 67 35 68 28 69
REMARK SMILES IDX 29 70 30 71 31 72 32 73 58 74 59 75 68 76 60 77 61 78 67 79
REMARK SMILES IDX 69 80 62 81 63 82 64 83 65 84 66 85 42 86 43 87 52 88 44 89
REMARK SMILES IDX 45 90 51 91 53 92 46 93 47 94 48 95 49 96 50 97
REMARK H PARENT 8 5 88 22 88 23 12 28 74 47 40 58
REMARK Flexibility Score: inf
ROOT
ATOM      1  C   UNL A   1      37.657  22.113  25.695  1.00  0.00     0.117 C 
ENDROOT
BRANCH   1   2
ATOM      2  N   UNL A   1      37.396  22.139  24.269  1.00  0.00    -0.354 N 
ATOM      3  C   UNL A   1      36.579  22.955  23.542  1.00  0.00     0.239 C 
ATOM      4  O   UNL A   1      36.792  23.022  22.328  1.00  0.00    -0.273 OA
ATOM      5  H   UNL A   1      37.883  21.463  23.744  1.00  0.00     0.163 HD
BRANCH   3   6
ATOM      6  C   UNL A   1      35.516  23.858  24.192  1.00  0.00     0.220 C 
BRANCH   6   7
ATOM      7  N   UNL A   1      34.131  23.578  23.803  1.00  0.00    -0.324 N 
BRANCH   7   8
ATOM      8  C   UNL A   1      33.251  22.953  24.781  1.00  0.00     0.147 C 
BRANCH   8   9
ATOM      9  C   UNL A   1      33.424  21.464  24.740  1.00  0.00    -0.014 C 
ATOM     10  C   UNL A   1      32.603  20.648  24.065  1.00  0.00     0.006 C 
ENDBRANCH   8   9
ENDBRANCH   7   8
BRANCH   7  11
ATOM     11  C   UNL A   1      33.555  24.044  22.612  1.00  0.00     0.276 C 
ATOM     12  O   UNL A   1      33.580  23.384  21.573  1.00  0.00    -0.267 OA
BRANCH  11  13
ATOM     13  C   UNL A   1      32.918  25.351  22.633  1.00  0.00     0.170 A 
ATOM     14  C   UNL A   1      33.339  26.500  23.273  1.00  0.00     0.145 A 
ATOM     15  N   UNL A   1      31.760  25.623  21.948  1.00  0.00    -0.125 NA
ATOM     16  N   UNL A   1      32.381  27.425  22.963  1.00  0.00    -0.237 N 
ATOM     17  N   UNL A   1      31.442  26.893  22.158  1.00  0.00    -0.066 NA
BRANCH  16  18
ATOM     18  C   UNL A   1      32.280  28.784  23.408  1.00  0.00     0.218 C 
ATOM     19  C   UNL A   1      30.814  29.242  23.585  1.00  0.00     0.294 C 
ATOM     20  C   UNL A   1      32.359  29.003  24.933  1.00  0.00     0.294 C 
ATOM     21  N   UNL A   1      31.221  29.947  24.824  1.00  0.00    -0.342 N 
ATOM     22  H   UNL A   1      30.546  29.886  25.586  1.00  0.00     0.346 HD
ATOM     23  H   UNL A   1      31.366  30.956  24.836  1.00  0.00     0.346 HD
ENDBRANCH  16  18
ENDBRANCH  11  13
ENDBRANCH   7  11
ENDBRANCH   6   7
ENDBRANCH   3   6
ENDBRANCH   1   2
BRANCH   1  24
ATOM     24  C   UNL A   1      38.291  23.387  26.244  1.00  0.00     0.042 C 
BRANCH  24  25
ATOM     25  C   UNL A   1      39.610  23.197  26.989  1.00  0.00     0.118 C 
BRANCH  25  26
ATOM     26  N   UNL A   1      40.754  23.717  26.258  1.00  0.00    -0.352 N 
ATOM     27  C   UNL A   1      41.443  24.899  26.362  1.00  0.00     0.251 C 
ATOM     28  H   UNL A   1      41.096  23.110  25.563  1.00  0.00     0.163 HD
ATOM     29  O   UNL A   1      42.274  25.159  25.492  1.00  0.00    -0.269 OA
BRANCH  27  30
ATOM     30  C   UNL A   1      41.218  25.865  27.468  1.00  0.00     0.039 A 
ATOM     31  C   UNL A   1      42.107  26.941  27.591  1.00  0.00     0.014 A 
ATOM     32  C   UNL A   1      40.222  25.690  28.433  1.00  0.00     0.014 A 
ATOM     33  C   UNL A   1      41.975  27.853  28.644  1.00  0.00     0.010 A 
ATOM     34  C   UNL A   1      40.052  26.636  29.450  1.00  0.00     0.010 A 
ATOM     35  C   UNL A   1      40.933  27.720  29.572  1.00  0.00    -0.014 A 
BRANCH  35  36
ATOM     36  C   UNL A   1      40.771  28.697  30.682  1.00  0.00     0.031 A 
ATOM     37  C   UNL A   1      41.653  28.625  31.900  1.00  0.00     0.074 A 
ATOM     38  C   UNL A   1      39.804  29.634  30.613  1.00  0.00     0.049 A 
ATOM     39  N   UNL A   1      41.628  29.361  32.983  1.00  0.00    -0.248 NA
ATOM     40  C   UNL A   1      42.685  27.578  31.911  1.00  0.00     0.031 C 
ATOM     41  C   UNL A   1      38.856  29.790  29.507  1.00  0.00     0.029 A 
ATOM     42  N   UNL A   1      39.454  30.628  31.492  1.00  0.00    -0.354 N 
ATOM     43  C   UNL A   1      42.622  28.854  33.812  1.00  0.00     0.074 A 
ATOM     44  C   UNL A   1      43.212  27.728  33.118  1.00  0.00     0.031 C 
ATOM     45  C   UNL A   1      38.048  30.832  29.765  1.00  0.00     0.029 A 
ATOM     46  C   UNL A   1      38.403  31.401  31.063  1.00  0.00     0.049 A 
ATOM     47  H   UNL A   1      39.914  30.773  32.351  1.00  0.00     0.167 HD
ATOM     48  C   UNL A   1      43.018  29.291  35.031  1.00  0.00     0.037 A 
ATOM     49  C   UNL A   1      37.792  32.451  31.646  1.00  0.00     0.037 A 
ATOM     50  C   UNL A   1      42.459  30.432  35.709  1.00  0.00     0.049 A 
ATOM     51  C   UNL A   1      38.276  32.945  32.979  1.00  0.00     0.074 A 
ATOM     52  C   UNL A   1      42.824  30.975  36.930  1.00  0.00     0.029 A 
ATOM     53  N   UNL A   1      41.423  31.212  35.221  1.00  0.00    -0.354 N 
ATOM     54  N   UNL A   1      39.240  32.472  33.731  1.00  0.00    -0.248 NA
ATOM     55  C   UNL A   1      37.596  34.122  33.538  1.00  0.00     0.031 C 
ATOM     56  C   UNL A   1      41.997  32.075  37.186  1.00  0.00     0.029 A 
ATOM     57  C   UNL A   1      41.135  32.231  36.113  1.00  0.00     0.049 A 
ATOM     58  H   UNL A   1      40.961  31.065  34.364  1.00  0.00     0.167 HD
ATOM     59  C   UNL A   1      39.297  33.305  34.842  1.00  0.00     0.074 A 
ATOM     60  C   UNL A   1      38.276  34.316  34.662  1.00  0.00     0.031 C 
ATOM     61  C   UNL A   1      40.123  33.239  35.914  1.00  0.00     0.037 A 
BRANCH  48  62
ATOM     62  C   UNL A   1      44.120  28.529  35.711  1.00  0.00     0.058 A 
ATOM     63  C   UNL A   1      45.471  28.837  35.487  1.00  0.00     0.135 A 
ATOM     64  C   UNL A   1      43.823  27.486  36.603  1.00  0.00     0.135 A 
ATOM     65  F   UNL A   1      45.807  29.815  34.631  1.00  0.00    -0.206 F 
ATOM     66  C   UNL A   1      46.492  28.117  36.099  1.00  0.00     0.059 A 
ATOM     67  C   UNL A   1      44.828  26.766  37.242  1.00  0.00     0.059 A 
ATOM     68  F   UNL A   1      42.548  27.152  36.853  1.00  0.00    -0.206 F 
ATOM     69  C   UNL A   1      46.160  27.076  36.967  1.00  0.00     0.060 A 
BRANCH  69  70
ATOM     70  S   UNL A   1      47.490  26.133  37.743  1.00  0.00     0.124 S 
ATOM     71  O   UNL A   1      48.613  27.056  37.610  1.00  0.00    -0.237 OA
ATOM     72  O   UNL A   1      46.991  25.936  39.101  1.00  0.00    -0.237 OA
ATOM     73  O   UNL A   1      47.567  24.925  36.928  1.00  0.00    -0.744 OA
ENDBRANCH  69  70
ENDBRANCH  48  62
BRANCH  49  74
ATOM     74  C   UNL A   1      36.674  33.132  30.944  1.00  0.00     0.058 A 
ATOM     75  C   UNL A   1      35.358  33.012  31.413  1.00  0.00     0.135 A 
ATOM     76  C   UNL A   1      36.902  33.933  29.816  1.00  0.00     0.135 A 
ATOM     77  F   UNL A   1      35.095  32.250  32.485  1.00  0.00    -0.206 F 
ATOM     78  C   UNL A   1      34.301  33.659  30.784  1.00  0.00     0.059 A 
ATOM     79  C   UNL A   1      35.863  34.604  29.180  1.00  0.00     0.059 A 
ATOM     80  F   UNL A   1      38.147  34.088  29.341  1.00  0.00    -0.206 F 
ATOM     81  C   UNL A   1      34.564  34.455  29.667  1.00  0.00     0.060 A 
BRANCH  81  82
ATOM     82  S   UNL A   1      33.198  35.349  28.893  1.00  0.00     0.124 S 
ATOM     83  O   UNL A   1      32.385  35.700  30.051  1.00  0.00    -0.237 OA
ATOM     84  O   UNL A   1      33.884  36.457  28.236  1.00  0.00    -0.237 OA
ATOM     85  O   UNL A   1      32.623  34.358  27.990  1.00  0.00    -0.744 OA
ENDBRANCH  81  82
ENDBRANCH  49  74
BRANCH  61  86
ATOM     86  C   UNL A   1      39.980  34.306  36.958  1.00  0.00     0.058 A 
ATOM     87  C   UNL A   1      40.740  35.484  36.913  1.00  0.00     0.135 A 
ATOM     88  C   UNL A   1      39.046  34.164  37.997  1.00  0.00     0.135 A 
ATOM     89  F   UNL A   1      41.650  35.663  35.942  1.00  0.00    -0.206 F 
ATOM     90  C   UNL A   1      40.593  36.480  37.872  1.00  0.00     0.059 A 
ATOM     91  C   UNL A   1      38.871  35.154  38.957  1.00  0.00     0.059 A 
ATOM     92  F   UNL A   1      38.291  33.057  38.080  1.00  0.00    -0.206 F 
ATOM     93  C   UNL A   1      39.656  36.304  38.894  1.00  0.00     0.060 A 
BRANCH  93  94
ATOM     94  S   UNL A   1      39.447  37.612  40.121  1.00  0.00     0.124 S 
ATOM     95  O   UNL A   1      39.108  36.843  41.314  1.00  0.00    -0.237 OA
ATOM     96  O   UNL A   1      40.760  38.251  40.132  1.00  0.00    -0.237 OA
ATOM     97  O   UNL A   1      38.368  38.424  39.566  1.00  0.00    -0.744 OA
ENDBRANCH  93  94
ENDBRANCH  61  86
ENDBRANCH  35  36
ENDBRANCH  27  30
ENDBRANCH  25  26
ENDBRANCH  24  25
ENDBRANCH   1  24
TORSDOF 19
ENDMDL
MODEL 2
REMARK VINA RESULT:     -10.7      4.627     10.133
REMARK SMILES C=CCN(CC(=O)NCCCNC(=O)c1ccc(-c2c3nc(c(-c4c(F)cc(S(=O)(=O)[O-])cc4F)c4ccc([nH]4)c(-c4c(F)cc(S(=O)(=O)[O-])cc4F)c4nc(c(-c5c(F)cc(S(=O)(=O)[O-])cc5F)c5ccc2[nH]5)C=C4)C=C3)cc1)C(=O)c1cn(C2C[NH2+]C2)nn1
REMARK SMILES IDX 9 1 8 2 6 3 7 4 5 6 4 7 3 8 2 9 1 10 81 11 82 12 83 13 84 14
REMARK SMILES IDX 91 15 85 16 90 17 86 18 87 19 89 20 88 21 10 24 11 25 12 26
REMARK SMILES IDX 13 27 14 29 15 30 16 31 80 32 17 33 79 34 18 35 19 36 20 37
REMARK SMILES IDX 73 38 21 39 78 40 72 41 74 42 22 43 77 44 71 45 70 46 23 48
REMARK SMILES IDX 57 49 36 50 56 51 37 52 40 53 55 54 75 55 38 56 39 57 54 59
REMARK SMILES IDX 76 60 41 61 24 62 25 63 34 64 26 65 27 66 33 67 35 68 28 69
REMARK SMILES IDX 29 70 30 71 31 72 32 73 58 74 59 75 68 76 60 77 61 78 67 79
REMARK SMILES IDX 69 80 62 81 63 82 64 83 65 84 66 85 42 86 43 87 52 88 44 89
REMARK SMILES IDX 45 90 51 91 53 92 46 93 47 94 48 95 49 96 50 97
REMARK H PARENT 8 5 88 22 88 23 12 28 74 47 40 58
REMARK Flexibility Score: inf
ROOT
ATOM      1  C   UNL A   1      32.268  26.060  26.076  1.00  0.00     0.117 C 
ENDROOT
BRANCH   1   2
ATOM      2  N   UNL A   1      33.553  25.414  26.261  1.00  0.00    -0.354 N 
ATOM      3  C   UNL A   1      33.983  24.186  25.851  1.00  0.00     0.239 C 
ATOM      4  O   UNL A   1      35.205  24.005  25.812  1.00  0.00    -0.273 OA
ATOM      5  H   UNL A   1      34.216  25.943  26.760  1.00  0.00     0.163 HD
BRANCH   3   6
ATOM      6  C   UNL A   1      33.024  23.099  25.335  1.00  0.00     0.220 C 
BRANCH   6   7
ATOM      7  N   UNL A   1      33.179  22.744  23.922  1.00  0.00    -0.324 N 
BRANCH   7   8
ATOM      8  C   UNL A   1      32.413  21.618  23.404  1.00  0.00     0.147 C 
BRANCH   8   9
ATOM      9  C   UNL A   1      32.862  20.351  24.068  1.00  0.00    -0.014 C 
ATOM     10  C   UNL A   1      32.449  19.135  23.684  1.00  0.00     0.006 C 
ENDBRANCH   8   9
ENDBRANCH   7   8
BRANCH   7  11
ATOM     11  C   UNL A   1      33.878  23.536  22.998  1.00  0.00     0.276 C 
ATOM     12  O   UNL A   1      34.965  23.193  22.535  1.00  0.00    -0.267 OA
BRANCH  11  13
ATOM     13  C   UNL A   1      33.278  24.799  22.598  1.00  0.00     0.170 A 
ATOM     14  C   UNL A   1      32.016  25.280  22.888  1.00  0.00     0.145 A 
ATOM     15  N   UNL A   1      33.951  25.737  21.856  1.00  0.00    -0.125 NA
ATOM     16  N   UNL A   1      31.974  26.500  22.272  1.00  0.00    -0.237 N 
ATOM     17  N   UNL A   1      33.144  26.772  21.664  1.00  0.00    -0.066 NA
BRANCH  16  18
ATOM     18  C   UNL A   1      30.878  27.420  22.196  1.00  0.00     0.218 C 
ATOM     19  C   UNL A   1      29.862  27.230  23.347  1.00  0.00     0.294 C 
ATOM     20  C   UNL A   1      31.106  28.800  22.848  1.00  0.00     0.294 C 
ATOM     21  N   UNL A   1      29.755  28.704  23.449  1.00  0.00    -0.342 N 
ATOM     22  H   UNL A   1      29.689  29.058  24.402  1.00  0.00     0.346 HD
ATOM     23  H   UNL A   1      28.961  29.206  23.051  1.00  0.00     0.346 HD
ENDBRANCH  16  18
ENDBRANCH  11  13
ENDBRANCH   7  11
ENDBRANCH   6   7
ENDBRANCH   3   6
ENDBRANCH   1   2
BRANCH   1  24
ATOM     24  C   UNL A   1      32.262  27.553  26.390  1.00  0.00     0.042 C 
BRANCH  24  25
ATOM     25  C   UNL A   1      33.561  28.109  26.968  1.00  0.00     0.118 C 
BRANCH  25  26
ATOM     26  N   UNL A   1      33.449  29.497  27.383  1.00  0.00    -0.352 N 
ATOM     27  C   UNL A   1      34.337  30.338  28.004  1.00  0.00     0.251 C 
ATOM     28  H   UNL A   1      32.577  29.908  27.182  1.00  0.00     0.163 HD
ATOM     29  O   UNL A   1      33.918  31.426  28.402  1.00  0.00    -0.269 OA
BRANCH  27  30
ATOM     30  C   UNL A   1      35.763  29.984  28.218  1.00  0.00     0.039 A 
ATOM     31  C   UNL A   1      36.158  29.601  29.507  1.00  0.00     0.014 A 
ATOM     32  C   UNL A   1      36.731  30.110  27.218  1.00  0.00     0.014 A 
ATOM     33  C   UNL A   1      37.499  29.307  29.779  1.00  0.00     0.010 A 
ATOM     34  C   UNL A   1      38.060  29.756  27.474  1.00  0.00     0.010 A 
ATOM     35  C   UNL A   1      38.460  29.362  28.760  1.00  0.00    -0.014 A 
BRANCH  35  36
ATOM     36  C   UNL A   1      39.884  29.029  29.034  1.00  0.00     0.031 A 
ATOM     37  C   UNL A   1      40.797  30.041  29.674  1.00  0.00     0.074 A 
ATOM     38  C   UNL A   1      40.370  27.824  28.675  1.00  0.00     0.049 A 
ATOM     39  N   UNL A   1      42.073  29.946  29.948  1.00  0.00    -0.248 NA
ATOM     40  C   UNL A   1      40.201  31.336  30.038  1.00  0.00     0.031 C 
ATOM     41  C   UNL A   1      39.604  26.766  28.013  1.00  0.00     0.029 A 
ATOM     42  N   UNL A   1      41.626  27.288  28.812  1.00  0.00    -0.354 N 
ATOM     43  C   UNL A   1      42.439  31.171  30.493  1.00  0.00     0.074 A 
ATOM     44  C   UNL A   1      41.255  32.004  30.484  1.00  0.00     0.031 C 
ATOM     45  C   UNL A   1      40.401  25.702  27.821  1.00  0.00     0.029 A 
ATOM     46  C   UNL A   1      41.738  26.009  28.323  1.00  0.00     0.049 A 
ATOM     47  H   UNL A   1      42.377  27.775  29.223  1.00  0.00     0.167 HD
ATOM     48  C   UNL A   1      43.645  31.564  30.970  1.00  0.00     0.037 A 
ATOM     49  C   UNL A   1      42.794  25.175  28.283  1.00  0.00     0.037 A 
ATOM     50  C   UNL A   1      44.816  30.727  31.014  1.00  0.00     0.049 A 
ATOM     51  C   UNL A   1      44.110  25.617  28.858  1.00  0.00     0.074 A 
ATOM     52  C   UNL A   1      46.071  31.026  31.517  1.00  0.00     0.029 A 
ATOM     53  N   UNL A   1      44.874  29.424  30.546  1.00  0.00    -0.354 N 
ATOM     54  N   UNL A   1      44.427  26.767  29.399  1.00  0.00    -0.248 NA
ATOM     55  C   UNL A   1      45.211  24.643  28.823  1.00  0.00     0.031 C 
ATOM     56  C   UNL A   1      46.893  29.906  31.339  1.00  0.00     0.029 A 
ATOM     57  C   UNL A   1      46.142  28.904  30.748  1.00  0.00     0.049 A 
ATOM     58  H   UNL A   1      44.124  28.938  30.132  1.00  0.00     0.167 HD
ATOM     59  C   UNL A   1      45.756  26.650  29.790  1.00  0.00     0.074 A 
ATOM     60  C   UNL A   1      46.182  25.314  29.430  1.00  0.00     0.031 C 
ATOM     61  C   UNL A   1      46.549  27.567  30.395  1.00  0.00     0.037 A 
BRANCH  48  62
ATOM     62  C   UNL A   1      43.753  32.969  31.491  1.00  0.00     0.058 A 
ATOM     63  C   UNL A   1      43.578  33.262  32.853  1.00  0.00     0.135 A 
ATOM     64  C   UNL A   1      44.046  34.032  30.622  1.00  0.00     0.135 A 
ATOM     65  F   UNL A   1      43.281  32.282  33.721  1.00  0.00    -0.206 F 
ATOM     66  C   UNL A   1      43.657  34.566  33.331  1.00  0.00     0.059 A 
ATOM     67  C   UNL A   1      44.150  35.342  31.083  1.00  0.00     0.059 A 
ATOM     68  F   UNL A   1      44.224  33.806  29.311  1.00  0.00    -0.206 F 
ATOM     69  C   UNL A   1      43.934  35.600  32.436  1.00  0.00     0.060 A 
BRANCH  69  70
ATOM     70  S   UNL A   1      44.016  37.293  33.060  1.00  0.00     0.124 S 
ATOM     71  O   UNL A   1      43.891  38.061  31.826  1.00  0.00    -0.237 OA
ATOM     72  O   UNL A   1      42.870  37.356  33.963  1.00  0.00    -0.237 OA
ATOM     73  O   UNL A   1      45.322  37.350  33.708  1.00  0.00    -0.744 OA
ENDBRANCH  69  70
ENDBRANCH  48  62
BRANCH  49  74
ATOM     74  C   UNL A   1      42.635  23.814  27.710  1.00  0.00     0.058 A 
ATOM     75  C   UNL A   1      42.699  23.612  26.324  1.00  0.00     0.135 A 
ATOM     76  C   UNL A   1      42.445  22.694  28.532  1.00  0.00     0.135 A 
ATOM     77  F   UNL A   1      42.873  24.656  25.500  1.00  0.00    -0.206 F 
ATOM     78  C   UNL A   1      42.574  22.343  25.769  1.00  0.00     0.059 A 
ATOM     79  C   UNL A   1      42.335  21.413  28.001  1.00  0.00     0.059 A 
ATOM     80  F   UNL A   1      42.393  22.839  29.865  1.00  0.00    -0.206 F 
ATOM     81  C   UNL A   1      42.393  21.249  26.617  1.00  0.00     0.060 A 
BRANCH  81  82
ATOM     82  S   UNL A   1      42.301  19.595  25.897  1.00  0.00     0.124 S 
ATOM     83  O   UNL A   1      40.905  19.534  25.482  1.00  0.00    -0.237 OA
ATOM     84  O   UNL A   1      43.284  19.668  24.821  1.00  0.00    -0.237 OA
ATOM     85  O   UNL A   1      42.670  18.728  27.011  1.00  0.00    -0.744 OA
ENDBRANCH  81  82
ENDBRANCH  49  74
BRANCH  61  86
ATOM     86  C   UNL A   1      47.948  27.146  30.736  1.00  0.00     0.058 A 
ATOM     87  C   UNL A   1      48.230  26.402  31.892  1.00  0.00     0.135 A 
ATOM     88  C   UNL A   1      49.014  27.460  29.877  1.00  0.00     0.135 A 
ATOM     89  F   UNL A   1      47.245  26.083  32.746  1.00  0.00    -0.206 F 
ATOM     90  C   UNL A   1      49.525  25.998  32.196  1.00  0.00     0.059 A 
ATOM     91  C   UNL A   1      50.314  27.052  30.154  1.00  0.00     0.059 A 
ATOM     92  F   UNL A   1      48.793  28.164  28.756  1.00  0.00    -0.206 F 
ATOM     93  C   UNL A   1      50.563  26.331  31.321  1.00  0.00     0.060 A 
BRANCH  93  94
ATOM     94  S   UNL A   1      52.239  25.780  31.705  1.00  0.00     0.124 S 
ATOM     95  O   UNL A   1      52.006  24.403  32.128  1.00  0.00    -0.237 OA
ATOM     96  O   UNL A   1      52.928  25.942  30.428  1.00  0.00    -0.237 OA
ATOM     97  O   UNL A   1      52.662  26.699  32.757  1.00  0.00    -0.744 OA
ENDBRANCH  93  94
ENDBRANCH  61  86
ENDBRANCH  35  36
ENDBRANCH  27  30
ENDBRANCH  25  26
ENDBRANCH  24  25
ENDBRANCH   1  24
TORSDOF 19
ENDMDL
MODEL 3
REMARK VINA RESULT:     -10.6      1.866      3.972
REMARK SMILES C=CCN(CC(=O)NCCCNC(=O)c1ccc(-c2c3nc(c(-c4c(F)cc(S(=O)(=O)[O-])cc4F)c4ccc([nH]4)c(-c4c(F)cc(S(=O)(=O)[O-])cc4F)c4nc(c(-c5c(F)cc(S(=O)(=O)[O-])cc5F)c5ccc2[nH]5)C=C4)C=C3)cc1)C(=O)c1cn(C2C[NH2+]C2)nn1
REMARK SMILES IDX 9 1 8 2 6 3 7 4 5 6 4 7 3 8 2 9 1 10 81 11 82 12 83 13 84 14
REMARK SMILES IDX 91 15 85 16 90 17 86 18 87 19 89 20 88 21 10 24 11 25 12 26
REMARK SMILES IDX 13 27 14 29 15 30 16 31 80 32 17 33 79 34 18 35 19 36 20 37
REMARK SMILES IDX 73 38 21 39 78 40 72 41 74 42 22 43 77 44 71 45 70 46 23 48
REMARK SMILES IDX 57 49 36 50 56 51 37 52 40 53 55 54 75 55 38 56 39 57 54 59
REMARK SMILES IDX 76 60 41 61 24 62 25 63 34 64 26 65 27 66 33 67 35 68 28 69
REMARK SMILES IDX 29 70 30 71 31 72 32 73 58 74 59 75 68 76 60 77 61 78 67 79
REMARK SMILES IDX 69 80 62 81 63 82 64 83 65 84 66 85 42 86 43 87 52 88 44 89
REMARK SMILES IDX 45 90 51 91 53 92 46 93 47 94 48 95 49 96 50 97
REMARK H PARENT 8 5 88 22 88 23 12 28 74 47 40 58
REMARK Flexibility Score: inf
ROOT
ATOM      1  C   UNL A   1      37.161  23.663  25.721  1.00  0.00     0.117 C 
ENDROOT
BRANCH   1   2
ATOM      2  N   UNL A   1      36.053  23.165  26.513  1.00  0.00    -0.354 N 
ATOM      3  C   UNL A   1      35.013  22.359  26.155  1.00  0.00     0.239 C 
ATOM      4  O   UNL A   1      34.406  21.790  27.067  1.00  0.00    -0.273 OA
ATOM      5  H   UNL A   1      36.051  23.454  27.454  1.00  0.00     0.163 HD
BRANCH   3   6
ATOM      6  C   UNL A   1      34.666  22.054  24.687  1.00  0.00     0.220 C 
BRANCH   6   7
ATOM      7  N   UNL A   1      33.244  22.148  24.345  1.00  0.00    -0.324 N 
BRANCH   7   8
ATOM      8  C   UNL A   1      32.565  23.420  24.555  1.00  0.00     0.147 C 
BRANCH   8   9
ATOM      9  C   UNL A   1      33.193  24.478  23.698  1.00  0.00    -0.014 C 
ATOM     10  C   UNL A   1      33.560  24.270  22.426  1.00  0.00     0.006 C 
ENDBRANCH   8   9
ENDBRANCH   7   8
BRANCH   7  11
ATOM     11  C   UNL A   1      32.547  21.143  23.657  1.00  0.00     0.276 C 
ATOM     12  O   UNL A   1      31.910  21.377  22.629  1.00  0.00    -0.267 OA
BRANCH  11  13
ATOM     13  C   UNL A   1      32.589  19.795  24.200  1.00  0.00     0.170 A 
ATOM     14  C   UNL A   1      32.975  18.629  23.569  1.00  0.00     0.145 A 
ATOM     15  N   UNL A   1      32.254  19.508  25.500  1.00  0.00    -0.125 NA
ATOM     16  N   UNL A   1      32.826  17.665  24.529  1.00  0.00    -0.237 N 
ATOM     17  N   UNL A   1      32.403  18.204  25.688  1.00  0.00    -0.066 NA
BRANCH  16  18
ATOM     18  C   UNL A   1      33.031  16.252  24.409  1.00  0.00     0.218 C 
ATOM     19  C   UNL A   1      34.285  15.767  25.173  1.00  0.00     0.294 C 
ATOM     20  C   UNL A   1      32.275  15.371  25.426  1.00  0.00     0.294 C 
ATOM     21  N   UNL A   1      33.514  14.581  25.614  1.00  0.00    -0.342 N 
ATOM     22  H   UNL A   1      33.692  14.295  26.576  1.00  0.00     0.346 HD
ATOM     23  H   UNL A   1      33.637  13.673  25.166  1.00  0.00     0.346 HD
ENDBRANCH  16  18
ENDBRANCH  11  13
ENDBRANCH   7  11
ENDBRANCH   6   7
ENDBRANCH   3   6
ENDBRANCH   1   2
BRANCH   1  24
ATOM     24  C   UNL A   1      38.454  22.869  25.876  1.00  0.00     0.042 C 
BRANCH  24  25
ATOM     25  C   UNL A   1      39.490  23.475  26.820  1.00  0.00     0.118 C 
BRANCH  25  26
ATOM     26  N   UNL A   1      40.724  23.843  26.148  1.00  0.00    -0.352 N 
ATOM     27  C   UNL A   1      41.564  24.916  26.307  1.00  0.00     0.251 C 
ATOM     28  H   UNL A   1      41.008  23.207  25.453  1.00  0.00     0.163 HD
ATOM     29  O   UNL A   1      42.459  25.074  25.476  1.00  0.00    -0.269 OA
BRANCH  27  30
ATOM     30  C   UNL A   1      41.428  25.884  27.425  1.00  0.00     0.039 A 
ATOM     31  C   UNL A   1      40.400  25.675  28.353  1.00  0.00     0.014 A 
ATOM     32  C   UNL A   1      42.218  27.033  27.529  1.00  0.00     0.014 A 
ATOM     33  C   UNL A   1      40.192  26.584  29.397  1.00  0.00     0.010 A 
ATOM     34  C   UNL A   1      42.050  27.908  28.607  1.00  0.00     0.010 A 
ATOM     35  C   UNL A   1      41.029  27.699  29.546  1.00  0.00    -0.014 A 
BRANCH  35  36
ATOM     36  C   UNL A   1      40.830  28.658  30.665  1.00  0.00     0.031 A 
ATOM     37  C   UNL A   1      41.680  28.576  31.905  1.00  0.00     0.074 A 
ATOM     38  C   UNL A   1      39.858  29.589  30.583  1.00  0.00     0.049 A 
ATOM     39  N   UNL A   1      41.622  29.296  32.997  1.00  0.00    -0.248 NA
ATOM     40  C   UNL A   1      42.721  27.536  31.928  1.00  0.00     0.031 C 
ATOM     41  C   UNL A   1      38.939  29.755  29.455  1.00  0.00     0.029 A 
ATOM     42  N   UNL A   1      39.478  30.568  31.467  1.00  0.00    -0.354 N 
ATOM     43  C   UNL A   1      42.597  28.784  33.844  1.00  0.00     0.074 A 
ATOM     44  C   UNL A   1      43.214  27.673  33.150  1.00  0.00     0.031 C 
ATOM     45  C   UNL A   1      38.116  30.786  29.707  1.00  0.00     0.029 A 
ATOM     46  C   UNL A   1      38.432  31.339  31.022  1.00  0.00     0.049 A 
ATOM     47  H   UNL A   1      39.914  30.704  32.339  1.00  0.00     0.167 HD
ATOM     48  C   UNL A   1      42.958  29.207  35.079  1.00  0.00     0.037 A 
ATOM     49  C   UNL A   1      37.798  32.376  31.602  1.00  0.00     0.037 A 
ATOM     50  C   UNL A   1      42.373  30.334  35.759  1.00  0.00     0.049 A 
ATOM     51  C   UNL A   1      38.244  32.854  32.955  1.00  0.00     0.074 A 
ATOM     52  C   UNL A   1      42.701  30.862  36.996  1.00  0.00     0.029 A 
ATOM     53  N   UNL A   1      41.344  31.113  35.254  1.00  0.00    -0.354 N 
ATOM     54  N   UNL A   1      39.191  32.378  33.725  1.00  0.00    -0.248 NA
ATOM     55  C   UNL A   1      37.540  34.019  33.513  1.00  0.00     0.031 C 
ATOM     56  C   UNL A   1      41.860  31.952  37.245  1.00  0.00     0.029 A 
ATOM     57  C   UNL A   1      41.025  32.117  36.153  1.00  0.00     0.049 A 
ATOM     58  H   UNL A   1      40.905  30.974  34.383  1.00  0.00     0.167 HD
ATOM     59  C   UNL A   1      39.213  33.196  34.849  1.00  0.00     0.074 A 
ATOM     60  C   UNL A   1      38.189  34.202  34.656  1.00  0.00     0.031 C 
ATOM     61  C   UNL A   1      40.011  33.120  35.942  1.00  0.00     0.037 A 
BRANCH  48  62
ATOM     62  C   UNL A   1      44.048  28.443  35.777  1.00  0.00     0.058 A 
ATOM     63  C   UNL A   1      45.396  28.818  35.660  1.00  0.00     0.135 A 
ATOM     64  C   UNL A   1      43.741  27.331  36.578  1.00  0.00     0.135 A 
ATOM     65  F   UNL A   1      45.742  29.863  34.894  1.00  0.00    -0.206 F 
ATOM     66  C   UNL A   1      46.407  28.097  36.288  1.00  0.00     0.059 A 
ATOM     67  C   UNL A   1      44.735  26.608  37.231  1.00  0.00     0.059 A 
ATOM     68  F   UNL A   1      42.468  26.932  36.723  1.00  0.00    -0.206 F 
ATOM     69  C   UNL A   1      46.067  26.988  37.064  1.00  0.00     0.060 A 
BRANCH  69  70
ATOM     70  S   UNL A   1      47.385  26.045  37.860  1.00  0.00     0.124 S 
ATOM     71  O   UNL A   1      46.724  25.602  39.084  1.00  0.00    -0.237 OA
ATOM     72  O   UNL A   1      47.668  25.001  36.881  1.00  0.00    -0.237 OA
ATOM     73  O   UNL A   1      48.444  27.033  38.040  1.00  0.00    -0.744 OA
ENDBRANCH  69  70
ENDBRANCH  48  62
BRANCH  49  74
ATOM     74  C   UNL A   1      36.694  33.059  30.881  1.00  0.00     0.058 A 
ATOM     75  C   UNL A   1      36.967  33.940  29.826  1.00  0.00     0.135 A 
ATOM     76  C   UNL A   1      35.352  32.823  31.213  1.00  0.00     0.135 A 
ATOM     77  F   UNL A   1      38.238  34.199  29.480  1.00  0.00    -0.206 F 
ATOM     78  C   UNL A   1      35.947  34.572  29.124  1.00  0.00     0.059 A 
ATOM     79  C   UNL A   1      34.314  33.431  30.514  1.00  0.00     0.059 A 
ATOM     80  F   UNL A   1      35.043  31.976  32.207  1.00  0.00    -0.206 F 
ATOM     81  C   UNL A   1      34.621  34.310  29.476  1.00  0.00     0.060 A 
BRANCH  81  82
ATOM     82  S   UNL A   1      33.298  35.079  28.518  1.00  0.00     0.124 S 
ATOM     83  O   UNL A   1      32.724  33.927  27.833  1.00  0.00    -0.237 OA
ATOM     84  O   UNL A   1      32.469  35.681  29.558  1.00  0.00    -0.237 OA
ATOM     85  O   UNL A   1      34.011  36.030  27.671  1.00  0.00    -0.744 OA
ENDBRANCH  81  82
ENDBRANCH  49  74
BRANCH  61  86
ATOM     86  C   UNL A   1      39.833  34.171  36.996  1.00  0.00     0.058 A 
ATOM     87  C   UNL A   1      38.972  33.977  38.088  1.00  0.00     0.135 A 
ATOM     88  C   UNL A   1      40.558  35.372  36.934  1.00  0.00     0.135 A 
ATOM     89  F   UNL A   1      38.253  32.848  38.188  1.00  0.00    -0.206 F 
ATOM     90  C   UNL A   1      38.822  34.946  39.074  1.00  0.00     0.059 A 
ATOM     91  C   UNL A   1      40.436  36.347  37.918  1.00  0.00     0.059 A 
ATOM     92  F   UNL A   1      41.399  35.601  35.913  1.00  0.00    -0.206 F 
ATOM     93  C   UNL A   1      39.557  36.131  38.979  1.00  0.00     0.060 A 
BRANCH  93  94
ATOM     94  S   UNL A   1      39.381  37.374  40.276  1.00  0.00     0.124 S 
ATOM     95  O   UNL A   1      40.765  37.786  40.477  1.00  0.00    -0.237 OA
ATOM     96  O   UNL A   1      38.510  38.365  39.651  1.00  0.00    -0.237 OA
ATOM     97  O   UNL A   1      38.778  36.628  41.377  1.00  0.00    -0.744 OA
ENDBRANCH  93  94
ENDBRANCH  61  86
ENDBRANCH  35  36
ENDBRANCH  27  30
ENDBRANCH  25  26
ENDBRANCH  24  25
ENDBRANCH   1  24
TORSDOF 19
ENDMDL
