MODEL 1
REMARK VINA RESULT:     -11.6      0.000      0.000
REMARK SMILES C[C@H](NC(=O)N(CC(=O)NCCCNC(=O)c1ccc(-c2c3nc(c(-c4c(F)cc(S(=O)(=O)[O-])cc4F)c4ccc([nH]4)c(-c4c(F)cc(S(=O)(=O)[O-])cc4F)c4nc(c(-c5c(F)cc(S(=O)(=O)[O-])cc5F)c5ccc2[nH]5)C=C4)C=C3)cc1)C(C)(C)C)c1nncn1C
REMARK SMILES IDX 11 1 10 2 8 3 9 4 7 6 6 7 4 8 3 9 5 11 2 12 1 13 87 14 88 15
REMARK SMILES IDX 91 16 89 17 90 18 92 19 83 20 84 21 85 22 86 23 12 24 13 25
REMARK SMILES IDX 14 26 15 27 16 29 17 30 18 31 82 32 19 33 81 34 20 35 21 36
REMARK SMILES IDX 22 37 75 38 23 39 80 40 74 41 76 42 24 43 79 44 73 45 72 46
REMARK SMILES IDX 25 48 59 49 38 50 58 51 39 52 42 53 57 54 77 55 40 56 41 57
REMARK SMILES IDX 56 59 78 60 43 61 26 62 27 63 36 64 28 65 29 66 35 67 37 68
REMARK SMILES IDX 30 69 31 70 32 71 33 72 34 73 60 74 61 75 70 76 62 77 63 78
REMARK SMILES IDX 69 79 71 80 64 81 65 82 66 83 67 84 68 85 44 86 45 87 54 88
REMARK SMILES IDX 46 89 47 90 53 91 55 92 48 93 49 94 50 95 51 96 52 97
REMARK H PARENT 10 5 3 10 14 28 76 47 42 58
REMARK Flexibility Score: inf
ROOT
ATOM      1  C   UNL A   1      36.726  23.132  25.721  1.00  0.00     0.117 C 
ENDROOT
BRANCH   1   2
ATOM      2  N   UNL A   1      35.802  22.653  26.727  1.00  0.00    -0.354 N 
ATOM      3  C   UNL A   1      34.485  22.935  26.916  1.00  0.00     0.239 C 
ATOM      4  O   UNL A   1      33.888  22.308  27.795  1.00  0.00    -0.273 OA
ATOM      5  H   UNL A   1      36.188  22.024  27.378  1.00  0.00     0.163 HD
BRANCH   3   6
ATOM      6  C   UNL A   1      33.726  23.853  25.952  1.00  0.00     0.221 C 
BRANCH   6   7
ATOM      7  N   UNL A   1      32.592  23.308  25.187  1.00  0.00    -0.311 N 
BRANCH   7   8
ATOM      8  C   UNL A   1      31.271  23.388  25.563  1.00  0.00     0.318 C 
ATOM      9  N   UNL A   1      30.481  24.470  25.396  1.00  0.00    -0.328 N 
ATOM     10  H   UNL A   1      29.586  24.320  25.780  1.00  0.00     0.166 HD
ATOM     11  O   UNL A   1      30.660  22.435  26.056  1.00  0.00    -0.249 OA
BRANCH   9  12
ATOM     12  C   UNL A   1      30.584  25.801  24.805  1.00  0.00     0.149 C 
ATOM     13  C   UNL A   1      29.249  26.206  24.160  1.00  0.00     0.040 C 
BRANCH  12  14
ATOM     14  C   UNL A   1      31.065  26.893  25.740  1.00  0.00     0.154 A 
ATOM     15  N   UNL A   1      30.968  26.774  27.058  1.00  0.00    -0.133 NA
ATOM     16  N   UNL A   1      31.537  28.160  25.480  1.00  0.00    -0.319 N 
ATOM     17  N   UNL A   1      31.421  27.916  27.653  1.00  0.00    -0.139 NA
ATOM     18  C   UNL A   1      31.763  28.740  26.697  1.00  0.00     0.225 A 
ATOM     19  C   UNL A   1      31.750  28.843  24.232  1.00  0.00     0.152 C 
ENDBRANCH  12  14
ENDBRANCH   9  12
ENDBRANCH   7   8
BRANCH   7  20
ATOM     20  C   UNL A   1      32.930  22.547  23.905  1.00  0.00     0.037 C 
ATOM     21  C   UNL A   1      34.139  23.164  23.174  1.00  0.00     0.034 C 
ATOM     22  C   UNL A   1      33.224  21.056  24.212  1.00  0.00     0.034 C 
ATOM     23  C   UNL A   1      31.773  22.515  22.868  1.00  0.00     0.034 C 
ENDBRANCH   7  20
ENDBRANCH   6   7
ENDBRANCH   3   6
ENDBRANCH   1   2
BRANCH   1  24
ATOM     24  C   UNL A   1      38.166  22.756  26.031  1.00  0.00     0.042 C 
BRANCH  24  25
ATOM     25  C   UNL A   1      38.949  23.883  26.690  1.00  0.00     0.118 C 
BRANCH  25  26
ATOM     26  N   UNL A   1      40.271  24.038  26.101  1.00  0.00    -0.352 N 
ATOM     27  C   UNL A   1      41.170  25.062  26.261  1.00  0.00     0.251 C 
ATOM     28  H   UNL A   1      40.559  23.309  25.507  1.00  0.00     0.163 HD
ATOM     29  O   UNL A   1      42.125  25.159  25.498  1.00  0.00    -0.269 OA
BRANCH  27  30
ATOM     30  C   UNL A   1      40.967  26.047  27.343  1.00  0.00     0.039 A 
ATOM     31  C   UNL A   1      40.014  25.786  28.328  1.00  0.00     0.014 A 
ATOM     32  C   UNL A   1      41.715  27.228  27.379  1.00  0.00     0.014 A 
ATOM     33  C   UNL A   1      39.846  26.690  29.378  1.00  0.00     0.010 A 
ATOM     34  C   UNL A   1      41.607  28.082  28.469  1.00  0.00     0.010 A 
ATOM     35  C   UNL A   1      40.661  27.831  29.472  1.00  0.00    -0.014 A 
BRANCH  35  36
ATOM     36  C   UNL A   1      40.520  28.780  30.605  1.00  0.00     0.031 A 
ATOM     37  C   UNL A   1      41.388  28.630  31.826  1.00  0.00     0.074 A 
ATOM     38  C   UNL A   1      39.580  29.744  30.551  1.00  0.00     0.049 A 
ATOM     39  N   UNL A   1      41.390  29.334  32.927  1.00  0.00    -0.248 NA
ATOM     40  C   UNL A   1      42.361  27.525  31.821  1.00  0.00     0.031 C 
ATOM     41  C   UNL A   1      38.643  29.952  29.444  1.00  0.00     0.029 A 
ATOM     42  N   UNL A   1      39.253  30.728  31.449  1.00  0.00    -0.354 N 
ATOM     43  C   UNL A   1      42.351  28.754  33.746  1.00  0.00     0.074 A 
ATOM     44  C   UNL A   1      42.870  27.603  33.042  1.00  0.00     0.031 C 
ATOM     45  C   UNL A   1      37.868  31.014  29.715  1.00  0.00     0.029 A 
ATOM     46  C   UNL A   1      38.225  31.540  31.030  1.00  0.00     0.049 A 
ATOM     47  H   UNL A   1      39.710  30.842  32.313  1.00  0.00     0.167 HD
ATOM     48  C   UNL A   1      42.784  29.160  34.964  1.00  0.00     0.037 A 
ATOM     49  C   UNL A   1      37.633  32.586  31.638  1.00  0.00     0.037 A 
ATOM     50  C   UNL A   1      42.279  30.323  35.645  1.00  0.00     0.049 A 
ATOM     51  C   UNL A   1      38.132  33.020  32.991  1.00  0.00     0.074 A 
ATOM     52  C   UNL A   1      42.691  30.858  36.853  1.00  0.00     0.029 A 
ATOM     53  N   UNL A   1      41.251  31.130  35.181  1.00  0.00    -0.354 N 
ATOM     54  N   UNL A   1      39.094  32.503  33.719  1.00  0.00    -0.248 NA
ATOM     55  C   UNL A   1      37.472  34.181  33.601  1.00  0.00     0.031 C 
ATOM     56  C   UNL A   1      41.879  31.958  37.144  1.00  0.00     0.029 A 
ATOM     57  C   UNL A   1      40.998  32.145  36.090  1.00  0.00     0.049 A 
ATOM     58  H   UNL A   1      40.772  31.002  34.331  1.00  0.00     0.167 HD
ATOM     59  C   UNL A   1      39.174  33.294  34.860  1.00  0.00     0.074 A 
ATOM     60  C   UNL A   1      38.173  34.331  34.718  1.00  0.00     0.031 C 
ATOM     61  C   UNL A   1      40.001  33.174  35.928  1.00  0.00     0.037 A 
BRANCH  48  62
ATOM     62  C   UNL A   1      43.860  28.347  35.633  1.00  0.00     0.058 A 
ATOM     63  C   UNL A   1      43.552  27.323  36.544  1.00  0.00     0.135 A 
ATOM     64  C   UNL A   1      45.213  28.568  35.330  1.00  0.00     0.135 A 
ATOM     65  F   UNL A   1      42.276  27.079  36.883  1.00  0.00    -0.206 F 
ATOM     66  C   UNL A   1      44.549  26.566  37.152  1.00  0.00     0.059 A 
ATOM     67  C   UNL A   1      46.224  27.802  35.904  1.00  0.00     0.059 A 
ATOM     68  F   UNL A   1      45.564  29.534  34.469  1.00  0.00    -0.206 F 
ATOM     69  C   UNL A   1      45.883  26.811  36.824  1.00  0.00     0.060 A 
BRANCH  69  70
ATOM     70  S   UNL A   1      47.160  25.811  37.613  1.00  0.00     0.124 S 
ATOM     71  O   UNL A   1      48.370  26.539  37.244  1.00  0.00    -0.237 OA
ATOM     72  O   UNL A   1      46.783  25.882  39.022  1.00  0.00    -0.237 OA
ATOM     73  O   UNL A   1      47.002  24.501  36.990  1.00  0.00    -0.744 OA
ENDBRANCH  69  70
ENDBRANCH  48  62
BRANCH  49  74
ATOM     74  C   UNL A   1      36.521  33.308  30.964  1.00  0.00     0.058 A 
ATOM     75  C   UNL A   1      36.761  34.136  29.856  1.00  0.00     0.135 A 
ATOM     76  C   UNL A   1      35.195  33.179  31.406  1.00  0.00     0.135 A 
ATOM     77  F   UNL A   1      38.011  34.296  29.398  1.00  0.00    -0.206 F 
ATOM     78  C   UNL A   1      35.732  34.825  29.224  1.00  0.00     0.059 A 
ATOM     79  C   UNL A   1      34.145  33.835  30.773  1.00  0.00     0.059 A 
ATOM     80  F   UNL A   1      34.908  32.385  32.450  1.00  0.00    -0.206 F 
ATOM     81  C   UNL A   1      34.425  34.666  29.688  1.00  0.00     0.060 A 
BRANCH  81  82
ATOM     82  S   UNL A   1      33.091  35.531  28.832  1.00  0.00     0.124 S 
ATOM     83  O   UNL A   1      33.831  36.525  28.064  1.00  0.00    -0.237 OA
ATOM     84  O   UNL A   1      32.475  34.455  28.062  1.00  0.00    -0.237 OA
ATOM     85  O   UNL A   1      32.276  36.056  29.924  1.00  0.00    -0.744 OA
ENDBRANCH  81  82
ENDBRANCH  49  74
BRANCH  61  86
ATOM     86  C   UNL A   1      39.884  34.207  37.014  1.00  0.00     0.058 A 
ATOM     87  C   UNL A   1      40.427  35.494  36.873  1.00  0.00     0.135 A 
ATOM     88  C   UNL A   1      39.171  33.922  38.191  1.00  0.00     0.135 A 
ATOM     89  F   UNL A   1      41.123  35.817  35.771  1.00  0.00    -0.206 F 
ATOM     90  C   UNL A   1      40.289  36.454  37.870  1.00  0.00     0.059 A 
ATOM     91  C   UNL A   1      38.993  34.877  39.186  1.00  0.00     0.059 A 
ATOM     92  F   UNL A   1      38.622  32.710  38.372  1.00  0.00    -0.206 F 
ATOM     93  C   UNL A   1      39.567  36.136  39.022  1.00  0.00     0.060 A 
BRANCH  93  94
ATOM     94  S   UNL A   1      39.366  37.403  40.292  1.00  0.00     0.124 S 
ATOM     95  O   UNL A   1      38.585  38.410  39.581  1.00  0.00    -0.237 OA
ATOM     96  O   UNL A   1      38.659  36.680  41.346  1.00  0.00    -0.237 OA
ATOM     97  O   UNL A   1      40.738  37.784  40.612  1.00  0.00    -0.744 OA
ENDBRANCH  93  94
ENDBRANCH  61  86
ENDBRANCH  35  36
ENDBRANCH  27  30
ENDBRANCH  25  26
ENDBRANCH  24  25
ENDBRANCH   1  24
TORSDOF 18
ENDMDL
MODEL 2
REMARK VINA RESULT:     -11.4      6.730     12.119
REMARK SMILES C[C@H](NC(=O)N(CC(=O)NCCCNC(=O)c1ccc(-c2c3nc(c(-c4c(F)cc(S(=O)(=O)[O-])cc4F)c4ccc([nH]4)c(-c4c(F)cc(S(=O)(=O)[O-])cc4F)c4nc(c(-c5c(F)cc(S(=O)(=O)[O-])cc5F)c5ccc2[nH]5)C=C4)C=C3)cc1)C(C)(C)C)c1nncn1C
REMARK SMILES IDX 11 1 10 2 8 3 9 4 7 6 6 7 4 8 3 9 5 11 2 12 1 13 87 14 88 15
REMARK SMILES IDX 91 16 89 17 90 18 92 19 83 20 84 21 85 22 86 23 12 24 13 25
REMARK SMILES IDX 14 26 15 27 16 29 17 30 18 31 82 32 19 33 81 34 20 35 21 36
REMARK SMILES IDX 22 37 75 38 23 39 80 40 74 41 76 42 24 43 79 44 73 45 72 46
REMARK SMILES IDX 25 48 59 49 38 50 58 51 39 52 42 53 57 54 77 55 40 56 41 57
REMARK SMILES IDX 56 59 78 60 43 61 26 62 27 63 36 64 28 65 29 66 35 67 37 68
REMARK SMILES IDX 30 69 31 70 32 71 33 72 34 73 60 74 61 75 70 76 62 77 63 78
REMARK SMILES IDX 69 79 71 80 64 81 65 82 66 83 67 84 68 85 44 86 45 87 54 88
REMARK SMILES IDX 46 89 47 90 53 91 55 92 48 93 49 94 50 95 51 96 52 97
REMARK H PARENT 10 5 3 10 14 28 76 47 42 58
REMARK Flexibility Score: inf
ROOT
ATOM      1  C   UNL A   1      33.301  29.474  26.167  1.00  0.00     0.117 C 
ENDROOT
BRANCH   1   2
ATOM      2  N   UNL A   1      33.803  29.425  24.810  1.00  0.00    -0.354 N 
ATOM      3  C   UNL A   1      33.869  28.386  23.934  1.00  0.00     0.239 C 
ATOM      4  O   UNL A   1      34.249  28.631  22.786  1.00  0.00    -0.273 OA
ATOM      5  H   UNL A   1      34.151  30.279  24.467  1.00  0.00     0.163 HD
BRANCH   3   6
ATOM      6  C   UNL A   1      33.314  27.006  24.301  1.00  0.00     0.221 C 
BRANCH   6   7
ATOM      7  N   UNL A   1      32.097  26.522  23.631  1.00  0.00    -0.311 N 
BRANCH   7   8
ATOM      8  C   UNL A   1      32.066  25.835  22.439  1.00  0.00     0.318 C 
ATOM      9  N   UNL A   1      32.433  24.546  22.277  1.00  0.00    -0.328 N 
ATOM     10  H   UNL A   1      32.373  24.276  21.332  1.00  0.00     0.166 HD
ATOM     11  O   UNL A   1      31.645  26.337  21.393  1.00  0.00    -0.249 OA
BRANCH   9  12
ATOM     12  C   UNL A   1      32.891  23.441  23.113  1.00  0.00     0.149 C 
ATOM     13  C   UNL A   1      32.501  22.094  22.483  1.00  0.00     0.040 C 
BRANCH  12  14
ATOM     14  C   UNL A   1      34.368  23.451  23.452  1.00  0.00     0.154 A 
ATOM     15  N   UNL A   1      35.293  23.168  22.543  1.00  0.00    -0.133 NA
ATOM     16  N   UNL A   1      35.017  23.608  24.656  1.00  0.00    -0.319 N 
ATOM     17  N   UNL A   1      36.527  23.194  23.125  1.00  0.00    -0.139 NA
ATOM     18  C   UNL A   1      36.351  23.463  24.393  1.00  0.00     0.225 A 
ATOM     19  C   UNL A   1      34.497  23.839  25.977  1.00  0.00     0.152 C 
ENDBRANCH  12  14
ENDBRANCH   9  12
ENDBRANCH   7   8
BRANCH   7  20
ATOM     20  C   UNL A   1      30.764  26.867  24.296  1.00  0.00     0.037 C 
ATOM     21  C   UNL A   1      29.659  25.858  23.923  1.00  0.00     0.034 C 
ATOM     22  C   UNL A   1      30.914  26.915  25.838  1.00  0.00     0.034 C 
ATOM     23  C   UNL A   1      30.211  28.268  23.911  1.00  0.00     0.034 C 
ENDBRANCH   7  20
ENDBRANCH   6   7
ENDBRANCH   3   6
ENDBRANCH   1   2
BRANCH   1  24
ATOM     24  C   UNL A   1      34.241  28.805  27.157  1.00  0.00     0.042 C 
BRANCH  24  25
ATOM     25  C   UNL A   1      35.462  29.653  27.487  1.00  0.00     0.118 C 
BRANCH  25  26
ATOM     26  N   UNL A   1      35.389  30.201  28.834  1.00  0.00    -0.352 N 
ATOM     27  C   UNL A   1      36.355  30.220  29.809  1.00  0.00     0.251 C 
ATOM     28  H   UNL A   1      34.531  30.615  29.078  1.00  0.00     0.163 HD
ATOM     29  O   UNL A   1      36.049  30.490  30.965  1.00  0.00    -0.269 OA
BRANCH  27  30
ATOM     30  C   UNL A   1      37.753  29.897  29.456  1.00  0.00     0.039 A 
ATOM     31  C   UNL A   1      38.632  29.498  30.463  1.00  0.00     0.014 A 
ATOM     32  C   UNL A   1      38.192  29.993  28.132  1.00  0.00     0.014 A 
ATOM     33  C   UNL A   1      39.942  29.150  30.133  1.00  0.00     0.010 A 
ATOM     34  C   UNL A   1      39.470  29.564  27.794  1.00  0.00     0.010 A 
ATOM     35  C   UNL A   1      40.364  29.153  28.792  1.00  0.00    -0.014 A 
BRANCH  35  36
ATOM     36  C   UNL A   1      41.742  28.746  28.423  1.00  0.00     0.031 A 
ATOM     37  C   UNL A   1      42.843  29.771  28.373  1.00  0.00     0.074 A 
ATOM     38  C   UNL A   1      41.989  27.464  28.088  1.00  0.00     0.049 A 
ATOM     39  N   UNL A   1      44.099  29.617  28.041  1.00  0.00    -0.248 NA
ATOM     40  C   UNL A   1      42.480  31.157  28.714  1.00  0.00     0.031 C 
ATOM     41  C   UNL A   1      40.990  26.393  28.045  1.00  0.00     0.029 A 
ATOM     42  N   UNL A   1      43.154  26.843  27.716  1.00  0.00    -0.354 N 
ATOM     43  C   UNL A   1      44.670  30.882  28.121  1.00  0.00     0.074 A 
ATOM     44  C   UNL A   1      43.612  31.803  28.474  1.00  0.00     0.031 C 
ATOM     45  C   UNL A   1      41.590  25.243  27.697  1.00  0.00     0.029 A 
ATOM     46  C   UNL A   1      43.006  25.501  27.455  1.00  0.00     0.049 A 
ATOM     47  H   UNL A   1      44.015  27.314  27.642  1.00  0.00     0.167 HD
ATOM     48  C   UNL A   1      45.963  31.240  27.945  1.00  0.00     0.037 A 
ATOM     49  C   UNL A   1      43.909  24.582  27.059  1.00  0.00     0.037 A 
ATOM     50  C   UNL A   1      47.014  30.311  27.619  1.00  0.00     0.049 A 
ATOM     51  C   UNL A   1      45.342  25.004  26.872  1.00  0.00     0.074 A 
ATOM     52  C   UNL A   1      48.368  30.558  27.480  1.00  0.00     0.029 A 
ATOM     53  N   UNL A   1      46.829  28.957  27.380  1.00  0.00    -0.354 N 
ATOM     54  N   UNL A   1      45.879  26.192  27.024  1.00  0.00    -0.248 NA
ATOM     55  C   UNL A   1      46.294  23.961  26.466  1.00  0.00     0.031 C 
ATOM     56  C   UNL A   1      48.994  29.365  27.106  1.00  0.00     0.029 A 
ATOM     57  C   UNL A   1      48.040  28.360  27.070  1.00  0.00     0.049 A 
ATOM     58  H   UNL A   1      45.964  28.488  27.425  1.00  0.00     0.167 HD
ATOM     59  C   UNL A   1      47.235  26.033  26.761  1.00  0.00     0.074 A 
ATOM     60  C   UNL A   1      47.438  24.632  26.454  1.00  0.00     0.031 C 
ATOM     61  C   UNL A   1      48.224  26.961  26.774  1.00  0.00     0.037 A 
BRANCH  48  62
ATOM     62  C   UNL A   1      46.318  32.693  28.108  1.00  0.00     0.058 A 
ATOM     63  C   UNL A   1      46.190  33.608  27.049  1.00  0.00     0.135 A 
ATOM     64  C   UNL A   1      46.753  33.187  29.348  1.00  0.00     0.135 A 
ATOM     65  F   UNL A   1      45.794  33.189  25.837  1.00  0.00    -0.206 F 
ATOM     66  C   UNL A   1      46.507  34.953  27.206  1.00  0.00     0.059 A 
ATOM     67  C   UNL A   1      47.046  34.535  29.536  1.00  0.00     0.059 A 
ATOM     68  F   UNL A   1      46.895  32.359  30.394  1.00  0.00    -0.206 F 
ATOM     69  C   UNL A   1      46.933  35.408  28.455  1.00  0.00     0.060 A 
BRANCH  69  70
ATOM     70  S   UNL A   1      47.328  37.159  28.643  1.00  0.00     0.124 S 
ATOM     71  O   UNL A   1      46.750  37.450  29.951  1.00  0.00    -0.237 OA
ATOM     72  O   UNL A   1      48.787  37.156  28.582  1.00  0.00    -0.237 OA
ATOM     73  O   UNL A   1      46.657  37.784  27.508  1.00  0.00    -0.744 OA
ENDBRANCH  69  70
ENDBRANCH  48  62
BRANCH  49  74
ATOM     74  C   UNL A   1      43.490  23.172  26.839  1.00  0.00     0.058 A 
ATOM     75  C   UNL A   1      43.393  22.640  25.544  1.00  0.00     0.135 A 
ATOM     76  C   UNL A   1      43.189  22.325  27.917  1.00  0.00     0.135 A 
ATOM     77  F   UNL A   1      43.666  23.409  24.481  1.00  0.00    -0.206 F 
ATOM     78  C   UNL A   1      42.992  21.326  25.325  1.00  0.00     0.059 A 
ATOM     79  C   UNL A   1      42.814  20.999  27.724  1.00  0.00     0.059 A 
ATOM     80  F   UNL A   1      43.285  22.779  29.177  1.00  0.00    -0.206 F 
ATOM     81  C   UNL A   1      42.707  20.512  26.422  1.00  0.00     0.060 A 
BRANCH  81  82
ATOM     82  S   UNL A   1      42.230  18.795  26.127  1.00  0.00     0.124 S 
ATOM     83  O   UNL A   1      40.833  18.942  25.735  1.00  0.00    -0.237 OA
ATOM     84  O   UNL A   1      43.153  18.400  25.068  1.00  0.00    -0.237 OA
ATOM     85  O   UNL A   1      42.460  18.156  27.418  1.00  0.00    -0.744 OA
ENDBRANCH  81  82
ENDBRANCH  49  74
BRANCH  61  86
ATOM     86  C   UNL A   1      49.621  26.490  26.479  1.00  0.00     0.058 A 
ATOM     87  C   UNL A   1      50.164  26.545  25.186  1.00  0.00     0.135 A 
ATOM     88  C   UNL A   1      50.447  26.027  27.518  1.00  0.00     0.135 A 
ATOM     89  F   UNL A   1      49.416  26.973  24.157  1.00  0.00    -0.206 F 
ATOM     90  C   UNL A   1      51.468  26.134  24.928  1.00  0.00     0.059 A 
ATOM     91  C   UNL A   1      51.763  25.642  27.288  1.00  0.00     0.059 A 
ATOM     92  F   UNL A   1      49.980  25.965  28.775  1.00  0.00    -0.206 F 
ATOM     93  C   UNL A   1      52.260  25.687  25.987  1.00  0.00     0.060 A 
BRANCH  93  94
ATOM     94  S   UNL A   1      53.961  25.191  25.642  1.00  0.00     0.124 S 
ATOM     95  O   UNL A   1      54.664  25.722  26.806  1.00  0.00    -0.237 OA
ATOM     96  O   UNL A   1      53.855  23.737  25.575  1.00  0.00    -0.237 OA
ATOM     97  O   UNL A   1      54.258  25.852  24.375  1.00  0.00    -0.744 OA
ENDBRANCH  93  94
ENDBRANCH  61  86
ENDBRANCH  35  36
ENDBRANCH  27  30
ENDBRANCH  25  26
ENDBRANCH  24  25
ENDBRANCH   1  24
TORSDOF 18
ENDMDL
MODEL 3
REMARK VINA RESULT:     -11.4      1.498      2.665
REMARK SMILES C[C@H](NC(=O)N(CC(=O)NCCCNC(=O)c1ccc(-c2c3nc(c(-c4c(F)cc(S(=O)(=O)[O-])cc4F)c4ccc([nH]4)c(-c4c(F)cc(S(=O)(=O)[O-])cc4F)c4nc(c(-c5c(F)cc(S(=O)(=O)[O-])cc5F)c5ccc2[nH]5)C=C4)C=C3)cc1)C(C)(C)C)c1nncn1C
REMARK SMILES IDX 11 1 10 2 8 3 9 4 7 6 6 7 4 8 3 9 5 11 2 12 1 13 87 14 88 15
REMARK SMILES IDX 91 16 89 17 90 18 92 19 83 20 84 21 85 22 86 23 12 24 13 25
REMARK SMILES IDX 14 26 15 27 16 29 17 30 18 31 82 32 19 33 81 34 20 35 21 36
REMARK SMILES IDX 22 37 75 38 23 39 80 40 74 41 76 42 24 43 79 44 73 45 72 46
REMARK SMILES IDX 25 48 59 49 38 50 58 51 39 52 42 53 57 54 77 55 40 56 41 57
REMARK SMILES IDX 56 59 78 60 43 61 26 62 27 63 36 64 28 65 29 66 35 67 37 68
REMARK SMILES IDX 30 69 31 70 32 71 33 72 34 73 60 74 61 75 70 76 62 77 63 78
REMARK SMILES IDX 69 79 71 80 64 81 65 82 66 83 67 84 68 85 44 86 45 87 54 88
REMARK SMILES IDX 46 89 47 90 53 91 55 92 48 93 49 94 50 95 51 96 52 97
REMARK H PARENT 10 5 3 10 14 28 76 47 42 58
REMARK Flexibility Score: inf
ROOT
ATOM      1  C   UNL A   1      35.931  23.972  25.392  1.00  0.00     0.117 C 
ENDROOT
BRANCH   1   2
ATOM      2  N   UNL A   1      35.329  23.565  24.140  1.00  0.00    -0.354 N 
ATOM      3  C   UNL A   1      34.336  24.145  23.412  1.00  0.00     0.239 C 
ATOM      4  O   UNL A   1      34.072  23.651  22.312  1.00  0.00    -0.273 OA
ATOM      5  H   UNL A   1      35.695  22.737  23.754  1.00  0.00     0.163 HD
BRANCH   3   6
ATOM      6  C   UNL A   1      33.703  25.469  23.852  1.00  0.00     0.221 C 
BRANCH   6   7
ATOM      7  N   UNL A   1      32.297  25.481  24.286  1.00  0.00    -0.311 N 
BRANCH   7   8
ATOM      8  C   UNL A   1      31.207  25.512  23.447  1.00  0.00     0.318 C 
ATOM      9  N   UNL A   1      30.529  26.625  23.097  1.00  0.00    -0.328 N 
ATOM     10  H   UNL A   1      29.758  26.407  22.525  1.00  0.00     0.166 HD
ATOM     11  O   UNL A   1      30.771  24.502  22.886  1.00  0.00    -0.249 OA
BRANCH   9  12
ATOM     12  C   UNL A   1      30.621  28.063  23.331  1.00  0.00     0.149 C 
ATOM     13  C   UNL A   1      32.068  28.546  23.138  1.00  0.00     0.040 C 
BRANCH  12  14
ATOM     14  C   UNL A   1      29.672  28.917  22.514  1.00  0.00     0.154 A 
ATOM     15  N   UNL A   1      30.116  29.793  21.621  1.00  0.00    -0.133 NA
ATOM     16  N   UNL A   1      28.305  29.066  22.583  1.00  0.00    -0.319 N 
ATOM     17  N   UNL A   1      29.060  30.462  21.074  1.00  0.00    -0.139 NA
ATOM     18  C   UNL A   1      27.977  30.015  21.656  1.00  0.00     0.225 A 
ATOM     19  C   UNL A   1      27.336  28.435  23.439  1.00  0.00     0.152 C 
ENDBRANCH  12  14
ENDBRANCH   9  12
ENDBRANCH   7   8
BRANCH   7  20
ATOM     20  C   UNL A   1      32.044  25.519  25.794  1.00  0.00     0.037 C 
ATOM     21  C   UNL A   1      32.768  26.702  26.467  1.00  0.00     0.034 C 
ATOM     22  C   UNL A   1      30.526  25.608  26.094  1.00  0.00     0.034 C 
ATOM     23  C   UNL A   1      32.519  24.244  26.545  1.00  0.00     0.034 C 
ENDBRANCH   7  20
ENDBRANCH   6   7
ENDBRANCH   3   6
ENDBRANCH   1   2
BRANCH   1  24
ATOM     24  C   UNL A   1      37.317  23.377  25.587  1.00  0.00     0.042 C 
BRANCH  24  25
ATOM     25  C   UNL A   1      38.214  24.234  26.470  1.00  0.00     0.118 C 
BRANCH  25  26
ATOM     26  N   UNL A   1      39.619  24.075  26.123  1.00  0.00    -0.352 N 
ATOM     27  C   UNL A   1      40.685  24.869  26.467  1.00  0.00     0.251 C 
ATOM     28  H   UNL A   1      39.835  23.292  25.568  1.00  0.00     0.163 HD
ATOM     29  O   UNL A   1      41.756  24.736  25.885  1.00  0.00    -0.269 OA
BRANCH  27  30
ATOM     30  C   UNL A   1      40.524  25.887  27.525  1.00  0.00     0.039 A 
ATOM     31  C   UNL A   1      39.584  25.674  28.534  1.00  0.00     0.014 A 
ATOM     32  C   UNL A   1      41.299  27.051  27.515  1.00  0.00     0.014 A 
ATOM     33  C   UNL A   1      39.456  26.610  29.561  1.00  0.00     0.010 A 
ATOM     34  C   UNL A   1      41.229  27.938  28.583  1.00  0.00     0.010 A 
ATOM     35  C   UNL A   1      40.297  27.735  29.609  1.00  0.00    -0.014 A 
BRANCH  35  36
ATOM     36  C   UNL A   1      40.198  28.717  30.718  1.00  0.00     0.031 A 
ATOM     37  C   UNL A   1      41.074  28.572  31.933  1.00  0.00     0.074 A 
ATOM     38  C   UNL A   1      39.288  29.708  30.648  1.00  0.00     0.049 A 
ATOM     39  N   UNL A   1      41.110  29.305  33.016  1.00  0.00    -0.248 NA
ATOM     40  C   UNL A   1      42.013  27.437  31.947  1.00  0.00     0.031 C 
ATOM     41  C   UNL A   1      38.346  29.916  29.545  1.00  0.00     0.029 A 
ATOM     42  N   UNL A   1      39.001  30.725  31.523  1.00  0.00    -0.354 N 
ATOM     43  C   UNL A   1      42.062  28.716  33.840  1.00  0.00     0.074 A 
ATOM     44  C   UNL A   1      42.537  27.531  33.161  1.00  0.00     0.031 C 
ATOM     45  C   UNL A   1      37.607  31.009  29.796  1.00  0.00     0.029 A 
ATOM     46  C   UNL A   1      37.995  31.557  31.092  1.00  0.00     0.049 A 
ATOM     47  H   UNL A   1      39.471  30.847  32.379  1.00  0.00     0.167 HD
ATOM     48  C   UNL A   1      42.520  29.140  35.042  1.00  0.00     0.037 A 
ATOM     49  C   UNL A   1      37.442  32.637  31.679  1.00  0.00     0.037 A 
ATOM     50  C   UNL A   1      42.060  30.336  35.697  1.00  0.00     0.049 A 
ATOM     51  C   UNL A   1      37.969  33.091  33.014  1.00  0.00     0.074 A 
ATOM     52  C   UNL A   1      42.501  30.889  36.886  1.00  0.00     0.029 A 
ATOM     53  N   UNL A   1      41.052  31.162  35.222  1.00  0.00    -0.354 N 
ATOM     54  N   UNL A   1      38.923  32.563  33.746  1.00  0.00    -0.248 NA
ATOM     55  C   UNL A   1      37.353  34.288  33.600  1.00  0.00     0.031 C 
ATOM     56  C   UNL A   1      41.726  32.022  37.156  1.00  0.00     0.029 A 
ATOM     57  C   UNL A   1      40.841  32.208  36.106  1.00  0.00     0.049 A 
ATOM     58  H   UNL A   1      40.560  31.027  34.380  1.00  0.00     0.167 HD
ATOM     59  C   UNL A   1      39.039  33.381  34.865  1.00  0.00     0.074 A 
ATOM     60  C   UNL A   1      38.070  34.445  34.705  1.00  0.00     0.031 C 
ATOM     61  C   UNL A   1      39.874  33.263  35.927  1.00  0.00     0.037 A 
BRANCH  48  62
ATOM     62  C   UNL A   1      43.578  28.312  35.721  1.00  0.00     0.058 A 
ATOM     63  C   UNL A   1      44.947  28.527  35.488  1.00  0.00     0.135 A 
ATOM     64  C   UNL A   1      43.221  27.319  36.647  1.00  0.00     0.135 A 
ATOM     65  F   UNL A   1      45.346  29.453  34.601  1.00  0.00    -0.206 F 
ATOM     66  C   UNL A   1      45.922  27.768  36.127  1.00  0.00     0.059 A 
ATOM     67  C   UNL A   1      44.181  26.569  37.320  1.00  0.00     0.059 A 
ATOM     68  F   UNL A   1      41.929  27.070  36.907  1.00  0.00    -0.206 F 
ATOM     69  C   UNL A   1      45.529  26.792  37.044  1.00  0.00     0.060 A 
BRANCH  69  70
ATOM     70  S   UNL A   1      46.809  25.825  37.871  1.00  0.00     0.124 S 
ATOM     71  O   UNL A   1      47.992  26.646  37.636  1.00  0.00    -0.237 OA
ATOM     72  O   UNL A   1      46.327  25.787  39.249  1.00  0.00    -0.237 OA
ATOM     73  O   UNL A   1      46.782  24.548  37.165  1.00  0.00    -0.744 OA
ENDBRANCH  69  70
ENDBRANCH  48  62
BRANCH  49  74
ATOM     74  C   UNL A   1      36.346  33.376  30.997  1.00  0.00     0.058 A 
ATOM     75  C   UNL A   1      35.025  33.310  31.468  1.00  0.00     0.135 A 
ATOM     76  C   UNL A   1      36.597  34.173  29.869  1.00  0.00     0.135 A 
ATOM     77  F   UNL A   1      34.733  32.559  32.540  1.00  0.00    -0.206 F 
ATOM     78  C   UNL A   1      33.990  33.988  30.833  1.00  0.00     0.059 A 
ATOM     79  C   UNL A   1      35.583  34.883  29.234  1.00  0.00     0.059 A 
ATOM     80  F   UNL A   1      37.846  34.286  29.389  1.00  0.00    -0.206 F 
ATOM     81  C   UNL A   1      34.279  34.775  29.717  1.00  0.00     0.060 A 
BRANCH  81  82
ATOM     82  S   UNL A   1      32.935  35.686  28.927  1.00  0.00     0.124 S 
ATOM     83  O   UNL A   1      32.128  36.073  30.078  1.00  0.00    -0.237 OA
ATOM     84  O   UNL A   1      33.651  36.765  28.255  1.00  0.00    -0.237 OA
ATOM     85  O   UNL A   1      32.334  34.695  28.039  1.00  0.00    -0.744 OA
ENDBRANCH  81  82
ENDBRANCH  49  74
BRANCH  61  86
ATOM     86  C   UNL A   1      39.802  34.328  36.986  1.00  0.00     0.058 A 
ATOM     87  C   UNL A   1      39.042  34.161  38.154  1.00  0.00     0.135 A 
ATOM     88  C   UNL A   1      40.549  35.511  36.855  1.00  0.00     0.135 A 
ATOM     89  F   UNL A   1      38.305  33.051  38.328  1.00  0.00    -0.206 F 
ATOM     90  C   UNL A   1      39.004  35.138  39.143  1.00  0.00     0.059 A 
ATOM     91  C   UNL A   1      40.550  36.488  37.845  1.00  0.00     0.059 A 
ATOM     92  F   UNL A   1      41.301  35.717  35.762  1.00  0.00    -0.206 F 
ATOM     93  C   UNL A   1      39.765  36.297  38.980  1.00  0.00     0.060 A 
BRANCH  93  94
ATOM     94  S   UNL A   1      39.734  37.542  40.287  1.00  0.00     0.124 S 
ATOM     95  O   UNL A   1      38.973  36.857  41.327  1.00  0.00    -0.237 OA
ATOM     96  O   UNL A   1      41.153  37.739  40.565  1.00  0.00    -0.237 OA
ATOM     97  O   UNL A   1      39.060  38.676  39.661  1.00  0.00    -0.744 OA
ENDBRANCH  93  94
ENDBRANCH  61  86
ENDBRANCH  35  36
ENDBRANCH  27  30
ENDBRANCH  25  26
ENDBRANCH  24  25
ENDBRANCH   1  24
TORSDOF 18
ENDMDL
