MODEL 1
REMARK VINA RESULT:     -10.8      0.000      0.000
REMARK SMILES CC(C)(C)N(CC(=O)NCCCNC(=O)c1ccc(-c2c3nc(c(-c4c(F)cc(S(=O)(=O)[O-])cc4F)c4ccc([nH]4)c(-c4c(F)cc(S(=O)(=O)[O-])cc4F)c4nc(c(-c5c(F)cc(S(=O)(=O)[O-])cc5F)c5ccc2[nH]5)C=C4)C=C3)cc1)C(=O)NCCc1cnc[nH]1
REMARK SMILES IDX 10 1 9 2 7 3 8 4 6 6 5 7 2 8 1 9 3 10 4 11 82 12 83 13 84 14
REMARK SMILES IDX 85 16 86 17 87 18 88 19 91 20 89 21 90 22 11 24 12 25 13 26
REMARK SMILES IDX 14 27 15 29 16 30 17 31 81 32 18 33 80 34 19 35 20 36 21 37
REMARK SMILES IDX 74 38 22 39 79 40 73 41 75 42 23 43 78 44 72 45 71 46 24 48
REMARK SMILES IDX 58 49 37 50 57 51 38 52 41 53 56 54 76 55 39 56 40 57 55 59
REMARK SMILES IDX 77 60 42 61 25 62 26 63 35 64 27 65 28 66 34 67 36 68 29 69
REMARK SMILES IDX 30 70 31 71 32 72 33 73 59 74 60 75 69 76 61 77 62 78 68 79
REMARK SMILES IDX 70 80 63 81 64 82 65 83 66 84 67 85 43 86 44 87 53 88 45 89
REMARK SMILES IDX 46 90 52 91 54 92 47 93 48 94 49 95 50 96 51 97
REMARK H PARENT 9 5 84 15 91 23 13 28 75 47 41 58
REMARK Flexibility Score: inf
ROOT
ATOM      1  C   UNL A   1      33.702  26.554  25.477  1.00  0.00     0.117 C 
ENDROOT
BRANCH   1   2
ATOM      2  N   UNL A   1      32.492  25.883  25.895  1.00  0.00    -0.354 N 
ATOM      3  C   UNL A   1      32.366  24.656  26.470  1.00  0.00     0.239 C 
ATOM      4  O   UNL A   1      31.326  24.444  27.107  1.00  0.00    -0.273 OA
ATOM      5  H   UNL A   1      31.654  26.376  25.745  1.00  0.00     0.163 HD
BRANCH   3   6
ATOM      6  C   UNL A   1      33.522  23.639  26.493  1.00  0.00     0.221 C 
BRANCH   6   7
ATOM      7  N   UNL A   1      33.977  23.068  25.216  1.00  0.00    -0.311 N 
BRANCH   7   8
ATOM      8  C   UNL A   1      35.476  22.854  24.983  1.00  0.00     0.037 C 
ATOM      9  C   UNL A   1      35.909  22.834  23.490  1.00  0.00     0.034 C 
ATOM     10  C   UNL A   1      35.979  21.515  25.576  1.00  0.00     0.034 C 
ATOM     11  C   UNL A   1      36.286  24.016  25.613  1.00  0.00     0.034 C 
ENDBRANCH   7   8
BRANCH   7  12
ATOM     12  C   UNL A   1      33.117  22.471  24.316  1.00  0.00     0.318 C 
ATOM     13  O   UNL A   1      32.644  23.079  23.351  1.00  0.00    -0.249 OA
ATOM     14  N   UNL A   1      32.717  21.192  24.359  1.00  0.00    -0.338 N 
ATOM     15  H   UNL A   1      32.039  21.035  23.664  1.00  0.00     0.165 HD
BRANCH  14  16
ATOM     16  C   UNL A   1      32.954  19.957  25.095  1.00  0.00     0.124 C 
BRANCH  16  17
ATOM     17  C   UNL A   1      33.753  18.941  24.264  1.00  0.00     0.077 C 
BRANCH  17  18
ATOM     18  C   UNL A   1      33.476  17.534  24.675  1.00  0.00     0.036 A 
ATOM     19  C   UNL A   1      34.025  16.326  24.299  1.00  0.00     0.134 A 
ATOM     20  N   UNL A   1      32.506  17.203  25.590  1.00  0.00    -0.348 N 
ATOM     21  N   UNL A   1      33.433  15.292  24.978  1.00  0.00    -0.245 NA
ATOM     22  C   UNL A   1      32.525  15.847  25.744  1.00  0.00     0.196 A 
ATOM     23  H   UNL A   1      31.905  17.830  26.052  1.00  0.00     0.167 HD
ENDBRANCH  17  18
ENDBRANCH  16  17
ENDBRANCH  14  16
ENDBRANCH   7  12
ENDBRANCH   6   7
ENDBRANCH   3   6
ENDBRANCH   1   2
BRANCH   1  24
ATOM     24  C   UNL A   1      33.710  28.038  25.803  1.00  0.00     0.042 C 
BRANCH  24  25
ATOM     25  C   UNL A   1      33.437  28.337  27.268  1.00  0.00     0.118 C 
BRANCH  25  26
ATOM     26  N   UNL A   1      33.409  29.773  27.541  1.00  0.00    -0.352 N 
ATOM     27  C   UNL A   1      34.347  30.582  28.137  1.00  0.00     0.251 C 
ATOM     28  H   UNL A   1      32.588  30.234  27.253  1.00  0.00     0.163 HD
ATOM     29  O   UNL A   1      34.027  31.710  28.507  1.00  0.00    -0.269 OA
BRANCH  27  30
ATOM     30  C   UNL A   1      35.727  30.095  28.340  1.00  0.00     0.039 A 
ATOM     31  C   UNL A   1      36.628  30.093  27.270  1.00  0.00     0.014 A 
ATOM     32  C   UNL A   1      36.129  29.626  29.591  1.00  0.00     0.014 A 
ATOM     33  C   UNL A   1      37.954  29.704  27.481  1.00  0.00     0.010 A 
ATOM     34  C   UNL A   1      37.466  29.340  29.823  1.00  0.00     0.010 A 
ATOM     35  C   UNL A   1      38.395  29.369  28.770  1.00  0.00    -0.014 A 
BRANCH  35  36
ATOM     36  C   UNL A   1      39.807  29.018  29.072  1.00  0.00     0.031 A 
ATOM     37  C   UNL A   1      40.737  30.085  29.585  1.00  0.00     0.074 A 
ATOM     38  C   UNL A   1      40.277  27.792  28.770  1.00  0.00     0.049 A 
ATOM     39  N   UNL A   1      42.037  30.061  29.708  1.00  0.00    -0.248 NA
ATOM     40  C   UNL A   1      40.121  31.366  29.973  1.00  0.00     0.031 C 
ATOM     41  C   UNL A   1      39.482  26.683  28.239  1.00  0.00     0.029 A 
ATOM     42  N   UNL A   1      41.552  27.282  28.836  1.00  0.00    -0.354 N 
ATOM     43  C   UNL A   1      42.397  31.329  30.151  1.00  0.00     0.074 A 
ATOM     44  C   UNL A   1      41.184  32.112  30.229  1.00  0.00     0.031 C 
ATOM     45  C   UNL A   1      40.283  25.625  28.033  1.00  0.00     0.029 A 
ATOM     46  C   UNL A   1      41.656  25.994  28.362  1.00  0.00     0.049 A 
ATOM     47  H   UNL A   1      42.317  27.789  29.189  1.00  0.00     0.167 HD
ATOM     48  C   UNL A   1      43.627  31.791  30.479  1.00  0.00     0.037 A 
ATOM     49  C   UNL A   1      42.739  25.211  28.184  1.00  0.00     0.037 A 
ATOM     50  C   UNL A   1      44.821  30.990  30.430  1.00  0.00     0.049 A 
ATOM     51  C   UNL A   1      44.098  25.750  28.543  1.00  0.00     0.074 A 
ATOM     52  C   UNL A   1      46.107  31.342  30.799  1.00  0.00     0.029 A 
ATOM     53  N   UNL A   1      44.876  29.677  29.983  1.00  0.00    -0.354 N 
ATOM     54  N   UNL A   1      44.417  26.935  29.009  1.00  0.00    -0.248 NA
ATOM     55  C   UNL A   1      45.246  24.852  28.353  1.00  0.00     0.031 C 
ATOM     56  C   UNL A   1      46.948  30.259  30.529  1.00  0.00     0.029 A 
ATOM     57  C   UNL A   1      46.178  29.212  30.050  1.00  0.00     0.049 A 
ATOM     58  H   UNL A   1      44.103  29.155  29.666  1.00  0.00     0.167 HD
ATOM     59  C   UNL A   1      45.794  26.909  29.205  1.00  0.00     0.074 A 
ATOM     60  C   UNL A   1      46.248  25.594  28.805  1.00  0.00     0.031 C 
ATOM     61  C   UNL A   1      46.607  27.886  29.678  1.00  0.00     0.037 A 
BRANCH  48  62
ATOM     62  C   UNL A   1      43.743  33.224  30.924  1.00  0.00     0.058 A 
ATOM     63  C   UNL A   1      43.775  33.577  32.283  1.00  0.00     0.135 A 
ATOM     64  C   UNL A   1      43.864  34.256  29.980  1.00  0.00     0.135 A 
ATOM     65  F   UNL A   1      43.650  32.633  33.230  1.00  0.00    -0.206 F 
ATOM     66  C   UNL A   1      43.891  34.901  32.689  1.00  0.00     0.059 A 
ATOM     67  C   UNL A   1      44.013  35.586  30.363  1.00  0.00     0.059 A 
ATOM     68  F   UNL A   1      43.838  33.978  28.667  1.00  0.00    -0.206 F 
ATOM     69  C   UNL A   1      44.010  35.900  31.721  1.00  0.00     0.060 A 
BRANCH  69  70
ATOM     70  S   UNL A   1      44.169  37.612  32.268  1.00  0.00     0.124 S 
ATOM     71  O   UNL A   1      43.277  37.632  33.424  1.00  0.00    -0.237 OA
ATOM     72  O   UNL A   1      45.593  37.713  32.566  1.00  0.00    -0.237 OA
ATOM     73  O   UNL A   1      43.717  38.383  31.114  1.00  0.00    -0.744 OA
ENDBRANCH  69  70
ENDBRANCH  48  62
BRANCH  49  74
ATOM     74  C   UNL A   1      42.582  23.830  27.649  1.00  0.00     0.058 A 
ATOM     75  C   UNL A   1      42.464  22.732  28.515  1.00  0.00     0.135 A 
ATOM     76  C   UNL A   1      42.532  23.579  26.268  1.00  0.00     0.135 A 
ATOM     77  F   UNL A   1      42.512  22.919  29.843  1.00  0.00    -0.206 F 
ATOM     78  C   UNL A   1      42.323  21.435  28.034  1.00  0.00     0.059 A 
ATOM     79  C   UNL A   1      42.363  22.293  25.762  1.00  0.00     0.059 A 
ATOM     80  F   UNL A   1      42.624  24.595  25.396  1.00  0.00    -0.206 F 
ATOM     81  C   UNL A   1      42.270  21.225  26.655  1.00  0.00     0.060 A 
BRANCH  81  82
ATOM     82  S   UNL A   1      42.042  19.540  26.045  1.00  0.00     0.124 S 
ATOM     83  O   UNL A   1      40.628  19.545  25.691  1.00  0.00    -0.237 OA
ATOM     84  O   UNL A   1      42.980  19.491  24.928  1.00  0.00    -0.237 OA
ATOM     85  O   UNL A   1      42.404  18.714  27.193  1.00  0.00    -0.744 OA
ENDBRANCH  81  82
ENDBRANCH  49  74
BRANCH  61  86
ATOM     86  C   UNL A   1      48.065  27.567  29.858  1.00  0.00     0.058 A 
ATOM     87  C   UNL A   1      49.031  27.957  28.921  1.00  0.00     0.135 A 
ATOM     88  C   UNL A   1      48.507  26.963  31.047  1.00  0.00     0.135 A 
ATOM     89  F   UNL A   1      48.660  28.530  27.764  1.00  0.00    -0.206 F 
ATOM     90  C   UNL A   1      50.389  27.763  29.157  1.00  0.00     0.059 A 
ATOM     91  C   UNL A   1      49.859  26.784  31.316  1.00  0.00     0.059 A 
ATOM     92  F   UNL A   1      47.621  26.577  31.980  1.00  0.00    -0.206 F 
ATOM     93  C   UNL A   1      50.793  27.188  30.363  1.00  0.00     0.060 A 
BRANCH  93  94
ATOM     94  S   UNL A   1      52.561  27.024  30.694  1.00  0.00     0.124 S 
ATOM     95  O   UNL A   1      52.954  26.019  29.711  1.00  0.00    -0.237 OA
ATOM     96  O   UNL A   1      53.050  28.376  30.446  1.00  0.00    -0.237 OA
ATOM     97  O   UNL A   1      52.610  26.592  32.088  1.00  0.00    -0.744 OA
ENDBRANCH  93  94
ENDBRANCH  61  86
ENDBRANCH  35  36
ENDBRANCH  27  30
ENDBRANCH  25  26
ENDBRANCH  24  25
ENDBRANCH   1  24
TORSDOF 19
ENDMDL
MODEL 2
REMARK VINA RESULT:     -10.7      3.459      5.498
REMARK SMILES CC(C)(C)N(CC(=O)NCCCNC(=O)c1ccc(-c2c3nc(c(-c4c(F)cc(S(=O)(=O)[O-])cc4F)c4ccc([nH]4)c(-c4c(F)cc(S(=O)(=O)[O-])cc4F)c4nc(c(-c5c(F)cc(S(=O)(=O)[O-])cc5F)c5ccc2[nH]5)C=C4)C=C3)cc1)C(=O)NCCc1cnc[nH]1
REMARK SMILES IDX 10 1 9 2 7 3 8 4 6 6 5 7 2 8 1 9 3 10 4 11 82 12 83 13 84 14
REMARK SMILES IDX 85 16 86 17 87 18 88 19 91 20 89 21 90 22 11 24 12 25 13 26
REMARK SMILES IDX 14 27 15 29 16 30 17 31 81 32 18 33 80 34 19 35 20 36 21 37
REMARK SMILES IDX 74 38 22 39 79 40 73 41 75 42 23 43 78 44 72 45 71 46 24 48
REMARK SMILES IDX 58 49 37 50 57 51 38 52 41 53 56 54 76 55 39 56 40 57 55 59
REMARK SMILES IDX 77 60 42 61 25 62 26 63 35 64 27 65 28 66 34 67 36 68 29 69
REMARK SMILES IDX 30 70 31 71 32 72 33 73 59 74 60 75 69 76 61 77 62 78 68 79
REMARK SMILES IDX 70 80 63 81 64 82 65 83 66 84 67 85 43 86 44 87 53 88 45 89
REMARK SMILES IDX 46 90 52 91 54 92 47 93 48 94 49 95 50 96 51 97
REMARK H PARENT 9 5 84 15 91 23 13 28 75 47 41 58
REMARK Flexibility Score: inf
ROOT
ATOM      1  C   UNL A   1      32.994  29.234  26.462  1.00  0.00     0.117 C 
ENDROOT
BRANCH   1   2
ATOM      2  N   UNL A   1      33.418  29.527  25.113  1.00  0.00    -0.354 N 
ATOM      3  C   UNL A   1      33.522  28.674  24.058  1.00  0.00     0.239 C 
ATOM      4  O   UNL A   1      33.506  29.179  22.928  1.00  0.00    -0.273 OA
ATOM      5  H   UNL A   1      33.664  30.464  24.934  1.00  0.00     0.163 HD
BRANCH   3   6
ATOM      6  C   UNL A   1      33.476  27.144  24.235  1.00  0.00     0.221 C 
BRANCH   6   7
ATOM      7  N   UNL A   1      32.341  26.407  23.658  1.00  0.00    -0.311 N 
BRANCH   7   8
ATOM      8  C   UNL A   1      31.517  25.478  24.556  1.00  0.00     0.037 C 
ATOM      9  C   UNL A   1      30.401  24.683  23.824  1.00  0.00     0.034 C 
ATOM     10  C   UNL A   1      30.799  26.244  25.695  1.00  0.00     0.034 C 
ATOM     11  C   UNL A   1      32.430  24.392  25.181  1.00  0.00     0.034 C 
ENDBRANCH   7   8
BRANCH   7  12
ATOM     12  C   UNL A   1      31.812  26.701  22.417  1.00  0.00     0.318 C 
ATOM     13  O   UNL A   1      32.298  26.261  21.371  1.00  0.00    -0.249 OA
ATOM     14  N   UNL A   1      30.727  27.457  22.197  1.00  0.00    -0.338 N 
ATOM     15  H   UNL A   1      30.609  27.589  21.229  1.00  0.00     0.165 HD
BRANCH  14  16
ATOM     16  C   UNL A   1      29.666  28.149  22.917  1.00  0.00     0.124 C 
BRANCH  16  17
ATOM     17  C   UNL A   1      30.148  29.486  23.501  1.00  0.00     0.077 C 
BRANCH  17  18
ATOM     18  C   UNL A   1      29.289  30.629  23.078  1.00  0.00     0.036 A 
ATOM     19  C   UNL A   1      28.046  31.064  23.488  1.00  0.00     0.134 A 
ATOM     20  N   UNL A   1      29.655  31.511  22.090  1.00  0.00    -0.348 N 
ATOM     21  N   UNL A   1      27.673  32.189  22.797  1.00  0.00    -0.245 NA
ATOM     22  C   UNL A   1      28.657  32.433  21.965  1.00  0.00     0.196 A 
ATOM     23  H   UNL A   1      30.488  31.483  21.567  1.00  0.00     0.167 HD
ENDBRANCH  17  18
ENDBRANCH  16  17
ENDBRANCH  14  16
ENDBRANCH   7  12
ENDBRANCH   6   7
ENDBRANCH   3   6
ENDBRANCH   1   2
BRANCH   1  24
ATOM     24  C   UNL A   1      34.147  28.919  27.400  1.00  0.00     0.042 C 
BRANCH  24  25
ATOM     25  C   UNL A   1      35.188  30.024  27.472  1.00  0.00     0.118 C 
BRANCH  25  26
ATOM     26  N   UNL A   1      35.230  30.658  28.789  1.00  0.00    -0.352 N 
ATOM     27  C   UNL A   1      36.185  30.591  29.775  1.00  0.00     0.251 C 
ATOM     28  H   UNL A   1      34.451  31.220  29.003  1.00  0.00     0.163 HD
ATOM     29  O   UNL A   1      35.912  30.985  30.909  1.00  0.00    -0.269 OA
BRANCH  27  30
ATOM     30  C   UNL A   1      37.523  30.041  29.480  1.00  0.00     0.039 A 
ATOM     31  C   UNL A   1      37.991  30.024  28.162  1.00  0.00     0.014 A 
ATOM     32  C   UNL A   1      38.314  29.528  30.508  1.00  0.00     0.014 A 
ATOM     33  C   UNL A   1      39.288  29.574  27.893  1.00  0.00     0.010 A 
ATOM     34  C   UNL A   1      39.633  29.179  30.255  1.00  0.00     0.010 A 
ATOM     35  C   UNL A   1      40.135  29.192  28.944  1.00  0.00    -0.014 A 
BRANCH  35  36
ATOM     36  C   UNL A   1      41.545  28.774  28.731  1.00  0.00     0.031 A 
ATOM     37  C   UNL A   1      42.631  29.816  28.744  1.00  0.00     0.074 A 
ATOM     38  C   UNL A   1      41.828  27.498  28.403  1.00  0.00     0.049 A 
ATOM     39  N   UNL A   1      43.880  29.715  28.373  1.00  0.00    -0.248 NA
ATOM     40  C   UNL A   1      42.247  31.163  29.200  1.00  0.00     0.031 C 
ATOM     41  C   UNL A   1      40.858  26.404  28.326  1.00  0.00     0.029 A 
ATOM     42  N   UNL A   1      43.017  26.911  28.040  1.00  0.00    -0.354 N 
ATOM     43  C   UNL A   1      44.419  30.989  28.515  1.00  0.00     0.074 A 
ATOM     44  C   UNL A   1      43.350  31.855  28.960  1.00  0.00     0.031 C 
ATOM     45  C   UNL A   1      41.489  25.281  27.946  1.00  0.00     0.029 A 
ATOM     46  C   UNL A   1      42.895  25.584  27.697  1.00  0.00     0.049 A 
ATOM     47  H   UNL A   1      43.874  27.394  28.026  1.00  0.00     0.167 HD
ATOM     48  C   UNL A   1      45.694  31.394  28.310  1.00  0.00     0.037 A 
ATOM     49  C   UNL A   1      43.806  24.718  27.209  1.00  0.00     0.037 A 
ATOM     50  C   UNL A   1      46.756  30.513  27.901  1.00  0.00     0.049 A 
ATOM     51  C   UNL A   1      45.215  25.193  26.975  1.00  0.00     0.074 A 
ATOM     52  C   UNL A   1      48.096  30.808  27.723  1.00  0.00     0.029 A 
ATOM     53  N   UNL A   1      46.598  29.167  27.605  1.00  0.00    -0.354 N 
ATOM     54  N   UNL A   1      45.723  26.389  27.163  1.00  0.00    -0.248 NA
ATOM     55  C   UNL A   1      46.178  24.207  26.464  1.00  0.00     0.031 C 
ATOM     56  C   UNL A   1      48.739  29.653  27.271  1.00  0.00     0.029 A 
ATOM     57  C   UNL A   1      47.814  28.622  27.227  1.00  0.00     0.049 A 
ATOM     58  H   UNL A   1      45.748  28.673  27.655  1.00  0.00     0.167 HD
ATOM     59  C   UNL A   1      47.069  26.288  26.830  1.00  0.00     0.074 A 
ATOM     60  C   UNL A   1      47.298  24.915  26.428  1.00  0.00     0.031 C 
ATOM     61  C   UNL A   1      48.030  27.244  26.861  1.00  0.00     0.037 A 
BRANCH  48  62
ATOM     62  C   UNL A   1      46.014  32.848  28.528  1.00  0.00     0.058 A 
ATOM     63  C   UNL A   1      45.878  33.798  27.502  1.00  0.00     0.135 A 
ATOM     64  C   UNL A   1      46.425  33.307  29.790  1.00  0.00     0.135 A 
ATOM     65  F   UNL A   1      45.502  33.415  26.271  1.00  0.00    -0.206 F 
ATOM     66  C   UNL A   1      46.167  35.141  27.711  1.00  0.00     0.059 A 
ATOM     67  C   UNL A   1      46.688  34.652  30.030  1.00  0.00     0.059 A 
ATOM     68  F   UNL A   1      46.573  32.444  30.807  1.00  0.00    -0.206 F 
ATOM     69  C   UNL A   1      46.571  35.560  28.979  1.00  0.00     0.060 A 
BRANCH  69  70
ATOM     70  S   UNL A   1      46.932  37.310  29.232  1.00  0.00     0.124 S 
ATOM     71  O   UNL A   1      47.766  37.605  28.071  1.00  0.00    -0.237 OA
ATOM     72  O   UNL A   1      45.601  37.907  29.223  1.00  0.00    -0.237 OA
ATOM     73  O   UNL A   1      47.619  37.334  30.520  1.00  0.00    -0.744 OA
ENDBRANCH  69  70
ENDBRANCH  48  62
BRANCH  49  74
ATOM     74  C   UNL A   1      43.416  23.310  26.917  1.00  0.00     0.058 A 
ATOM     75  C   UNL A   1      43.206  22.882  25.598  1.00  0.00     0.135 A 
ATOM     76  C   UNL A   1      43.257  22.364  27.942  1.00  0.00     0.135 A 
ATOM     77  F   UNL A   1      43.339  23.749  24.582  1.00  0.00    -0.206 F 
ATOM     78  C   UNL A   1      42.836  21.573  25.305  1.00  0.00     0.059 A 
ATOM     79  C   UNL A   1      42.915  21.042  27.673  1.00  0.00     0.059 A 
ATOM     80  F   UNL A   1      43.461  22.717  29.221  1.00  0.00    -0.206 F 
ATOM     81  C   UNL A   1      42.695  20.659  26.350  1.00  0.00     0.060 A 
BRANCH  81  82
ATOM     82  S   UNL A   1      42.257  18.952  25.952  1.00  0.00     0.124 S 
ATOM     83  O   UNL A   1      42.617  18.262  27.185  1.00  0.00    -0.237 OA
ATOM     84  O   UNL A   1      40.827  19.062  25.676  1.00  0.00    -0.237 OA
ATOM     85  O   UNL A   1      43.089  18.651  24.792  1.00  0.00    -0.744 OA
ENDBRANCH  81  82
ENDBRANCH  49  74
BRANCH  61  86
ATOM     86  C   UNL A   1      49.437  26.844  26.514  1.00  0.00     0.058 A 
ATOM     87  C   UNL A   1      50.296  26.264  27.457  1.00  0.00     0.135 A 
ATOM     88  C   UNL A   1      49.885  26.940  25.186  1.00  0.00     0.135 A 
ATOM     89  F   UNL A   1      49.919  26.158  28.742  1.00  0.00    -0.206 F 
ATOM     90  C   UNL A   1      51.553  25.788  27.095  1.00  0.00     0.059 A 
ATOM     91  C   UNL A   1      51.125  26.447  24.797  1.00  0.00     0.059 A 
ATOM     92  F   UNL A   1      49.096  27.483  24.244  1.00  0.00    -0.206 F 
ATOM     93  C   UNL A   1      51.953  25.872  25.759  1.00  0.00     0.060 A 
BRANCH  93  94
ATOM     94  S   UNL A   1      53.548  25.170  25.288  1.00  0.00     0.124 S 
ATOM     95  O   UNL A   1      53.723  25.709  23.943  1.00  0.00    -0.237 OA
ATOM     96  O   UNL A   1      54.439  25.711  26.309  1.00  0.00    -0.237 OA
ATOM     97  O   UNL A   1      53.322  23.729  25.362  1.00  0.00    -0.744 OA
ENDBRANCH  93  94
ENDBRANCH  61  86
ENDBRANCH  35  36
ENDBRANCH  27  30
ENDBRANCH  25  26
ENDBRANCH  24  25
ENDBRANCH   1  24
TORSDOF 19
ENDMDL
MODEL 3
REMARK VINA RESULT:     -10.7      2.415      3.097
REMARK SMILES CC(C)(C)N(CC(=O)NCCCNC(=O)c1ccc(-c2c3nc(c(-c4c(F)cc(S(=O)(=O)[O-])cc4F)c4ccc([nH]4)c(-c4c(F)cc(S(=O)(=O)[O-])cc4F)c4nc(c(-c5c(F)cc(S(=O)(=O)[O-])cc5F)c5ccc2[nH]5)C=C4)C=C3)cc1)C(=O)NCCc1cnc[nH]1
REMARK SMILES IDX 10 1 9 2 7 3 8 4 6 6 5 7 2 8 1 9 3 10 4 11 82 12 83 13 84 14
REMARK SMILES IDX 85 16 86 17 87 18 88 19 91 20 89 21 90 22 11 24 12 25 13 26
REMARK SMILES IDX 14 27 15 29 16 30 17 31 81 32 18 33 80 34 19 35 20 36 21 37
REMARK SMILES IDX 74 38 22 39 79 40 73 41 75 42 23 43 78 44 72 45 71 46 24 48
REMARK SMILES IDX 58 49 37 50 57 51 38 52 41 53 56 54 76 55 39 56 40 57 55 59
REMARK SMILES IDX 77 60 42 61 25 62 26 63 35 64 27 65 28 66 34 67 36 68 29 69
REMARK SMILES IDX 30 70 31 71 32 72 33 73 59 74 60 75 69 76 61 77 62 78 68 79
REMARK SMILES IDX 70 80 63 81 64 82 65 83 66 84 67 85 43 86 44 87 53 88 45 89
REMARK SMILES IDX 46 90 52 91 54 92 47 93 48 94 49 95 50 96 51 97
REMARK H PARENT 9 5 84 15 91 23 13 28 75 47 41 58
REMARK Flexibility Score: inf
ROOT
ATOM      1  C   UNL A   1      33.427  27.495  26.525  1.00  0.00     0.117 C 
ENDROOT
BRANCH   1   2
ATOM      2  N   UNL A   1      32.044  27.137  26.306  1.00  0.00    -0.354 N 
ATOM      3  C   UNL A   1      31.489  25.894  26.282  1.00  0.00     0.239 C 
ATOM      4  O   UNL A   1      30.270  25.825  26.484  1.00  0.00    -0.273 OA
ATOM      5  H   UNL A   1      31.425  27.887  26.153  1.00  0.00     0.163 HD
BRANCH   3   6
ATOM      6  C   UNL A   1      32.346  24.617  26.195  1.00  0.00     0.221 C 
BRANCH   6   7
ATOM      7  N   UNL A   1      32.603  24.037  24.868  1.00  0.00    -0.311 N 
BRANCH   7   8
ATOM      8  C   UNL A   1      33.921  24.356  24.155  1.00  0.00     0.037 C 
ATOM      9  C   UNL A   1      34.383  23.285  23.127  1.00  0.00     0.034 C 
ATOM     10  C   UNL A   1      35.103  24.515  25.144  1.00  0.00     0.034 C 
ATOM     11  C   UNL A   1      33.780  25.660  23.330  1.00  0.00     0.034 C 
ENDBRANCH   7   8
BRANCH   7  12
ATOM     12  C   UNL A   1      31.843  23.012  24.340  1.00  0.00     0.318 C 
ATOM     13  O   UNL A   1      31.026  23.196  23.433  1.00  0.00    -0.249 OA
ATOM     14  N   UNL A   1      31.909  21.726  24.715  1.00  0.00    -0.338 N 
ATOM     15  H   UNL A   1      31.207  21.213  24.254  1.00  0.00     0.165 HD
BRANCH  14  16
ATOM     16  C   UNL A   1      32.675  20.838  25.578  1.00  0.00     0.124 C 
BRANCH  16  17
ATOM     17  C   UNL A   1      33.693  20.006  24.784  1.00  0.00     0.077 C 
BRANCH  17  18
ATOM     18  C   UNL A   1      33.392  18.546  24.835  1.00  0.00     0.036 A 
ATOM     19  C   UNL A   1      33.392  17.559  23.872  1.00  0.00     0.134 A 
ATOM     20  N   UNL A   1      33.014  17.904  25.989  1.00  0.00    -0.348 N 
ATOM     21  N   UNL A   1      33.053  16.347  24.419  1.00  0.00    -0.245 NA
ATOM     22  C   UNL A   1      32.831  16.585  25.689  1.00  0.00     0.196 A 
ATOM     23  H   UNL A   1      32.897  18.319  26.873  1.00  0.00     0.167 HD
ENDBRANCH  17  18
ENDBRANCH  16  17
ENDBRANCH  14  16
ENDBRANCH   7  12
ENDBRANCH   6   7
ENDBRANCH   3   6
ENDBRANCH   1   2
BRANCH   1  24
ATOM     24  C   UNL A   1      33.598  28.840  27.209  1.00  0.00     0.042 C 
BRANCH  24  25
ATOM     25  C   UNL A   1      35.044  29.167  27.549  1.00  0.00     0.118 C 
BRANCH  25  26
ATOM     26  N   UNL A   1      35.148  30.135  28.639  1.00  0.00    -0.352 N 
ATOM     27  C   UNL A   1      36.187  30.391  29.502  1.00  0.00     0.251 C 
ATOM     28  H   UNL A   1      34.348  30.692  28.777  1.00  0.00     0.163 HD
ATOM     29  O   UNL A   1      35.983  31.062  30.512  1.00  0.00    -0.269 OA
BRANCH  27  30
ATOM     30  C   UNL A   1      37.534  29.854  29.223  1.00  0.00     0.039 A 
ATOM     31  C   UNL A   1      38.068  29.951  27.934  1.00  0.00     0.014 A 
ATOM     32  C   UNL A   1      38.270  29.241  30.239  1.00  0.00     0.014 A 
ATOM     33  C   UNL A   1      39.373  29.512  27.689  1.00  0.00     0.010 A 
ATOM     34  C   UNL A   1      39.597  28.902  30.020  1.00  0.00     0.010 A 
ATOM     35  C   UNL A   1      40.164  29.027  28.742  1.00  0.00    -0.014 A 
BRANCH  35  36
ATOM     36  C   UNL A   1      41.580  28.613  28.561  1.00  0.00     0.031 A 
ATOM     37  C   UNL A   1      42.660  29.661  28.577  1.00  0.00     0.074 A 
ATOM     38  C   UNL A   1      41.876  27.334  28.258  1.00  0.00     0.049 A 
ATOM     39  N   UNL A   1      43.916  29.562  28.230  1.00  0.00    -0.248 NA
ATOM     40  C   UNL A   1      42.261  31.014  29.004  1.00  0.00     0.031 C 
ATOM     41  C   UNL A   1      40.914  26.233  28.182  1.00  0.00     0.029 A 
ATOM     42  N   UNL A   1      43.074  26.748  27.926  1.00  0.00    -0.354 N 
ATOM     43  C   UNL A   1      44.445  30.841  28.362  1.00  0.00     0.074 A 
ATOM     44  C   UNL A   1      43.364  31.708  28.773  1.00  0.00     0.031 C 
ATOM     45  C   UNL A   1      41.557  25.108  27.831  1.00  0.00     0.029 A 
ATOM     46  C   UNL A   1      42.966  25.415  27.603  1.00  0.00     0.049 A 
ATOM     47  H   UNL A   1      43.929  27.236  27.920  1.00  0.00     0.167 HD
ATOM     48  C   UNL A   1      45.722  31.250  28.173  1.00  0.00     0.037 A 
ATOM     49  C   UNL A   1      43.890  24.546  27.146  1.00  0.00     0.037 A 
ATOM     50  C   UNL A   1      46.795  30.369  27.797  1.00  0.00     0.049 A 
ATOM     51  C   UNL A   1      45.301  25.026  26.929  1.00  0.00     0.074 A 
ATOM     52  C   UNL A   1      48.137  30.669  27.639  1.00  0.00     0.029 A 
ATOM     53  N   UNL A   1      46.650  29.017  27.520  1.00  0.00    -0.354 N 
ATOM     54  N   UNL A   1      45.798  26.227  27.107  1.00  0.00    -0.248 NA
ATOM     55  C   UNL A   1      46.278  24.037  26.452  1.00  0.00     0.031 C 
ATOM     56  C   UNL A   1      48.794  29.510  27.218  1.00  0.00     0.029 A 
ATOM     57  C   UNL A   1      47.876  28.474  27.174  1.00  0.00     0.049 A 
ATOM     58  H   UNL A   1      45.802  28.519  27.563  1.00  0.00     0.167 HD
ATOM     59  C   UNL A   1      47.151  26.129  26.801  1.00  0.00     0.074 A 
ATOM     60  C   UNL A   1      47.395  24.752  26.425  1.00  0.00     0.031 C 
ATOM     61  C   UNL A   1      48.106  27.091  26.833  1.00  0.00     0.037 A 
BRANCH  48  62
ATOM     62  C   UNL A   1      46.029  32.709  28.373  1.00  0.00     0.058 A 
ATOM     63  C   UNL A   1      46.409  33.221  29.625  1.00  0.00     0.135 A 
ATOM     64  C   UNL A   1      45.982  33.603  27.291  1.00  0.00     0.135 A 
ATOM     65  F   UNL A   1      46.458  32.416  30.699  1.00  0.00    -0.206 F 
ATOM     66  C   UNL A   1      46.699  34.569  29.803  1.00  0.00     0.059 A 
ATOM     67  C   UNL A   1      46.301  34.950  27.439  1.00  0.00     0.059 A 
ATOM     68  F   UNL A   1      45.625  33.170  26.072  1.00  0.00    -0.206 F 
ATOM     69  C   UNL A   1      46.643  35.426  28.703  1.00  0.00     0.060 A 
BRANCH  69  70
ATOM     70  S   UNL A   1      47.034  37.171  28.953  1.00  0.00     0.124 S 
ATOM     71  O   UNL A   1      47.324  37.602  27.589  1.00  0.00    -0.237 OA
ATOM     72  O   UNL A   1      45.797  37.686  29.530  1.00  0.00    -0.237 OA
ATOM     73  O   UNL A   1      48.179  37.139  29.857  1.00  0.00    -0.744 OA
ENDBRANCH  69  70
ENDBRANCH  48  62
BRANCH  49  74
ATOM     74  C   UNL A   1      43.513  23.132  26.870  1.00  0.00     0.058 A 
ATOM     75  C   UNL A   1      43.218  22.249  27.919  1.00  0.00     0.135 A 
ATOM     76  C   UNL A   1      43.426  22.637  25.558  1.00  0.00     0.135 A 
ATOM     77  F   UNL A   1      43.292  22.671  29.191  1.00  0.00    -0.206 F 
ATOM     78  C   UNL A   1      42.870  20.924  27.682  1.00  0.00     0.059 A 
ATOM     79  C   UNL A   1      43.052  21.323  25.294  1.00  0.00     0.059 A 
ATOM     80  F   UNL A   1      43.682  23.444  24.517  1.00  0.00    -0.206 F 
ATOM     81  C   UNL A   1      42.787  20.469  26.365  1.00  0.00     0.060 A 
BRANCH  81  82
ATOM     82  S   UNL A   1      42.291  18.758  26.070  1.00  0.00     0.124 S 
ATOM     83  O   UNL A   1      40.896  18.920  25.679  1.00  0.00    -0.237 OA
ATOM     84  O   UNL A   1      43.209  18.354  25.009  1.00  0.00    -0.237 OA
ATOM     85  O   UNL A   1      42.515  18.114  27.361  1.00  0.00    -0.744 OA
ENDBRANCH  81  82
ENDBRANCH  49  74
BRANCH  61  86
ATOM     86  C   UNL A   1      49.521  26.694  26.519  1.00  0.00     0.058 A 
ATOM     87  C   UNL A   1      50.337  26.052  27.460  1.00  0.00     0.135 A 
ATOM     88  C   UNL A   1      50.021  26.858  25.216  1.00  0.00     0.135 A 
ATOM     89  F   UNL A   1      49.910  25.879  28.721  1.00  0.00    -0.206 F 
ATOM     90  C   UNL A   1      51.602  25.581  27.120  1.00  0.00     0.059 A 
ATOM     91  C   UNL A   1      51.270  26.372  24.847  1.00  0.00     0.059 A 
ATOM     92  F   UNL A   1      49.275  27.461  24.276  1.00  0.00    -0.206 F 
ATOM     93  C   UNL A   1      52.054  25.734  25.807  1.00  0.00     0.060 A 
BRANCH  93  94
ATOM     94  S   UNL A   1      53.659  25.040  25.358  1.00  0.00     0.124 S 
ATOM     95  O   UNL A   1      54.489  25.463  26.482  1.00  0.00    -0.237 OA
ATOM     96  O   UNL A   1      53.371  23.611  25.286  1.00  0.00    -0.237 OA
ATOM     97  O   UNL A   1      53.962  25.677  24.080  1.00  0.00    -0.744 OA
ENDBRANCH  93  94
ENDBRANCH  61  86
ENDBRANCH  35  36
ENDBRANCH  27  30
ENDBRANCH  25  26
ENDBRANCH  24  25
ENDBRANCH   1  24
TORSDOF 19
ENDMDL
