MODEL 1
REMARK VINA RESULT:     -11.3      0.000      0.000
REMARK SMILES CC(C)Cc1ccc([C@H](C)C(=O)NCCCNC(=O)c2ccc(-c3c4nc(c(-c5c(F)cc(S(=O)(=O)[O-])cc5F)c5ccc([nH]5)c(-c5c(F)cc(S(=O)(=O)[O-])cc5F)c5nc(c(-c6c(F)cc(S(=O)(=O)[O-])cc6F)c6ccc3[nH]6)C=C5)C=C4)cc2)cc1
REMARK SMILES IDX 15 1 14 2 13 3 11 4 12 5 9 7 10 8 8 9 5 10 6 11 87 12 7 13
REMARK SMILES IDX 86 14 4 15 2 16 1 17 3 18 16 19 17 20 18 21 19 23 20 24
REMARK SMILES IDX 21 25 85 26 22 27 84 28 23 29 24 30 25 31 78 32 26 33 83 34
REMARK SMILES IDX 77 35 79 36 27 37 82 38 76 39 75 40 28 42 62 43 41 44 61 45
REMARK SMILES IDX 42 46 45 47 60 48 80 49 43 50 44 51 59 53 81 54 46 55 29 56
REMARK SMILES IDX 30 57 39 58 31 59 32 60 38 61 40 62 33 63 34 64 35 65 36 66
REMARK SMILES IDX 37 67 63 68 64 69 73 70 65 71 66 72 72 73 74 74 67 75 68 76
REMARK SMILES IDX 69 77 70 78 71 79 47 80 48 81 57 82 49 83 50 84 56 85 58 86
REMARK SMILES IDX 51 87 52 88 53 89 54 90 55 91
REMARK H PARENT 13 6 17 22 79 41 45 52
REMARK Flexibility Score: inf
ROOT
ATOM      1  C   UNL A   1      33.878  28.253  25.976  1.00  0.00     0.042 C 
ENDROOT
BRANCH   1   2
ATOM      2  C   UNL A   1      33.588  26.795  25.669  1.00  0.00     0.117 C 
BRANCH   2   3
ATOM      3  N   UNL A   1      32.362  26.328  26.297  1.00  0.00    -0.356 N 
ATOM      4  C   UNL A   1      31.185  25.949  25.716  1.00  0.00     0.227 C 
ATOM      5  O   UNL A   1      30.320  25.453  26.442  1.00  0.00    -0.274 OA
ATOM      6  H   UNL A   1      32.382  26.276  27.280  1.00  0.00     0.163 HD
BRANCH   4   7
ATOM      7  C   UNL A   1      30.944  26.150  24.220  1.00  0.00     0.105 C 
ATOM      8  C   UNL A   1      30.434  24.834  23.605  1.00  0.00     0.023 C 
BRANCH   7   9
ATOM      9  C   UNL A   1      30.129  27.389  23.852  1.00  0.00    -0.036 A 
ATOM     10  C   UNL A   1      28.578  29.666  23.205  1.00  0.00    -0.048 A 
ATOM     11  C   UNL A   1      29.930  29.797  23.527  1.00  0.00     0.004 A 
ATOM     12  C   UNL A   1      28.006  28.391  23.193  1.00  0.00     0.004 A 
ATOM     13  C   UNL A   1      30.700  28.672  23.813  1.00  0.00     0.005 A 
ATOM     14  C   UNL A   1      28.774  27.266  23.508  1.00  0.00     0.005 A 
BRANCH  10  15
ATOM     15  C   UNL A   1      27.781  30.879  22.797  1.00  0.00     0.038 C 
BRANCH  15  16
ATOM     16  C   UNL A   1      28.643  31.917  22.050  1.00  0.00    -0.013 C 
ATOM     17  C   UNL A   1      28.054  32.270  20.681  1.00  0.00     0.008 C 
ATOM     18  C   UNL A   1      28.798  33.180  22.895  1.00  0.00     0.008 C 
ENDBRANCH  15  16
ENDBRANCH  10  15
ENDBRANCH   7   9
ENDBRANCH   4   7
ENDBRANCH   2   3
ENDBRANCH   1   2
BRANCH   1  19
ATOM     19  C   UNL A   1      33.555  28.659  27.408  1.00  0.00     0.118 C 
BRANCH  19  20
ATOM     20  N   UNL A   1      33.697  30.092  27.645  1.00  0.00    -0.352 N 
ATOM     21  C   UNL A   1      34.771  30.799  28.131  1.00  0.00     0.251 C 
ATOM     22  H   UNL A   1      32.905  30.633  27.425  1.00  0.00     0.163 HD
ATOM     23  O   UNL A   1      34.649  31.990  28.408  1.00  0.00    -0.269 OA
BRANCH  21  24
ATOM     24  C   UNL A   1      36.060  30.112  28.354  1.00  0.00     0.039 A 
ATOM     25  C   UNL A   1      37.003  30.081  27.323  1.00  0.00     0.014 A 
ATOM     26  C   UNL A   1      36.356  29.547  29.596  1.00  0.00     0.014 A 
ATOM     27  C   UNL A   1      38.283  29.584  27.575  1.00  0.00     0.010 A 
ATOM     28  C   UNL A   1      37.655  29.135  29.870  1.00  0.00     0.010 A 
ATOM     29  C   UNL A   1      38.636  29.166  28.868  1.00  0.00    -0.014 A 
BRANCH  29  30
ATOM     30  C   UNL A   1      40.032  28.795  29.219  1.00  0.00     0.031 A 
ATOM     31  C   UNL A   1      40.943  29.810  29.850  1.00  0.00     0.074 A 
ATOM     32  C   UNL A   1      40.506  27.583  28.865  1.00  0.00     0.049 A 
ATOM     33  N   UNL A   1      42.226  29.731  30.087  1.00  0.00    -0.248 NA
ATOM     34  C   UNL A   1      40.338  31.095  30.236  1.00  0.00     0.031 C 
ATOM     35  C   UNL A   1      39.734  26.531  28.201  1.00  0.00     0.029 A 
ATOM     36  N   UNL A   1      41.761  27.040  28.991  1.00  0.00    -0.354 N 
ATOM     37  C   UNL A   1      42.587  30.960  30.626  1.00  0.00     0.074 A 
ATOM     38  C   UNL A   1      41.396  31.782  30.642  1.00  0.00     0.031 C 
ATOM     39  C   UNL A   1      40.525  25.467  27.991  1.00  0.00     0.029 A 
ATOM     40  C   UNL A   1      41.871  25.776  28.460  1.00  0.00     0.049 A 
ATOM     41  H   UNL A   1      42.510  27.511  29.421  1.00  0.00     0.167 HD
ATOM     42  C   UNL A   1      43.797  31.359  31.086  1.00  0.00     0.037 A 
ATOM     43  C   UNL A   1      42.941  24.964  28.344  1.00  0.00     0.037 A 
ATOM     44  C   UNL A   1      44.968  30.524  31.100  1.00  0.00     0.049 A 
ATOM     45  C   UNL A   1      44.276  25.434  28.851  1.00  0.00     0.074 A 
ATOM     46  C   UNL A   1      46.219  30.807  31.619  1.00  0.00     0.029 A 
ATOM     47  N   UNL A   1      45.036  29.245  30.569  1.00  0.00    -0.354 N 
ATOM     48  N   UNL A   1      44.585  26.576  29.419  1.00  0.00    -0.248 NA
ATOM     49  C   UNL A   1      45.410  24.511  28.698  1.00  0.00     0.031 C 
ATOM     50  C   UNL A   1      47.054  29.714  31.368  1.00  0.00     0.029 A 
ATOM     51  C   UNL A   1      46.314  28.734  30.724  1.00  0.00     0.049 A 
ATOM     52  H   UNL A   1      44.285  28.769  30.146  1.00  0.00     0.167 HD
ATOM     53  C   UNL A   1      45.944  26.504  29.701  1.00  0.00     0.074 A 
ATOM     54  C   UNL A   1      46.396  25.202  29.256  1.00  0.00     0.031 C 
ATOM     55  C   UNL A   1      46.746  27.435  30.273  1.00  0.00     0.037 A 
BRANCH  42  56
ATOM     56  C   UNL A   1      43.911  32.760  31.618  1.00  0.00     0.058 A 
ATOM     57  C   UNL A   1      43.753  33.041  32.984  1.00  0.00     0.135 A 
ATOM     58  C   UNL A   1      44.208  33.829  30.758  1.00  0.00     0.135 A 
ATOM     59  F   UNL A   1      43.452  32.058  33.847  1.00  0.00    -0.206 F 
ATOM     60  C   UNL A   1      43.858  34.337  33.476  1.00  0.00     0.059 A 
ATOM     61  C   UNL A   1      44.343  35.131  31.231  1.00  0.00     0.059 A 
ATOM     62  F   UNL A   1      44.367  33.615  29.442  1.00  0.00    -0.206 F 
ATOM     63  C   UNL A   1      44.151  35.377  32.591  1.00  0.00     0.060 A 
BRANCH  63  64
ATOM     64  S   UNL A   1      44.284  37.054  33.245  1.00  0.00     0.124 S 
ATOM     65  O   UNL A   1      42.880  37.390  33.470  1.00  0.00    -0.237 OA
ATOM     66  O   UNL A   1      45.088  36.859  34.447  1.00  0.00    -0.237 OA
ATOM     67  O   UNL A   1      44.940  37.788  32.168  1.00  0.00    -0.744 OA
ENDBRANCH  63  64
ENDBRANCH  42  56
BRANCH  43  68
ATOM     68  C   UNL A   1      42.790  23.624  27.720  1.00  0.00     0.058 A 
ATOM     69  C   UNL A   1      43.013  23.442  26.347  1.00  0.00     0.135 A 
ATOM     70  C   UNL A   1      42.444  22.498  28.482  1.00  0.00     0.135 A 
ATOM     71  F   UNL A   1      43.339  24.491  25.577  1.00  0.00    -0.206 F 
ATOM     72  C   UNL A   1      42.890  22.192  25.749  1.00  0.00     0.059 A 
ATOM     73  C   UNL A   1      42.336  21.234  27.910  1.00  0.00     0.059 A 
ATOM     74  F   UNL A   1      42.235  22.616  29.802  1.00  0.00    -0.206 F 
ATOM     75  C   UNL A   1      42.553  21.093  26.541  1.00  0.00     0.060 A 
BRANCH  75  76
ATOM     76  S   UNL A   1      42.454  19.464  25.765  1.00  0.00     0.124 S 
ATOM     77  O   UNL A   1      42.880  18.593  26.854  1.00  0.00    -0.237 OA
ATOM     78  O   UNL A   1      41.045  19.384  25.394  1.00  0.00    -0.237 OA
ATOM     79  O   UNL A   1      43.383  19.573  24.642  1.00  0.00    -0.744 OA
ENDBRANCH  75  76
ENDBRANCH  43  68
BRANCH  55  80
ATOM     80  C   UNL A   1      48.193  27.082  30.460  1.00  0.00     0.058 A 
ATOM     81  C   UNL A   1      49.141  27.336  29.458  1.00  0.00     0.135 A 
ATOM     82  C   UNL A   1      48.647  26.554  31.680  1.00  0.00     0.135 A 
ATOM     83  F   UNL A   1      48.754  27.831  28.272  1.00  0.00    -0.206 F 
ATOM     84  C   UNL A   1      50.492  27.075  29.656  1.00  0.00     0.059 A 
ATOM     85  C   UNL A   1      49.996  26.305  31.907  1.00  0.00     0.059 A 
ATOM     86  F   UNL A   1      47.779  26.299  32.670  1.00  0.00    -0.206 F 
ATOM     87  C   UNL A   1      50.911  26.565  30.887  1.00  0.00     0.060 A 
BRANCH  87  88
ATOM     88  S   UNL A   1      52.676  26.287  31.153  1.00  0.00     0.124 S 
ATOM     89  O   UNL A   1      52.672  24.987  31.816  1.00  0.00    -0.237 OA
ATOM     90  O   UNL A   1      53.204  26.303  29.792  1.00  0.00    -0.237 OA
ATOM     91  O   UNL A   1      53.075  27.417  31.987  1.00  0.00    -0.744 OA
ENDBRANCH  87  88
ENDBRANCH  55  80
ENDBRANCH  29  30
ENDBRANCH  21  24
ENDBRANCH  19  20
ENDBRANCH   1  19
TORSDOF 16
ENDMDL
MODEL 2
REMARK VINA RESULT:     -11.1      4.038     10.314
REMARK SMILES CC(C)Cc1ccc([C@H](C)C(=O)NCCCNC(=O)c2ccc(-c3c4nc(c(-c5c(F)cc(S(=O)(=O)[O-])cc5F)c5ccc([nH]5)c(-c5c(F)cc(S(=O)(=O)[O-])cc5F)c5nc(c(-c6c(F)cc(S(=O)(=O)[O-])cc6F)c6ccc3[nH]6)C=C5)C=C4)cc2)cc1
REMARK SMILES IDX 15 1 14 2 13 3 11 4 12 5 9 7 10 8 8 9 5 10 6 11 87 12 7 13
REMARK SMILES IDX 86 14 4 15 2 16 1 17 3 18 16 19 17 20 18 21 19 23 20 24
REMARK SMILES IDX 21 25 85 26 22 27 84 28 23 29 24 30 25 31 78 32 26 33 83 34
REMARK SMILES IDX 77 35 79 36 27 37 82 38 76 39 75 40 28 42 62 43 41 44 61 45
REMARK SMILES IDX 42 46 45 47 60 48 80 49 43 50 44 51 59 53 81 54 46 55 29 56
REMARK SMILES IDX 30 57 39 58 31 59 32 60 38 61 40 62 33 63 34 64 35 65 36 66
REMARK SMILES IDX 37 67 63 68 64 69 73 70 65 71 66 72 72 73 74 74 67 75 68 76
REMARK SMILES IDX 69 77 70 78 71 79 47 80 48 81 57 82 49 83 50 84 56 85 58 86
REMARK SMILES IDX 51 87 52 88 53 89 54 90 55 91
REMARK H PARENT 13 6 17 22 79 41 45 52
REMARK Flexibility Score: inf
ROOT
ATOM      1  C   UNL A   1      35.900  23.315  25.854  1.00  0.00     0.042 C 
ENDROOT
BRANCH   1   2
ATOM      2  C   UNL A   1      34.691  24.104  25.382  1.00  0.00     0.117 C 
BRANCH   2   3
ATOM      3  N   UNL A   1      34.546  24.085  23.935  1.00  0.00    -0.356 N 
ATOM      4  C   UNL A   1      33.548  23.546  23.174  1.00  0.00     0.227 C 
ATOM      5  O   UNL A   1      33.564  23.773  21.961  1.00  0.00    -0.274 OA
ATOM      6  H   UNL A   1      35.270  24.525  23.431  1.00  0.00     0.163 HD
BRANCH   4   7
ATOM      7  C   UNL A   1      32.459  22.678  23.804  1.00  0.00     0.105 C 
ATOM      8  C   UNL A   1      31.088  23.095  23.243  1.00  0.00     0.023 C 
BRANCH   7   9
ATOM      9  C   UNL A   1      32.731  21.175  23.782  1.00  0.00    -0.036 A 
ATOM     10  C   UNL A   1      33.245  18.394  23.688  1.00  0.00    -0.048 A 
ATOM     11  C   UNL A   1      33.820  19.187  24.682  1.00  0.00     0.004 A 
ATOM     12  C   UNL A   1      32.401  18.991  22.748  1.00  0.00     0.004 A 
ATOM     13  C   UNL A   1      33.540  20.551  24.747  1.00  0.00     0.005 A 
ATOM     14  C   UNL A   1      32.143  20.364  22.799  1.00  0.00     0.005 A 
BRANCH  10  15
ATOM     15  C   UNL A   1      33.474  16.903  23.689  1.00  0.00     0.038 C 
BRANCH  15  16
ATOM     16  C   UNL A   1      33.684  16.349  25.114  1.00  0.00    -0.013 C 
ATOM     17  C   UNL A   1      32.669  15.254  25.456  1.00  0.00     0.008 C 
ATOM     18  C   UNL A   1      35.106  15.811  25.265  1.00  0.00     0.008 C 
ENDBRANCH  15  16
ENDBRANCH  10  15
ENDBRANCH   7   9
ENDBRANCH   4   7
ENDBRANCH   2   3
ENDBRANCH   1   2
BRANCH   1  19
ATOM     19  C   UNL A   1      37.147  23.531  25.007  1.00  0.00     0.118 C 
BRANCH  19  20
ATOM     20  N   UNL A   1      38.253  22.655  25.379  1.00  0.00    -0.352 N 
ATOM     21  C   UNL A   1      39.380  22.928  26.118  1.00  0.00     0.251 C 
ATOM     22  H   UNL A   1      38.182  21.729  25.052  1.00  0.00     0.163 HD
ATOM     23  O   UNL A   1      40.280  22.096  26.197  1.00  0.00    -0.269 OA
BRANCH  21  24
ATOM     24  C   UNL A   1      39.519  24.240  26.784  1.00  0.00     0.039 A 
ATOM     25  C   UNL A   1      38.937  24.431  28.039  1.00  0.00     0.014 A 
ATOM     26  C   UNL A   1      40.267  25.259  26.192  1.00  0.00     0.014 A 
ATOM     27  C   UNL A   1      39.202  25.605  28.749  1.00  0.00     0.010 A 
ATOM     28  C   UNL A   1      40.601  26.385  26.934  1.00  0.00     0.010 A 
ATOM     29  C   UNL A   1      40.087  26.561  28.227  1.00  0.00    -0.014 A 
BRANCH  29  30
ATOM     30  C   UNL A   1      40.530  27.736  29.022  1.00  0.00     0.031 A 
ATOM     31  C   UNL A   1      41.833  27.689  29.770  1.00  0.00     0.074 A 
ATOM     32  C   UNL A   1      39.706  28.795  29.159  1.00  0.00     0.049 A 
ATOM     33  N   UNL A   1      42.318  28.542  30.634  1.00  0.00    -0.248 NA
ATOM     34  C   UNL A   1      42.688  26.513  29.540  1.00  0.00     0.031 C 
ATOM     35  C   UNL A   1      38.393  28.935  28.524  1.00  0.00     0.029 A 
ATOM     36  N   UNL A   1      39.839  29.945  29.897  1.00  0.00    -0.354 N 
ATOM     37  C   UNL A   1      43.520  27.997  31.068  1.00  0.00     0.074 A 
ATOM     38  C   UNL A   1      43.671  26.719  30.405  1.00  0.00     0.031 C 
ATOM     39  C   UNL A   1      37.849  30.108  28.888  1.00  0.00     0.029 A 
ATOM     40  C   UNL A   1      38.749  30.781  29.818  1.00  0.00     0.049 A 
ATOM     41  H   UNL A   1      40.639  30.152  30.432  1.00  0.00     0.167 HD
ATOM     42  C   UNL A   1      44.426  28.523  31.926  1.00  0.00     0.037 A 
ATOM     43  C   UNL A   1      38.493  31.948  30.441  1.00  0.00     0.037 A 
ATOM     44  C   UNL A   1      44.287  29.809  32.556  1.00  0.00     0.049 A 
ATOM     45  C   UNL A   1      39.509  32.507  31.398  1.00  0.00     0.074 A 
ATOM     46  C   UNL A   1      45.187  30.467  33.376  1.00  0.00     0.029 A 
ATOM     47  N   UNL A   1      43.178  30.633  32.437  1.00  0.00    -0.354 N 
ATOM     48  N   UNL A   1      40.672  32.008  31.747  1.00  0.00    -0.248 NA
ATOM     49  C   UNL A   1      39.179  33.781  32.052  1.00  0.00     0.031 C 
ATOM     50  C   UNL A   1      44.605  31.671  33.785  1.00  0.00     0.029 A 
ATOM     51  C   UNL A   1      43.358  31.781  33.191  1.00  0.00     0.049 A 
ATOM     52  H   UNL A   1      42.380  30.431  31.896  1.00  0.00     0.167 HD
ATOM     53  C   UNL A   1      41.216  32.912  32.651  1.00  0.00     0.074 A 
ATOM     54  C   UNL A   1      40.264  33.996  32.785  1.00  0.00     0.031 C 
ATOM     55  C   UNL A   1      42.397  32.849  33.313  1.00  0.00     0.037 A 
BRANCH  42  56
ATOM     56  C   UNL A   1      45.652  27.708  32.229  1.00  0.00     0.058 A 
ATOM     57  C   UNL A   1      46.835  27.861  31.489  1.00  0.00     0.135 A 
ATOM     58  C   UNL A   1      45.654  26.785  33.286  1.00  0.00     0.135 A 
ATOM     59  F   UNL A   1      46.883  28.718  30.458  1.00  0.00    -0.206 F 
ATOM     60  C   UNL A   1      47.969  27.106  31.769  1.00  0.00     0.059 A 
ATOM     61  C   UNL A   1      46.785  26.037  33.601  1.00  0.00     0.059 A 
ATOM     62  F   UNL A   1      44.548  26.599  34.024  1.00  0.00    -0.206 F 
ATOM     63  C   UNL A   1      47.934  26.194  32.826  1.00  0.00     0.060 A 
BRANCH  63  64
ATOM     64  S   UNL A   1      49.415  25.223  33.176  1.00  0.00     0.124 S 
ATOM     65  O   UNL A   1      49.836  24.841  31.830  1.00  0.00    -0.237 OA
ATOM     66  O   UNL A   1      50.270  26.189  33.857  1.00  0.00    -0.237 OA
ATOM     67  O   UNL A   1      48.917  24.133  34.009  1.00  0.00    -0.744 OA
ENDBRANCH  63  64
ENDBRANCH  42  56
BRANCH  43  68
ATOM     68  C   UNL A   1      37.218  32.665  30.177  1.00  0.00     0.058 A 
ATOM     69  C   UNL A   1      36.088  32.439  30.977  1.00  0.00     0.135 A 
ATOM     70  C   UNL A   1      37.108  33.603  29.139  1.00  0.00     0.135 A 
ATOM     71  F   UNL A   1      36.143  31.545  31.977  1.00  0.00    -0.206 F 
ATOM     72  C   UNL A   1      34.892  33.111  30.754  1.00  0.00     0.059 A 
ATOM     73  C   UNL A   1      35.928  34.303  28.910  1.00  0.00     0.059 A 
ATOM     74  F   UNL A   1      38.165  33.866  28.355  1.00  0.00    -0.206 F 
ATOM     75  C   UNL A   1      34.822  34.044  29.718  1.00  0.00     0.060 A 
BRANCH  75  76
ATOM     76  S   UNL A   1      33.281  34.955  29.474  1.00  0.00     0.124 S 
ATOM     77  O   UNL A   1      33.774  36.250  29.021  1.00  0.00    -0.237 OA
ATOM     78  O   UNL A   1      32.599  34.143  28.470  1.00  0.00    -0.237 OA
ATOM     79  O   UNL A   1      32.671  34.939  30.801  1.00  0.00    -0.744 OA
ENDBRANCH  75  76
ENDBRANCH  43  68
BRANCH  55  80
ATOM     80  C   UNL A   1      42.735  33.983  34.238  1.00  0.00     0.058 A 
ATOM     81  C   UNL A   1      42.377  33.949  35.593  1.00  0.00     0.135 A 
ATOM     82  C   UNL A   1      43.487  35.077  33.780  1.00  0.00     0.135 A 
ATOM     83  F   UNL A   1      41.650  32.929  36.075  1.00  0.00    -0.206 F 
ATOM     84  C   UNL A   1      42.750  34.965  36.466  1.00  0.00     0.059 A 
ATOM     85  C   UNL A   1      43.889  36.094  34.640  1.00  0.00     0.059 A 
ATOM     86  F   UNL A   1      43.857  35.152  32.493  1.00  0.00    -0.206 F 
ATOM     87  C   UNL A   1      43.511  36.030  35.981  1.00  0.00     0.060 A 
BRANCH  87  88
ATOM     88  S   UNL A   1      44.041  37.313  37.138  1.00  0.00     0.124 S 
ATOM     89  O   UNL A   1      43.553  38.521  36.481  1.00  0.00    -0.237 OA
ATOM     90  O   UNL A   1      43.346  36.933  38.365  1.00  0.00    -0.237 OA
ATOM     91  O   UNL A   1      45.492  37.159  37.173  1.00  0.00    -0.744 OA
ENDBRANCH  87  88
ENDBRANCH  55  80
ENDBRANCH  29  30
ENDBRANCH  21  24
ENDBRANCH  19  20
ENDBRANCH   1  19
TORSDOF 16
ENDMDL
MODEL 3
REMARK VINA RESULT:     -11.0      4.969     10.608
REMARK SMILES CC(C)Cc1ccc([C@H](C)C(=O)NCCCNC(=O)c2ccc(-c3c4nc(c(-c5c(F)cc(S(=O)(=O)[O-])cc5F)c5ccc([nH]5)c(-c5c(F)cc(S(=O)(=O)[O-])cc5F)c5nc(c(-c6c(F)cc(S(=O)(=O)[O-])cc6F)c6ccc3[nH]6)C=C5)C=C4)cc2)cc1
REMARK SMILES IDX 15 1 14 2 13 3 11 4 12 5 9 7 10 8 8 9 5 10 6 11 87 12 7 13
REMARK SMILES IDX 86 14 4 15 2 16 1 17 3 18 16 19 17 20 18 21 19 23 20 24
REMARK SMILES IDX 21 25 85 26 22 27 84 28 23 29 24 30 25 31 78 32 26 33 83 34
REMARK SMILES IDX 77 35 79 36 27 37 82 38 76 39 75 40 28 42 62 43 41 44 61 45
REMARK SMILES IDX 42 46 45 47 60 48 80 49 43 50 44 51 59 53 81 54 46 55 29 56
REMARK SMILES IDX 30 57 39 58 31 59 32 60 38 61 40 62 33 63 34 64 35 65 36 66
REMARK SMILES IDX 37 67 63 68 64 69 73 70 65 71 66 72 72 73 74 74 67 75 68 76
REMARK SMILES IDX 69 77 70 78 71 79 47 80 48 81 57 82 49 83 50 84 56 85 58 86
REMARK SMILES IDX 51 87 52 88 53 89 54 90 55 91
REMARK H PARENT 13 6 17 22 79 41 45 52
REMARK Flexibility Score: inf
ROOT
ATOM      1  C   UNL A   1      37.296  23.529  25.089  1.00  0.00     0.042 C 
ENDROOT
BRANCH   1   2
ATOM      2  C   UNL A   1      36.975  22.053  25.249  1.00  0.00     0.117 C 
BRANCH   2   3
ATOM      3  N   UNL A   1      36.127  21.790  26.401  1.00  0.00    -0.356 N 
ATOM      4  C   UNL A   1      34.766  21.848  26.502  1.00  0.00     0.227 C 
ATOM      5  O   UNL A   1      34.250  21.445  27.548  1.00  0.00    -0.274 OA
ATOM      6  H   UNL A   1      36.601  21.532  27.225  1.00  0.00     0.163 HD
BRANCH   4   7
ATOM      7  C   UNL A   1      33.914  22.408  25.363  1.00  0.00     0.105 C 
ATOM      8  C   UNL A   1      32.989  21.301  24.828  1.00  0.00     0.023 C 
BRANCH   7   9
ATOM      9  C   UNL A   1      33.221  23.737  25.662  1.00  0.00    -0.036 A 
ATOM     10  C   UNL A   1      31.909  26.172  26.255  1.00  0.00    -0.048 A 
ATOM     11  C   UNL A   1      33.289  26.143  26.046  1.00  0.00     0.004 A 
ATOM     12  C   UNL A   1      31.184  24.982  26.154  1.00  0.00     0.004 A 
ATOM     13  C   UNL A   1      33.929  24.948  25.721  1.00  0.00     0.005 A 
ATOM     14  C   UNL A   1      31.832  23.780  25.855  1.00  0.00     0.005 A 
BRANCH  10  15
ATOM     15  C   UNL A   1      31.214  27.487  26.504  1.00  0.00     0.038 C 
BRANCH  15  16
ATOM     16  C   UNL A   1      32.030  28.685  25.978  1.00  0.00    -0.013 C 
ATOM     17  C   UNL A   1      31.323  29.392  24.817  1.00  0.00     0.008 C 
ATOM     18  C   UNL A   1      32.301  29.676  27.108  1.00  0.00     0.008 C 
ENDBRANCH  15  16
ENDBRANCH  10  15
ENDBRANCH   7   9
ENDBRANCH   4   7
ENDBRANCH   2   3
ENDBRANCH   1   2
BRANCH   1  19
ATOM     19  C   UNL A   1      38.087  24.118  26.250  1.00  0.00     0.118 C 
BRANCH  19  20
ATOM     20  N   UNL A   1      39.509  23.794  26.198  1.00  0.00    -0.352 N 
ATOM     21  C   UNL A   1      40.585  24.478  26.713  1.00  0.00     0.251 C 
ATOM     22  H   UNL A   1      39.731  22.960  25.724  1.00  0.00     0.163 HD
ATOM     23  O   UNL A   1      41.728  24.126  26.435  1.00  0.00    -0.269 OA
BRANCH  21  24
ATOM     24  C   UNL A   1      40.358  25.660  27.571  1.00  0.00     0.039 A 
ATOM     25  C   UNL A   1      39.436  25.576  28.616  1.00  0.00     0.014 A 
ATOM     26  C   UNL A   1      41.097  26.829  27.374  1.00  0.00     0.014 A 
ATOM     27  C   UNL A   1      39.336  26.626  29.532  1.00  0.00     0.010 A 
ATOM     28  C   UNL A   1      41.061  27.832  28.335  1.00  0.00     0.010 A 
ATOM     29  C   UNL A   1      40.194  27.733  29.434  1.00  0.00    -0.014 A 
BRANCH  29  30
ATOM     30  C   UNL A   1      40.240  28.785  30.482  1.00  0.00     0.031 A 
ATOM     31  C   UNL A   1      41.175  28.640  31.650  1.00  0.00     0.074 A 
ATOM     32  C   UNL A   1      39.362  29.807  30.437  1.00  0.00     0.049 A 
ATOM     33  N   UNL A   1      41.255  29.363  32.736  1.00  0.00    -0.248 NA
ATOM     34  C   UNL A   1      42.124  27.516  31.605  1.00  0.00     0.031 C 
ATOM     35  C   UNL A   1      38.370  30.028  29.382  1.00  0.00     0.029 A 
ATOM     36  N   UNL A   1      39.144  30.841  31.315  1.00  0.00    -0.354 N 
ATOM     37  C   UNL A   1      42.242  28.770  33.513  1.00  0.00     0.074 A 
ATOM     38  C   UNL A   1      42.703  27.602  32.794  1.00  0.00     0.031 C 
ATOM     39  C   UNL A   1      37.662  31.133  29.666  1.00  0.00     0.029 A 
ATOM     40  C   UNL A   1      38.112  31.672  30.944  1.00  0.00     0.049 A 
ATOM     41  H   UNL A   1      39.676  30.974  32.132  1.00  0.00     0.167 HD
ATOM     42  C   UNL A   1      42.734  29.174  34.709  1.00  0.00     0.037 A 
ATOM     43  C   UNL A   1      37.575  32.735  31.573  1.00  0.00     0.037 A 
ATOM     44  C   UNL A   1      42.295  30.356  35.402  1.00  0.00     0.049 A 
ATOM     45  C   UNL A   1      38.130  33.158  32.904  1.00  0.00     0.074 A 
ATOM     46  C   UNL A   1      42.787  30.895  36.578  1.00  0.00     0.029 A 
ATOM     47  N   UNL A   1      41.261  31.180  34.986  1.00  0.00    -0.354 N 
ATOM     48  N   UNL A   1      39.109  32.622  33.594  1.00  0.00    -0.248 NA
ATOM     49  C   UNL A   1      37.506  34.323  33.548  1.00  0.00     0.031 C 
ATOM     50  C   UNL A   1      42.025  32.024  36.893  1.00  0.00     0.029 A 
ATOM     51  C   UNL A   1      41.081  32.209  35.895  1.00  0.00     0.049 A 
ATOM     52  H   UNL A   1      40.733  31.053  34.165  1.00  0.00     0.167 HD
ATOM     53  C   UNL A   1      39.226  33.392  34.746  1.00  0.00     0.074 A 
ATOM     54  C   UNL A   1      38.229  34.438  34.655  1.00  0.00     0.031 C 
ATOM     55  C   UNL A   1      40.081  33.242  35.788  1.00  0.00     0.037 A 
BRANCH  42  56
ATOM     56  C   UNL A   1      43.808  28.332  35.339  1.00  0.00     0.058 A 
ATOM     57  C   UNL A   1      45.166  28.539  35.049  1.00  0.00     0.135 A 
ATOM     58  C   UNL A   1      43.480  27.328  36.263  1.00  0.00     0.135 A 
ATOM     59  F   UNL A   1      45.534  29.475  34.160  1.00  0.00    -0.206 F 
ATOM     60  C   UNL A   1      46.160  27.760  35.631  1.00  0.00     0.059 A 
ATOM     61  C   UNL A   1      44.459  26.553  36.878  1.00  0.00     0.059 A 
ATOM     62  F   UNL A   1      42.196  27.088  36.574  1.00  0.00    -0.206 F 
ATOM     63  C   UNL A   1      45.796  26.767  36.543  1.00  0.00     0.060 A 
BRANCH  63  64
ATOM     64  S   UNL A   1      47.098  25.764  37.291  1.00  0.00     0.124 S 
ATOM     65  O   UNL A   1      46.435  24.468  37.408  1.00  0.00    -0.237 OA
ATOM     66  O   UNL A   1      48.164  25.842  36.297  1.00  0.00    -0.237 OA
ATOM     67  O   UNL A   1      47.370  26.446  38.552  1.00  0.00    -0.744 OA
ENDBRANCH  63  64
ENDBRANCH  42  56
BRANCH  43  68
ATOM     68  C   UNL A   1      36.447  33.474  30.947  1.00  0.00     0.058 A 
ATOM     69  C   UNL A   1      36.646  34.250  29.797  1.00  0.00     0.135 A 
ATOM     70  C   UNL A   1      35.147  33.403  31.471  1.00  0.00     0.135 A 
ATOM     71  F   UNL A   1      37.874  34.355  29.264  1.00  0.00    -0.206 F 
ATOM     72  C   UNL A   1      35.600  34.937  29.191  1.00  0.00     0.059 A 
ATOM     73  C   UNL A   1      34.080  34.063  30.870  1.00  0.00     0.059 A 
ATOM     74  F   UNL A   1      34.900  32.661  32.562  1.00  0.00    -0.206 F 
ATOM     75  C   UNL A   1      34.318  34.835  29.734  1.00  0.00     0.060 A 
BRANCH  75  76
ATOM     76  S   UNL A   1      32.955  35.683  28.905  1.00  0.00     0.124 S 
ATOM     77  O   UNL A   1      32.167  36.151  30.039  1.00  0.00    -0.237 OA
ATOM     78  O   UNL A   1      33.652  36.713  28.140  1.00  0.00    -0.237 OA
ATOM     79  O   UNL A   1      32.343  34.625  28.104  1.00  0.00    -0.744 OA
ENDBRANCH  75  76
ENDBRANCH  43  68
BRANCH  55  80
ATOM     80  C   UNL A   1      39.985  34.234  36.911  1.00  0.00     0.058 A 
ATOM     81  C   UNL A   1      40.662  35.460  36.861  1.00  0.00     0.135 A 
ATOM     82  C   UNL A   1      39.149  33.986  38.012  1.00  0.00     0.135 A 
ATOM     83  F   UNL A   1      41.481  35.738  35.834  1.00  0.00    -0.206 F 
ATOM     84  C   UNL A   1      40.519  36.409  37.867  1.00  0.00     0.059 A 
ATOM     85  C   UNL A   1      38.974  34.929  39.020  1.00  0.00     0.059 A 
ATOM     86  F   UNL A   1      38.476  32.829  38.103  1.00  0.00    -0.206 F 
ATOM     87  C   UNL A   1      39.668  36.136  38.940  1.00  0.00     0.060 A 
BRANCH  87  88
ATOM     88  S   UNL A   1      39.443  37.401  40.210  1.00  0.00     0.124 S 
ATOM     89  O   UNL A   1      38.507  38.310  39.555  1.00  0.00    -0.237 OA
ATOM     90  O   UNL A   1      38.903  36.631  41.327  1.00  0.00    -0.237 OA
ATOM     91  O   UNL A   1      40.791  37.924  40.410  1.00  0.00    -0.744 OA
ENDBRANCH  87  88
ENDBRANCH  55  80
ENDBRANCH  29  30
ENDBRANCH  21  24
ENDBRANCH  19  20
ENDBRANCH   1  19
TORSDOF 16
ENDMDL
