MODEL 1
REMARK VINA RESULT:     -10.8      0.000      0.000
REMARK SMILES C[C@@H]1CC[C@@H](C(=O)NCCCNC(=O)c2ccc(-c3c4nc(c(-c5c(F)cc(S(=O)(=O)[O-])cc5F)c5ccc([nH]5)c(-c5c(F)cc(S(=O)(=O)[O-])cc5F)c5nc(c(-c6c(F)cc(S(=O)(=O)[O-])cc6F)c6ccc3[nH]6)C=C5)C=C4)cc2)[C@H](SCC[NH+](C)C)C1
REMARK SMILES IDX 9 1 8 2 6 3 7 4 5 6 1 7 2 8 3 9 88 10 4 11 81 12 82 13 83 14
REMARK SMILES IDX 84 15 85 16 86 17 87 18 10 20 11 21 12 22 13 23 14 25 15 26
REMARK SMILES IDX 16 27 80 28 17 29 79 30 18 31 19 32 20 33 73 34 21 35 78 36
REMARK SMILES IDX 72 37 74 38 22 39 77 40 71 41 70 42 23 44 57 45 36 46 56 47
REMARK SMILES IDX 37 48 40 49 55 50 75 51 38 52 39 53 54 55 76 56 41 57 24 58
REMARK SMILES IDX 25 59 34 60 26 61 27 62 33 63 35 64 28 65 29 66 30 67 31 68
REMARK SMILES IDX 32 69 58 70 59 71 68 72 60 73 61 74 67 75 69 76 62 77 63 78
REMARK SMILES IDX 64 79 65 80 66 81 42 82 43 83 52 84 44 85 45 86 51 87 53 88
REMARK SMILES IDX 46 89 47 90 48 91 49 92 50 93
REMARK H PARENT 8 5 85 19 12 24 74 43 40 54
REMARK Flexibility Score: inf
ROOT
ATOM      1  C   UNL A   1      31.602  31.122  26.028  1.00  0.00     0.117 C 
ENDROOT
BRANCH   1   2
ATOM      2  N   UNL A   1      32.580  30.231  26.608  1.00  0.00    -0.356 N 
ATOM      3  C   UNL A   1      32.779  28.900  26.497  1.00  0.00     0.224 C 
ATOM      4  O   UNL A   1      33.758  28.458  27.108  1.00  0.00    -0.275 OA
ATOM      5  H   UNL A   1      33.226  30.681  27.199  1.00  0.00     0.163 HD
BRANCH   3   6
ATOM      6  C   UNL A   1      31.816  27.966  25.728  1.00  0.00     0.091 C 
ATOM      7  C   UNL A   1      33.476  25.098  23.248  1.00  0.00     0.007 C 
ATOM      8  C   UNL A   1      33.791  26.135  24.328  1.00  0.00    -0.013 C 
ATOM      9  C   UNL A   1      33.235  25.756  25.713  1.00  0.00     0.004 C 
ATOM     10  C   UNL A   1      33.478  27.544  23.826  1.00  0.00     0.018 C 
ATOM     11  C   UNL A   1      32.125  26.601  26.357  1.00  0.00     0.015 C 
ATOM     12  C   UNL A   1      32.101  28.108  24.212  1.00  0.00     0.059 C 
BRANCH  12  13
ATOM     13  S   UNL A   1      30.964  27.904  22.718  1.00  0.00    -0.152 SA
BRANCH  13  14
ATOM     14  C   UNL A   1      29.304  28.664  22.926  1.00  0.00     0.131 C 
BRANCH  14  15
ATOM     15  C   UNL A   1      28.925  29.807  21.922  1.00  0.00     0.272 C 
BRANCH  15  16
ATOM     16  N   UNL A   1      29.163  31.216  22.314  1.00  0.00    -0.339 N 
ATOM     17  C   UNL A   1      28.474  32.173  21.443  1.00  0.00     0.332 C 
ATOM     18  C   UNL A   1      28.820  31.459  23.693  1.00  0.00     0.332 C 
ATOM     19  H   UNL A   1      30.165  31.364  22.202  1.00  0.00     0.347 HD
ENDBRANCH  15  16
ENDBRANCH  14  15
ENDBRANCH  13  14
ENDBRANCH  12  13
ENDBRANCH   3   6
ENDBRANCH   1   2
BRANCH   1  20
ATOM     20  C   UNL A   1      31.399  32.398  26.839  1.00  0.00     0.042 C 
BRANCH  20  21
ATOM     21  C   UNL A   1      32.663  33.021  27.438  1.00  0.00     0.118 C 
BRANCH  21  22
ATOM     22  N   UNL A   1      32.497  34.403  27.863  1.00  0.00    -0.352 N 
ATOM     23  C   UNL A   1      33.147  35.135  28.828  1.00  0.00     0.251 C 
ATOM     24  H   UNL A   1      31.799  34.899  27.377  1.00  0.00     0.163 HD
ATOM     25  O   UNL A   1      32.749  36.266  29.088  1.00  0.00    -0.269 OA
BRANCH  23  26
ATOM     26  C   UNL A   1      34.294  34.570  29.576  1.00  0.00     0.039 A 
ATOM     27  C   UNL A   1      34.065  34.043  30.851  1.00  0.00     0.014 A 
ATOM     28  C   UNL A   1      35.588  34.581  29.052  1.00  0.00     0.014 A 
ATOM     29  C   UNL A   1      35.118  33.463  31.565  1.00  0.00     0.010 A 
ATOM     30  C   UNL A   1      36.620  33.933  29.731  1.00  0.00     0.010 A 
ATOM     31  C   UNL A   1      36.397  33.367  30.995  1.00  0.00    -0.014 A 
BRANCH  31  32
ATOM     32  C   UNL A   1      37.502  32.667  31.706  1.00  0.00     0.031 A 
ATOM     33  C   UNL A   1      37.992  33.168  33.038  1.00  0.00     0.074 A 
ATOM     34  C   UNL A   1      38.103  31.609  31.122  1.00  0.00     0.049 A 
ATOM     35  N   UNL A   1      38.970  32.716  33.783  1.00  0.00    -0.248 NA
ATOM     36  C   UNL A   1      37.315  34.350  33.596  1.00  0.00     0.031 C 
ATOM     37  C   UNL A   1      37.757  31.059  29.810  1.00  0.00     0.029 A 
ATOM     38  N   UNL A   1      39.133  30.809  31.552  1.00  0.00    -0.354 N 
ATOM     39  C   UNL A   1      39.031  33.559  34.886  1.00  0.00     0.074 A 
ATOM     40  C   UNL A   1      38.030  34.585  34.686  1.00  0.00     0.031 C 
ATOM     41  C   UNL A   1      38.541  30.000  29.554  1.00  0.00     0.029 A 
ATOM     42  C   UNL A   1      39.469  29.815  30.663  1.00  0.00     0.049 A 
ATOM     43  H   UNL A   1      39.588  30.937  32.415  1.00  0.00     0.167 HD
ATOM     44  C   UNL A   1      39.830  33.474  35.977  1.00  0.00     0.037 A 
ATOM     45  C   UNL A   1      40.420  28.863  30.732  1.00  0.00     0.037 A 
ATOM     46  C   UNL A   1      40.808  32.436  36.180  1.00  0.00     0.049 A 
ATOM     47  C   UNL A   1      41.292  28.783  31.956  1.00  0.00     0.074 A 
ATOM     48  C   UNL A   1      41.629  32.229  37.276  1.00  0.00     0.029 A 
ATOM     49  N   UNL A   1      41.101  31.432  35.269  1.00  0.00    -0.354 N 
ATOM     50  N   UNL A   1      41.290  29.551  33.020  1.00  0.00    -0.248 NA
ATOM     51  C   UNL A   1      42.285  27.701  31.998  1.00  0.00     0.031 C 
ATOM     52  C   UNL A   1      42.449  31.129  37.007  1.00  0.00     0.029 A 
ATOM     53  C   UNL A   1      42.101  30.614  35.770  1.00  0.00     0.049 A 
ATOM     54  H   UNL A   1      40.662  31.317  34.394  1.00  0.00     0.167 HD
ATOM     55  C   UNL A   1      42.256  29.025  33.871  1.00  0.00     0.074 A 
ATOM     56  C   UNL A   1      42.816  27.869  33.201  1.00  0.00     0.031 C 
ATOM     57  C   UNL A   1      42.641  29.457  35.097  1.00  0.00     0.037 A 
BRANCH  44  58
ATOM     58  C   UNL A   1      39.676  34.528  37.042  1.00  0.00     0.058 A 
ATOM     59  C   UNL A   1      38.901  34.308  38.192  1.00  0.00     0.135 A 
ATOM     60  C   UNL A   1      40.342  35.760  36.930  1.00  0.00     0.135 A 
ATOM     61  F   UNL A   1      38.230  33.155  38.346  1.00  0.00    -0.206 F 
ATOM     62  C   UNL A   1      38.765  35.282  39.176  1.00  0.00     0.059 A 
ATOM     63  C   UNL A   1      40.246  36.736  37.918  1.00  0.00     0.059 A 
ATOM     64  F   UNL A   1      41.098  36.025  35.854  1.00  0.00    -0.206 F 
ATOM     65  C   UNL A   1      39.442  36.493  39.031  1.00  0.00     0.060 A 
BRANCH  65  66
ATOM     66  S   UNL A   1      39.258  37.742  40.320  1.00  0.00     0.124 S 
ATOM     67  O   UNL A   1      38.274  38.638  39.719  1.00  0.00    -0.237 OA
ATOM     68  O   UNL A   1      38.787  36.954  41.454  1.00  0.00    -0.237 OA
ATOM     69  O   UNL A   1      40.604  38.292  40.457  1.00  0.00    -0.744 OA
ENDBRANCH  65  66
ENDBRANCH  44  58
BRANCH  45  70
ATOM     70  C   UNL A   1      40.579  27.888  29.617  1.00  0.00     0.058 A 
ATOM     71  C   UNL A   1      39.698  26.805  29.474  1.00  0.00     0.135 A 
ATOM     72  C   UNL A   1      41.602  28.028  28.666  1.00  0.00     0.135 A 
ATOM     73  F   UNL A   1      38.707  26.626  30.360  1.00  0.00    -0.206 F 
ATOM     74  C   UNL A   1      39.837  25.885  28.440  1.00  0.00     0.059 A 
ATOM     75  C   UNL A   1      41.743  27.136  27.607  1.00  0.00     0.059 A 
ATOM     76  F   UNL A   1      42.459  29.058  28.746  1.00  0.00    -0.206 F 
ATOM     77  C   UNL A   1      40.862  26.060  27.510  1.00  0.00     0.060 A 
BRANCH  77  78
ATOM     78  S   UNL A   1      41.002  24.887  26.144  1.00  0.00     0.124 S 
ATOM     79  O   UNL A   1      39.666  24.305  26.118  1.00  0.00    -0.237 OA
ATOM     80  O   UNL A   1      41.343  25.759  25.024  1.00  0.00    -0.237 OA
ATOM     81  O   UNL A   1      42.072  23.993  26.580  1.00  0.00    -0.744 OA
ENDBRANCH  77  78
ENDBRANCH  45  70
BRANCH  57  82
ATOM     82  C   UNL A   1      43.684  28.652  35.822  1.00  0.00     0.058 A 
ATOM     83  C   UNL A   1      45.050  28.969  35.750  1.00  0.00     0.135 A 
ATOM     84  C   UNL A   1      43.302  27.577  36.643  1.00  0.00     0.135 A 
ATOM     85  F   UNL A   1      45.469  29.983  34.978  1.00  0.00    -0.206 F 
ATOM     86  C   UNL A   1      46.003  28.231  36.446  1.00  0.00     0.059 A 
ATOM     87  C   UNL A   1      44.235  26.846  37.370  1.00  0.00     0.059 A 
ATOM     88  F   UNL A   1      42.009  27.239  36.755  1.00  0.00    -0.206 F 
ATOM     89  C   UNL A   1      45.585  27.172  37.255  1.00  0.00     0.060 A 
BRANCH  89  90
ATOM     90  S   UNL A   1      46.830  26.244  38.177  1.00  0.00     0.124 S 
ATOM     91  O   UNL A   1      45.997  25.444  39.069  1.00  0.00    -0.237 OA
ATOM     92  O   UNL A   1      47.516  25.508  37.120  1.00  0.00    -0.237 OA
ATOM     93  O   UNL A   1      47.622  27.286  38.823  1.00  0.00    -0.744 OA
ENDBRANCH  89  90
ENDBRANCH  57  82
ENDBRANCH  31  32
ENDBRANCH  23  26
ENDBRANCH  21  22
ENDBRANCH  20  21
ENDBRANCH   1  20
TORSDOF 17
ENDMDL
MODEL 2
REMARK VINA RESULT:     -10.7      5.044      6.869
REMARK SMILES C[C@@H]1CC[C@@H](C(=O)NCCCNC(=O)c2ccc(-c3c4nc(c(-c5c(F)cc(S(=O)(=O)[O-])cc5F)c5ccc([nH]5)c(-c5c(F)cc(S(=O)(=O)[O-])cc5F)c5nc(c(-c6c(F)cc(S(=O)(=O)[O-])cc6F)c6ccc3[nH]6)C=C5)C=C4)cc2)[C@H](SCC[NH+](C)C)C1
REMARK SMILES IDX 9 1 8 2 6 3 7 4 5 6 1 7 2 8 3 9 88 10 4 11 81 12 82 13 83 14
REMARK SMILES IDX 84 15 85 16 86 17 87 18 10 20 11 21 12 22 13 23 14 25 15 26
REMARK SMILES IDX 16 27 80 28 17 29 79 30 18 31 19 32 20 33 73 34 21 35 78 36
REMARK SMILES IDX 72 37 74 38 22 39 77 40 71 41 70 42 23 44 57 45 36 46 56 47
REMARK SMILES IDX 37 48 40 49 55 50 75 51 38 52 39 53 54 55 76 56 41 57 24 58
REMARK SMILES IDX 25 59 34 60 26 61 27 62 33 63 35 64 28 65 29 66 30 67 31 68
REMARK SMILES IDX 32 69 58 70 59 71 68 72 60 73 61 74 67 75 69 76 62 77 63 78
REMARK SMILES IDX 64 79 65 80 66 81 42 82 43 83 52 84 44 85 45 86 51 87 53 88
REMARK SMILES IDX 46 89 47 90 48 91 49 92 50 93
REMARK H PARENT 8 5 85 19 12 24 74 43 40 54
REMARK Flexibility Score: inf
ROOT
ATOM      1  C   UNL A   1      32.162  27.925  25.128  1.00  0.00     0.117 C 
ENDROOT
BRANCH   1   2
ATOM      2  N   UNL A   1      32.174  27.363  23.797  1.00  0.00    -0.356 N 
ATOM      3  C   UNL A   1      32.522  26.147  23.325  1.00  0.00     0.224 C 
ATOM      4  O   UNL A   1      32.364  25.985  22.110  1.00  0.00    -0.275 OA
ATOM      5  H   UNL A   1      31.868  27.987  23.100  1.00  0.00     0.163 HD
BRANCH   3   6
ATOM      6  C   UNL A   1      33.151  25.047  24.212  1.00  0.00     0.091 C 
ATOM      7  C   UNL A   1      32.309  21.102  23.286  1.00  0.00     0.007 C 
ATOM      8  C   UNL A   1      32.186  22.545  22.791  1.00  0.00    -0.013 C 
ATOM      9  C   UNL A   1      33.541  23.174  22.414  1.00  0.00     0.004 C 
ATOM     10  C   UNL A   1      31.290  23.357  23.725  1.00  0.00     0.018 C 
ATOM     11  C   UNL A   1      34.100  24.348  23.231  1.00  0.00     0.015 C 
ATOM     12  C   UNL A   1      32.009  24.182  24.804  1.00  0.00     0.059 C 
BRANCH  12  13
ATOM     13  S   UNL A   1      31.905  23.216  26.423  1.00  0.00    -0.152 SA
BRANCH  13  14
ATOM     14  C   UNL A   1      33.090  21.818  26.542  1.00  0.00     0.131 C 
BRANCH  14  15
ATOM     15  C   UNL A   1      34.437  22.102  27.294  1.00  0.00     0.272 C 
BRANCH  15  16
ATOM     16  N   UNL A   1      35.710  22.022  26.541  1.00  0.00    -0.339 N 
ATOM     17  C   UNL A   1      35.643  21.099  25.404  1.00  0.00     0.332 C 
ATOM     18  C   UNL A   1      36.163  23.320  26.105  1.00  0.00     0.332 C 
ATOM     19  H   UNL A   1      36.393  21.649  27.199  1.00  0.00     0.347 HD
ENDBRANCH  15  16
ENDBRANCH  14  15
ENDBRANCH  13  14
ENDBRANCH  12  13
ENDBRANCH   3   6
ENDBRANCH   1   2
BRANCH   1  20
ATOM     20  C   UNL A   1      33.556  28.263  25.648  1.00  0.00     0.042 C 
BRANCH  20  21
ATOM     21  C   UNL A   1      33.684  28.432  27.164  1.00  0.00     0.118 C 
BRANCH  21  22
ATOM     22  N   UNL A   1      33.626  29.815  27.612  1.00  0.00    -0.352 N 
ATOM     23  C   UNL A   1      34.569  30.606  28.224  1.00  0.00     0.251 C 
ATOM     24  H   UNL A   1      32.763  30.262  27.450  1.00  0.00     0.163 HD
ATOM     25  O   UNL A   1      34.247  31.723  28.618  1.00  0.00    -0.269 OA
BRANCH  23  26
ATOM     26  C   UNL A   1      35.951  30.120  28.442  1.00  0.00     0.039 A 
ATOM     27  C   UNL A   1      36.855  30.177  27.377  1.00  0.00     0.014 A 
ATOM     28  C   UNL A   1      36.356  29.585  29.667  1.00  0.00     0.014 A 
ATOM     29  C   UNL A   1      38.178  29.767  27.562  1.00  0.00     0.010 A 
ATOM     30  C   UNL A   1      37.694  29.250  29.873  1.00  0.00     0.010 A 
ATOM     31  C   UNL A   1      38.621  29.337  28.823  1.00  0.00    -0.014 A 
BRANCH  31  32
ATOM     32  C   UNL A   1      40.049  28.990  29.057  1.00  0.00     0.031 A 
ATOM     33  C   UNL A   1      41.004  30.012  29.613  1.00  0.00     0.074 A 
ATOM     34  C   UNL A   1      40.500  27.765  28.714  1.00  0.00     0.049 A 
ATOM     35  N   UNL A   1      42.289  29.905  29.842  1.00  0.00    -0.248 NA
ATOM     36  C   UNL A   1      40.450  31.340  29.928  1.00  0.00     0.031 C 
ATOM     37  C   UNL A   1      39.687  26.703  28.116  1.00  0.00     0.029 A 
ATOM     38  N   UNL A   1      41.750  27.206  28.813  1.00  0.00    -0.354 N 
ATOM     39  C   UNL A   1      42.697  31.147  30.315  1.00  0.00     0.074 A 
ATOM     40  C   UNL A   1      41.535  32.010  30.287  1.00  0.00     0.031 C 
ATOM     41  C   UNL A   1      40.452  25.616  27.926  1.00  0.00     0.029 A 
ATOM     42  C   UNL A   1      41.815  25.911  28.352  1.00  0.00     0.049 A 
ATOM     43  H   UNL A   1      42.527  27.688  29.178  1.00  0.00     0.167 HD
ATOM     44  C   UNL A   1      43.920  31.528  30.756  1.00  0.00     0.037 A 
ATOM     45  C   UNL A   1      42.856  25.059  28.278  1.00  0.00     0.037 A 
ATOM     46  C   UNL A   1      45.067  30.656  30.804  1.00  0.00     0.049 A 
ATOM     47  C   UNL A   1      44.204  25.501  28.780  1.00  0.00     0.074 A 
ATOM     48  C   UNL A   1      46.336  30.929  31.284  1.00  0.00     0.029 A 
ATOM     49  N   UNL A   1      45.085  29.345  30.352  1.00  0.00    -0.354 N 
ATOM     50  N   UNL A   1      44.555  26.659  29.286  1.00  0.00    -0.248 NA
ATOM     51  C   UNL A   1      45.294  24.519  28.714  1.00  0.00     0.031 C 
ATOM     52  C   UNL A   1      47.134  29.799  31.081  1.00  0.00     0.029 A 
ATOM     53  C   UNL A   1      46.349  28.802  30.527  1.00  0.00     0.049 A 
ATOM     54  H   UNL A   1      44.315  28.869  29.965  1.00  0.00     0.167 HD
ATOM     55  C   UNL A   1      45.896  26.534  29.630  1.00  0.00     0.074 A 
ATOM     56  C   UNL A   1      46.290  25.184  29.281  1.00  0.00     0.031 C 
ATOM     57  C   UNL A   1      46.725  27.451  30.188  1.00  0.00     0.037 A 
BRANCH  44  58
ATOM     58  C   UNL A   1      44.083  32.948  31.231  1.00  0.00     0.058 A 
ATOM     59  C   UNL A   1      44.522  33.968  30.373  1.00  0.00     0.135 A 
ATOM     60  C   UNL A   1      43.757  33.301  32.552  1.00  0.00     0.135 A 
ATOM     61  F   UNL A   1      44.860  33.686  29.104  1.00  0.00    -0.206 F 
ATOM     62  C   UNL A   1      44.666  35.280  30.814  1.00  0.00     0.059 A 
ATOM     63  C   UNL A   1      43.863  34.613  33.005  1.00  0.00     0.059 A 
ATOM     64  F   UNL A   1      43.330  32.368  33.416  1.00  0.00    -0.206 F 
ATOM     65  C   UNL A   1      44.333  35.593  32.132  1.00  0.00     0.060 A 
BRANCH  65  66
ATOM     66  S   UNL A   1      44.520  37.301  32.684  1.00  0.00     0.124 S 
ATOM     67  O   UNL A   1      43.787  38.024  31.649  1.00  0.00    -0.237 OA
ATOM     68  O   UNL A   1      43.894  37.273  34.002  1.00  0.00    -0.237 OA
ATOM     69  O   UNL A   1      45.966  37.503  32.684  1.00  0.00    -0.744 OA
ENDBRANCH  65  66
ENDBRANCH  44  58
BRANCH  45  70
ATOM     70  C   UNL A   1      42.656  23.688  27.732  1.00  0.00     0.058 A 
ATOM     71  C   UNL A   1      42.689  23.448  26.350  1.00  0.00     0.135 A 
ATOM     72  C   UNL A   1      42.444  22.589  28.580  1.00  0.00     0.135 A 
ATOM     73  F   UNL A   1      42.883  24.467  25.498  1.00  0.00    -0.206 F 
ATOM     74  C   UNL A   1      42.500  22.174  25.825  1.00  0.00     0.059 A 
ATOM     75  C   UNL A   1      42.281  21.300  28.081  1.00  0.00     0.059 A 
ATOM     76  F   UNL A   1      42.424  22.760  29.910  1.00  0.00    -0.206 F 
ATOM     77  C   UNL A   1      42.299  21.105  26.700  1.00  0.00     0.060 A 
BRANCH  77  78
ATOM     78  S   UNL A   1      42.103  19.447  26.011  1.00  0.00     0.124 S 
ATOM     79  O   UNL A   1      42.612  18.616  27.095  1.00  0.00    -0.237 OA
ATOM     80  O   UNL A   1      40.664  19.381  25.775  1.00  0.00    -0.237 OA
ATOM     81  O   UNL A   1      42.926  19.487  24.805  1.00  0.00    -0.744 OA
ENDBRANCH  77  78
ENDBRANCH  45  70
BRANCH  57  82
ATOM     82  C   UNL A   1      48.129  27.017  30.505  1.00  0.00     0.058 A 
ATOM     83  C   UNL A   1      49.204  27.288  29.643  1.00  0.00     0.135 A 
ATOM     84  C   UNL A   1      48.410  26.363  31.717  1.00  0.00     0.135 A 
ATOM     85  F   UNL A   1      48.990  27.905  28.471  1.00  0.00    -0.206 F 
ATOM     86  C   UNL A   1      50.503  26.903  29.960  1.00  0.00     0.059 A 
ATOM     87  C   UNL A   1      49.705  25.996  32.067  1.00  0.00     0.059 A 
ATOM     88  F   UNL A   1      47.421  26.090  32.582  1.00  0.00    -0.206 F 
ATOM     89  C   UNL A   1      50.744  26.259  31.176  1.00  0.00     0.060 A 
BRANCH  89  90
ATOM     90  S   UNL A   1      52.439  25.794  31.588  1.00  0.00     0.124 S 
ATOM     91  O   UNL A   1      53.106  25.942  30.298  1.00  0.00    -0.237 OA
ATOM     92  O   UNL A   1      52.795  26.779  32.603  1.00  0.00    -0.237 OA
ATOM     93  O   UNL A   1      52.306  24.423  32.073  1.00  0.00    -0.744 OA
ENDBRANCH  89  90
ENDBRANCH  57  82
ENDBRANCH  31  32
ENDBRANCH  23  26
ENDBRANCH  21  22
ENDBRANCH  20  21
ENDBRANCH   1  20
TORSDOF 17
ENDMDL
MODEL 3
REMARK VINA RESULT:     -10.6      3.268      5.278
REMARK SMILES C[C@@H]1CC[C@@H](C(=O)NCCCNC(=O)c2ccc(-c3c4nc(c(-c5c(F)cc(S(=O)(=O)[O-])cc5F)c5ccc([nH]5)c(-c5c(F)cc(S(=O)(=O)[O-])cc5F)c5nc(c(-c6c(F)cc(S(=O)(=O)[O-])cc6F)c6ccc3[nH]6)C=C5)C=C4)cc2)[C@H](SCC[NH+](C)C)C1
REMARK SMILES IDX 9 1 8 2 6 3 7 4 5 6 1 7 2 8 3 9 88 10 4 11 81 12 82 13 83 14
REMARK SMILES IDX 84 15 85 16 86 17 87 18 10 20 11 21 12 22 13 23 14 25 15 26
REMARK SMILES IDX 16 27 80 28 17 29 79 30 18 31 19 32 20 33 73 34 21 35 78 36
REMARK SMILES IDX 72 37 74 38 22 39 77 40 71 41 70 42 23 44 57 45 36 46 56 47
REMARK SMILES IDX 37 48 40 49 55 50 75 51 38 52 39 53 54 55 76 56 41 57 24 58
REMARK SMILES IDX 25 59 34 60 26 61 27 62 33 63 35 64 28 65 29 66 30 67 31 68
REMARK SMILES IDX 32 69 58 70 59 71 68 72 60 73 61 74 67 75 69 76 62 77 63 78
REMARK SMILES IDX 64 79 65 80 66 81 42 82 43 83 52 84 44 85 45 86 51 87 53 88
REMARK SMILES IDX 46 89 47 90 48 91 49 92 50 93
REMARK H PARENT 8 5 85 19 12 24 74 43 40 54
REMARK Flexibility Score: inf
ROOT
ATOM      1  C   UNL A   1      32.150  26.989  26.059  1.00  0.00     0.117 C 
ENDROOT
BRANCH   1   2
ATOM      2  N   UNL A   1      31.756  25.788  26.757  1.00  0.00    -0.356 N 
ATOM      3  C   UNL A   1      31.887  24.477  26.460  1.00  0.00     0.224 C 
ATOM      4  O   UNL A   1      31.468  23.695  27.321  1.00  0.00    -0.275 OA
ATOM      5  H   UNL A   1      31.304  25.957  27.615  1.00  0.00     0.163 HD
BRANCH   3   6
ATOM      6  C   UNL A   1      32.447  23.971  25.112  1.00  0.00     0.091 C 
ATOM      7  C   UNL A   1      33.885  20.093  24.950  1.00  0.00     0.007 C 
ATOM      8  C   UNL A   1      33.110  21.092  25.811  1.00  0.00    -0.013 C 
ATOM      9  C   UNL A   1      31.727  21.448  25.233  1.00  0.00     0.004 C 
ATOM     10  C   UNL A   1      34.008  22.263  26.210  1.00  0.00     0.018 C 
ATOM     11  C   UNL A   1      31.441  22.874  24.738  1.00  0.00     0.015 C 
ATOM     12  C   UNL A   1      33.913  23.518  25.328  1.00  0.00     0.059 C 
BRANCH  12  13
ATOM     13  S   UNL A   1      35.385  23.494  24.145  1.00  0.00    -0.152 SA
BRANCH  13  14
ATOM     14  C   UNL A   1      37.021  23.560  24.978  1.00  0.00     0.131 C 
BRANCH  14  15
ATOM     15  C   UNL A   1      37.535  22.226  25.621  1.00  0.00     0.272 C 
BRANCH  15  16
ATOM     16  N   UNL A   1      38.677  22.277  26.564  1.00  0.00    -0.339 N 
ATOM     17  C   UNL A   1      39.786  21.406  26.162  1.00  0.00     0.332 C 
ATOM     18  C   UNL A   1      39.148  23.623  26.771  1.00  0.00     0.332 C 
ATOM     19  H   UNL A   1      38.315  21.924  27.450  1.00  0.00     0.347 HD
ENDBRANCH  15  16
ENDBRANCH  14  15
ENDBRANCH  13  14
ENDBRANCH  12  13
ENDBRANCH   3   6
ENDBRANCH   1   2
BRANCH   1  20
ATOM     20  C   UNL A   1      33.462  27.576  26.570  1.00  0.00     0.042 C 
BRANCH  20  21
ATOM     21  C   UNL A   1      34.045  28.731  25.751  1.00  0.00     0.118 C 
BRANCH  21  22
ATOM     22  N   UNL A   1      33.742  30.049  26.289  1.00  0.00    -0.352 N 
ATOM     23  C   UNL A   1      34.342  30.776  27.289  1.00  0.00     0.251 C 
ATOM     24  H   UNL A   1      32.975  30.497  25.864  1.00  0.00     0.163 HD
ATOM     25  O   UNL A   1      33.831  31.831  27.649  1.00  0.00    -0.269 OA
BRANCH  23  26
ATOM     26  C   UNL A   1      35.573  30.291  27.955  1.00  0.00     0.039 A 
ATOM     27  C   UNL A   1      36.797  30.459  27.301  1.00  0.00     0.014 A 
ATOM     28  C   UNL A   1      35.532  29.649  29.195  1.00  0.00     0.014 A 
ATOM     29  C   UNL A   1      37.982  30.052  27.921  1.00  0.00     0.010 A 
ATOM     30  C   UNL A   1      36.720  29.314  29.846  1.00  0.00     0.010 A 
ATOM     31  C   UNL A   1      37.958  29.512  29.217  1.00  0.00    -0.014 A 
BRANCH  31  32
ATOM     32  C   UNL A   1      39.220  29.163  29.925  1.00  0.00     0.031 A 
ATOM     33  C   UNL A   1      39.630  29.908  31.168  1.00  0.00     0.074 A 
ATOM     34  C   UNL A   1      40.027  28.211  29.415  1.00  0.00     0.049 A 
ATOM     35  N   UNL A   1      40.712  29.774  31.893  1.00  0.00    -0.248 NA
ATOM     36  C   UNL A   1      38.718  30.961  31.646  1.00  0.00     0.031 C 
ATOM     37  C   UNL A   1      39.769  27.454  28.188  1.00  0.00     0.029 A 
ATOM     38  N   UNL A   1      41.229  27.717  29.859  1.00  0.00    -0.354 N 
ATOM     39  C   UNL A   1      40.617  30.728  32.901  1.00  0.00     0.074 A 
ATOM     40  C   UNL A   1      39.400  31.472  32.660  1.00  0.00     0.031 C 
ATOM     41  C   UNL A   1      40.766  26.577  27.992  1.00  0.00     0.029 A 
ATOM     42  C   UNL A   1      41.753  26.731  29.056  1.00  0.00     0.049 A 
ATOM     43  H   UNL A   1      41.674  28.040  30.676  1.00  0.00     0.167 HD
ATOM     44  C   UNL A   1      41.454  30.947  33.943  1.00  0.00     0.037 A 
ATOM     45  C   UNL A   1      42.900  26.032  29.161  1.00  0.00     0.037 A 
ATOM     46  C   UNL A   1      42.652  30.186  34.189  1.00  0.00     0.049 A 
ATOM     47  C   UNL A   1      43.810  26.288  30.331  1.00  0.00     0.074 A 
ATOM     48  C   UNL A   1      43.538  30.294  35.247  1.00  0.00     0.029 A 
ATOM     49  N   UNL A   1      43.135  29.179  33.367  1.00  0.00    -0.354 N 
ATOM     50  N   UNL A   1      43.671  27.150  31.310  1.00  0.00    -0.248 NA
ATOM     51  C   UNL A   1      45.028  25.470  30.420  1.00  0.00     0.031 C 
ATOM     52  C   UNL A   1      44.580  29.384  35.041  1.00  0.00     0.029 A 
ATOM     53  C   UNL A   1      44.315  28.669  33.885  1.00  0.00     0.049 A 
ATOM     54  H   UNL A   1      42.703  28.871  32.537  1.00  0.00     0.167 HD
ATOM     55  C   UNL A   1      44.762  26.954  32.149  1.00  0.00     0.074 A 
ATOM     56  C   UNL A   1      45.549  25.886  31.565  1.00  0.00     0.031 C 
ATOM     57  C   UNL A   1      45.082  27.596  33.299  1.00  0.00     0.037 A 
BRANCH  44  58
ATOM     58  C   UNL A   1      41.099  32.051  34.904  1.00  0.00     0.058 A 
ATOM     59  C   UNL A   1      40.251  31.832  36.001  1.00  0.00     0.135 A 
ATOM     60  C   UNL A   1      41.646  33.337  34.750  1.00  0.00     0.135 A 
ATOM     61  F   UNL A   1      39.689  30.627  36.192  1.00  0.00    -0.206 F 
ATOM     62  C   UNL A   1      39.930  32.852  36.891  1.00  0.00     0.059 A 
ATOM     63  C   UNL A   1      41.363  34.365  35.646  1.00  0.00     0.059 A 
ATOM     64  F   UNL A   1      42.464  33.604  33.721  1.00  0.00    -0.206 F 
ATOM     65  C   UNL A   1      40.492  34.116  36.705  1.00  0.00     0.060 A 
BRANCH  65  66
ATOM     66  S   UNL A   1      40.068  35.426  37.871  1.00  0.00     0.124 S 
ATOM     67  O   UNL A   1      38.837  34.906  38.459  1.00  0.00    -0.237 OA
ATOM     68  O   UNL A   1      41.231  35.447  38.753  1.00  0.00    -0.237 OA
ATOM     69  O   UNL A   1      39.908  36.602  37.020  1.00  0.00    -0.744 OA
ENDBRANCH  65  66
ENDBRANCH  44  58
BRANCH  45  70
ATOM     70  C   UNL A   1      43.238  25.000  28.142  1.00  0.00     0.058 A 
ATOM     71  C   UNL A   1      42.742  23.692  28.246  1.00  0.00     0.135 A 
ATOM     72  C   UNL A   1      44.050  25.304  27.037  1.00  0.00     0.135 A 
ATOM     73  F   UNL A   1      41.966  23.350  29.287  1.00  0.00    -0.206 F 
ATOM     74  C   UNL A   1      43.053  22.716  27.305  1.00  0.00     0.059 A 
ATOM     75  C   UNL A   1      44.351  24.353  26.067  1.00  0.00     0.059 A 
ATOM     76  F   UNL A   1      44.533  26.546  26.880  1.00  0.00    -0.206 F 
ATOM     77  C   UNL A   1      43.857  23.058  26.216  1.00  0.00     0.060 A 
BRANCH  77  78
ATOM     78  S   UNL A   1      44.215  21.797  24.974  1.00  0.00     0.124 S 
ATOM     79  O   UNL A   1      43.327  20.717  25.388  1.00  0.00    -0.237 OA
ATOM     80  O   UNL A   1      43.858  22.478  23.734  1.00  0.00    -0.237 OA
ATOM     81  O   UNL A   1      45.642  21.546  25.153  1.00  0.00    -0.744 OA
ENDBRANCH  77  78
ENDBRANCH  45  70
BRANCH  57  82
ATOM     82  C   UNL A   1      46.309  27.133  34.036  1.00  0.00     0.058 A 
ATOM     83  C   UNL A   1      46.257  26.114  35.000  1.00  0.00     0.135 A 
ATOM     84  C   UNL A   1      47.565  27.686  33.734  1.00  0.00     0.135 A 
ATOM     85  F   UNL A   1      45.082  25.555  35.329  1.00  0.00    -0.206 F 
ATOM     86  C   UNL A   1      47.403  25.677  35.657  1.00  0.00     0.059 A 
ATOM     87  C   UNL A   1      48.727  27.244  34.358  1.00  0.00     0.059 A 
ATOM     88  F   UNL A   1      47.673  28.657  32.814  1.00  0.00    -0.206 F 
ATOM     89  C   UNL A   1      48.634  26.247  35.328  1.00  0.00     0.060 A 
BRANCH  89  90
ATOM     90  S   UNL A   1      50.117  25.649  36.165  1.00  0.00     0.124 S 
ATOM     91  O   UNL A   1      50.877  26.883  36.334  1.00  0.00    -0.237 OA
ATOM     92  O   UNL A   1      49.572  25.068  37.388  1.00  0.00    -0.237 OA
ATOM     93  O   UNL A   1      50.679  24.690  35.219  1.00  0.00    -0.744 OA
ENDBRANCH  89  90
ENDBRANCH  57  82
ENDBRANCH  31  32
ENDBRANCH  23  26
ENDBRANCH  21  22
ENDBRANCH  20  21
ENDBRANCH   1  20
TORSDOF 17
ENDMDL
