MODEL 1
REMARK VINA RESULT:     -12.1      0.000      0.000
REMARK SMILES O=C(NCCCNC(=O)c1ccc(-c2c3nc(c(-c4c(F)cc(S(=O)(=O)[O-])cc4F)c4ccc([nH]4)c(-c4c(F)cc(S(=O)(=O)[O-])cc4F)c4nc(c(-c5c(F)cc(S(=O)(=O)[O-])cc5F)c5ccc2[nH]5)C=C4)C=C3)cc1)C1=Cc2cc(S(F)(F)(F)(F)F)cc(Br)c2O[C@@H]1C(F)(F)F
REMARK SMILES IDX 6 1 5 2 4 3 3 4 1 5 2 6 76 8 77 9 92 10 78 11 91 12 79 13
REMARK SMILES IDX 90 14 80 15 88 16 87 17 89 18 93 19 94 20 95 21 96 22 81 23
REMARK SMILES IDX 82 24 83 25 84 26 85 27 86 28 7 29 8 30 9 32 10 33 11 34
REMARK SMILES IDX 75 35 12 36 74 37 13 38 14 39 15 40 68 41 16 42 73 43 67 44
REMARK SMILES IDX 69 45 17 46 72 47 66 48 65 49 18 51 52 52 31 53 51 54 32 55
REMARK SMILES IDX 35 56 50 57 70 58 33 59 34 60 49 62 71 63 36 64 19 65 20 66
REMARK SMILES IDX 29 67 21 68 22 69 28 70 30 71 23 72 24 73 25 74 26 75 27 76
REMARK SMILES IDX 53 77 54 78 63 79 55 80 56 81 62 82 64 83 57 84 58 85 59 86
REMARK SMILES IDX 60 87 61 88 37 89 38 90 47 91 39 92 40 93 46 94 48 95 41 96
REMARK SMILES IDX 42 97 43 98 44 99 45 100
REMARK H PARENT 3 7 7 31 69 50 35 61
REMARK Flexibility Score: inf
ROOT
ATOM      1  C   UNL A   1      33.909  28.427  26.720  1.00  0.00     0.118 C 
ENDROOT
BRANCH   1   2
ATOM      2  C   UNL A   1      32.719  27.489  26.605  1.00  0.00     0.042 C 
BRANCH   2   3
ATOM      3  C   UNL A   1      33.208  26.092  26.259  1.00  0.00     0.118 C 
BRANCH   3   4
ATOM      4  N   UNL A   1      32.061  25.244  25.904  1.00  0.00    -0.352 N 
ATOM      5  O   UNL A   1      30.834  24.139  24.195  1.00  0.00    -0.270 OA
ATOM      6  C   UNL A   1      31.827  24.872  24.501  1.00  0.00     0.251 C 
ATOM      7  H   UNL A   1      31.449  24.926  26.607  1.00  0.00     0.163 HD
BRANCH   6   8
ATOM      8  C   UNL A   1      32.772  25.363  23.417  1.00  0.00     0.067 C 
ATOM      9  C   UNL A   1      34.049  24.897  23.367  1.00  0.00     0.025 C 
ATOM     10  C   UNL A   1      32.291  26.375  22.390  1.00  0.00     0.314 C 
ATOM     11  C   UNL A   1      34.530  23.886  24.394  1.00  0.00     0.020 A 
ATOM     12  O   UNL A   1      32.414  22.825  24.176  1.00  0.00    -0.474 OA
ATOM     13  C   UNL A   1      35.771  24.030  24.993  1.00  0.00     0.036 A 
ATOM     14  C   UNL A   1      33.740  22.859  24.684  1.00  0.00     0.142 A 
ATOM     15  C   UNL A   1      36.215  22.874  25.678  1.00  0.00     0.109 A 
ATOM     16  C   UNL A   1      34.194  21.827  25.471  1.00  0.00     0.062 A 
ATOM     17  C   UNL A   1      35.432  21.876  26.049  1.00  0.00     0.044 A 
ATOM     18  Br  UNL A   1      33.049  20.266  25.772  1.00  0.00    -0.047 Br
BRANCH  10  19
ATOM     19  C   UNL A   1      32.409  25.779  20.998  1.00  0.00     0.429 C 
ATOM     20  F   UNL A   1      31.281  25.993  20.326  1.00  0.00    -0.167 F 
ATOM     21  F   UNL A   1      33.423  26.351  20.355  1.00  0.00    -0.167 F 
ATOM     22  F   UNL A   1      32.627  24.470  21.093  1.00  0.00    -0.167 F 
ENDBRANCH  10  19
BRANCH  15  23
ATOM     23  S   UNL A   1      37.976  22.754  26.073  1.00  0.00     0.310 S 
ATOM     24  F   UNL A   1      38.334  24.003  25.162  1.00  0.00    -0.094 F 
ATOM     25  F   UNL A   1      38.172  21.853  24.796  1.00  0.00    -0.094 F 
ATOM     26  F   UNL A   1      39.490  22.648  26.415  1.00  0.00    -0.094 F 
ATOM     27  F   UNL A   1      37.787  23.771  27.267  1.00  0.00    -0.094 F 
ATOM     28  F   UNL A   1      36.461  22.963  25.674  1.00  0.00    -0.094 F 
ENDBRANCH  15  23
ENDBRANCH   6   8
ENDBRANCH   3   4
ENDBRANCH   2   3
ENDBRANCH   1   2
BRANCH   1  29
ATOM     29  N   UNL A   1      33.475  29.695  27.325  1.00  0.00    -0.352 N 
ATOM     30  C   UNL A   1      34.431  30.511  28.087  1.00  0.00     0.251 C 
ATOM     31  H   UNL A   1      32.544  29.997  27.220  1.00  0.00     0.163 HD
ATOM     32  O   UNL A   1      34.056  31.607  28.610  1.00  0.00    -0.269 OA
BRANCH  30  33
ATOM     33  C   UNL A   1      35.869  30.045  28.249  1.00  0.00     0.039 A 
ATOM     34  C   UNL A   1      36.821  30.217  27.258  1.00  0.00     0.014 A 
ATOM     35  C   UNL A   1      36.200  29.593  29.452  1.00  0.00     0.014 A 
ATOM     36  C   UNL A   1      38.065  29.606  27.546  1.00  0.00     0.010 A 
ATOM     37  C   UNL A   1      37.472  29.138  29.702  1.00  0.00     0.010 A 
ATOM     38  C   UNL A   1      38.450  29.221  28.749  1.00  0.00    -0.014 A 
BRANCH  38  39
ATOM     39  C   UNL A   1      39.900  28.891  29.059  1.00  0.00     0.031 A 
ATOM     40  C   UNL A   1      40.677  29.930  29.575  1.00  0.00     0.074 A 
ATOM     41  C   UNL A   1      40.406  27.653  28.699  1.00  0.00     0.049 A 
ATOM     42  N   UNL A   1      41.984  29.917  29.838  1.00  0.00    -0.248 NA
ATOM     43  C   UNL A   1      40.149  31.258  29.926  1.00  0.00     0.031 C 
ATOM     44  C   UNL A   1      39.627  26.597  28.187  1.00  0.00     0.029 A 
ATOM     45  N   UNL A   1      41.711  27.222  28.765  1.00  0.00    -0.354 N 
ATOM     46  C   UNL A   1      42.366  31.093  30.341  1.00  0.00     0.074 A 
ATOM     47  C   UNL A   1      41.193  31.974  30.399  1.00  0.00     0.031 C 
ATOM     48  C   UNL A   1      40.454  25.548  27.935  1.00  0.00     0.029 A 
ATOM     49  C   UNL A   1      41.762  25.931  28.287  1.00  0.00     0.049 A 
ATOM     50  H   UNL A   1      42.477  27.746  29.095  1.00  0.00     0.167 HD
ATOM     51  C   UNL A   1      43.646  31.463  30.755  1.00  0.00     0.037 A 
ATOM     52  C   UNL A   1      42.877  25.118  28.158  1.00  0.00     0.037 A 
ATOM     53  C   UNL A   1      44.754  30.634  30.665  1.00  0.00     0.049 A 
ATOM     54  C   UNL A   1      44.168  25.508  28.518  1.00  0.00     0.074 A 
ATOM     55  C   UNL A   1      46.049  30.989  31.086  1.00  0.00     0.029 A 
ATOM     56  N   UNL A   1      44.808  29.352  30.166  1.00  0.00    -0.354 N 
ATOM     57  N   UNL A   1      44.543  26.670  29.058  1.00  0.00    -0.248 NA
ATOM     58  C   UNL A   1      45.362  24.667  28.355  1.00  0.00     0.031 C 
ATOM     59  C   UNL A   1      46.876  29.940  30.834  1.00  0.00     0.029 A 
ATOM     60  C   UNL A   1      46.111  28.912  30.252  1.00  0.00     0.049 A 
ATOM     61  H   UNL A   1      44.048  28.838  29.808  1.00  0.00     0.167 HD
ATOM     62  C   UNL A   1      45.858  26.670  29.281  1.00  0.00     0.074 A 
ATOM     63  C   UNL A   1      46.405  25.384  28.826  1.00  0.00     0.031 C 
ATOM     64  C   UNL A   1      46.624  27.688  29.851  1.00  0.00     0.037 A 
BRANCH  51  65
ATOM     65  C   UNL A   1      43.837  32.854  31.337  1.00  0.00     0.058 A 
ATOM     66  C   UNL A   1      43.686  33.012  32.705  1.00  0.00     0.135 A 
ATOM     67  C   UNL A   1      44.115  33.889  30.552  1.00  0.00     0.135 A 
ATOM     68  F   UNL A   1      43.661  31.988  33.555  1.00  0.00    -0.206 F 
ATOM     69  C   UNL A   1      43.558  34.359  33.117  1.00  0.00     0.059 A 
ATOM     70  C   UNL A   1      44.106  35.169  31.051  1.00  0.00     0.059 A 
ATOM     71  F   UNL A   1      44.402  33.683  29.270  1.00  0.00    -0.206 F 
ATOM     72  C   UNL A   1      43.904  35.402  32.383  1.00  0.00     0.060 A 
BRANCH  72  73
ATOM     73  S   UNL A   1      44.099  37.051  33.103  1.00  0.00     0.124 S 
ATOM     74  O   UNL A   1      45.392  37.102  33.921  1.00  0.00    -0.237 OA
ATOM     75  O   UNL A   1      44.161  38.092  31.984  1.00  0.00    -0.237 OA
ATOM     76  O   UNL A   1      42.767  37.388  34.122  1.00  0.00    -0.744 OA
ENDBRANCH  72  73
ENDBRANCH  51  65
BRANCH  52  77
ATOM     77  C   UNL A   1      42.683  23.720  27.591  1.00  0.00     0.058 A 
ATOM     78  C   UNL A   1      42.504  22.681  28.489  1.00  0.00     0.135 A 
ATOM     79  C   UNL A   1      42.672  23.509  26.280  1.00  0.00     0.135 A 
ATOM     80  F   UNL A   1      42.256  22.873  29.781  1.00  0.00    -0.206 F 
ATOM     81  C   UNL A   1      42.610  21.396  27.905  1.00  0.00     0.059 A 
ATOM     82  C   UNL A   1      42.636  22.230  25.778  1.00  0.00     0.059 A 
ATOM     83  F   UNL A   1      42.695  24.544  25.445  1.00  0.00    -0.206 F 
ATOM     84  C   UNL A   1      42.520  21.151  26.611  1.00  0.00     0.060 A 
BRANCH  84  85
ATOM     85  S   UNL A   1      42.258  19.478  25.972  1.00  0.00     0.124 S 
ATOM     86  O   UNL A   1      42.678  18.456  27.031  1.00  0.00    -0.237 OA
ATOM     87  O   UNL A   1      40.777  19.286  25.637  1.00  0.00    -0.237 OA
ATOM     88  O   UNL A   1      43.196  19.253  24.560  1.00  0.00    -0.744 OA
ENDBRANCH  84  85
ENDBRANCH  52  77
BRANCH  64  89
ATOM     89  C   UNL A   1      48.111  27.441  30.043  1.00  0.00     0.058 A 
ATOM     90  C   UNL A   1      48.593  26.773  31.157  1.00  0.00     0.135 A 
ATOM     91  C   UNL A   1      48.922  27.815  29.060  1.00  0.00     0.135 A 
ATOM     92  F   UNL A   1      47.802  26.161  32.035  1.00  0.00    -0.206 F 
ATOM     93  C   UNL A   1      50.002  26.798  31.275  1.00  0.00     0.059 A 
ATOM     94  C   UNL A   1      50.284  27.686  29.189  1.00  0.00     0.059 A 
ATOM     95  F   UNL A   1      48.411  28.318  27.940  1.00  0.00    -0.206 F 
ATOM     96  C   UNL A   1      50.832  27.088  30.290  1.00  0.00     0.060 A 
BRANCH  96  97
ATOM     97  S   UNL A   1      52.601  26.714  30.390  1.00  0.00     0.124 S 
ATOM     98  O   UNL A   1      52.824  25.564  31.376  1.00  0.00    -0.237 OA
ATOM     99  O   UNL A   1      53.115  26.308  29.008  1.00  0.00    -0.237 OA
ATOM    100  O   UNL A   1      53.448  28.099  30.929  1.00  0.00    -0.744 OA
ENDBRANCH  96  97
ENDBRANCH  64  89
ENDBRANCH  38  39
ENDBRANCH  30  33
ENDBRANCH   1  29
TORSDOF 15
ENDMDL
MODEL 2
REMARK VINA RESULT:     -12.0      3.796      9.335
REMARK SMILES O=C(NCCCNC(=O)c1ccc(-c2c3nc(c(-c4c(F)cc(S(=O)(=O)[O-])cc4F)c4ccc([nH]4)c(-c4c(F)cc(S(=O)(=O)[O-])cc4F)c4nc(c(-c5c(F)cc(S(=O)(=O)[O-])cc5F)c5ccc2[nH]5)C=C4)C=C3)cc1)C1=Cc2cc(S(F)(F)(F)(F)F)cc(Br)c2O[C@@H]1C(F)(F)F
REMARK SMILES IDX 6 1 5 2 4 3 3 4 1 5 2 6 76 8 77 9 92 10 78 11 91 12 79 13
REMARK SMILES IDX 90 14 80 15 88 16 87 17 89 18 93 19 94 20 95 21 96 22 81 23
REMARK SMILES IDX 82 24 83 25 84 26 85 27 86 28 7 29 8 30 9 32 10 33 11 34
REMARK SMILES IDX 75 35 12 36 74 37 13 38 14 39 15 40 68 41 16 42 73 43 67 44
REMARK SMILES IDX 69 45 17 46 72 47 66 48 65 49 18 51 52 52 31 53 51 54 32 55
REMARK SMILES IDX 35 56 50 57 70 58 33 59 34 60 49 62 71 63 36 64 19 65 20 66
REMARK SMILES IDX 29 67 21 68 22 69 28 70 30 71 23 72 24 73 25 74 26 75 27 76
REMARK SMILES IDX 53 77 54 78 63 79 55 80 56 81 62 82 64 83 57 84 58 85 59 86
REMARK SMILES IDX 60 87 61 88 37 89 38 90 47 91 39 92 40 93 46 94 48 95 41 96
REMARK SMILES IDX 42 97 43 98 44 99 45 100
REMARK H PARENT 3 7 7 31 69 50 35 61
REMARK Flexibility Score: inf
ROOT
ATOM      1  C   UNL A   1      36.658  23.789  25.612  1.00  0.00     0.118 C 
ENDROOT
BRANCH   1   2
ATOM      2  C   UNL A   1      35.645  23.695  24.483  1.00  0.00     0.042 C 
BRANCH   2   3
ATOM      3  C   UNL A   1      34.789  24.951  24.464  1.00  0.00     0.118 C 
BRANCH   3   4
ATOM      4  N   UNL A   1      33.693  24.783  23.500  1.00  0.00    -0.352 N 
ATOM      5  O   UNL A   1      31.395  24.296  23.138  1.00  0.00    -0.270 OA
ATOM      6  C   UNL A   1      32.343  24.441  23.973  1.00  0.00     0.251 C 
ATOM      7  H   UNL A   1      33.862  24.899  22.537  1.00  0.00     0.163 HD
BRANCH   6   8
ATOM      8  C   UNL A   1      32.081  24.263  25.459  1.00  0.00     0.067 C 
ATOM      9  C   UNL A   1      32.148  25.334  26.295  1.00  0.00     0.025 C 
ATOM     10  C   UNL A   1      31.745  22.888  26.012  1.00  0.00     0.314 C 
ATOM     11  C   UNL A   1      32.485  26.709  25.742  1.00  0.00     0.020 A 
ATOM     12  O   UNL A   1      31.082  26.187  23.895  1.00  0.00    -0.474 OA
ATOM     13  C   UNL A   1      33.389  27.528  26.399  1.00  0.00     0.036 A 
ATOM     14  C   UNL A   1      31.878  27.106  24.630  1.00  0.00     0.142 A 
ATOM     15  C   UNL A   1      33.370  28.872  25.959  1.00  0.00     0.109 A 
ATOM     16  C   UNL A   1      32.013  28.399  24.182  1.00  0.00     0.062 A 
ATOM     17  C   UNL A   1      32.844  29.279  24.817  1.00  0.00     0.044 A 
ATOM     18  Br  UNL A   1      31.000  28.988  22.612  1.00  0.00    -0.047 Br
BRANCH  10  19
ATOM     19  C   UNL A   1      30.376  22.927  26.669  1.00  0.00     0.429 C 
ATOM     20  F   UNL A   1      30.515  22.854  27.990  1.00  0.00    -0.167 F 
ATOM     21  F   UNL A   1      29.763  24.063  26.350  1.00  0.00    -0.167 F 
ATOM     22  F   UNL A   1      29.650  21.896  26.242  1.00  0.00    -0.167 F 
ENDBRANCH  10  19
BRANCH  15  23
ATOM     23  S   UNL A   1      34.119  30.121  27.033  1.00  0.00     0.310 S 
ATOM     24  F   UNL A   1      34.314  29.082  28.216  1.00  0.00    -0.094 F 
ATOM     25  F   UNL A   1      32.692  30.425  27.626  1.00  0.00    -0.094 F 
ATOM     26  F   UNL A   1      34.763  31.196  27.954  1.00  0.00    -0.094 F 
ATOM     27  F   UNL A   1      35.558  29.704  26.529  1.00  0.00    -0.094 F 
ATOM     28  F   UNL A   1      33.496  28.948  26.176  1.00  0.00    -0.094 F 
ENDBRANCH  15  23
ENDBRANCH   6   8
ENDBRANCH   3   4
ENDBRANCH   2   3
ENDBRANCH   1   2
BRANCH   1  29
ATOM     29  N   UNL A   1      37.725  22.802  25.396  1.00  0.00    -0.352 N 
ATOM     30  C   UNL A   1      39.051  23.010  25.996  1.00  0.00     0.251 C 
ATOM     31  H   UNL A   1      37.552  22.002  24.848  1.00  0.00     0.163 HD
ATOM     32  O   UNL A   1      39.974  22.157  25.808  1.00  0.00    -0.269 OA
BRANCH  30  33
ATOM     33  C   UNL A   1      39.318  24.245  26.841  1.00  0.00     0.039 A 
ATOM     34  C   UNL A   1      38.953  24.325  28.174  1.00  0.00     0.014 A 
ATOM     35  C   UNL A   1      40.053  25.191  26.269  1.00  0.00     0.014 A 
ATOM     36  C   UNL A   1      39.173  25.597  28.753  1.00  0.00     0.010 A 
ATOM     37  C   UNL A   1      40.344  26.352  26.943  1.00  0.00     0.010 A 
ATOM     38  C   UNL A   1      39.963  26.525  28.245  1.00  0.00    -0.014 A 
BRANCH  38  39
ATOM     39  C   UNL A   1      40.426  27.720  29.062  1.00  0.00     0.031 A 
ATOM     40  C   UNL A   1      41.646  27.582  29.726  1.00  0.00     0.074 A 
ATOM     41  C   UNL A   1      39.579  28.804  29.218  1.00  0.00     0.049 A 
ATOM     42  N   UNL A   1      42.216  28.444  30.569  1.00  0.00    -0.248 NA
ATOM     43  C   UNL A   1      42.533  26.416  29.589  1.00  0.00     0.031 C 
ATOM     44  C   UNL A   1      38.351  28.954  28.545  1.00  0.00     0.029 A 
ATOM     45  N   UNL A   1      39.755  29.905  30.025  1.00  0.00    -0.354 N 
ATOM     46  C   UNL A   1      43.392  27.971  30.989  1.00  0.00     0.074 A 
ATOM     47  C   UNL A   1      43.610  26.657  30.368  1.00  0.00     0.031 C 
ATOM     48  C   UNL A   1      37.789  30.124  28.950  1.00  0.00     0.029 A 
ATOM     49  C   UNL A   1      38.657  30.723  29.882  1.00  0.00     0.049 A 
ATOM     50  H   UNL A   1      40.532  30.078  30.606  1.00  0.00     0.167 HD
ATOM     51  C   UNL A   1      44.292  28.585  31.860  1.00  0.00     0.037 A 
ATOM     52  C   UNL A   1      38.407  31.928  30.520  1.00  0.00     0.037 A 
ATOM     53  C   UNL A   1      44.062  29.811  32.465  1.00  0.00     0.049 A 
ATOM     54  C   UNL A   1      39.281  32.515  31.437  1.00  0.00     0.074 A 
ATOM     55  C   UNL A   1      44.962  30.447  33.341  1.00  0.00     0.029 A 
ATOM     56  N   UNL A   1      42.952  30.617  32.340  1.00  0.00    -0.354 N 
ATOM     57  N   UNL A   1      40.475  32.062  31.825  1.00  0.00    -0.248 NA
ATOM     58  C   UNL A   1      39.012  33.775  32.144  1.00  0.00     0.031 C 
ATOM     59  C   UNL A   1      44.400  31.617  33.746  1.00  0.00     0.029 A 
ATOM     60  C   UNL A   1      43.138  31.730  33.131  1.00  0.00     0.049 A 
ATOM     61  H   UNL A   1      42.162  30.432  31.783  1.00  0.00     0.167 HD
ATOM     62  C   UNL A   1      41.024  32.904  32.700  1.00  0.00     0.074 A 
ATOM     63  C   UNL A   1      40.089  34.015  32.924  1.00  0.00     0.031 C 
ATOM     64  C   UNL A   1      42.271  32.795  33.320  1.00  0.00     0.037 A 
BRANCH  51  65
ATOM     65  C   UNL A   1      45.598  27.870  32.164  1.00  0.00     0.058 A 
ATOM     66  C   UNL A   1      46.682  28.119  31.338  1.00  0.00     0.135 A 
ATOM     67  C   UNL A   1      45.686  27.013  33.175  1.00  0.00     0.135 A 
ATOM     68  F   UNL A   1      46.724  29.139  30.485  1.00  0.00    -0.206 F 
ATOM     69  C   UNL A   1      47.740  27.191  31.484  1.00  0.00     0.059 A 
ATOM     70  C   UNL A   1      46.806  26.233  33.336  1.00  0.00     0.059 A 
ATOM     71  F   UNL A   1      44.680  26.908  34.038  1.00  0.00    -0.206 F 
ATOM     72  C   UNL A   1      47.892  26.385  32.520  1.00  0.00     0.060 A 
BRANCH  72  73
ATOM     73  S   UNL A   1      49.453  25.528  32.839  1.00  0.00     0.124 S 
ATOM     74  O   UNL A   1      50.466  26.515  33.426  1.00  0.00    -0.237 OA
ATOM     75  O   UNL A   1      49.216  24.389  33.832  1.00  0.00    -0.237 OA
ATOM     76  O   UNL A   1      50.063  24.890  31.374  1.00  0.00    -0.744 OA
ENDBRANCH  72  73
ENDBRANCH  51  65
BRANCH  52  77
ATOM     77  C   UNL A   1      37.108  32.652  30.203  1.00  0.00     0.058 A 
ATOM     78  C   UNL A   1      37.134  33.613  29.206  1.00  0.00     0.135 A 
ATOM     79  C   UNL A   1      35.987  32.361  30.852  1.00  0.00     0.135 A 
ATOM     80  F   UNL A   1      38.154  33.760  28.365  1.00  0.00    -0.206 F 
ATOM     81  C   UNL A   1      35.975  34.424  29.163  1.00  0.00     0.059 A 
ATOM     82  C   UNL A   1      34.852  33.112  30.660  1.00  0.00     0.059 A 
ATOM     83  F   UNL A   1      35.961  31.333  31.695  1.00  0.00    -0.206 F 
ATOM     84  C   UNL A   1      34.824  34.117  29.732  1.00  0.00     0.060 A 
BRANCH  84  85
ATOM     85  S   UNL A   1      33.290  34.979  29.308  1.00  0.00     0.124 S 
ATOM     86  O   UNL A   1      32.385  35.045  30.542  1.00  0.00    -0.237 OA
ATOM     87  O   UNL A   1      33.615  36.398  28.837  1.00  0.00    -0.237 OA
ATOM     88  O   UNL A   1      32.486  34.133  28.058  1.00  0.00    -0.744 OA
ENDBRANCH  84  85
ENDBRANCH  52  77
BRANCH  64  89
ATOM     89  C   UNL A   1      42.702  33.909  34.259  1.00  0.00     0.058 A 
ATOM     90  C   UNL A   1      43.312  35.057  33.782  1.00  0.00     0.135 A 
ATOM     91  C   UNL A   1      42.394  33.775  35.544  1.00  0.00     0.135 A 
ATOM     92  F   UNL A   1      43.410  35.343  32.487  1.00  0.00    -0.206 F 
ATOM     93  C   UNL A   1      43.822  35.900  34.798  1.00  0.00     0.059 A 
ATOM     94  C   UNL A   1      42.810  34.708  36.463  1.00  0.00     0.059 A 
ATOM     95  F   UNL A   1      41.676  32.730  35.944  1.00  0.00    -0.206 F 
ATOM     96  C   UNL A   1      43.469  35.839  36.069  1.00  0.00     0.060 A 
BRANCH  96  97
ATOM     97  S   UNL A   1      43.838  37.180  37.227  1.00  0.00     0.124 S 
ATOM     98  O   UNL A   1      44.178  38.451  36.444  1.00  0.00    -0.237 OA
ATOM     99  O   UNL A   1      42.618  37.438  38.114  1.00  0.00    -0.237 OA
ATOM    100  O   UNL A   1      45.170  36.740  38.205  1.00  0.00    -0.744 OA
ENDBRANCH  96  97
ENDBRANCH  64  89
ENDBRANCH  38  39
ENDBRANCH  30  33
ENDBRANCH   1  29
TORSDOF 15
ENDMDL
MODEL 3
REMARK VINA RESULT:     -12.0      5.125      9.806
REMARK SMILES O=C(NCCCNC(=O)c1ccc(-c2c3nc(c(-c4c(F)cc(S(=O)(=O)[O-])cc4F)c4ccc([nH]4)c(-c4c(F)cc(S(=O)(=O)[O-])cc4F)c4nc(c(-c5c(F)cc(S(=O)(=O)[O-])cc5F)c5ccc2[nH]5)C=C4)C=C3)cc1)C1=Cc2cc(S(F)(F)(F)(F)F)cc(Br)c2O[C@@H]1C(F)(F)F
REMARK SMILES IDX 6 1 5 2 4 3 3 4 1 5 2 6 76 8 77 9 92 10 78 11 91 12 79 13
REMARK SMILES IDX 90 14 80 15 88 16 87 17 89 18 93 19 94 20 95 21 96 22 81 23
REMARK SMILES IDX 82 24 83 25 84 26 85 27 86 28 7 29 8 30 9 32 10 33 11 34
REMARK SMILES IDX 75 35 12 36 74 37 13 38 14 39 15 40 68 41 16 42 73 43 67 44
REMARK SMILES IDX 69 45 17 46 72 47 66 48 65 49 18 51 52 52 31 53 51 54 32 55
REMARK SMILES IDX 35 56 50 57 70 58 33 59 34 60 49 62 71 63 36 64 19 65 20 66
REMARK SMILES IDX 29 67 21 68 22 69 28 70 30 71 23 72 24 73 25 74 26 75 27 76
REMARK SMILES IDX 53 77 54 78 63 79 55 80 56 81 62 82 64 83 57 84 58 85 59 86
REMARK SMILES IDX 60 87 61 88 37 89 38 90 47 91 39 92 40 93 46 94 48 95 41 96
REMARK SMILES IDX 42 97 43 98 44 99 45 100
REMARK H PARENT 3 7 7 31 69 50 35 61
REMARK Flexibility Score: inf
ROOT
ATOM      1  C   UNL A   1      39.516  23.388  27.004  1.00  0.00     0.118 C 
ENDROOT
BRANCH   1   2
ATOM      2  C   UNL A   1      38.448  22.723  26.152  1.00  0.00     0.042 C 
BRANCH   2   3
ATOM      3  C   UNL A   1      37.387  23.745  25.781  1.00  0.00     0.118 C 
BRANCH   3   4
ATOM      4  N   UNL A   1      37.125  23.678  24.336  1.00  0.00    -0.352 N 
ATOM      5  O   UNL A   1      35.769  22.826  22.580  1.00  0.00    -0.270 OA
ATOM      6  C   UNL A   1      35.995  22.884  23.830  1.00  0.00     0.251 C 
ATOM      7  H   UNL A   1      37.705  24.164  23.707  1.00  0.00     0.163 HD
BRANCH   6   8
ATOM      8  C   UNL A   1      35.098  22.134  24.800  1.00  0.00     0.067 C 
ATOM      9  C   UNL A   1      34.079  22.783  25.425  1.00  0.00     0.025 C 
ATOM     10  C   UNL A   1      35.340  20.658  25.074  1.00  0.00     0.314 C 
ATOM     11  C   UNL A   1      33.838  24.259  25.153  1.00  0.00     0.020 A 
ATOM     12  O   UNL A   1      34.298  23.797  22.867  1.00  0.00    -0.474 OA
ATOM     13  C   UNL A   1      33.575  25.131  26.196  1.00  0.00     0.036 A 
ATOM     14  C   UNL A   1      33.869  24.679  23.894  1.00  0.00     0.142 A 
ATOM     15  C   UNL A   1      33.069  26.386  25.780  1.00  0.00     0.109 A 
ATOM     16  C   UNL A   1      33.490  25.962  23.575  1.00  0.00     0.062 A 
ATOM     17  C   UNL A   1      33.160  26.860  24.551  1.00  0.00     0.044 A 
ATOM     18  Br  UNL A   1      33.421  26.509  21.695  1.00  0.00    -0.047 Br
BRANCH  10  19
ATOM     19  C   UNL A   1      34.105  19.862  24.686  1.00  0.00     0.429 C 
ATOM     20  F   UNL A   1      33.442  20.508  23.731  1.00  0.00    -0.167 F 
ATOM     21  F   UNL A   1      34.472  18.665  24.238  1.00  0.00    -0.167 F 
ATOM     22  F   UNL A   1      33.319  19.717  25.750  1.00  0.00    -0.167 F 
ENDBRANCH  10  19
BRANCH  15  23
ATOM     23  S   UNL A   1      32.239  27.411  27.019  1.00  0.00     0.310 S 
ATOM     24  F   UNL A   1      31.965  28.572  25.972  1.00  0.00    -0.094 F 
ATOM     25  F   UNL A   1      33.619  28.107  27.326  1.00  0.00    -0.094 F 
ATOM     26  F   UNL A   1      31.526  28.291  28.085  1.00  0.00    -0.094 F 
ATOM     27  F   UNL A   1      30.842  26.803  26.599  1.00  0.00    -0.094 F 
ATOM     28  F   UNL A   1      32.927  26.593  25.854  1.00  0.00    -0.094 F 
ENDBRANCH  15  23
ENDBRANCH   6   8
ENDBRANCH   3   4
ENDBRANCH   2   3
ENDBRANCH   1   2
BRANCH   1  29
ATOM     29  N   UNL A   1      40.710  23.640  26.185  1.00  0.00    -0.352 N 
ATOM     30  C   UNL A   1      41.543  24.823  26.444  1.00  0.00     0.251 C 
ATOM     31  H   UNL A   1      40.952  23.016  25.462  1.00  0.00     0.163 HD
ATOM     32  O   UNL A   1      42.575  25.041  25.735  1.00  0.00    -0.269 OA
BRANCH  30  33
ATOM     33  C   UNL A   1      41.170  25.786  27.559  1.00  0.00     0.039 A 
ATOM     34  C   UNL A   1      40.108  25.553  28.417  1.00  0.00     0.014 A 
ATOM     35  C   UNL A   1      42.010  26.794  27.760  1.00  0.00     0.014 A 
ATOM     36  C   UNL A   1      39.844  26.622  29.306  1.00  0.00     0.010 A 
ATOM     37  C   UNL A   1      41.760  27.728  28.736  1.00  0.00     0.010 A 
ATOM     38  C   UNL A   1      40.694  27.594  29.583  1.00  0.00    -0.014 A 
BRANCH  38  39
ATOM     39  C   UNL A   1      40.501  28.512  30.778  1.00  0.00     0.031 A 
ATOM     40  C   UNL A   1      39.555  29.528  30.633  1.00  0.00     0.074 A 
ATOM     41  C   UNL A   1      41.342  28.387  31.871  1.00  0.00     0.049 A 
ATOM     42  N   UNL A   1      39.272  30.505  31.495  1.00  0.00    -0.248 NA
ATOM     43  C   UNL A   1      38.684  29.682  29.458  1.00  0.00     0.031 C 
ATOM     44  C   UNL A   1      42.292  27.360  32.028  1.00  0.00     0.029 A 
ATOM     45  N   UNL A   1      41.418  29.205  32.976  1.00  0.00    -0.354 N 
ATOM     46  C   UNL A   1      38.294  31.277  31.014  1.00  0.00     0.074 A 
ATOM     47  C   UNL A   1      37.906  30.761  29.695  1.00  0.00     0.031 C 
ATOM     48  C   UNL A   1      42.941  27.563  33.206  1.00  0.00     0.029 A 
ATOM     49  C   UNL A   1      42.406  28.719  33.803  1.00  0.00     0.049 A 
ATOM     50  H   UNL A   1      40.863  30.002  33.145  1.00  0.00     0.167 HD
ATOM     51  C   UNL A   1      37.710  32.386  31.626  1.00  0.00     0.037 A 
ATOM     52  C   UNL A   1      42.831  29.241  35.014  1.00  0.00     0.037 A 
ATOM     53  C   UNL A   1      38.106  32.883  32.858  1.00  0.00     0.049 A 
ATOM     54  C   UNL A   1      42.286  30.386  35.600  1.00  0.00     0.074 A 
ATOM     55  C   UNL A   1      37.522  33.996  33.492  1.00  0.00     0.029 A 
ATOM     56  N   UNL A   1      39.110  32.411  33.674  1.00  0.00    -0.354 N 
ATOM     57  N   UNL A   1      41.281  31.133  35.138  1.00  0.00    -0.248 NA
ATOM     58  C   UNL A   1      42.750  30.968  36.867  1.00  0.00     0.031 C 
ATOM     59  C   UNL A   1      38.171  34.199  34.669  1.00  0.00     0.029 A 
ATOM     60  C   UNL A   1      39.171  33.216  34.790  1.00  0.00     0.049 A 
ATOM     61  H   UNL A   1      39.685  31.633  33.492  1.00  0.00     0.167 HD
ATOM     62  C   UNL A   1      41.028  32.135  35.981  1.00  0.00     0.074 A 
ATOM     63  C   UNL A   1      41.973  32.047  37.102  1.00  0.00     0.031 C 
ATOM     64  C   UNL A   1      40.042  33.117  35.864  1.00  0.00     0.037 A 
BRANCH  51  65
ATOM     65  C   UNL A   1      36.575  33.090  30.900  1.00  0.00     0.058 A 
ATOM     66  C   UNL A   1      36.902  33.965  29.877  1.00  0.00     0.135 A 
ATOM     67  C   UNL A   1      35.311  32.890  31.256  1.00  0.00     0.135 A 
ATOM     68  F   UNL A   1      38.109  34.008  29.319  1.00  0.00    -0.206 F 
ATOM     69  C   UNL A   1      35.838  34.808  29.480  1.00  0.00     0.059 A 
ATOM     70  C   UNL A   1      34.304  33.661  30.726  1.00  0.00     0.059 A 
ATOM     71  F   UNL A   1      35.018  31.936  32.135  1.00  0.00    -0.206 F 
ATOM     72  C   UNL A   1      34.565  34.586  29.754  1.00  0.00     0.060 A 
BRANCH  72  73
ATOM     73  S   UNL A   1      33.237  35.460  28.889  1.00  0.00     0.124 S 
ATOM     74  O   UNL A   1      32.309  36.119  29.912  1.00  0.00    -0.237 OA
ATOM     75  O   UNL A   1      33.840  36.533  27.980  1.00  0.00    -0.237 OA
ATOM     76  O   UNL A   1      32.345  34.348  27.943  1.00  0.00    -0.744 OA
ENDBRANCH  72  73
ENDBRANCH  51  65
BRANCH  52  77
ATOM     77  C   UNL A   1      43.955  28.527  35.748  1.00  0.00     0.058 A 
ATOM     78  C   UNL A   1      45.255  28.916  35.469  1.00  0.00     0.135 A 
ATOM     79  C   UNL A   1      43.696  27.574  36.636  1.00  0.00     0.135 A 
ATOM     80  F   UNL A   1      45.552  30.020  34.790  1.00  0.00    -0.206 F 
ATOM     81  C   UNL A   1      46.237  28.030  35.972  1.00  0.00     0.059 A 
ATOM     82  C   UNL A   1      44.716  26.839  37.191  1.00  0.00     0.059 A 
ATOM     83  F   UNL A   1      42.438  27.329  36.991  1.00  0.00    -0.206 F 
ATOM     84  C   UNL A   1      46.023  27.129  36.913  1.00  0.00     0.060 A 
BRANCH  84  85
ATOM     85  S   UNL A   1      47.385  26.321  37.789  1.00  0.00     0.124 S 
ATOM     86  O   UNL A   1      47.745  25.015  37.077  1.00  0.00    -0.237 OA
ATOM     87  O   UNL A   1      48.604  27.247  37.803  1.00  0.00    -0.237 OA
ATOM     88  O   UNL A   1      46.909  25.981  39.395  1.00  0.00    -0.744 OA
ENDBRANCH  84  85
ENDBRANCH  52  77
BRANCH  64  89
ATOM     89  C   UNL A   1      39.918  34.141  36.980  1.00  0.00     0.058 A 
ATOM     90  C   UNL A   1      40.653  35.315  36.967  1.00  0.00     0.135 A 
ATOM     91  C   UNL A   1      39.013  33.905  37.924  1.00  0.00     0.135 A 
ATOM     92  F   UNL A   1      41.375  35.706  35.921  1.00  0.00    -0.206 F 
ATOM     93  C   UNL A   1      40.565  36.060  38.166  1.00  0.00     0.059 A 
ATOM     94  C   UNL A   1      38.890  34.749  39.001  1.00  0.00     0.059 A 
ATOM     95  F   UNL A   1      38.221  32.842  37.826  1.00  0.00    -0.206 F 
ATOM     96  C   UNL A   1      39.627  35.898  39.082  1.00  0.00     0.060 A 
BRANCH  96  97
ATOM     97  S   UNL A   1      39.333  37.131  40.375  1.00  0.00     0.124 S 
ATOM     98  O   UNL A   1      38.198  38.062  39.942  1.00  0.00    -0.237 OA
ATOM     99  O   UNL A   1      38.945  36.423  41.674  1.00  0.00    -0.237 OA
ATOM    100  O   UNL A   1      40.756  38.045  40.626  1.00  0.00    -0.744 OA
ENDBRANCH  96  97
ENDBRANCH  64  89
ENDBRANCH  38  39
ENDBRANCH  30  33
ENDBRANCH   1  29
TORSDOF 15
ENDMDL
