MODEL 1
REMARK VINA RESULT:     -11.5      0.000      0.000
REMARK SMILES C[C@@H](Sc1nc(C[NH+]2CCCC2)nc2ccccc12)C(=O)NCCCNC(=O)c1ccc(-c2c3nc(c(-c4c(F)cc(S(=O)(=O)[O-])cc4F)c4ccc([nH]4)c(-c4c(F)cc(S(=O)(=O)[O-])cc4F)c4nc(c(-c5c(F)cc(S(=O)(=O)[O-])cc5F)c5ccc2[nH]5)C=C4)C=C3)cc1
REMARK SMILES IDX 23 1 22 2 20 3 21 4 2 6 1 7 3 8 4 9 5 10 19 11 6 12 14 13
REMARK SMILES IDX 18 14 13 15 15 16 17 17 16 18 7 19 8 20 9 21 12 22 10 24
REMARK SMILES IDX 11 25 24 26 25 27 26 28 27 29 28 31 29 32 30 33 94 34 31 35
REMARK SMILES IDX 93 36 32 37 33 38 34 39 87 40 35 41 92 42 86 43 88 44 36 45
REMARK SMILES IDX 91 46 85 47 84 48 37 50 71 51 50 52 70 53 51 54 54 55 69 56
REMARK SMILES IDX 89 57 52 58 53 59 68 61 90 62 55 63 38 64 39 65 48 66 40 67
REMARK SMILES IDX 41 68 47 69 49 70 42 71 43 72 44 73 45 74 46 75 72 76 73 77
REMARK SMILES IDX 82 78 74 79 75 80 81 81 83 82 76 83 77 84 78 85 79 86 80 87
REMARK SMILES IDX 56 88 57 89 66 90 58 91 59 92 65 93 67 94 60 95 61 96 62 97
REMARK SMILES IDX 63 98 64 99
REMARK H PARENT 22 5 8 23 26 30 88 49 54 60
REMARK Flexibility Score: inf
ROOT
ATOM      1  C   UNL A   1      34.326  24.269  25.550  1.00  0.00     0.117 C 
ENDROOT
BRANCH   1   2
ATOM      2  N   UNL A   1      33.218  24.164  26.488  1.00  0.00    -0.355 N 
ATOM      3  C   UNL A   1      31.869  24.211  26.272  1.00  0.00     0.233 C 
ATOM      4  O   UNL A   1      31.129  24.054  27.248  1.00  0.00    -0.274 OA
ATOM      5  H   UNL A   1      33.481  24.038  27.428  1.00  0.00     0.163 HD
BRANCH   3   6
ATOM      6  C   UNL A   1      31.291  24.474  24.879  1.00  0.00     0.139 C 
ATOM      7  C   UNL A   1      31.027  23.159  24.150  1.00  0.00     0.030 C 
BRANCH   6   8
ATOM      8  S   UNL A   1      29.864  25.619  25.082  1.00  0.00    -0.093 SA
BRANCH   8   9
ATOM      9  C   UNL A   1      30.384  27.026  24.130  1.00  0.00     0.109 A 
ATOM     10  N   UNL A   1      31.706  27.234  24.157  1.00  0.00    -0.220 NA
ATOM     11  C   UNL A   1      29.464  27.923  23.577  1.00  0.00     0.033 A 
ATOM     12  C   UNL A   1      32.139  28.425  23.727  1.00  0.00     0.185 A 
ATOM     13  C   UNL A   1      30.035  29.101  23.084  1.00  0.00     0.075 A 
ATOM     14  C   UNL A   1      28.058  27.736  23.501  1.00  0.00     0.013 A 
ATOM     15  N   UNL A   1      31.347  29.363  23.175  1.00  0.00    -0.227 NA
ATOM     16  C   UNL A   1      29.193  30.051  22.518  1.00  0.00     0.029 A 
ATOM     17  C   UNL A   1      27.237  28.705  22.935  1.00  0.00     0.001 A 
ATOM     18  C   UNL A   1      27.808  29.867  22.439  1.00  0.00     0.002 A 
BRANCH  12  19
ATOM     19  C   UNL A   1      33.587  28.779  24.031  1.00  0.00     0.340 C 
BRANCH  19  20
ATOM     20  N   UNL A   1      33.893  29.328  25.377  1.00  0.00    -0.329 N 
ATOM     21  C   UNL A   1      34.206  28.314  26.389  1.00  0.00     0.262 C 
ATOM     22  C   UNL A   1      32.829  30.178  25.916  1.00  0.00     0.262 C 
ATOM     23  H   UNL A   1      34.729  29.887  25.201  1.00  0.00     0.348 HD
ATOM     24  C   UNL A   1      32.983  28.174  27.278  1.00  0.00     0.067 C 
ATOM     25  C   UNL A   1      32.255  29.495  27.151  1.00  0.00     0.067 C 
ENDBRANCH  19  20
ENDBRANCH  12  19
ENDBRANCH   8   9
ENDBRANCH   6   8
ENDBRANCH   3   6
ENDBRANCH   1   2
BRANCH   1  26
ATOM     26  C   UNL A   1      35.510  23.414  25.960  1.00  0.00     0.042 C 
BRANCH  26  27
ATOM     27  C   UNL A   1      36.770  23.726  25.172  1.00  0.00     0.118 C 
BRANCH  27  28
ATOM     28  N   UNL A   1      37.842  22.774  25.441  1.00  0.00    -0.352 N 
ATOM     29  C   UNL A   1      39.058  22.968  26.047  1.00  0.00     0.251 C 
ATOM     30  H   UNL A   1      37.666  21.853  25.141  1.00  0.00     0.163 HD
ATOM     31  O   UNL A   1      39.914  22.089  25.985  1.00  0.00    -0.269 OA
BRANCH  29  32
ATOM     32  C   UNL A   1      39.340  24.236  26.749  1.00  0.00     0.039 A 
ATOM     33  C   UNL A   1      38.866  24.416  28.050  1.00  0.00     0.014 A 
ATOM     34  C   UNL A   1      40.082  25.245  26.128  1.00  0.00     0.014 A 
ATOM     35  C   UNL A   1      39.207  25.572  28.756  1.00  0.00     0.010 A 
ATOM     36  C   UNL A   1      40.502  26.347  26.863  1.00  0.00     0.010 A 
ATOM     37  C   UNL A   1      40.068  26.524  28.184  1.00  0.00    -0.014 A 
BRANCH  37  38
ATOM     38  C   UNL A   1      40.537  27.707  28.949  1.00  0.00     0.031 A 
ATOM     39  C   UNL A   1      41.883  27.686  29.619  1.00  0.00     0.074 A 
ATOM     40  C   UNL A   1      39.717  28.766  29.105  1.00  0.00     0.049 A 
ATOM     41  N   UNL A   1      42.426  28.575  30.410  1.00  0.00    -0.248 NA
ATOM     42  C   UNL A   1      42.719  26.494  29.396  1.00  0.00     0.031 C 
ATOM     43  C   UNL A   1      38.370  28.885  28.542  1.00  0.00     0.029 A 
ATOM     44  N   UNL A   1      39.888  29.939  29.799  1.00  0.00    -0.354 N 
ATOM     45  C   UNL A   1      43.655  28.046  30.788  1.00  0.00     0.074 A 
ATOM     46  C   UNL A   1      43.754  26.735  30.186  1.00  0.00     0.031 C 
ATOM     47  C   UNL A   1      37.847  30.070  28.893  1.00  0.00     0.029 A 
ATOM     48  C   UNL A   1      38.798  30.775  29.747  1.00  0.00     0.049 A 
ATOM     49  H   UNL A   1      40.713  30.160  30.287  1.00  0.00     0.167 HD
ATOM     50  C   UNL A   1      44.621  28.614  31.548  1.00  0.00     0.037 A 
ATOM     51  C   UNL A   1      38.580  31.968  30.334  1.00  0.00     0.037 A 
ATOM     52  C   UNL A   1      44.520  29.928  32.127  1.00  0.00     0.049 A 
ATOM     53  C   UNL A   1      39.661  32.569  31.193  1.00  0.00     0.074 A 
ATOM     54  C   UNL A   1      45.467  30.616  32.865  1.00  0.00     0.029 A 
ATOM     55  N   UNL A   1      43.406  30.750  32.040  1.00  0.00    -0.354 N 
ATOM     56  N   UNL A   1      40.845  32.084  31.485  1.00  0.00    -0.248 NA
ATOM     57  C   UNL A   1      39.381  33.877  31.800  1.00  0.00     0.031 C 
ATOM     58  C   UNL A   1      44.906  31.830  33.272  1.00  0.00     0.029 A 
ATOM     59  C   UNL A   1      43.631  31.927  32.736  1.00  0.00     0.049 A 
ATOM     60  H   UNL A   1      42.578  30.530  31.556  1.00  0.00     0.167 HD
ATOM     61  C   UNL A   1      41.460  33.041  32.285  1.00  0.00     0.074 A 
ATOM     62  C   UNL A   1      40.523  34.136  32.421  1.00  0.00     0.031 C 
ATOM     63  C   UNL A   1      42.690  33.014  32.855  1.00  0.00     0.037 A 
BRANCH  50  64
ATOM     64  C   UNL A   1      45.873  27.816  31.799  1.00  0.00     0.058 A 
ATOM     65  C   UNL A   1      47.037  28.007  31.036  1.00  0.00     0.135 A 
ATOM     66  C   UNL A   1      45.924  26.878  32.843  1.00  0.00     0.135 A 
ATOM     67  F   UNL A   1      47.041  28.880  30.015  1.00  0.00    -0.206 F 
ATOM     68  C   UNL A   1      48.194  27.276  31.278  1.00  0.00     0.059 A 
ATOM     69  C   UNL A   1      47.082  26.157  33.124  1.00  0.00     0.059 A 
ATOM     70  F   UNL A   1      44.842  26.654  33.604  1.00  0.00    -0.206 F 
ATOM     71  C   UNL A   1      48.208  26.354  32.326  1.00  0.00     0.060 A 
BRANCH  71  72
ATOM     72  S   UNL A   1      49.723  25.421  32.631  1.00  0.00     0.124 S 
ATOM     73  O   UNL A   1      49.245  24.380  33.537  1.00  0.00    -0.237 OA
ATOM     74  O   UNL A   1      50.088  24.974  31.290  1.00  0.00    -0.237 OA
ATOM     75  O   UNL A   1      50.618  26.408  33.226  1.00  0.00    -0.744 OA
ENDBRANCH  71  72
ENDBRANCH  50  64
BRANCH  51  76
ATOM     76  C   UNL A   1      37.290  32.678  30.122  1.00  0.00     0.058 A 
ATOM     77  C   UNL A   1      37.132  33.590  29.067  1.00  0.00     0.135 A 
ATOM     78  C   UNL A   1      36.185  32.451  30.958  1.00  0.00     0.135 A 
ATOM     79  F   UNL A   1      38.160  33.847  28.244  1.00  0.00    -0.206 F 
ATOM     80  C   UNL A   1      35.933  34.265  28.858  1.00  0.00     0.059 A 
ATOM     81  C   UNL A   1      34.967  33.091  30.752  1.00  0.00     0.059 A 
ATOM     82  F   UNL A   1      36.277  31.575  31.971  1.00  0.00    -0.206 F 
ATOM     83  C   UNL A   1      34.854  34.005  29.705  1.00  0.00     0.060 A 
BRANCH  83  84
ATOM     84  S   UNL A   1      33.289  34.849  29.395  1.00  0.00     0.124 S 
ATOM     85  O   UNL A   1      32.737  34.951  30.741  1.00  0.00    -0.237 OA
ATOM     86  O   UNL A   1      33.732  36.102  28.790  1.00  0.00    -0.237 OA
ATOM     87  O   UNL A   1      32.589  33.939  28.493  1.00  0.00    -0.744 OA
ENDBRANCH  83  84
ENDBRANCH  51  76
BRANCH  63  88
ATOM     88  C   UNL A   1      43.116  34.218  33.650  1.00  0.00     0.058 A 
ATOM     89  C   UNL A   1      43.601  35.380  33.032  1.00  0.00     0.135 A 
ATOM     90  C   UNL A   1      42.971  34.231  35.048  1.00  0.00     0.135 A 
ATOM     91  F   UNL A   1      43.767  35.419  31.701  1.00  0.00    -0.206 F 
ATOM     92  C   UNL A   1      43.945  36.507  33.772  1.00  0.00     0.059 A 
ATOM     93  C   UNL A   1      43.280  35.357  35.804  1.00  0.00     0.059 A 
ATOM     94  F   UNL A   1      42.502  33.149  35.690  1.00  0.00    -0.206 F 
ATOM     95  C   UNL A   1      43.774  36.488  35.158  1.00  0.00     0.060 A 
BRANCH  95  96
ATOM     96  S   UNL A   1      44.179  37.974  36.099  1.00  0.00     0.124 S 
ATOM     97  O   UNL A   1      43.798  39.028  35.164  1.00  0.00    -0.237 OA
ATOM     98  O   UNL A   1      43.331  37.836  37.278  1.00  0.00    -0.237 OA
ATOM     99  O   UNL A   1      45.612  37.843  36.345  1.00  0.00    -0.744 OA
ENDBRANCH  95  96
ENDBRANCH  63  88
ENDBRANCH  37  38
ENDBRANCH  29  32
ENDBRANCH  27  28
ENDBRANCH  26  27
ENDBRANCH   1  26
TORSDOF 17
ENDMDL
MODEL 2
REMARK VINA RESULT:     -11.4      3.664      5.456
REMARK SMILES C[C@@H](Sc1nc(C[NH+]2CCCC2)nc2ccccc12)C(=O)NCCCNC(=O)c1ccc(-c2c3nc(c(-c4c(F)cc(S(=O)(=O)[O-])cc4F)c4ccc([nH]4)c(-c4c(F)cc(S(=O)(=O)[O-])cc4F)c4nc(c(-c5c(F)cc(S(=O)(=O)[O-])cc5F)c5ccc2[nH]5)C=C4)C=C3)cc1
REMARK SMILES IDX 23 1 22 2 20 3 21 4 2 6 1 7 3 8 4 9 5 10 19 11 6 12 14 13
REMARK SMILES IDX 18 14 13 15 15 16 17 17 16 18 7 19 8 20 9 21 12 22 10 24
REMARK SMILES IDX 11 25 24 26 25 27 26 28 27 29 28 31 29 32 30 33 94 34 31 35
REMARK SMILES IDX 93 36 32 37 33 38 34 39 87 40 35 41 92 42 86 43 88 44 36 45
REMARK SMILES IDX 91 46 85 47 84 48 37 50 71 51 50 52 70 53 51 54 54 55 69 56
REMARK SMILES IDX 89 57 52 58 53 59 68 61 90 62 55 63 38 64 39 65 48 66 40 67
REMARK SMILES IDX 41 68 47 69 49 70 42 71 43 72 44 73 45 74 46 75 72 76 73 77
REMARK SMILES IDX 82 78 74 79 75 80 81 81 83 82 76 83 77 84 78 85 79 86 80 87
REMARK SMILES IDX 56 88 57 89 66 90 58 91 59 92 65 93 67 94 60 95 61 96 62 97
REMARK SMILES IDX 63 98 64 99
REMARK H PARENT 22 5 8 23 26 30 88 49 54 60
REMARK Flexibility Score: inf
ROOT
ATOM      1  C   UNL A   1      39.795  22.541  26.420  1.00  0.00     0.117 C 
ENDROOT
BRANCH   1   2
ATOM      2  N   UNL A   1      38.968  21.453  25.921  1.00  0.00    -0.355 N 
ATOM      3  C   UNL A   1      37.809  21.483  25.196  1.00  0.00     0.233 C 
ATOM      4  O   UNL A   1      37.319  20.401  24.858  1.00  0.00    -0.274 OA
ATOM      5  H   UNL A   1      39.295  20.551  26.139  1.00  0.00     0.163 HD
BRANCH   3   6
ATOM      6  C   UNL A   1      37.125  22.804  24.835  1.00  0.00     0.139 C 
ATOM      7  C   UNL A   1      36.663  22.790  23.380  1.00  0.00     0.030 C 
BRANCH   6   8
ATOM      8  S   UNL A   1      35.846  23.131  26.117  1.00  0.00    -0.093 SA
BRANCH   8   9
ATOM      9  C   UNL A   1      34.343  22.809  25.226  1.00  0.00     0.109 A 
ATOM     10  N   UNL A   1      33.991  21.518  25.212  1.00  0.00    -0.220 NA
ATOM     11  C   UNL A   1      33.714  23.797  24.461  1.00  0.00     0.033 A 
ATOM     12  C   UNL A   1      33.060  21.155  24.324  1.00  0.00     0.185 A 
ATOM     13  C   UNL A   1      32.698  23.319  23.627  1.00  0.00     0.075 A 
ATOM     14  C   UNL A   1      34.032  25.182  24.461  1.00  0.00     0.013 A 
ATOM     15  N   UNL A   1      32.387  22.018  23.539  1.00  0.00    -0.227 NA
ATOM     16  C   UNL A   1      32.020  24.232  22.828  1.00  0.00     0.029 A 
ATOM     17  C   UNL A   1      33.342  26.074  23.648  1.00  0.00     0.001 A 
ATOM     18  C   UNL A   1      32.329  25.597  22.829  1.00  0.00     0.002 A 
BRANCH  12  19
ATOM     19  C   UNL A   1      32.874  19.662  24.095  1.00  0.00     0.340 C 
BRANCH  19  20
ATOM     20  N   UNL A   1      33.581  18.733  25.013  1.00  0.00    -0.329 N 
ATOM     21  C   UNL A   1      34.561  17.861  24.356  1.00  0.00     0.262 C 
ATOM     22  C   UNL A   1      32.677  17.878  25.787  1.00  0.00     0.262 C 
ATOM     23  H   UNL A   1      34.074  19.373  25.637  1.00  0.00     0.348 HD
ATOM     24  C   UNL A   1      33.937  16.482  24.251  1.00  0.00     0.067 C 
ATOM     25  C   UNL A   1      32.906  16.434  25.358  1.00  0.00     0.067 C 
ENDBRANCH  19  20
ENDBRANCH  12  19
ENDBRANCH   8   9
ENDBRANCH   6   8
ENDBRANCH   3   6
ENDBRANCH   1   2
BRANCH   1  26
ATOM     26  C   UNL A   1      40.518  22.173  27.701  1.00  0.00     0.042 C 
BRANCH  26  27
ATOM     27  C   UNL A   1      41.792  22.972  27.915  1.00  0.00     0.118 C 
BRANCH  27  28
ATOM     28  N   UNL A   1      42.257  23.612  26.690  1.00  0.00    -0.352 N 
ATOM     29  C   UNL A   1      42.227  24.934  26.323  1.00  0.00     0.251 C 
ATOM     30  H   UNL A   1      42.652  23.002  26.025  1.00  0.00     0.163 HD
ATOM     31  O   UNL A   1      42.467  25.247  25.158  1.00  0.00    -0.269 OA
BRANCH  29  32
ATOM     32  C   UNL A   1      41.882  25.970  27.318  1.00  0.00     0.039 A 
ATOM     33  C   UNL A   1      40.711  25.836  28.065  1.00  0.00     0.014 A 
ATOM     34  C   UNL A   1      42.721  27.070  27.521  1.00  0.00     0.014 A 
ATOM     35  C   UNL A   1      40.424  26.759  29.073  1.00  0.00     0.010 A 
ATOM     36  C   UNL A   1      42.486  27.931  28.586  1.00  0.00     0.010 A 
ATOM     37  C   UNL A   1      41.335  27.787  29.373  1.00  0.00    -0.014 A 
BRANCH  37  38
ATOM     38  C   UNL A   1      41.112  28.716  30.509  1.00  0.00     0.031 A 
ATOM     39  C   UNL A   1      41.931  28.583  31.763  1.00  0.00     0.074 A 
ATOM     40  C   UNL A   1      40.119  29.626  30.439  1.00  0.00     0.049 A 
ATOM     41  N   UNL A   1      41.820  29.229  32.894  1.00  0.00    -0.248 NA
ATOM     42  C   UNL A   1      42.998  27.568  31.757  1.00  0.00     0.031 C 
ATOM     43  C   UNL A   1      39.227  29.820  29.294  1.00  0.00     0.029 A 
ATOM     44  N   UNL A   1      39.680  30.547  31.358  1.00  0.00    -0.354 N 
ATOM     45  C   UNL A   1      42.788  28.693  33.735  1.00  0.00     0.074 A 
ATOM     46  C   UNL A   1      43.440  27.629  33.003  1.00  0.00     0.031 C 
ATOM     47  C   UNL A   1      38.363  30.810  29.570  1.00  0.00     0.029 A 
ATOM     48  C   UNL A   1      38.606  31.289  30.926  1.00  0.00     0.049 A 
ATOM     49  H   UNL A   1      40.096  30.665  32.242  1.00  0.00     0.167 HD
ATOM     50  C   UNL A   1      43.118  29.069  34.993  1.00  0.00     0.037 A 
ATOM     51  C   UNL A   1      37.885  32.236  31.558  1.00  0.00     0.037 A 
ATOM     52  C   UNL A   1      42.476  30.142  35.705  1.00  0.00     0.049 A 
ATOM     53  C   UNL A   1      38.257  32.622  32.964  1.00  0.00     0.074 A 
ATOM     54  C   UNL A   1      42.774  30.639  36.962  1.00  0.00     0.029 A 
ATOM     55  N   UNL A   1      41.400  30.879  35.230  1.00  0.00    -0.354 N 
ATOM     56  N   UNL A   1      39.220  32.150  33.720  1.00  0.00    -0.248 NA
ATOM     57  C   UNL A   1      37.450  33.669  33.604  1.00  0.00     0.031 C 
ATOM     58  C   UNL A   1      41.846  31.638  37.269  1.00  0.00     0.029 A 
ATOM     59  C   UNL A   1      41.006  31.807  36.179  1.00  0.00     0.049 A 
ATOM     60  H   UNL A   1      40.981  30.760  34.347  1.00  0.00     0.167 HD
ATOM     61  C   UNL A   1      39.151  32.863  34.913  1.00  0.00     0.074 A 
ATOM     62  C   UNL A   1      38.061  33.805  34.772  1.00  0.00     0.031 C 
ATOM     63  C   UNL A   1      39.922  32.747  36.022  1.00  0.00     0.037 A 
BRANCH  50  64
ATOM     64  C   UNL A   1      44.225  28.315  35.682  1.00  0.00     0.058 A 
ATOM     65  C   UNL A   1      45.568  28.711  35.574  1.00  0.00     0.135 A 
ATOM     66  C   UNL A   1      43.934  27.207  36.494  1.00  0.00     0.135 A 
ATOM     67  F   UNL A   1      45.905  29.755  34.798  1.00  0.00    -0.206 F 
ATOM     68  C   UNL A   1      46.585  28.019  36.221  1.00  0.00     0.059 A 
ATOM     69  C   UNL A   1      44.934  26.518  37.176  1.00  0.00     0.059 A 
ATOM     70  F   UNL A   1      42.669  26.783  36.633  1.00  0.00    -0.206 F 
ATOM     71  C   UNL A   1      46.258  26.924  37.022  1.00  0.00     0.060 A 
BRANCH  71  72
ATOM     72  S   UNL A   1      47.592  26.043  37.861  1.00  0.00     0.124 S 
ATOM     73  O   UNL A   1      46.879  25.440  38.984  1.00  0.00    -0.237 OA
ATOM     74  O   UNL A   1      48.048  25.116  36.830  1.00  0.00    -0.237 OA
ATOM     75  O   UNL A   1      48.533  27.101  38.211  1.00  0.00    -0.744 OA
ENDBRANCH  71  72
ENDBRANCH  50  64
BRANCH  51  76
ATOM     76  C   UNL A   1      36.746  32.893  30.861  1.00  0.00     0.058 A 
ATOM     77  C   UNL A   1      35.419  32.566  31.179  1.00  0.00     0.135 A 
ATOM     78  C   UNL A   1      36.958  33.868  29.874  1.00  0.00     0.135 A 
ATOM     79  F   UNL A   1      35.163  31.635  32.110  1.00  0.00    -0.206 F 
ATOM     80  C   UNL A   1      34.344  33.168  30.533  1.00  0.00     0.059 A 
ATOM     81  C   UNL A   1      35.900  34.506  29.234  1.00  0.00     0.059 A 
ATOM     82  F   UNL A   1      38.208  34.231  29.544  1.00  0.00    -0.206 F 
ATOM     83  C   UNL A   1      34.595  34.141  29.564  1.00  0.00     0.060 A 
BRANCH  83  84
ATOM     84  S   UNL A   1      33.192  34.951  28.767  1.00  0.00     0.124 S 
ATOM     85  O   UNL A   1      32.342  35.259  29.911  1.00  0.00    -0.237 OA
ATOM     86  O   UNL A   1      33.827  36.093  28.117  1.00  0.00    -0.237 OA
ATOM     87  O   UNL A   1      32.684  33.927  27.860  1.00  0.00    -0.744 OA
ENDBRANCH  83  84
ENDBRANCH  51  76
BRANCH  63  88
ATOM     88  C   UNL A   1      39.643  33.685  37.165  1.00  0.00     0.058 A 
ATOM     89  C   UNL A   1      38.763  33.345  38.203  1.00  0.00     0.135 A 
ATOM     90  C   UNL A   1      40.320  34.913  37.255  1.00  0.00     0.135 A 
ATOM     91  F   UNL A   1      38.084  32.188  38.163  1.00  0.00    -0.206 F 
ATOM     92  C   UNL A   1      38.549  34.198  39.282  1.00  0.00     0.059 A 
ATOM     93  C   UNL A   1      40.145  35.766  38.339  1.00  0.00     0.059 A 
ATOM     94  F   UNL A   1      41.181  35.283  36.293  1.00  0.00    -0.206 F 
ATOM     95  C   UNL A   1      39.250  35.403  39.344  1.00  0.00     0.060 A 
BRANCH  95  96
ATOM     96  S   UNL A   1      38.999  36.476  40.775  1.00  0.00     0.124 S 
ATOM     97  O   UNL A   1      38.009  35.722  41.538  1.00  0.00    -0.237 OA
ATOM     98  O   UNL A   1      40.336  36.537  41.356  1.00  0.00    -0.237 OA
ATOM     99  O   UNL A   1      38.520  37.723  40.186  1.00  0.00    -0.744 OA
ENDBRANCH  95  96
ENDBRANCH  63  88
ENDBRANCH  37  38
ENDBRANCH  29  32
ENDBRANCH  27  28
ENDBRANCH  26  27
ENDBRANCH   1  26
TORSDOF 17
ENDMDL
MODEL 3
REMARK VINA RESULT:     -11.2      2.473      3.110
REMARK SMILES C[C@@H](Sc1nc(C[NH+]2CCCC2)nc2ccccc12)C(=O)NCCCNC(=O)c1ccc(-c2c3nc(c(-c4c(F)cc(S(=O)(=O)[O-])cc4F)c4ccc([nH]4)c(-c4c(F)cc(S(=O)(=O)[O-])cc4F)c4nc(c(-c5c(F)cc(S(=O)(=O)[O-])cc5F)c5ccc2[nH]5)C=C4)C=C3)cc1
REMARK SMILES IDX 23 1 22 2 20 3 21 4 2 6 1 7 3 8 4 9 5 10 19 11 6 12 14 13
REMARK SMILES IDX 18 14 13 15 15 16 17 17 16 18 7 19 8 20 9 21 12 22 10 24
REMARK SMILES IDX 11 25 24 26 25 27 26 28 27 29 28 31 29 32 30 33 94 34 31 35
REMARK SMILES IDX 93 36 32 37 33 38 34 39 87 40 35 41 92 42 86 43 88 44 36 45
REMARK SMILES IDX 91 46 85 47 84 48 37 50 71 51 50 52 70 53 51 54 54 55 69 56
REMARK SMILES IDX 89 57 52 58 53 59 68 61 90 62 55 63 38 64 39 65 48 66 40 67
REMARK SMILES IDX 41 68 47 69 49 70 42 71 43 72 44 73 45 74 46 75 72 76 73 77
REMARK SMILES IDX 82 78 74 79 75 80 81 81 83 82 76 83 77 84 78 85 79 86 80 87
REMARK SMILES IDX 56 88 57 89 66 90 58 91 59 92 65 93 67 94 60 95 61 96 62 97
REMARK SMILES IDX 63 98 64 99
REMARK H PARENT 22 5 8 23 26 30 88 49 54 60
REMARK Flexibility Score: inf
ROOT
ATOM      1  C   UNL A   1      34.220  23.960  25.868  1.00  0.00     0.117 C 
ENDROOT
BRANCH   1   2
ATOM      2  N   UNL A   1      33.027  23.774  26.681  1.00  0.00    -0.355 N 
ATOM      3  C   UNL A   1      31.710  23.982  26.381  1.00  0.00     0.233 C 
ATOM      4  O   UNL A   1      30.875  23.705  27.248  1.00  0.00    -0.274 OA
ATOM      5  H   UNL A   1      33.195  23.445  27.594  1.00  0.00     0.163 HD
BRANCH   3   6
ATOM      6  C   UNL A   1      31.279  24.561  25.030  1.00  0.00     0.139 C 
ATOM      7  C   UNL A   1      31.035  23.443  24.020  1.00  0.00     0.030 C 
BRANCH   6   8
ATOM      8  S   UNL A   1      29.886  25.722  25.348  1.00  0.00    -0.093 SA
BRANCH   8   9
ATOM      9  C   UNL A   1      30.472  27.215  24.583  1.00  0.00     0.109 A 
ATOM     10  N   UNL A   1      31.737  27.521  24.898  1.00  0.00    -0.220 NA
ATOM     11  C   UNL A   1      29.615  28.069  23.881  1.00  0.00     0.033 A 
ATOM     12  C   UNL A   1      32.145  28.763  24.617  1.00  0.00     0.185 A 
ATOM     13  C   UNL A   1      30.173  29.312  23.565  1.00  0.00     0.075 A 
ATOM     14  C   UNL A   1      28.277  27.780  23.500  1.00  0.00     0.013 A 
ATOM     15  N   UNL A   1      31.409  29.667  23.944  1.00  0.00    -0.227 NA
ATOM     16  C   UNL A   1      29.390  30.226  22.870  1.00  0.00     0.029 A 
ATOM     17  C   UNL A   1      27.513  28.714  22.808  1.00  0.00     0.001 A 
ATOM     18  C   UNL A   1      28.073  29.942  22.490  1.00  0.00     0.002 A 
BRANCH  12  19
ATOM     19  C   UNL A   1      33.462  29.208  25.235  1.00  0.00     0.340 C 
BRANCH  19  20
ATOM     20  N   UNL A   1      33.519  29.334  26.714  1.00  0.00    -0.329 N 
ATOM     21  C   UNL A   1      32.884  30.546  27.244  1.00  0.00     0.262 C 
ATOM     22  C   UNL A   1      34.881  29.277  27.253  1.00  0.00     0.262 C 
ATOM     23  H   UNL A   1      32.988  28.520  27.025  1.00  0.00     0.348 HD
ATOM     24  C   UNL A   1      33.996  31.507  27.623  1.00  0.00     0.067 C 
ATOM     25  C   UNL A   1      35.203  30.629  27.876  1.00  0.00     0.067 C 
ENDBRANCH  19  20
ENDBRANCH  12  19
ENDBRANCH   8   9
ENDBRANCH   6   8
ENDBRANCH   3   6
ENDBRANCH   1   2
BRANCH   1  26
ATOM     26  C   UNL A   1      35.312  22.967  26.214  1.00  0.00     0.042 C 
BRANCH  26  27
ATOM     27  C   UNL A   1      36.689  23.414  25.755  1.00  0.00     0.118 C 
BRANCH  27  28
ATOM     28  N   UNL A   1      37.732  22.464  26.124  1.00  0.00    -0.352 N 
ATOM     29  C   UNL A   1      39.016  22.691  26.554  1.00  0.00     0.251 C 
ATOM     30  H   UNL A   1      37.476  21.515  26.053  1.00  0.00     0.163 HD
ATOM     31  O   UNL A   1      39.813  21.756  26.606  1.00  0.00    -0.269 OA
BRANCH  29  32
ATOM     32  C   UNL A   1      39.440  24.055  26.928  1.00  0.00     0.039 A 
ATOM     33  C   UNL A   1      39.313  24.469  28.255  1.00  0.00     0.014 A 
ATOM     34  C   UNL A   1      39.973  24.923  25.971  1.00  0.00     0.014 A 
ATOM     35  C   UNL A   1      39.798  25.722  28.637  1.00  0.00     0.010 A 
ATOM     36  C   UNL A   1      40.542  26.127  26.369  1.00  0.00     0.010 A 
ATOM     37  C   UNL A   1      40.459  26.541  27.706  1.00  0.00    -0.014 A 
BRANCH  37  38
ATOM     38  C   UNL A   1      41.082  27.828  28.106  1.00  0.00     0.031 A 
ATOM     39  C   UNL A   1      42.575  27.996  28.037  1.00  0.00     0.074 A 
ATOM     40  C   UNL A   1      40.309  28.813  28.606  1.00  0.00     0.049 A 
ATOM     41  N   UNL A   1      43.311  29.001  28.434  1.00  0.00    -0.248 NA
ATOM     42  C   UNL A   1      43.346  26.874  27.475  1.00  0.00     0.031 C 
ATOM     43  C   UNL A   1      38.855  28.751  28.766  1.00  0.00     0.029 A 
ATOM     44  N   UNL A   1      40.641  30.055  29.090  1.00  0.00    -0.354 N 
ATOM     45  C   UNL A   1      44.627  28.629  28.183  1.00  0.00     0.074 A 
ATOM     46  C   UNL A   1      44.592  27.284  27.653  1.00  0.00     0.031 C 
ATOM     47  C   UNL A   1      38.418  29.908  29.289  1.00  0.00     0.029 A 
ATOM     48  C   UNL A   1      39.563  30.775  29.547  1.00  0.00     0.049 A 
ATOM     49  H   UNL A   1      41.563  30.397  29.107  1.00  0.00     0.167 HD
ATOM     50  C   UNL A   1      45.758  29.353  28.358  1.00  0.00     0.037 A 
ATOM     51  C   UNL A   1      39.502  31.990  30.127  1.00  0.00     0.037 A 
ATOM     52  C   UNL A   1      45.780  30.699  28.868  1.00  0.00     0.049 A 
ATOM     53  C   UNL A   1      40.775  32.767  30.331  1.00  0.00     0.074 A 
ATOM     54  C   UNL A   1      46.868  31.538  29.030  1.00  0.00     0.029 A 
ATOM     55  N   UNL A   1      44.666  31.399  29.308  1.00  0.00    -0.354 N 
ATOM     56  N   UNL A   1      42.006  32.426  30.026  1.00  0.00    -0.248 NA
ATOM     57  C   UNL A   1      40.656  34.092  30.954  1.00  0.00     0.031 C 
ATOM     58  C   UNL A   1      46.421  32.725  29.618  1.00  0.00     0.029 A 
ATOM     59  C   UNL A   1      45.045  32.650  29.767  1.00  0.00     0.049 A 
ATOM     60  H   UNL A   1      43.743  31.058  29.295  1.00  0.00     0.167 HD
ATOM     61  C   UNL A   1      42.801  33.506  30.393  1.00  0.00     0.074 A 
ATOM     62  C   UNL A   1      41.913  34.514  30.932  1.00  0.00     0.031 C 
ATOM     63  C   UNL A   1      44.146  33.649  30.293  1.00  0.00     0.037 A 
BRANCH  50  64
ATOM     64  C   UNL A   1      47.068  28.705  27.994  1.00  0.00     0.058 A 
ATOM     65  C   UNL A   1      47.589  28.772  26.691  1.00  0.00     0.135 A 
ATOM     66  C   UNL A   1      47.831  28.043  28.969  1.00  0.00     0.135 A 
ATOM     67  F   UNL A   1      46.894  29.379  25.715  1.00  0.00    -0.206 F 
ATOM     68  C   UNL A   1      48.804  28.181  26.363  1.00  0.00     0.059 A 
ATOM     69  C   UNL A   1      49.065  27.472  28.670  1.00  0.00     0.059 A 
ATOM     70  F   UNL A   1      47.382  27.947  30.230  1.00  0.00    -0.206 F 
ATOM     71  C   UNL A   1      49.536  27.535  27.359  1.00  0.00     0.060 A 
BRANCH  71  72
ATOM     72  S   UNL A   1      51.116  26.782  26.915  1.00  0.00     0.124 S 
ATOM     73  O   UNL A   1      50.881  25.385  27.267  1.00  0.00    -0.237 OA
ATOM     74  O   UNL A   1      51.205  27.069  25.486  1.00  0.00    -0.237 OA
ATOM     75  O   UNL A   1      52.078  27.488  27.755  1.00  0.00    -0.744 OA
ENDBRANCH  71  72
ENDBRANCH  50  64
BRANCH  51  76
ATOM     76  C   UNL A   1      38.189  32.552  30.546  1.00  0.00     0.058 A 
ATOM     77  C   UNL A   1      37.728  32.404  31.862  1.00  0.00     0.135 A 
ATOM     78  C   UNL A   1      37.377  33.258  29.645  1.00  0.00     0.135 A 
ATOM     79  F   UNL A   1      38.464  31.732  32.760  1.00  0.00    -0.206 F 
ATOM     80  C   UNL A   1      36.500  32.920  32.268  1.00  0.00     0.059 A 
ATOM     81  C   UNL A   1      36.159  33.807  30.033  1.00  0.00     0.059 A 
ATOM     82  F   UNL A   1      37.780  33.443  28.378  1.00  0.00    -0.206 F 
ATOM     83  C   UNL A   1      35.724  33.624  31.345  1.00  0.00     0.060 A 
BRANCH  83  84
ATOM     84  S   UNL A   1      34.157  34.330  31.895  1.00  0.00     0.124 S 
ATOM     85  O   UNL A   1      33.652  33.280  32.772  1.00  0.00    -0.237 OA
ATOM     86  O   UNL A   1      34.590  35.559  32.554  1.00  0.00    -0.237 OA
ATOM     87  O   UNL A   1      33.420  34.523  30.650  1.00  0.00    -0.744 OA
ENDBRANCH  83  84
ENDBRANCH  51  76
BRANCH  63  88
ATOM     88  C   UNL A   1      44.743  34.956  30.740  1.00  0.00     0.058 A 
ATOM     89  C   UNL A   1      45.254  35.132  32.035  1.00  0.00     0.135 A 
ATOM     90  C   UNL A   1      44.866  36.025  29.836  1.00  0.00     0.135 A 
ATOM     91  F   UNL A   1      45.155  34.146  32.940  1.00  0.00    -0.206 F 
ATOM     92  C   UNL A   1      45.849  36.327  32.424  1.00  0.00     0.059 A 
ATOM     93  C   UNL A   1      45.485  37.218  30.195  1.00  0.00     0.059 A 
ATOM     94  F   UNL A   1      44.402  35.907  28.581  1.00  0.00    -0.206 F 
ATOM     95  C   UNL A   1      45.966  37.362  31.495  1.00  0.00     0.060 A 
BRANCH  95  96
ATOM     96  S   UNL A   1      46.785  38.890  32.000  1.00  0.00     0.124 S 
ATOM     97  O   UNL A   1      46.779  39.653  30.757  1.00  0.00    -0.237 OA
ATOM     98  O   UNL A   1      45.902  39.382  33.052  1.00  0.00    -0.237 OA
ATOM     99  O   UNL A   1      48.098  38.439  32.452  1.00  0.00    -0.744 OA
ENDBRANCH  95  96
ENDBRANCH  63  88
ENDBRANCH  37  38
ENDBRANCH  29  32
ENDBRANCH  27  28
ENDBRANCH  26  27
ENDBRANCH   1  26
TORSDOF 17
ENDMDL
