MODEL 1
REMARK VINA RESULT:     -11.6      0.000      0.000
REMARK SMILES CNC(=O)[C@H](C)S(=O)(=O)c1cc(C(=O)NCCCNC(=O)c2ccc(-c3c4nc(c(-c5c(F)cc(S(=O)(=O)[O-])cc5F)c5ccc([nH]5)c(-c5c(F)cc(S(=O)(=O)[O-])cc5F)c5nc(c(-c6c(F)cc(S(=O)(=O)[O-])cc6F)c6ccc3[nH]6)C=C5)C=C4)cc2)c(C)cc1C
REMARK SMILES IDX 17 1 16 2 15 3 13 4 14 5 12 7 10 8 11 9 91 10 90 11 92 12
REMARK SMILES IDX 88 13 89 14 7 15 8 16 9 17 5 18 6 19 3 20 1 21 2 22 4 24
REMARK SMILES IDX 18 25 19 26 20 27 21 29 22 30 23 31 87 32 24 33 86 34 25 35
REMARK SMILES IDX 26 36 27 37 80 38 28 39 85 40 79 41 81 42 29 43 84 44 78 45
REMARK SMILES IDX 77 46 30 48 64 49 43 50 63 51 44 52 47 53 62 54 82 55 45 56
REMARK SMILES IDX 46 57 61 59 83 60 48 61 31 62 32 63 41 64 33 65 34 66 40 67
REMARK SMILES IDX 42 68 35 69 36 70 37 71 38 72 39 73 65 74 66 75 75 76 67 77
REMARK SMILES IDX 68 78 74 79 76 80 69 81 70 82 71 83 72 84 73 85 49 86 50 87
REMARK SMILES IDX 59 88 51 89 52 90 58 91 60 92 53 93 54 94 55 95 56 96 57 97
REMARK H PARENT 15 6 2 23 19 28 81 47 47 58
REMARK Flexibility Score: inf
ROOT
ATOM      1  C   UNL A   1      33.661  28.033  25.809  1.00  0.00     0.042 C 
ENDROOT
BRANCH   1   2
ATOM      2  C   UNL A   1      33.086  29.133  24.911  1.00  0.00     0.118 C 
BRANCH   2   3
ATOM      3  N   UNL A   1      33.637  29.028  23.573  1.00  0.00    -0.352 N 
ATOM      4  C   UNL A   1      33.713  28.018  22.655  1.00  0.00     0.251 C 
ATOM      5  O   UNL A   1      34.301  28.278  21.601  1.00  0.00    -0.269 OA
ATOM      6  H   UNL A   1      34.044  29.867  23.257  1.00  0.00     0.163 HD
BRANCH   4   7
ATOM      7  C   UNL A   1      33.085  26.665  22.778  1.00  0.00     0.044 A 
ATOM      8  C   UNL A   1      33.495  24.441  23.752  1.00  0.00     0.071 A 
ATOM      9  C   UNL A   1      33.952  25.698  23.330  1.00  0.00     0.034 A 
ATOM     10  C   UNL A   1      32.248  23.992  23.312  1.00  0.00    -0.032 A 
ATOM     11  C   UNL A   1      31.379  24.950  22.764  1.00  0.00     0.009 A 
ATOM     12  C   UNL A   1      31.712  22.595  23.441  1.00  0.00     0.046 C 
ATOM     13  C   UNL A   1      31.741  26.306  22.625  1.00  0.00    -0.038 A 
ATOM     14  C   UNL A   1      30.605  27.263  22.438  1.00  0.00     0.045 C 
BRANCH   8  15
ATOM     15  S   UNL A   1      34.525  23.552  24.923  1.00  0.00     0.190 S 
ATOM     16  O   UNL A   1      33.583  22.895  25.810  1.00  0.00    -0.223 OA
ATOM     17  O   UNL A   1      35.484  24.495  25.480  1.00  0.00    -0.223 OA
BRANCH  15  18
ATOM     18  C   UNL A   1      35.468  22.299  24.107  1.00  0.00     0.199 C 
ATOM     19  C   UNL A   1      36.583  22.719  23.171  1.00  0.00     0.036 C 
BRANCH  18  20
ATOM     20  C   UNL A   1      35.853  21.112  24.960  1.00  0.00     0.238 C 
ATOM     21  C   UNL A   1      33.813  19.617  24.637  1.00  0.00     0.142 C 
ATOM     22  N   UNL A   1      35.042  20.059  25.236  1.00  0.00    -0.358 N 
ATOM     23  H   UNL A   1      35.354  19.497  25.982  1.00  0.00     0.163 HD
ATOM     24  O   UNL A   1      36.927  21.132  25.576  1.00  0.00    -0.274 OA
ENDBRANCH  18  20
ENDBRANCH  15  18
ENDBRANCH   8  15
ENDBRANCH   4   7
ENDBRANCH   2   3
ENDBRANCH   1   2
BRANCH   1  25
ATOM     25  C   UNL A   1      33.521  28.304  27.302  1.00  0.00     0.118 C 
BRANCH  25  26
ATOM     26  N   UNL A   1      33.414  29.724  27.581  1.00  0.00    -0.352 N 
ATOM     27  C   UNL A   1      34.315  30.581  28.168  1.00  0.00     0.251 C 
ATOM     28  H   UNL A   1      32.564  30.140  27.307  1.00  0.00     0.163 HD
ATOM     29  O   UNL A   1      33.921  31.686  28.536  1.00  0.00    -0.269 OA
BRANCH  27  30
ATOM     30  C   UNL A   1      35.737  30.200  28.376  1.00  0.00     0.039 A 
ATOM     31  C   UNL A   1      36.141  29.793  29.652  1.00  0.00     0.014 A 
ATOM     32  C   UNL A   1      36.691  30.309  27.359  1.00  0.00     0.014 A 
ATOM     33  C   UNL A   1      37.478  29.461  29.898  1.00  0.00     0.010 A 
ATOM     34  C   UNL A   1      38.011  29.910  27.586  1.00  0.00     0.010 A 
ATOM     35  C   UNL A   1      38.423  29.497  28.862  1.00  0.00    -0.014 A 
BRANCH  35  36
ATOM     36  C   UNL A   1      39.849  29.142  29.102  1.00  0.00     0.031 A 
ATOM     37  C   UNL A   1      40.804  30.173  29.645  1.00  0.00     0.074 A 
ATOM     38  C   UNL A   1      40.298  27.911  28.789  1.00  0.00     0.049 A 
ATOM     39  N   UNL A   1      42.095  30.083  29.843  1.00  0.00    -0.248 NA
ATOM     40  C   UNL A   1      40.238  31.487  29.987  1.00  0.00     0.031 C 
ATOM     41  C   UNL A   1      39.487  26.832  28.221  1.00  0.00     0.029 A 
ATOM     42  N   UNL A   1      41.553  27.361  28.892  1.00  0.00    -0.354 N 
ATOM     43  C   UNL A   1      42.496  31.326  30.318  1.00  0.00     0.074 A 
ATOM     44  C   UNL A   1      41.320  32.171  30.332  1.00  0.00     0.031 C 
ATOM     45  C   UNL A   1      40.260  25.750  28.035  1.00  0.00     0.029 A 
ATOM     46  C   UNL A   1      41.628  26.064  28.442  1.00  0.00     0.049 A 
ATOM     47  H   UNL A   1      42.326  27.849  29.256  1.00  0.00     0.167 HD
ATOM     48  C   UNL A   1      43.725  31.726  30.726  1.00  0.00     0.037 A 
ATOM     49  C   UNL A   1      42.678  25.225  28.356  1.00  0.00     0.037 A 
ATOM     50  C   UNL A   1      44.888  30.879  30.740  1.00  0.00     0.049 A 
ATOM     51  C   UNL A   1      44.030  25.684  28.830  1.00  0.00     0.074 A 
ATOM     52  C   UNL A   1      46.170  31.180  31.170  1.00  0.00     0.029 A 
ATOM     53  N   UNL A   1      44.912  29.560  30.312  1.00  0.00    -0.354 N 
ATOM     54  N   UNL A   1      44.380  26.853  29.311  1.00  0.00    -0.248 NA
ATOM     55  C   UNL A   1      45.127  24.709  28.759  1.00  0.00     0.031 C 
ATOM     56  C   UNL A   1      46.974  30.050  30.979  1.00  0.00     0.029 A 
ATOM     57  C   UNL A   1      46.185  29.036  30.462  1.00  0.00     0.049 A 
ATOM     58  H   UNL A   1      44.138  29.069  29.954  1.00  0.00     0.167 HD
ATOM     59  C   UNL A   1      45.732  26.747  29.618  1.00  0.00     0.074 A 
ATOM     60  C   UNL A   1      46.134  25.397  29.283  1.00  0.00     0.031 C 
ATOM     61  C   UNL A   1      46.566  27.685  30.132  1.00  0.00     0.037 A 
BRANCH  48  62
ATOM     62  C   UNL A   1      43.869  33.144  31.206  1.00  0.00     0.058 A 
ATOM     63  C   UNL A   1      43.664  33.487  32.552  1.00  0.00     0.135 A 
ATOM     64  C   UNL A   1      44.241  34.169  30.321  1.00  0.00     0.135 A 
ATOM     65  F   UNL A   1      43.292  32.549  33.439  1.00  0.00    -0.206 F 
ATOM     66  C   UNL A   1      43.789  34.797  32.998  1.00  0.00     0.059 A 
ATOM     67  C   UNL A   1      44.398  35.484  30.750  1.00  0.00     0.059 A 
ATOM     68  F   UNL A   1      44.452  33.897  29.023  1.00  0.00    -0.206 F 
ATOM     69  C   UNL A   1      44.153  35.791  32.087  1.00  0.00     0.060 A 
BRANCH  69  70
ATOM     70  S   UNL A   1      44.306  37.490  32.678  1.00  0.00     0.124 S 
ATOM     71  O   UNL A   1      43.340  37.503  33.773  1.00  0.00    -0.237 OA
ATOM     72  O   UNL A   1      45.710  37.561  33.071  1.00  0.00    -0.237 OA
ATOM     73  O   UNL A   1      43.944  38.289  31.512  1.00  0.00    -0.744 OA
ENDBRANCH  69  70
ENDBRANCH  48  62
BRANCH  49  74
ATOM     74  C   UNL A   1      42.490  23.856  27.809  1.00  0.00     0.058 A 
ATOM     75  C   UNL A   1      42.409  23.634  26.426  1.00  0.00     0.135 A 
ATOM     76  C   UNL A   1      42.400  22.740  28.656  1.00  0.00     0.135 A 
ATOM     77  F   UNL A   1      42.483  24.671  25.577  1.00  0.00    -0.206 F 
ATOM     78  C   UNL A   1      42.230  22.359  25.901  1.00  0.00     0.059 A 
ATOM     79  C   UNL A   1      42.245  21.452  28.154  1.00  0.00     0.059 A 
ATOM     80  F   UNL A   1      42.491  22.896  29.986  1.00  0.00    -0.206 F 
ATOM     81  C   UNL A   1      42.149  21.273  26.774  1.00  0.00     0.060 A 
BRANCH  81  82
ATOM     82  S   UNL A   1      41.974  19.613  26.085  1.00  0.00     0.124 S 
ATOM     83  O   UNL A   1      42.877  19.673  24.942  1.00  0.00    -0.237 OA
ATOM     84  O   UNL A   1      42.404  18.770  27.196  1.00  0.00    -0.237 OA
ATOM     85  O   UNL A   1      40.551  19.534  25.766  1.00  0.00    -0.744 OA
ENDBRANCH  81  82
ENDBRANCH  49  74
BRANCH  61  86
ATOM     86  C   UNL A   1      47.987  27.277  30.391  1.00  0.00     0.058 A 
ATOM     87  C   UNL A   1      48.988  27.446  29.422  1.00  0.00     0.135 A 
ATOM     88  C   UNL A   1      48.361  26.756  31.640  1.00  0.00     0.135 A 
ATOM     89  F   UNL A   1      48.680  27.934  28.211  1.00  0.00    -0.206 F 
ATOM     90  C   UNL A   1      50.310  27.093  29.676  1.00  0.00     0.059 A 
ATOM     91  C   UNL A   1      49.681  26.417  31.923  1.00  0.00     0.059 A 
ATOM     92  F   UNL A   1      47.443  26.583  32.604  1.00  0.00    -0.206 F 
ATOM     93  C   UNL A   1      50.647  26.580  30.929  1.00  0.00     0.060 A 
BRANCH  93  94
ATOM     94  S   UNL A   1      52.370  26.157  31.261  1.00  0.00     0.124 S 
ATOM     95  O   UNL A   1      52.760  27.218  32.185  1.00  0.00    -0.237 OA
ATOM     96  O   UNL A   1      52.262  24.822  31.840  1.00  0.00    -0.237 OA
ATOM     97  O   UNL A   1      52.993  26.211  29.942  1.00  0.00    -0.744 OA
ENDBRANCH  93  94
ENDBRANCH  61  86
ENDBRANCH  35  36
ENDBRANCH  27  30
ENDBRANCH  25  26
ENDBRANCH   1  25
TORSDOF 16
ENDMDL
MODEL 2
REMARK VINA RESULT:     -11.5      2.723      3.492
REMARK SMILES CNC(=O)[C@H](C)S(=O)(=O)c1cc(C(=O)NCCCNC(=O)c2ccc(-c3c4nc(c(-c5c(F)cc(S(=O)(=O)[O-])cc5F)c5ccc([nH]5)c(-c5c(F)cc(S(=O)(=O)[O-])cc5F)c5nc(c(-c6c(F)cc(S(=O)(=O)[O-])cc6F)c6ccc3[nH]6)C=C5)C=C4)cc2)c(C)cc1C
REMARK SMILES IDX 17 1 16 2 15 3 13 4 14 5 12 7 10 8 11 9 91 10 90 11 92 12
REMARK SMILES IDX 88 13 89 14 7 15 8 16 9 17 5 18 6 19 3 20 1 21 2 22 4 24
REMARK SMILES IDX 18 25 19 26 20 27 21 29 22 30 23 31 87 32 24 33 86 34 25 35
REMARK SMILES IDX 26 36 27 37 80 38 28 39 85 40 79 41 81 42 29 43 84 44 78 45
REMARK SMILES IDX 77 46 30 48 64 49 43 50 63 51 44 52 47 53 62 54 82 55 45 56
REMARK SMILES IDX 46 57 61 59 83 60 48 61 31 62 32 63 41 64 33 65 34 66 40 67
REMARK SMILES IDX 42 68 35 69 36 70 37 71 38 72 39 73 65 74 66 75 75 76 67 77
REMARK SMILES IDX 68 78 74 79 76 80 69 81 70 82 71 83 72 84 73 85 49 86 50 87
REMARK SMILES IDX 59 88 51 89 52 90 58 91 60 92 53 93 54 94 55 95 56 96 57 97
REMARK H PARENT 15 6 2 23 19 28 81 47 47 58
REMARK Flexibility Score: inf
ROOT
ATOM      1  C   UNL A   1      34.450  30.723  27.847  1.00  0.00     0.042 C 
ENDROOT
BRANCH   1   2
ATOM      2  C   UNL A   1      34.869  29.385  27.229  1.00  0.00     0.118 C 
BRANCH   2   3
ATOM      3  N   UNL A   1      34.494  29.340  25.829  1.00  0.00    -0.352 N 
ATOM      4  C   UNL A   1      33.833  28.428  25.052  1.00  0.00     0.251 C 
ATOM      5  O   UNL A   1      33.720  28.709  23.856  1.00  0.00    -0.269 OA
ATOM      6  H   UNL A   1      34.775  30.140  25.328  1.00  0.00     0.163 HD
BRANCH   4   7
ATOM      7  C   UNL A   1      33.174  27.174  25.533  1.00  0.00     0.044 A 
ATOM      8  C   UNL A   1      33.623  24.776  25.864  1.00  0.00     0.071 A 
ATOM      9  C   UNL A   1      33.938  26.014  25.287  1.00  0.00     0.034 A 
ATOM     10  C   UNL A   1      32.350  24.588  26.408  1.00  0.00    -0.032 A 
ATOM     11  C   UNL A   1      31.584  25.739  26.659  1.00  0.00     0.009 A 
ATOM     12  C   UNL A   1      31.748  23.277  26.827  1.00  0.00     0.046 C 
ATOM     13  C   UNL A   1      32.048  27.035  26.353  1.00  0.00    -0.038 A 
ATOM     14  C   UNL A   1      31.339  28.156  27.048  1.00  0.00     0.045 C 
BRANCH   8  15
ATOM     15  S   UNL A   1      34.938  23.557  25.947  1.00  0.00     0.190 S 
ATOM     16  O   UNL A   1      34.607  22.743  27.101  1.00  0.00    -0.223 OA
ATOM     17  O   UNL A   1      36.207  24.269  25.922  1.00  0.00    -0.223 OA
BRANCH  15  18
ATOM     18  C   UNL A   1      34.919  22.512  24.521  1.00  0.00     0.199 C 
ATOM     19  C   UNL A   1      33.675  22.481  23.657  1.00  0.00     0.036 C 
BRANCH  18  20
ATOM     20  C   UNL A   1      36.187  22.504  23.700  1.00  0.00     0.238 C 
ATOM     21  C   UNL A   1      37.744  21.206  25.245  1.00  0.00     0.142 C 
ATOM     22  N   UNL A   1      37.386  22.034  24.127  1.00  0.00    -0.358 N 
ATOM     23  H   UNL A   1      38.149  22.312  23.570  1.00  0.00     0.163 HD
ATOM     24  O   UNL A   1      36.202  23.082  22.605  1.00  0.00    -0.274 OA
ENDBRANCH  18  20
ENDBRANCH  15  18
ENDBRANCH   8  15
ENDBRANCH   4   7
ENDBRANCH   2   3
ENDBRANCH   1   2
BRANCH   1  25
ATOM     25  C   UNL A   1      35.577  31.471  28.550  1.00  0.00     0.118 C 
BRANCH  25  26
ATOM     26  N   UNL A   1      35.545  31.264  29.985  1.00  0.00    -0.352 N 
ATOM     27  C   UNL A   1      36.418  30.583  30.800  1.00  0.00     0.251 C 
ATOM     28  H   UNL A   1      34.779  31.676  30.448  1.00  0.00     0.163 HD
ATOM     29  O   UNL A   1      36.065  30.318  31.948  1.00  0.00    -0.269 OA
BRANCH  27  30
ATOM     30  C   UNL A   1      37.759  30.155  30.326  1.00  0.00     0.039 A 
ATOM     31  C   UNL A   1      38.707  29.750  31.274  1.00  0.00     0.014 A 
ATOM     32  C   UNL A   1      38.125  30.216  28.978  1.00  0.00     0.014 A 
ATOM     33  C   UNL A   1      39.993  29.375  30.872  1.00  0.00     0.010 A 
ATOM     34  C   UNL A   1      39.386  29.774  28.569  1.00  0.00     0.010 A 
ATOM     35  C   UNL A   1      40.340  29.363  29.512  1.00  0.00    -0.014 A 
BRANCH  35  36
ATOM     36  C   UNL A   1      41.701  28.961  29.065  1.00  0.00     0.031 A 
ATOM     37  C   UNL A   1      42.812  29.978  29.010  1.00  0.00     0.074 A 
ATOM     38  C   UNL A   1      41.931  27.696  28.660  1.00  0.00     0.049 A 
ATOM     39  N   UNL A   1      44.038  29.843  28.572  1.00  0.00    -0.248 NA
ATOM     40  C   UNL A   1      42.494  31.333  29.490  1.00  0.00     0.031 C 
ATOM     41  C   UNL A   1      40.934  26.623  28.627  1.00  0.00     0.029 A 
ATOM     42  N   UNL A   1      43.074  27.099  28.188  1.00  0.00    -0.354 N 
ATOM     43  C   UNL A   1      44.631  31.093  28.709  1.00  0.00     0.074 A 
ATOM     44  C   UNL A   1      43.616  31.987  29.226  1.00  0.00     0.031 C 
ATOM     45  C   UNL A   1      41.511  25.500  28.169  1.00  0.00     0.029 A 
ATOM     46  C   UNL A   1      42.909  25.777  27.848  1.00  0.00     0.049 A 
ATOM     47  H   UNL A   1      43.933  27.573  28.103  1.00  0.00     0.167 HD
ATOM     48  C   UNL A   1      45.910  31.461  28.450  1.00  0.00     0.037 A 
ATOM     49  C   UNL A   1      43.780  24.890  27.328  1.00  0.00     0.037 A 
ATOM     50  C   UNL A   1      46.927  30.566  27.963  1.00  0.00     0.049 A 
ATOM     51  C   UNL A   1      45.198  25.316  27.063  1.00  0.00     0.074 A 
ATOM     52  C   UNL A   1      48.261  30.836  27.706  1.00  0.00     0.029 A 
ATOM     53  N   UNL A   1      46.727  29.227  27.670  1.00  0.00    -0.354 N 
ATOM     54  N   UNL A   1      45.749  26.494  27.236  1.00  0.00    -0.248 NA
ATOM     55  C   UNL A   1      46.115  24.292  26.543  1.00  0.00     0.031 C 
ATOM     56  C   UNL A   1      48.861  29.663  27.232  1.00  0.00     0.029 A 
ATOM     57  C   UNL A   1      47.910  28.657  27.227  1.00  0.00     0.049 A 
ATOM     58  H   UNL A   1      45.871  28.750  27.761  1.00  0.00     0.167 HD
ATOM     59  C   UNL A   1      47.081  26.347  26.864  1.00  0.00     0.074 A 
ATOM     60  C   UNL A   1      47.256  24.964  26.472  1.00  0.00     0.031 C 
ATOM     61  C   UNL A   1      48.070  27.275  26.849  1.00  0.00     0.037 A 
BRANCH  48  62
ATOM     62  C   UNL A   1      46.282  32.896  28.703  1.00  0.00     0.058 A 
ATOM     63  C   UNL A   1      46.757  33.320  29.955  1.00  0.00     0.135 A 
ATOM     64  C   UNL A   1      46.192  33.854  27.680  1.00  0.00     0.135 A 
ATOM     65  F   UNL A   1      46.850  32.449  30.972  1.00  0.00    -0.206 F 
ATOM     66  C   UNL A   1      47.097  34.647  30.194  1.00  0.00     0.059 A 
ATOM     67  C   UNL A   1      46.550  35.182  27.889  1.00  0.00     0.059 A 
ATOM     68  F   UNL A   1      45.746  33.502  26.463  1.00  0.00    -0.206 F 
ATOM     69  C   UNL A   1      46.985  35.572  29.155  1.00  0.00     0.060 A 
BRANCH  69  70
ATOM     70  S   UNL A   1      47.423  37.294  29.481  1.00  0.00     0.124 S 
ATOM     71  O   UNL A   1      47.749  37.244  30.903  1.00  0.00    -0.237 OA
ATOM     72  O   UNL A   1      48.550  37.508  28.579  1.00  0.00    -0.237 OA
ATOM     73  O   UNL A   1      46.205  38.024  29.140  1.00  0.00    -0.744 OA
ENDBRANCH  69  70
ENDBRANCH  48  62
BRANCH  49  74
ATOM     74  C   UNL A   1      43.336  23.502  27.034  1.00  0.00     0.058 A 
ATOM     75  C   UNL A   1      43.063  23.093  25.721  1.00  0.00     0.135 A 
ATOM     76  C   UNL A   1      43.188  22.554  28.058  1.00  0.00     0.135 A 
ATOM     77  F   UNL A   1      43.184  23.966  24.708  1.00  0.00    -0.206 F 
ATOM     78  C   UNL A   1      42.645  21.798  25.432  1.00  0.00     0.059 A 
ATOM     79  C   UNL A   1      42.794  21.247  27.793  1.00  0.00     0.059 A 
ATOM     80  F   UNL A   1      43.455  22.890  29.330  1.00  0.00    -0.206 F 
ATOM     81  C   UNL A   1      42.513  20.881  26.476  1.00  0.00     0.060 A 
BRANCH  81  82
ATOM     82  S   UNL A   1      42.024  19.186  26.090  1.00  0.00     0.124 S 
ATOM     83  O   UNL A   1      42.430  18.481  27.300  1.00  0.00    -0.237 OA
ATOM     84  O   UNL A   1      40.586  19.319  25.879  1.00  0.00    -0.237 OA
ATOM     85  O   UNL A   1      42.798  18.883  24.889  1.00  0.00    -0.744 OA
ENDBRANCH  81  82
ENDBRANCH  49  74
BRANCH  61  86
ATOM     86  C   UNL A   1      49.436  26.821  26.424  1.00  0.00     0.058 A 
ATOM     87  C   UNL A   1      50.296  26.152  27.308  1.00  0.00     0.135 A 
ATOM     88  C   UNL A   1      49.871  27.014  25.103  1.00  0.00     0.135 A 
ATOM     89  F   UNL A   1      49.929  25.949  28.583  1.00  0.00    -0.206 F 
ATOM     90  C   UNL A   1      51.550  25.707  26.903  1.00  0.00     0.059 A 
ATOM     91  C   UNL A   1      51.112  26.558  24.670  1.00  0.00     0.059 A 
ATOM     92  F   UNL A   1      49.081  27.641  24.216  1.00  0.00    -0.206 F 
ATOM     93  C   UNL A   1      51.949  25.914  25.581  1.00  0.00     0.060 A 
BRANCH  93  94
ATOM     94  S   UNL A   1      53.564  25.303  25.055  1.00  0.00     0.124 S 
ATOM     95  O   UNL A   1      53.487  23.899  25.445  1.00  0.00    -0.237 OA
ATOM     96  O   UNL A   1      53.547  25.562  23.619  1.00  0.00    -0.237 OA
ATOM     97  O   UNL A   1      54.502  26.118  25.821  1.00  0.00    -0.744 OA
ENDBRANCH  93  94
ENDBRANCH  61  86
ENDBRANCH  35  36
ENDBRANCH  27  30
ENDBRANCH  25  26
ENDBRANCH   1  25
TORSDOF 16
ENDMDL
MODEL 3
REMARK VINA RESULT:     -11.5      2.809      3.726
REMARK SMILES CNC(=O)[C@H](C)S(=O)(=O)c1cc(C(=O)NCCCNC(=O)c2ccc(-c3c4nc(c(-c5c(F)cc(S(=O)(=O)[O-])cc5F)c5ccc([nH]5)c(-c5c(F)cc(S(=O)(=O)[O-])cc5F)c5nc(c(-c6c(F)cc(S(=O)(=O)[O-])cc6F)c6ccc3[nH]6)C=C5)C=C4)cc2)c(C)cc1C
REMARK SMILES IDX 17 1 16 2 15 3 13 4 14 5 12 7 10 8 11 9 91 10 90 11 92 12
REMARK SMILES IDX 88 13 89 14 7 15 8 16 9 17 5 18 6 19 3 20 1 21 2 22 4 24
REMARK SMILES IDX 18 25 19 26 20 27 21 29 22 30 23 31 87 32 24 33 86 34 25 35
REMARK SMILES IDX 26 36 27 37 80 38 28 39 85 40 79 41 81 42 29 43 84 44 78 45
REMARK SMILES IDX 77 46 30 48 64 49 43 50 63 51 44 52 47 53 62 54 82 55 45 56
REMARK SMILES IDX 46 57 61 59 83 60 48 61 31 62 32 63 41 64 33 65 34 66 40 67
REMARK SMILES IDX 42 68 35 69 36 70 37 71 38 72 39 73 65 74 66 75 75 76 67 77
REMARK SMILES IDX 68 78 74 79 76 80 69 81 70 82 71 83 72 84 73 85 49 86 50 87
REMARK SMILES IDX 59 88 51 89 52 90 58 91 60 92 53 93 54 94 55 95 56 96 57 97
REMARK H PARENT 15 6 2 23 19 28 81 47 47 58
REMARK Flexibility Score: inf
ROOT
ATOM      1  C   UNL A   1      34.786  30.044  27.348  1.00  0.00     0.042 C 
ENDROOT
BRANCH   1   2
ATOM      2  C   UNL A   1      33.359  30.344  26.878  1.00  0.00     0.118 C 
BRANCH   2   3
ATOM      3  N   UNL A   1      32.410  29.505  27.584  1.00  0.00    -0.352 N 
ATOM      4  C   UNL A   1      31.761  28.340  27.277  1.00  0.00     0.251 C 
ATOM      5  O   UNL A   1      30.974  27.912  28.126  1.00  0.00    -0.269 OA
ATOM      6  H   UNL A   1      32.184  29.847  28.479  1.00  0.00     0.163 HD
BRANCH   4   7
ATOM      7  C   UNL A   1      31.978  27.506  26.054  1.00  0.00     0.044 A 
ATOM      8  C   UNL A   1      32.257  25.161  25.355  1.00  0.00     0.071 A 
ATOM      9  C   UNL A   1      32.260  26.154  26.345  1.00  0.00     0.034 A 
ATOM     10  C   UNL A   1      32.324  25.545  24.013  1.00  0.00    -0.032 A 
ATOM     11  C   UNL A   1      32.041  26.888  23.716  1.00  0.00     0.009 A 
ATOM     12  C   UNL A   1      32.590  24.640  22.844  1.00  0.00     0.046 C 
ATOM     13  C   UNL A   1      31.734  27.834  24.715  1.00  0.00    -0.038 A 
ATOM     14  C   UNL A   1      31.051  29.079  24.240  1.00  0.00     0.045 C 
BRANCH   8  15
ATOM     15  S   UNL A   1      32.061  23.464  25.904  1.00  0.00     0.190 S 
ATOM     16  O   UNL A   1      31.095  22.894  24.983  1.00  0.00    -0.223 OA
ATOM     17  O   UNL A   1      31.755  23.489  27.327  1.00  0.00    -0.223 OA
BRANCH  15  18
ATOM     18  C   UNL A   1      33.573  22.567  25.730  1.00  0.00     0.199 C 
ATOM     19  C   UNL A   1      34.868  23.341  25.587  1.00  0.00     0.036 C 
BRANCH  18  20
ATOM     20  C   UNL A   1      33.724  21.360  26.628  1.00  0.00     0.238 C 
ATOM     21  C   UNL A   1      32.693  19.548  25.163  1.00  0.00     0.142 C 
ATOM     22  N   UNL A   1      33.214  20.131  26.368  1.00  0.00    -0.358 N 
ATOM     23  H   UNL A   1      33.198  19.529  27.147  1.00  0.00     0.163 HD
ATOM     24  O   UNL A   1      34.226  21.502  27.752  1.00  0.00    -0.274 OA
ENDBRANCH  18  20
ENDBRANCH  15  18
ENDBRANCH   8  15
ENDBRANCH   4   7
ENDBRANCH   2   3
ENDBRANCH   1   2
BRANCH   1  25
ATOM     25  C   UNL A   1      35.475  31.210  28.047  1.00  0.00     0.118 C 
BRANCH  25  26
ATOM     26  N   UNL A   1      35.420  31.078  29.491  1.00  0.00    -0.352 N 
ATOM     27  C   UNL A   1      36.293  30.463  30.356  1.00  0.00     0.251 C 
ATOM     28  H   UNL A   1      34.636  31.495  29.917  1.00  0.00     0.163 HD
ATOM     29  O   UNL A   1      35.924  30.250  31.510  1.00  0.00    -0.269 OA
BRANCH  27  30
ATOM     30  C   UNL A   1      37.654  30.044  29.930  1.00  0.00     0.039 A 
ATOM     31  C   UNL A   1      38.574  29.658  30.912  1.00  0.00     0.014 A 
ATOM     32  C   UNL A   1      38.062  30.096  28.593  1.00  0.00     0.014 A 
ATOM     33  C   UNL A   1      39.876  29.292  30.555  1.00  0.00     0.010 A 
ATOM     34  C   UNL A   1      39.340  29.663  28.230  1.00  0.00     0.010 A 
ATOM     35  C   UNL A   1      40.267  29.271  29.207  1.00  0.00    -0.014 A 
BRANCH  35  36
ATOM     36  C   UNL A   1      41.646  28.878  28.807  1.00  0.00     0.031 A 
ATOM     37  C   UNL A   1      42.742  29.911  28.757  1.00  0.00     0.074 A 
ATOM     38  C   UNL A   1      41.905  27.608  28.442  1.00  0.00     0.049 A 
ATOM     39  N   UNL A   1      43.982  29.784  28.356  1.00  0.00    -0.248 NA
ATOM     40  C   UNL A   1      42.392  31.272  29.193  1.00  0.00     0.031 C 
ATOM     41  C   UNL A   1      40.925  26.519  28.409  1.00  0.00     0.029 A 
ATOM     42  N   UNL A   1      43.070  27.016  28.017  1.00  0.00    -0.354 N 
ATOM     43  C   UNL A   1      44.553  31.045  28.477  1.00  0.00     0.074 A 
ATOM     44  C   UNL A   1      43.511  31.936  28.943  1.00  0.00     0.031 C 
ATOM     45  C   UNL A   1      41.531  25.394  27.996  1.00  0.00     0.029 A 
ATOM     46  C   UNL A   1      42.933  25.684  27.706  1.00  0.00     0.049 A 
ATOM     47  H   UNL A   1      43.923  27.501  27.943  1.00  0.00     0.167 HD
ATOM     48  C   UNL A   1      45.833  31.426  28.244  1.00  0.00     0.037 A 
ATOM     49  C   UNL A   1      43.831  24.797  27.233  1.00  0.00     0.037 A 
ATOM     50  C   UNL A   1      46.876  30.535  27.809  1.00  0.00     0.049 A 
ATOM     51  C   UNL A   1      45.249  25.238  26.997  1.00  0.00     0.074 A 
ATOM     52  C   UNL A   1      48.212  30.819  27.581  1.00  0.00     0.029 A 
ATOM     53  N   UNL A   1      46.704  29.186  27.544  1.00  0.00    -0.354 N 
ATOM     54  N   UNL A   1      45.778  26.428  27.154  1.00  0.00    -0.248 NA
ATOM     55  C   UNL A   1      46.195  24.215  26.529  1.00  0.00     0.031 C 
ATOM     56  C   UNL A   1      48.843  29.644  27.154  1.00  0.00     0.029 A 
ATOM     57  C   UNL A   1      47.907  28.623  27.149  1.00  0.00     0.049 A 
ATOM     58  H   UNL A   1      45.852  28.698  27.624  1.00  0.00     0.167 HD
ATOM     59  C   UNL A   1      47.122  26.292  26.823  1.00  0.00     0.074 A 
ATOM     60  C   UNL A   1      47.329  24.902  26.471  1.00  0.00     0.031 C 
ATOM     61  C   UNL A   1      48.097  27.235  26.811  1.00  0.00     0.037 A 
BRANCH  48  62
ATOM     62  C   UNL A   1      46.177  32.873  28.470  1.00  0.00     0.058 A 
ATOM     63  C   UNL A   1      46.076  33.820  27.437  1.00  0.00     0.135 A 
ATOM     64  C   UNL A   1      46.586  33.327  29.734  1.00  0.00     0.135 A 
ATOM     65  F   UNL A   1      45.703  33.438  26.205  1.00  0.00    -0.206 F 
ATOM     66  C   UNL A   1      46.398  35.157  27.640  1.00  0.00     0.059 A 
ATOM     67  C   UNL A   1      46.891  34.665  29.966  1.00  0.00     0.059 A 
ATOM     68  F   UNL A   1      46.699  32.465  30.757  1.00  0.00    -0.206 F 
ATOM     69  C   UNL A   1      46.810  35.569  28.909  1.00  0.00     0.060 A 
BRANCH  69  70
ATOM     70  S   UNL A   1      47.233  37.307  29.156  1.00  0.00     0.124 S 
ATOM     71  O   UNL A   1      46.013  37.969  28.704  1.00  0.00    -0.237 OA
ATOM     72  O   UNL A   1      47.491  37.367  30.591  1.00  0.00    -0.237 OA
ATOM     73  O   UNL A   1      48.403  37.496  28.305  1.00  0.00    -0.744 OA
ENDBRANCH  69  70
ENDBRANCH  48  62
BRANCH  49  74
ATOM     74  C   UNL A   1      43.416  23.395  26.963  1.00  0.00     0.058 A 
ATOM     75  C   UNL A   1      43.156  22.504  28.013  1.00  0.00     0.135 A 
ATOM     76  C   UNL A   1      43.259  22.924  25.650  1.00  0.00     0.135 A 
ATOM     77  F   UNL A   1      43.299  22.907  29.286  1.00  0.00    -0.206 F 
ATOM     78  C   UNL A   1      42.770  21.189  27.776  1.00  0.00     0.059 A 
ATOM     79  C   UNL A   1      42.851  21.620  25.386  1.00  0.00     0.059 A 
ATOM     80  F   UNL A   1      43.477  23.743  24.610  1.00  0.00    -0.206 F 
ATOM     81  C   UNL A   1      42.620  20.756  26.456  1.00  0.00     0.060 A 
BRANCH  81  82
ATOM     82  S   UNL A   1      42.064  19.065  26.153  1.00  0.00     0.124 S 
ATOM     83  O   UNL A   1      42.943  18.659  25.063  1.00  0.00    -0.237 OA
ATOM     84  O   UNL A   1      42.304  18.424  27.442  1.00  0.00    -0.237 OA
ATOM     85  O   UNL A   1      40.656  19.236  25.802  1.00  0.00    -0.744 OA
ENDBRANCH  81  82
ENDBRANCH  49  74
BRANCH  61  86
ATOM     86  C   UNL A   1      49.481  26.791  26.435  1.00  0.00     0.058 A 
ATOM     87  C   UNL A   1      50.333  26.174  27.365  1.00  0.00     0.135 A 
ATOM     88  C   UNL A   1      49.943  26.940  25.118  1.00  0.00     0.135 A 
ATOM     89  F   UNL A   1      49.940  26.015  28.638  1.00  0.00    -0.206 F 
ATOM     90  C   UNL A   1      51.604  25.738  27.006  1.00  0.00     0.059 A 
ATOM     91  C   UNL A   1      51.203  26.492  24.732  1.00  0.00     0.059 A 
ATOM     92  F   UNL A   1      49.163  27.516  24.189  1.00  0.00    -0.206 F 
ATOM     93  C   UNL A   1      52.030  25.901  25.686  1.00  0.00     0.060 A 
BRANCH  93  94
ATOM     94  S   UNL A   1      53.668  25.301  25.222  1.00  0.00     0.124 S 
ATOM     95  O   UNL A   1      53.688  25.583  23.790  1.00  0.00    -0.237 OA
ATOM     96  O   UNL A   1      54.550  26.125  26.042  1.00  0.00    -0.237 OA
ATOM     97  O   UNL A   1      53.627  23.887  25.584  1.00  0.00    -0.744 OA
ENDBRANCH  93  94
ENDBRANCH  61  86
ENDBRANCH  35  36
ENDBRANCH  27  30
ENDBRANCH  25  26
ENDBRANCH   1  25
TORSDOF 16
ENDMDL
