MODEL 1
REMARK VINA RESULT:     -11.3      0.000      0.000
REMARK SMILES C=C1C=C[C@H](C(=O)NCCCNC(=O)c2ccc(-c3c4nc(c(-c5c(F)cc(S(=O)(=O)[O-])cc5F)c5ccc([nH]5)c(-c5c(F)cc(S(=O)(=O)[O-])cc5F)c5nc(c(-c6c(F)cc(S(=O)(=O)[O-])cc6F)c6ccc3[nH]6)C=C5)C=C4)cc2)C(=S)N1
REMARK SMILES IDX 12 1 13 2 14 3 11 5 10 6 9 7 8 8 6 9 7 10 5 12 1 13 2 14
REMARK SMILES IDX 3 15 83 16 4 17 81 18 82 20 15 21 16 22 80 23 17 24 79 25
REMARK SMILES IDX 18 26 19 27 20 28 73 29 21 30 78 31 72 32 74 33 22 34 77 35
REMARK SMILES IDX 71 36 70 37 23 39 57 40 36 41 56 42 37 43 40 44 55 45 75 46
REMARK SMILES IDX 38 47 39 48 54 50 76 51 41 52 24 53 25 54 34 55 26 56 27 57
REMARK SMILES IDX 33 58 35 59 28 60 29 61 30 62 31 63 32 64 58 65 59 66 68 67
REMARK SMILES IDX 60 68 61 69 67 70 69 71 62 72 63 73 64 74 65 75 66 76 42 77
REMARK SMILES IDX 43 78 52 79 44 80 45 81 51 82 53 83 46 84 47 85 48 86 49 87
REMARK SMILES IDX 50 88
REMARK H PARENT 12 4 8 11 83 19 74 38 40 49
REMARK Flexibility Score: inf
ROOT
ATOM      1  N   UNL A   1      40.924  23.794  26.473  1.00  0.00    -0.352 N 
ATOM      2  C   UNL A   1      40.946  25.157  26.310  1.00  0.00     0.251 C 
ATOM      3  O   UNL A   1      41.021  25.624  25.173  1.00  0.00    -0.269 OA
ATOM      4  H   UNL A   1      41.103  23.272  25.658  1.00  0.00     0.163 HD
ENDROOT
BRANCH   1   5
ATOM      5  C   UNL A   1      40.675  23.006  27.671  1.00  0.00     0.118 C 
BRANCH   5   6
ATOM      6  C   UNL A   1      41.924  22.824  28.532  1.00  0.00     0.042 C 
BRANCH   6   7
ATOM      7  C   UNL A   1      43.181  22.447  27.746  1.00  0.00     0.117 C 
BRANCH   7   8
ATOM      8  N   UNL A   1      42.981  21.215  27.003  1.00  0.00    -0.355 N 
ATOM      9  C   UNL A   1      43.200  20.869  25.708  1.00  0.00     0.233 C 
ATOM     10  O   UNL A   1      42.724  19.783  25.354  1.00  0.00    -0.274 OA
ATOM     11  H   UNL A   1      42.611  20.484  27.549  1.00  0.00     0.163 HD
BRANCH   9  12
ATOM     12  C   UNL A   1      44.045  21.693  24.725  1.00  0.00     0.159 C 
ATOM     13  C   UNL A   1      46.751  24.931  25.273  1.00  0.00     0.037 C 
ATOM     14  C   UNL A   1      45.891  23.927  25.068  1.00  0.00     0.031 C 
ATOM     15  C   UNL A   1      44.500  24.153  24.749  1.00  0.00     0.022 C 
ATOM     16  N   UNL A   1      46.329  22.631  25.140  1.00  0.00    -0.350 N 
ATOM     17  C   UNL A   1      43.636  23.139  24.590  1.00  0.00    -0.004 C 
ATOM     18  C   UNL A   1      45.552  21.518  24.951  1.00  0.00     0.096 C 
ATOM     19  H   UNL A   1      47.281  22.488  25.344  1.00  0.00     0.167 HD
ATOM     20  S   UNL A   1      46.321  20.024  24.919  1.00  0.00    -0.064 S 
ENDBRANCH   9  12
ENDBRANCH   7   8
ENDBRANCH   6   7
ENDBRANCH   5   6
ENDBRANCH   1   5
BRANCH   2  21
ATOM     21  C   UNL A   1      40.857  26.063  27.476  1.00  0.00     0.039 A 
ATOM     22  C   UNL A   1      41.876  26.998  27.680  1.00  0.00     0.014 A 
ATOM     23  C   UNL A   1      39.795  25.984  28.382  1.00  0.00     0.014 A 
ATOM     24  C   UNL A   1      41.802  27.887  28.757  1.00  0.00     0.010 A 
ATOM     25  C   UNL A   1      39.685  26.919  29.410  1.00  0.00     0.010 A 
ATOM     26  C   UNL A   1      40.690  27.878  29.614  1.00  0.00    -0.014 A 
BRANCH  26  27
ATOM     27  C   UNL A   1      40.567  28.854  30.730  1.00  0.00     0.031 A 
ATOM     28  C   UNL A   1      41.434  28.719  31.955  1.00  0.00     0.074 A 
ATOM     29  C   UNL A   1      39.637  29.829  30.669  1.00  0.00     0.049 A 
ATOM     30  N   UNL A   1      41.424  29.425  33.057  1.00  0.00    -0.248 NA
ATOM     31  C   UNL A   1      42.427  27.633  31.951  1.00  0.00     0.031 C 
ATOM     32  C   UNL A   1      38.709  30.044  29.556  1.00  0.00     0.029 A 
ATOM     33  N   UNL A   1      39.310  30.817  31.566  1.00  0.00    -0.354 N 
ATOM     34  C   UNL A   1      42.394  28.861  33.879  1.00  0.00     0.074 A 
ATOM     35  C   UNL A   1      42.935  27.723  33.171  1.00  0.00     0.031 C 
ATOM     36  C   UNL A   1      37.933  31.106  29.828  1.00  0.00     0.029 A 
ATOM     37  C   UNL A   1      38.276  31.623  31.150  1.00  0.00     0.049 A 
ATOM     38  H   UNL A   1      39.773  30.936  32.427  1.00  0.00     0.167 HD
ATOM     39  C   UNL A   1      42.812  29.270  35.102  1.00  0.00     0.037 A 
ATOM     40  C   UNL A   1      37.663  32.653  31.767  1.00  0.00     0.037 A 
ATOM     41  C   UNL A   1      42.284  30.418  35.793  1.00  0.00     0.049 A 
ATOM     42  C   UNL A   1      38.136  33.078  33.131  1.00  0.00     0.074 A 
ATOM     43  C   UNL A   1      42.677  30.942  37.012  1.00  0.00     0.029 A 
ATOM     44  N   UNL A   1      41.249  31.219  35.331  1.00  0.00    -0.354 N 
ATOM     45  N   UNL A   1      39.095  32.569  33.868  1.00  0.00    -0.248 NA
ATOM     46  C   UNL A   1      37.450  34.224  33.746  1.00  0.00     0.031 C 
ATOM     47  C   UNL A   1      41.845  32.026  37.312  1.00  0.00     0.029 A 
ATOM     48  C   UNL A   1      40.976  32.219  36.250  1.00  0.00     0.049 A 
ATOM     49  H   UNL A   1      40.778  31.094  34.475  1.00  0.00     0.167 HD
ATOM     50  C   UNL A   1      39.151  33.355  35.015  1.00  0.00     0.074 A 
ATOM     51  C   UNL A   1      38.136  34.377  34.871  1.00  0.00     0.031 C 
ATOM     52  C   UNL A   1      39.972  33.242  36.089  1.00  0.00     0.037 A 
BRANCH  39  53
ATOM     53  C   UNL A   1      43.895  28.471  35.776  1.00  0.00     0.058 A 
ATOM     54  C   UNL A   1      43.597  27.401  36.637  1.00  0.00     0.135 A 
ATOM     55  C   UNL A   1      45.248  28.744  35.520  1.00  0.00     0.135 A 
ATOM     56  F   UNL A   1      42.321  27.103  36.930  1.00  0.00    -0.206 F 
ATOM     57  C   UNL A   1      44.601  26.652  37.241  1.00  0.00     0.059 A 
ATOM     58  C   UNL A   1      46.269  27.987  36.089  1.00  0.00     0.059 A 
ATOM     59  F   UNL A   1      45.592  29.753  34.704  1.00  0.00    -0.206 F 
ATOM     60  C   UNL A   1      45.935  26.950  36.959  1.00  0.00     0.060 A 
BRANCH  60  61
ATOM     61  S   UNL A   1      47.223  25.957  37.741  1.00  0.00     0.124 S 
ATOM     62  O   UNL A   1      48.218  26.973  38.064  1.00  0.00    -0.237 OA
ATOM     63  O   UNL A   1      46.519  25.376  38.880  1.00  0.00    -0.237 OA
ATOM     64  O   UNL A   1      47.607  25.012  36.696  1.00  0.00    -0.744 OA
ENDBRANCH  60  61
ENDBRANCH  39  53
BRANCH  40  65
ATOM     65  C   UNL A   1      36.541  33.365  31.094  1.00  0.00     0.058 A 
ATOM     66  C   UNL A   1      35.226  33.254  31.569  1.00  0.00     0.135 A 
ATOM     67  C   UNL A   1      36.761  34.167  29.963  1.00  0.00     0.135 A 
ATOM     68  F   UNL A   1      34.962  32.493  32.642  1.00  0.00    -0.206 F 
ATOM     69  C   UNL A   1      34.164  33.895  30.937  1.00  0.00     0.059 A 
ATOM     70  C   UNL A   1      35.720  34.842  29.331  1.00  0.00     0.059 A 
ATOM     71  F   UNL A   1      38.002  34.321  29.477  1.00  0.00    -0.206 F 
ATOM     72  C   UNL A   1      34.423  34.689  29.818  1.00  0.00     0.060 A 
BRANCH  72  73
ATOM     73  S   UNL A   1      33.044  35.547  29.028  1.00  0.00     0.124 S 
ATOM     74  O   UNL A   1      32.263  35.974  30.183  1.00  0.00    -0.237 OA
ATOM     75  O   UNL A   1      33.726  36.606  28.290  1.00  0.00    -0.237 OA
ATOM     76  O   UNL A   1      32.434  34.511  28.201  1.00  0.00    -0.744 OA
ENDBRANCH  72  73
ENDBRANCH  40  65
BRANCH  52  77
ATOM     77  C   UNL A   1      39.850  34.277  37.174  1.00  0.00     0.058 A 
ATOM     78  C   UNL A   1      40.523  35.507  37.110  1.00  0.00     0.135 A 
ATOM     79  C   UNL A   1      39.001  34.053  38.271  1.00  0.00     0.135 A 
ATOM     80  F   UNL A   1      41.351  35.772  36.087  1.00  0.00    -0.206 F 
ATOM     81  C   UNL A   1      40.379  36.467  38.107  1.00  0.00     0.059 A 
ATOM     82  C   UNL A   1      38.817  35.011  39.262  1.00  0.00     0.059 A 
ATOM     83  F   UNL A   1      38.325  32.899  38.378  1.00  0.00    -0.206 F 
ATOM     84  C   UNL A   1      39.521  36.211  39.178  1.00  0.00     0.060 A 
BRANCH  84  85
ATOM     85  S   UNL A   1      39.318  37.479  40.447  1.00  0.00     0.124 S 
ATOM     86  O   UNL A   1      38.209  38.260  39.909  1.00  0.00    -0.237 OA
ATOM     87  O   UNL A   1      39.018  36.686  41.635  1.00  0.00    -0.237 OA
ATOM     88  O   UNL A   1      40.611  38.156  40.462  1.00  0.00    -0.744 OA
ENDBRANCH  84  85
ENDBRANCH  52  77
ENDBRANCH  26  27
ENDBRANCH   2  21
TORSDOF 13
ENDMDL
MODEL 2
REMARK VINA RESULT:     -11.3      3.299      4.613
REMARK SMILES C=C1C=C[C@H](C(=O)NCCCNC(=O)c2ccc(-c3c4nc(c(-c5c(F)cc(S(=O)(=O)[O-])cc5F)c5ccc([nH]5)c(-c5c(F)cc(S(=O)(=O)[O-])cc5F)c5nc(c(-c6c(F)cc(S(=O)(=O)[O-])cc6F)c6ccc3[nH]6)C=C5)C=C4)cc2)C(=S)N1
REMARK SMILES IDX 12 1 13 2 14 3 11 5 10 6 9 7 8 8 6 9 7 10 5 12 1 13 2 14
REMARK SMILES IDX 3 15 83 16 4 17 81 18 82 20 15 21 16 22 80 23 17 24 79 25
REMARK SMILES IDX 18 26 19 27 20 28 73 29 21 30 78 31 72 32 74 33 22 34 77 35
REMARK SMILES IDX 71 36 70 37 23 39 57 40 36 41 56 42 37 43 40 44 55 45 75 46
REMARK SMILES IDX 38 47 39 48 54 50 76 51 41 52 24 53 25 54 34 55 26 56 27 57
REMARK SMILES IDX 33 58 35 59 28 60 29 61 30 62 31 63 32 64 58 65 59 66 68 67
REMARK SMILES IDX 60 68 61 69 67 70 69 71 62 72 63 73 64 74 65 75 66 76 42 77
REMARK SMILES IDX 43 78 52 79 44 80 45 81 51 82 53 83 46 84 47 85 48 86 49 87
REMARK SMILES IDX 50 88
REMARK H PARENT 12 4 8 11 83 19 74 38 40 49
REMARK Flexibility Score: inf
ROOT
ATOM      1  N   UNL A   1      40.029  24.012  26.184  1.00  0.00    -0.352 N 
ATOM      2  C   UNL A   1      41.113  24.720  26.641  1.00  0.00     0.251 C 
ATOM      3  O   UNL A   1      42.227  24.479  26.176  1.00  0.00    -0.269 OA
ATOM      4  H   UNL A   1      40.243  23.254  25.594  1.00  0.00     0.163 HD
ENDROOT
BRANCH   1   5
ATOM      5  C   UNL A   1      38.611  24.215  26.440  1.00  0.00     0.118 C 
BRANCH   5   6
ATOM      6  C   UNL A   1      37.726  23.190  25.731  1.00  0.00     0.042 C 
BRANCH   6   7
ATOM      7  C   UNL A   1      36.241  23.554  25.702  1.00  0.00     0.117 C 
BRANCH   7   8
ATOM      8  N   UNL A   1      35.469  22.657  26.545  1.00  0.00    -0.355 N 
ATOM      9  C   UNL A   1      34.705  21.566  26.280  1.00  0.00     0.233 C 
ATOM     10  O   UNL A   1      34.015  21.152  27.221  1.00  0.00    -0.274 OA
ATOM     11  H   UNL A   1      35.508  22.888  27.502  1.00  0.00     0.163 HD
BRANCH   9  12
ATOM     12  C   UNL A   1      34.717  20.807  24.945  1.00  0.00     0.159 C 
ATOM     13  C   UNL A   1      33.278  16.967  23.809  1.00  0.00     0.037 C 
ATOM     14  C   UNL A   1      33.758  18.171  24.142  1.00  0.00     0.031 C 
ATOM     15  C   UNL A   1      35.131  18.373  24.544  1.00  0.00     0.022 C 
ATOM     16  N   UNL A   1      32.939  19.268  24.087  1.00  0.00    -0.350 N 
ATOM     17  C   UNL A   1      35.589  19.577  24.920  1.00  0.00    -0.004 C 
ATOM     18  C   UNL A   1      33.306  20.550  24.400  1.00  0.00     0.096 C 
ATOM     19  H   UNL A   1      32.009  19.122  23.798  1.00  0.00     0.167 HD
ATOM     20  S   UNL A   1      32.195  21.776  24.106  1.00  0.00    -0.064 S 
ENDBRANCH   9  12
ENDBRANCH   7   8
ENDBRANCH   6   7
ENDBRANCH   5   6
ENDBRANCH   1   5
BRANCH   2  21
ATOM     21  C   UNL A   1      40.952  25.779  27.662  1.00  0.00     0.039 A 
ATOM     22  C   UNL A   1      39.905  25.672  28.582  1.00  0.00     0.014 A 
ATOM     23  C   UNL A   1      41.804  26.886  27.706  1.00  0.00     0.014 A 
ATOM     24  C   UNL A   1      39.747  26.642  29.576  1.00  0.00     0.010 A 
ATOM     25  C   UNL A   1      41.692  27.812  28.742  1.00  0.00     0.010 A 
ATOM     26  C   UNL A   1      40.658  27.705  29.687  1.00  0.00    -0.014 A 
BRANCH  26  27
ATOM     27  C   UNL A   1      40.541  28.713  30.774  1.00  0.00     0.031 A 
ATOM     28  C   UNL A   1      41.405  28.607  32.004  1.00  0.00     0.074 A 
ATOM     29  C   UNL A   1      39.619  29.694  30.684  1.00  0.00     0.049 A 
ATOM     30  N   UNL A   1      41.400  29.345  33.085  1.00  0.00    -0.248 NA
ATOM     31  C   UNL A   1      42.390  27.514  32.032  1.00  0.00     0.031 C 
ATOM     32  C   UNL A   1      38.694  29.883  29.564  1.00  0.00     0.029 A 
ATOM     33  N   UNL A   1      39.298  30.708  31.551  1.00  0.00    -0.354 N 
ATOM     34  C   UNL A   1      42.364  28.797  33.924  1.00  0.00     0.074 A 
ATOM     35  C   UNL A   1      42.898  27.635  33.249  1.00  0.00     0.031 C 
ATOM     36  C   UNL A   1      37.925  30.958  29.804  1.00  0.00     0.029 A 
ATOM     37  C   UNL A   1      38.270  31.510  31.111  1.00  0.00     0.049 A 
ATOM     38  H   UNL A   1      39.761  30.849  32.410  1.00  0.00     0.167 HD
ATOM     39  C   UNL A   1      42.783  29.237  35.135  1.00  0.00     0.037 A 
ATOM     40  C   UNL A   1      37.664  32.562  31.697  1.00  0.00     0.037 A 
ATOM     41  C   UNL A   1      42.264  30.409  35.793  1.00  0.00     0.049 A 
ATOM     42  C   UNL A   1      38.139  33.022  33.050  1.00  0.00     0.074 A 
ATOM     43  C   UNL A   1      42.659  30.965  36.996  1.00  0.00     0.029 A 
ATOM     44  N   UNL A   1      41.235  31.204  35.306  1.00  0.00    -0.354 N 
ATOM     45  N   UNL A   1      39.093  32.528  33.802  1.00  0.00    -0.248 NA
ATOM     46  C   UNL A   1      37.461  34.191  33.631  1.00  0.00     0.031 C 
ATOM     47  C   UNL A   1      41.835  32.063  37.264  1.00  0.00     0.029 A 
ATOM     48  C   UNL A   1      40.969  32.232  36.196  1.00  0.00     0.049 A 
ATOM     49  H   UNL A   1      40.764  31.058  34.453  1.00  0.00     0.167 HD
ATOM     50  C   UNL A   1      39.154  33.346  34.926  1.00  0.00     0.074 A 
ATOM     51  C   UNL A   1      38.146  34.370  34.751  1.00  0.00     0.031 C 
ATOM     52  C   UNL A   1      39.973  33.257  36.004  1.00  0.00     0.037 A 
BRANCH  39  53
ATOM     53  C   UNL A   1      43.860  28.450  35.833  1.00  0.00     0.058 A 
ATOM     54  C   UNL A   1      45.223  28.723  35.632  1.00  0.00     0.135 A 
ATOM     55  C   UNL A   1      43.526  27.443  36.753  1.00  0.00     0.135 A 
ATOM     56  F   UNL A   1      45.602  29.665  34.753  1.00  0.00    -0.206 F 
ATOM     57  C   UNL A   1      46.215  28.008  36.295  1.00  0.00     0.059 A 
ATOM     58  C   UNL A   1      44.501  26.736  37.452  1.00  0.00     0.059 A 
ATOM     59  F   UNL A   1      42.239  27.140  36.987  1.00  0.00    -0.206 F 
ATOM     60  C   UNL A   1      45.844  27.018  37.206  1.00  0.00     0.060 A 
BRANCH  60  61
ATOM     61  S   UNL A   1      47.145  26.110  38.068  1.00  0.00     0.124 S 
ATOM     62  O   UNL A   1      46.366  25.293  38.992  1.00  0.00    -0.237 OA
ATOM     63  O   UNL A   1      47.795  25.390  36.978  1.00  0.00    -0.237 OA
ATOM     64  O   UNL A   1      47.945  27.164  38.685  1.00  0.00    -0.744 OA
ENDBRANCH  60  61
ENDBRANCH  39  53
BRANCH  40  65
ATOM     65  C   UNL A   1      36.549  33.263  31.003  1.00  0.00     0.058 A 
ATOM     66  C   UNL A   1      36.795  34.106  29.909  1.00  0.00     0.135 A 
ATOM     67  C   UNL A   1      35.217  33.106  31.418  1.00  0.00     0.135 A 
ATOM     68  F   UNL A   1      38.051  34.295  29.476  1.00  0.00    -0.206 F 
ATOM     69  C   UNL A   1      35.766  34.786  29.264  1.00  0.00     0.059 A 
ATOM     70  C   UNL A   1      34.168  33.751  30.772  1.00  0.00     0.059 A 
ATOM     71  F   UNL A   1      34.925  32.298  32.449  1.00  0.00    -0.206 F 
ATOM     72  C   UNL A   1      34.454  34.600  29.703  1.00  0.00     0.060 A 
BRANCH  72  73
ATOM     73  S   UNL A   1      33.121  35.456  28.836  1.00  0.00     0.124 S 
ATOM     74  O   UNL A   1      32.515  34.366  28.079  1.00  0.00    -0.237 OA
ATOM     75  O   UNL A   1      32.328  35.985  29.941  1.00  0.00    -0.237 OA
ATOM     76  O   UNL A   1      33.826  36.459  28.043  1.00  0.00    -0.744 OA
ENDBRANCH  72  73
ENDBRANCH  40  65
BRANCH  52  77
ATOM     77  C   UNL A   1      39.857  34.324  37.059  1.00  0.00     0.058 A 
ATOM     78  C   UNL A   1      40.491  35.570  36.932  1.00  0.00     0.135 A 
ATOM     79  C   UNL A   1      39.052  34.112  38.192  1.00  0.00     0.135 A 
ATOM     80  F   UNL A   1      41.277  35.823  35.874  1.00  0.00    -0.206 F 
ATOM     81  C   UNL A   1      40.353  36.558  37.903  1.00  0.00     0.059 A 
ATOM     82  C   UNL A   1      38.874  35.098  39.157  1.00  0.00     0.059 A 
ATOM     83  F   UNL A   1      38.413  32.944  38.358  1.00  0.00    -0.206 F 
ATOM     84  C   UNL A   1      39.539  36.313  39.010  1.00  0.00     0.060 A 
BRANCH  84  85
ATOM     85  S   UNL A   1      39.342  37.617  40.244  1.00  0.00     0.124 S 
ATOM     86  O   UNL A   1      38.295  38.436  39.642  1.00  0.00    -0.237 OA
ATOM     87  O   UNL A   1      38.953  36.864  41.433  1.00  0.00    -0.237 OA
ATOM     88  O   UNL A   1      40.664  38.232  40.303  1.00  0.00    -0.744 OA
ENDBRANCH  84  85
ENDBRANCH  52  77
ENDBRANCH  26  27
ENDBRANCH   2  21
TORSDOF 13
ENDMDL
MODEL 3
REMARK VINA RESULT:     -11.2      4.581     12.238
REMARK SMILES C=C1C=C[C@H](C(=O)NCCCNC(=O)c2ccc(-c3c4nc(c(-c5c(F)cc(S(=O)(=O)[O-])cc5F)c5ccc([nH]5)c(-c5c(F)cc(S(=O)(=O)[O-])cc5F)c5nc(c(-c6c(F)cc(S(=O)(=O)[O-])cc6F)c6ccc3[nH]6)C=C5)C=C4)cc2)C(=S)N1
REMARK SMILES IDX 12 1 13 2 14 3 11 5 10 6 9 7 8 8 6 9 7 10 5 12 1 13 2 14
REMARK SMILES IDX 3 15 83 16 4 17 81 18 82 20 15 21 16 22 80 23 17 24 79 25
REMARK SMILES IDX 18 26 19 27 20 28 73 29 21 30 78 31 72 32 74 33 22 34 77 35
REMARK SMILES IDX 71 36 70 37 23 39 57 40 36 41 56 42 37 43 40 44 55 45 75 46
REMARK SMILES IDX 38 47 39 48 54 50 76 51 41 52 24 53 25 54 34 55 26 56 27 57
REMARK SMILES IDX 33 58 35 59 28 60 29 61 30 62 31 63 32 64 58 65 59 66 68 67
REMARK SMILES IDX 60 68 61 69 67 70 69 71 62 72 63 73 64 74 65 75 66 76 42 77
REMARK SMILES IDX 43 78 52 79 44 80 45 81 51 82 53 83 46 84 47 85 48 86 49 87
REMARK SMILES IDX 50 88
REMARK H PARENT 12 4 8 11 83 19 74 38 40 49
REMARK Flexibility Score: inf
ROOT
ATOM      1  N   UNL A   1      33.856  31.272  27.952  1.00  0.00    -0.352 N 
ATOM      2  C   UNL A   1      34.388  30.005  27.946  1.00  0.00     0.251 C 
ATOM      3  O   UNL A   1      33.661  29.051  27.669  1.00  0.00    -0.269 OA
ATOM      4  H   UNL A   1      32.878  31.315  27.856  1.00  0.00     0.163 HD
ENDROOT
BRANCH   1   5
ATOM      5  C   UNL A   1      34.524  32.559  28.077  1.00  0.00     0.118 C 
BRANCH   5   6
ATOM      6  C   UNL A   1      34.851  32.919  29.526  1.00  0.00     0.042 C 
BRANCH   6   7
ATOM      7  C   UNL A   1      36.104  33.780  29.693  1.00  0.00     0.117 C 
BRANCH   7   8
ATOM      8  N   UNL A   1      36.074  34.505  30.952  1.00  0.00    -0.355 N 
ATOM      9  C   UNL A   1      36.807  34.412  32.091  1.00  0.00     0.233 C 
ATOM     10  O   UNL A   1      36.380  35.054  33.059  1.00  0.00    -0.274 OA
ATOM     11  H   UNL A   1      35.381  35.204  30.985  1.00  0.00     0.163 HD
BRANCH   9  12
ATOM     12  C   UNL A   1      38.130  33.640  32.206  1.00  0.00     0.159 C 
ATOM     13  C   UNL A   1      40.771  32.931  35.466  1.00  0.00     0.037 C 
ATOM     14  C   UNL A   1      39.969  33.154  34.418  1.00  0.00     0.031 C 
ATOM     15  C   UNL A   1      40.180  34.252  33.503  1.00  0.00     0.022 C 
ATOM     16  N   UNL A   1      38.917  32.311  34.176  1.00  0.00    -0.350 N 
ATOM     17  C   UNL A   1      39.343  34.493  32.482  1.00  0.00    -0.004 C 
ATOM     18  C   UNL A   1      38.027  32.428  33.141  1.00  0.00     0.096 C 
ATOM     19  H   UNL A   1      38.792  31.558  34.797  1.00  0.00     0.167 HD
ATOM     20  S   UNL A   1      36.909  31.193  32.928  1.00  0.00    -0.064 S 
ENDBRANCH   9  12
ENDBRANCH   7   8
ENDBRANCH   6   7
ENDBRANCH   5   6
ENDBRANCH   1   5
BRANCH   2  21
ATOM     21  C   UNL A   1      35.820  29.782  28.244  1.00  0.00     0.039 A 
ATOM     22  C   UNL A   1      36.181  29.362  29.528  1.00  0.00     0.014 A 
ATOM     23  C   UNL A   1      36.809  30.005  27.282  1.00  0.00     0.014 A 
ATOM     24  C   UNL A   1      37.524  29.114  29.829  1.00  0.00     0.010 A 
ATOM     25  C   UNL A   1      38.137  29.685  27.561  1.00  0.00     0.010 A 
ATOM     26  C   UNL A   1      38.512  29.242  28.839  1.00  0.00    -0.014 A 
BRANCH  26  27
ATOM     27  C   UNL A   1      39.937  28.926  29.125  1.00  0.00     0.031 A 
ATOM     28  C   UNL A   1      40.836  29.968  29.739  1.00  0.00     0.074 A 
ATOM     29  C   UNL A   1      40.440  27.722  28.782  1.00  0.00     0.049 A 
ATOM     30  N   UNL A   1      42.118  29.906  29.996  1.00  0.00    -0.248 NA
ATOM     31  C   UNL A   1      40.219  31.257  30.089  1.00  0.00     0.031 C 
ATOM     32  C   UNL A   1      39.684  26.641  28.145  1.00  0.00     0.029 A 
ATOM     33  N   UNL A   1      41.707  27.208  28.909  1.00  0.00    -0.354 N 
ATOM     34  C   UNL A   1      42.461  31.147  30.522  1.00  0.00     0.074 A 
ATOM     35  C   UNL A   1      41.265  31.959  30.497  1.00  0.00     0.031 C 
ATOM     36  C   UNL A   1      40.496  25.588  27.956  1.00  0.00     0.029 A 
ATOM     37  C   UNL A   1      41.839  25.931  28.416  1.00  0.00     0.049 A 
ATOM     38  H   UNL A   1      42.452  27.708  29.315  1.00  0.00     0.167 HD
ATOM     39  C   UNL A   1      43.657  31.563  31.003  1.00  0.00     0.037 A 
ATOM     40  C   UNL A   1      42.919  25.129  28.332  1.00  0.00     0.037 A 
ATOM     41  C   UNL A   1      44.841  30.742  31.045  1.00  0.00     0.049 A 
ATOM     42  C   UNL A   1      44.241  25.621  28.860  1.00  0.00     0.074 A 
ATOM     43  C   UNL A   1      46.086  31.056  31.559  1.00  0.00     0.029 A 
ATOM     44  N   UNL A   1      44.929  29.448  30.552  1.00  0.00    -0.354 N 
ATOM     45  N   UNL A   1      44.533  26.777  29.408  1.00  0.00    -0.248 NA
ATOM     46  C   UNL A   1      45.380  24.696  28.768  1.00  0.00     0.031 C 
ATOM     47  C   UNL A   1      46.941  29.973  31.330  1.00  0.00     0.029 A 
ATOM     48  C   UNL A   1      46.212  28.959  30.731  1.00  0.00     0.049 A 
ATOM     49  H   UNL A   1      44.187  28.951  30.136  1.00  0.00     0.167 HD
ATOM     50  C   UNL A   1      45.877  26.703  29.758  1.00  0.00     0.074 A 
ATOM     51  C   UNL A   1      46.339  25.388  29.367  1.00  0.00     0.031 C 
ATOM     52  C   UNL A   1      46.657  27.640  30.352  1.00  0.00     0.037 A 
BRANCH  39  53
ATOM     53  C   UNL A   1      43.752  32.972  31.525  1.00  0.00     0.058 A 
ATOM     54  C   UNL A   1      43.877  34.073  30.661  1.00  0.00     0.135 A 
ATOM     55  C   UNL A   1      43.665  33.231  32.902  1.00  0.00     0.135 A 
ATOM     56  F   UNL A   1      43.980  33.886  29.336  1.00  0.00    -0.206 F 
ATOM     57  C   UNL A   1      43.943  35.375  31.146  1.00  0.00     0.059 A 
ATOM     58  C   UNL A   1      43.696  34.528  33.408  1.00  0.00     0.059 A 
ATOM     59  F   UNL A   1      43.543  32.218  33.774  1.00  0.00    -0.206 F 
ATOM     60  C   UNL A   1      43.848  35.593  32.522  1.00  0.00     0.060 A 
BRANCH  60  61
ATOM     61  S   UNL A   1      43.920  37.291  33.131  1.00  0.00     0.124 S 
ATOM     62  O   UNL A   1      43.856  38.049  31.886  1.00  0.00    -0.237 OA
ATOM     63  O   UNL A   1      42.736  37.367  33.980  1.00  0.00    -0.237 OA
ATOM     64  O   UNL A   1      45.198  37.347  33.834  1.00  0.00    -0.744 OA
ENDBRANCH  60  61
ENDBRANCH  39  53
BRANCH  40  65
ATOM     65  C   UNL A   1      42.796  23.771  27.735  1.00  0.00     0.058 A 
ATOM     66  C   UNL A   1      42.933  23.573  26.352  1.00  0.00     0.135 A 
ATOM     67  C   UNL A   1      42.537  22.644  28.532  1.00  0.00     0.135 A 
ATOM     68  F   UNL A   1      43.174  24.618  25.546  1.00  0.00    -0.206 F 
ATOM     69  C   UNL A   1      42.797  22.313  25.777  1.00  0.00     0.059 A 
ATOM     70  C   UNL A   1      42.426  21.370  27.984  1.00  0.00     0.059 A 
ATOM     71  F   UNL A   1      42.413  22.775  29.861  1.00  0.00    -0.206 F 
ATOM     72  C   UNL A   1      42.545  21.216  26.603  1.00  0.00     0.060 A 
BRANCH  72  73
ATOM     73  S   UNL A   1      42.410  19.580  25.852  1.00  0.00     0.124 S 
ATOM     74  O   UNL A   1      42.789  18.714  26.962  1.00  0.00    -0.237 OA
ATOM     75  O   UNL A   1      41.004  19.539  25.460  1.00  0.00    -0.237 OA
ATOM     76  O   UNL A   1      43.359  19.639  24.745  1.00  0.00    -0.744 OA
ENDBRANCH  72  73
ENDBRANCH  40  65
BRANCH  52  77
ATOM     77  C   UNL A   1      48.080  27.266  30.669  1.00  0.00     0.058 A 
ATOM     78  C   UNL A   1      48.423  26.556  31.831  1.00  0.00     0.135 A 
ATOM     79  C   UNL A   1      49.110  27.578  29.766  1.00  0.00     0.135 A 
ATOM     80  F   UNL A   1      47.479  26.238  32.731  1.00  0.00    -0.206 F 
ATOM     81  C   UNL A   1      49.739  26.192  32.098  1.00  0.00     0.059 A 
ATOM     82  C   UNL A   1      50.427  27.195  29.997  1.00  0.00     0.059 A 
ATOM     83  F   UNL A   1      48.838  28.245  28.634  1.00  0.00    -0.206 F 
ATOM     84  C   UNL A   1      50.734  26.513  31.173  1.00  0.00     0.060 A 
BRANCH  84  85
ATOM     85  S   UNL A   1      52.432  26.004  31.517  1.00  0.00     0.124 S 
ATOM     86  O   UNL A   1      52.233  24.667  32.065  1.00  0.00    -0.237 OA
ATOM     87  O   UNL A   1      53.048  26.063  30.195  1.00  0.00    -0.237 OA
ATOM     88  O   UNL A   1      52.902  27.008  32.467  1.00  0.00    -0.744 OA
ENDBRANCH  84  85
ENDBRANCH  52  77
ENDBRANCH  26  27
ENDBRANCH   2  21
TORSDOF 13
ENDMDL
