MODEL 1
REMARK VINA RESULT:      -9.5      0.000      0.000
REMARK SMILES CC[N@@H+]1CCC[C@@H]1C[N@@H+](C)C[C@H]([NH3+])C(=O)NCCCNC(=O)c1ccc(-c2c3nc(c(-c4c(F)cc(S(=O)(=O)[O-])cc4F)c4ccc([nH]4)c(-c4c(F)cc(S(=O)(=O)[O-])cc4F)c4nc(c(-c5c(F)cc(S(=O)(=O)[O-])cc5F)c5ccc2[nH]5)C=C4)C=C3)cc1
REMARK SMILES IDX 17 1 16 2 14 3 15 4 12 6 11 7 9 8 10 9 8 11 7 12 3 13 4 14
REMARK SMILES IDX 5 16 6 17 2 18 1 19 13 20 18 24 19 25 20 26 21 27 22 29
REMARK SMILES IDX 23 30 24 31 88 32 25 33 87 34 26 35 27 36 28 37 81 38 29 39
REMARK SMILES IDX 86 40 80 41 82 42 30 43 85 44 79 45 78 46 31 48 65 49 44 50
REMARK SMILES IDX 64 51 45 52 48 53 63 54 83 55 46 56 47 57 62 59 84 60 49 61
REMARK SMILES IDX 32 62 33 63 42 64 34 65 35 66 41 67 43 68 36 69 37 70 38 71
REMARK SMILES IDX 39 72 40 73 66 74 67 75 76 76 68 77 69 78 75 79 77 80 70 81
REMARK SMILES IDX 71 82 72 83 73 84 74 85 50 86 51 87 60 88 52 89 53 90 59 91
REMARK SMILES IDX 61 92 54 93 55 94 56 95 57 96 58 97
REMARK H PARENT 16 5 9 10 3 15 13 21 13 22 13 23 20 28 82 47 48 58
REMARK Flexibility Score: inf
ROOT
ATOM      1  C   UNL A   1      33.638  34.844  28.934  1.00  0.00     0.118 C 
ENDROOT
BRANCH   1   2
ATOM      2  N   UNL A   1      32.872  34.721  30.162  1.00  0.00    -0.351 N 
ATOM      3  C   UNL A   1      33.019  35.321  31.376  1.00  0.00     0.284 C 
ATOM      4  O   UNL A   1      32.139  35.098  32.216  1.00  0.00    -0.268 OA
ATOM      5  H   UNL A   1      32.113  34.096  30.108  1.00  0.00     0.163 HD
BRANCH   3   6
ATOM      6  C   UNL A   1      34.233  36.208  31.719  1.00  0.00     0.326 C 
BRANCH   6   7
ATOM      7  C   UNL A   1      34.949  35.810  33.043  1.00  0.00     0.338 C 
BRANCH   7   8
ATOM      8  N   UNL A   1      34.937  34.396  33.499  1.00  0.00    -0.327 N 
ATOM      9  C   UNL A   1      35.169  34.362  34.953  1.00  0.00     0.333 C 
ATOM     10  H   UNL A   1      34.015  34.040  33.244  1.00  0.00     0.348 HD
BRANCH   8  11
ATOM     11  C   UNL A   1      35.889  33.481  32.821  1.00  0.00     0.327 C 
BRANCH  11  12
ATOM     12  C   UNL A   1      36.920  32.681  33.697  1.00  0.00     0.239 C 
ATOM     13  N   UNL A   1      38.302  33.251  33.889  1.00  0.00    -0.328 N 
ATOM     14  C   UNL A   1      39.259  32.148  33.697  1.00  0.00     0.262 C 
ATOM     15  H   UNL A   1      38.329  33.637  34.833  1.00  0.00     0.348 HD
ATOM     16  C   UNL A   1      38.582  31.224  32.719  1.00  0.00     0.068 C 
ATOM     17  C   UNL A   1      37.164  31.240  33.240  1.00  0.00     0.077 C 
BRANCH  13  18
ATOM     18  C   UNL A   1      38.659  34.416  33.073  1.00  0.00     0.259 C 
ATOM     19  C   UNL A   1      40.174  34.551  32.972  1.00  0.00     0.071 C 
ENDBRANCH  13  18
ENDBRANCH  11  12
ENDBRANCH   8  11
ENDBRANCH   7   8
ENDBRANCH   6   7
BRANCH   6  20
ATOM     20  N   UNL A   1      33.825  37.638  31.694  1.00  0.00    -0.343 N 
ATOM     21  H   UNL A   1      33.839  37.979  30.735  1.00  0.00     0.345 HD
ATOM     22  H   UNL A   1      34.473  38.186  32.260  1.00  0.00     0.345 HD
ATOM     23  H   UNL A   1      32.883  37.728  32.075  1.00  0.00     0.345 HD
ENDBRANCH   6  20
ENDBRANCH   3   6
ENDBRANCH   1   2
BRANCH   1  24
ATOM     24  C   UNL A   1      33.465  33.636  28.031  1.00  0.00     0.042 C 
BRANCH  24  25
ATOM     25  C   UNL A   1      34.386  32.474  28.385  1.00  0.00     0.118 C 
BRANCH  25  26
ATOM     26  N   UNL A   1      33.821  31.172  28.046  1.00  0.00    -0.352 N 
ATOM     27  C   UNL A   1      34.454  29.960  27.897  1.00  0.00     0.251 C 
ATOM     28  H   UNL A   1      32.848  31.160  27.904  1.00  0.00     0.163 HD
ATOM     29  O   UNL A   1      33.832  28.996  27.460  1.00  0.00    -0.269 OA
BRANCH  27  30
ATOM     30  C   UNL A   1      35.889  29.834  28.232  1.00  0.00     0.039 A 
ATOM     31  C   UNL A   1      36.255  29.397  29.507  1.00  0.00     0.014 A 
ATOM     32  C   UNL A   1      36.869  30.110  27.275  1.00  0.00     0.014 A 
ATOM     33  C   UNL A   1      37.601  29.153  29.791  1.00  0.00     0.010 A 
ATOM     34  C   UNL A   1      38.193  29.771  27.528  1.00  0.00     0.010 A 
ATOM     35  C   UNL A   1      38.576  29.292  28.789  1.00  0.00    -0.014 A 
BRANCH  35  36
ATOM     36  C   UNL A   1      40.001  28.944  29.036  1.00  0.00     0.031 A 
ATOM     37  C   UNL A   1      40.941  29.977  29.596  1.00  0.00     0.074 A 
ATOM     38  C   UNL A   1      40.464  27.728  28.684  1.00  0.00     0.049 A 
ATOM     39  N   UNL A   1      42.230  29.897  29.801  1.00  0.00    -0.248 NA
ATOM     40  C   UNL A   1      40.362  31.288  29.939  1.00  0.00     0.031 C 
ATOM     41  C   UNL A   1      39.668  26.660  28.071  1.00  0.00     0.029 A 
ATOM     42  N   UNL A   1      41.722  27.187  28.778  1.00  0.00    -0.354 N 
ATOM     43  C   UNL A   1      42.618  31.145  30.274  1.00  0.00     0.074 A 
ATOM     44  C   UNL A   1      41.440  31.983  30.270  1.00  0.00     0.031 C 
ATOM     45  C   UNL A   1      40.449  25.587  27.871  1.00  0.00     0.029 A 
ATOM     46  C   UNL A   1      41.808  25.898  28.304  1.00  0.00     0.049 A 
ATOM     47  H   UNL A   1      42.491  27.676  29.150  1.00  0.00     0.167 HD
ATOM     48  C   UNL A   1      43.838  31.549  30.701  1.00  0.00     0.037 A 
ATOM     49  C   UNL A   1      42.863  25.064  28.223  1.00  0.00     0.037 A 
ATOM     50  C   UNL A   1      44.998  30.699  30.740  1.00  0.00     0.049 A 
ATOM     51  C   UNL A   1      44.203  25.526  28.726  1.00  0.00     0.074 A 
ATOM     52  C   UNL A   1      46.263  30.991  31.220  1.00  0.00     0.029 A 
ATOM     53  N   UNL A   1      45.035  29.388  30.288  1.00  0.00    -0.354 N 
ATOM     54  N   UNL A   1      44.536  26.689  29.233  1.00  0.00    -0.248 NA
ATOM     55  C   UNL A   1      45.310  24.563  28.653  1.00  0.00     0.031 C 
ATOM     56  C   UNL A   1      47.075  29.870  31.022  1.00  0.00     0.029 A 
ATOM     57  C   UNL A   1      46.305  28.863  30.462  1.00  0.00     0.049 A 
ATOM     58  H   UNL A   1      44.271  28.903  29.900  1.00  0.00     0.167 HD
ATOM     59  C   UNL A   1      45.883  26.588  29.563  1.00  0.00     0.074 A 
ATOM     60  C   UNL A   1      46.299  25.246  29.210  1.00  0.00     0.031 C 
ATOM     61  C   UNL A   1      46.700  27.522  30.112  1.00  0.00     0.037 A 
BRANCH  48  62
ATOM     62  C   UNL A   1      43.974  32.971  31.172  1.00  0.00     0.058 A 
ATOM     63  C   UNL A   1      43.891  33.307  32.533  1.00  0.00     0.135 A 
ATOM     64  C   UNL A   1      44.217  34.008  30.257  1.00  0.00     0.135 A 
ATOM     65  F   UNL A   1      43.644  32.358  33.450  1.00  0.00    -0.206 F 
ATOM     66  C   UNL A   1      44.010  34.623  32.966  1.00  0.00     0.059 A 
ATOM     67  C   UNL A   1      44.368  35.328  30.671  1.00  0.00     0.059 A 
ATOM     68  F   UNL A   1      44.304  33.744  28.944  1.00  0.00    -0.206 F 
ATOM     69  C   UNL A   1      44.247  35.627  32.027  1.00  0.00     0.060 A 
BRANCH  69  70
ATOM     70  S   UNL A   1      44.399  37.330  32.607  1.00  0.00     0.124 S 
ATOM     71  O   UNL A   1      45.435  37.198  33.627  1.00  0.00    -0.237 OA
ATOM     72  O   UNL A   1      44.793  38.039  31.393  1.00  0.00    -0.237 OA
ATOM     73  O   UNL A   1      43.063  37.640  33.105  1.00  0.00    -0.744 OA
ENDBRANCH  69  70
ENDBRANCH  48  62
BRANCH  49  74
ATOM     74  C   UNL A   1      42.686  23.693  27.672  1.00  0.00     0.058 A 
ATOM     75  C   UNL A   1      42.804  23.449  26.295  1.00  0.00     0.135 A 
ATOM     76  C   UNL A   1      42.410  22.600  28.508  1.00  0.00     0.135 A 
ATOM     77  F   UNL A   1      43.062  24.463  25.455  1.00  0.00    -0.206 F 
ATOM     78  C   UNL A   1      42.640  22.174  25.764  1.00  0.00     0.059 A 
ATOM     79  C   UNL A   1      42.265  21.312  28.002  1.00  0.00     0.059 A 
ATOM     80  F   UNL A   1      42.305  22.777  29.834  1.00  0.00    -0.206 F 
ATOM     81  C   UNL A   1      42.373  21.111  26.627  1.00  0.00     0.060 A 
BRANCH  81  82
ATOM     82  S   UNL A   1      42.214  19.450  25.932  1.00  0.00     0.124 S 
ATOM     83  O   UNL A   1      43.102  19.529  24.778  1.00  0.00    -0.237 OA
ATOM     84  O   UNL A   1      42.672  18.611  27.035  1.00  0.00    -0.237 OA
ATOM     85  O   UNL A   1      40.789  19.351  25.630  1.00  0.00    -0.744 OA
ENDBRANCH  81  82
ENDBRANCH  49  74
BRANCH  61  86
ATOM     86  C   UNL A   1      48.119  27.117  30.395  1.00  0.00     0.058 A 
ATOM     87  C   UNL A   1      49.170  27.455  29.530  1.00  0.00     0.135 A 
ATOM     88  C   UNL A   1      48.437  26.425  31.576  1.00  0.00     0.135 A 
ATOM     89  F   UNL A   1      48.918  28.109  28.385  1.00  0.00    -0.206 F 
ATOM     90  C   UNL A   1      50.485  27.103  29.813  1.00  0.00     0.059 A 
ATOM     91  C   UNL A   1      49.748  26.087  31.893  1.00  0.00     0.059 A 
ATOM     92  F   UNL A   1      47.469  26.088  32.443  1.00  0.00    -0.206 F 
ATOM     93  C   UNL A   1      50.765  26.419  30.998  1.00  0.00     0.060 A 
BRANCH  93  94
ATOM     94  S   UNL A   1      52.479  25.995  31.371  1.00  0.00     0.124 S 
ATOM     95  O   UNL A   1      52.878  27.110  32.222  1.00  0.00    -0.237 OA
ATOM     96  O   UNL A   1      52.345  24.704  32.038  1.00  0.00    -0.237 OA
ATOM     97  O   UNL A   1      53.111  25.950  30.055  1.00  0.00    -0.744 OA
ENDBRANCH  93  94
ENDBRANCH  61  86
ENDBRANCH  35  36
ENDBRANCH  27  30
ENDBRANCH  25  26
ENDBRANCH  24  25
ENDBRANCH   1  24
TORSDOF 19
ENDMDL
MODEL 2
REMARK VINA RESULT:      -9.3      3.902      7.236
REMARK SMILES CC[N@@H+]1CCC[C@@H]1C[N@@H+](C)C[C@H]([NH3+])C(=O)NCCCNC(=O)c1ccc(-c2c3nc(c(-c4c(F)cc(S(=O)(=O)[O-])cc4F)c4ccc([nH]4)c(-c4c(F)cc(S(=O)(=O)[O-])cc4F)c4nc(c(-c5c(F)cc(S(=O)(=O)[O-])cc5F)c5ccc2[nH]5)C=C4)C=C3)cc1
REMARK SMILES IDX 17 1 16 2 14 3 15 4 12 6 11 7 9 8 10 9 8 11 7 12 3 13 4 14
REMARK SMILES IDX 5 16 6 17 2 18 1 19 13 20 18 24 19 25 20 26 21 27 22 29
REMARK SMILES IDX 23 30 24 31 88 32 25 33 87 34 26 35 27 36 28 37 81 38 29 39
REMARK SMILES IDX 86 40 80 41 82 42 30 43 85 44 79 45 78 46 31 48 65 49 44 50
REMARK SMILES IDX 64 51 45 52 48 53 63 54 83 55 46 56 47 57 62 59 84 60 49 61
REMARK SMILES IDX 32 62 33 63 42 64 34 65 35 66 41 67 43 68 36 69 37 70 38 71
REMARK SMILES IDX 39 72 40 73 66 74 67 75 76 76 68 77 69 78 75 79 77 80 70 81
REMARK SMILES IDX 71 82 72 83 73 84 74 85 50 86 51 87 60 88 52 89 53 90 59 91
REMARK SMILES IDX 61 92 54 93 55 94 56 95 57 96 58 97
REMARK H PARENT 16 5 9 10 3 15 13 21 13 22 13 23 20 28 82 47 48 58
REMARK Flexibility Score: inf
ROOT
ATOM      1  C   UNL A   1      33.631  25.569  25.593  1.00  0.00     0.118 C 
ENDROOT
BRANCH   1   2
ATOM      2  N   UNL A   1      33.902  25.870  24.198  1.00  0.00    -0.351 N 
ATOM      3  C   UNL A   1      33.811  25.100  23.079  1.00  0.00     0.284 C 
ATOM      4  O   UNL A   1      34.009  25.665  21.998  1.00  0.00    -0.268 OA
ATOM      5  H   UNL A   1      34.203  26.793  24.032  1.00  0.00     0.163 HD
BRANCH   3   6
ATOM      6  C   UNL A   1      33.514  23.587  23.137  1.00  0.00     0.326 C 
BRANCH   6   7
ATOM      7  C   UNL A   1      34.747  22.718  23.521  1.00  0.00     0.338 C 
BRANCH   7   8
ATOM      8  N   UNL A   1      34.786  22.020  24.833  1.00  0.00    -0.327 N 
ATOM      9  C   UNL A   1      35.901  22.563  25.628  1.00  0.00     0.333 C 
ATOM     10  H   UNL A   1      33.878  22.203  25.260  1.00  0.00     0.348 HD
BRANCH   8  11
ATOM     11  C   UNL A   1      34.884  20.539  24.784  1.00  0.00     0.327 C 
BRANCH  11  12
ATOM     12  C   UNL A   1      33.584  19.689  25.013  1.00  0.00     0.239 C 
ATOM     13  N   UNL A   1      33.701  18.188  25.067  1.00  0.00    -0.328 N 
ATOM     14  C   UNL A   1      32.610  17.636  24.244  1.00  0.00     0.262 C 
ATOM     15  H   UNL A   1      33.625  17.925  26.049  1.00  0.00     0.348 HD
ATOM     16  C   UNL A   1      32.370  18.678  23.183  1.00  0.00     0.068 C 
ATOM     17  C   UNL A   1      32.466  19.947  23.998  1.00  0.00     0.077 C 
BRANCH  13  18
ATOM     18  C   UNL A   1      34.995  17.608  24.695  1.00  0.00     0.259 C 
ATOM     19  C   UNL A   1      35.034  16.124  25.039  1.00  0.00     0.071 C 
ENDBRANCH  13  18
ENDBRANCH  11  12
ENDBRANCH   8  11
ENDBRANCH   7   8
ENDBRANCH   6   7
BRANCH   6  20
ATOM     20  N   UNL A   1      32.882  23.156  21.862  1.00  0.00    -0.343 N 
ATOM     21  H   UNL A   1      33.139  22.190  21.664  1.00  0.00     0.345 HD
ATOM     22  H   UNL A   1      33.205  23.756  21.103  1.00  0.00     0.345 HD
ATOM     23  H   UNL A   1      31.868  23.229  21.944  1.00  0.00     0.345 HD
ENDBRANCH   6  20
ENDBRANCH   3   6
ENDBRANCH   1   2
BRANCH   1  24
ATOM     24  C   UNL A   1      33.181  26.796  26.364  1.00  0.00     0.042 C 
BRANCH  24  25
ATOM     25  C   UNL A   1      34.243  27.885  26.449  1.00  0.00     0.118 C 
BRANCH  25  26
ATOM     26  N   UNL A   1      33.712  29.170  26.893  1.00  0.00    -0.352 N 
ATOM     27  C   UNL A   1      34.302  30.132  27.681  1.00  0.00     0.251 C 
ATOM     28  H   UNL A   1      32.802  29.379  26.584  1.00  0.00     0.163 HD
ATOM     29  O   UNL A   1      33.640  31.088  28.075  1.00  0.00    -0.269 OA
BRANCH  27  30
ATOM     30  C   UNL A   1      35.719  29.989  28.077  1.00  0.00     0.039 A 
ATOM     31  C   UNL A   1      36.025  29.522  29.357  1.00  0.00     0.014 A 
ATOM     32  C   UNL A   1      36.743  30.278  27.171  1.00  0.00     0.014 A 
ATOM     33  C   UNL A   1      37.356  29.262  29.696  1.00  0.00     0.010 A 
ATOM     34  C   UNL A   1      38.052  29.925  27.475  1.00  0.00     0.010 A 
ATOM     35  C   UNL A   1      38.375  29.416  28.741  1.00  0.00    -0.014 A 
BRANCH  35  36
ATOM     36  C   UNL A   1      39.786  29.053  29.043  1.00  0.00     0.031 A 
ATOM     37  C   UNL A   1      40.711  30.073  29.649  1.00  0.00     0.074 A 
ATOM     38  C   UNL A   1      40.252  27.835  28.702  1.00  0.00     0.049 A 
ATOM     39  N   UNL A   1      41.991  29.979  29.906  1.00  0.00    -0.248 NA
ATOM     40  C   UNL A   1      40.131  31.387  29.977  1.00  0.00     0.031 C 
ATOM     41  C   UNL A   1      39.472  26.779  28.050  1.00  0.00     0.029 A 
ATOM     42  N   UNL A   1      41.500  27.281  28.844  1.00  0.00    -0.354 N 
ATOM     43  C   UNL A   1      42.370  31.220  30.403  1.00  0.00     0.074 A 
ATOM     44  C   UNL A   1      41.201  32.070  30.357  1.00  0.00     0.031 C 
ATOM     45  C   UNL A   1      40.250  25.699  27.875  1.00  0.00     0.029 A 
ATOM     46  C   UNL A   1      41.593  25.995  28.365  1.00  0.00     0.049 A 
ATOM     47  H   UNL A   1      42.257  27.760  29.251  1.00  0.00     0.167 HD
ATOM     48  C   UNL A   1      43.575  31.610  30.882  1.00  0.00     0.037 A 
ATOM     49  C   UNL A   1      42.643  25.151  28.321  1.00  0.00     0.037 A 
ATOM     50  C   UNL A   1      44.725  30.748  30.963  1.00  0.00     0.049 A 
ATOM     51  C   UNL A   1      43.965  25.597  28.882  1.00  0.00     0.074 A 
ATOM     52  C   UNL A   1      45.972  31.026  31.496  1.00  0.00     0.029 A 
ATOM     53  N   UNL A   1      44.768  29.441  30.503  1.00  0.00    -0.354 N 
ATOM     54  N   UNL A   1      44.288  26.754  29.411  1.00  0.00    -0.248 NA
ATOM     55  C   UNL A   1      45.065  24.624  28.848  1.00  0.00     0.031 C 
ATOM     56  C   UNL A   1      46.781  29.898  31.324  1.00  0.00     0.029 A 
ATOM     57  C   UNL A   1      46.025  28.902  30.725  1.00  0.00     0.049 A 
ATOM     58  H   UNL A   1      44.016  28.965  30.081  1.00  0.00     0.167 HD
ATOM     59  C   UNL A   1      45.619  26.638  29.795  1.00  0.00     0.074 A 
ATOM     60  C   UNL A   1      46.037  25.294  29.450  1.00  0.00     0.031 C 
ATOM     61  C   UNL A   1      46.422  27.559  30.383  1.00  0.00     0.037 A 
BRANCH  48  62
ATOM     62  C   UNL A   1      43.706  33.028  31.368  1.00  0.00     0.058 A 
ATOM     63  C   UNL A   1      44.059  34.074  30.500  1.00  0.00     0.135 A 
ATOM     64  C   UNL A   1      43.450  33.350  32.711  1.00  0.00     0.135 A 
ATOM     65  F   UNL A   1      44.331  33.820  29.211  1.00  0.00    -0.206 F 
ATOM     66  C   UNL A   1      44.187  35.383  30.954  1.00  0.00     0.059 A 
ATOM     67  C   UNL A   1      43.543  34.658  33.179  1.00  0.00     0.059 A 
ATOM     68  F   UNL A   1      43.109  32.389  33.584  1.00  0.00    -0.206 F 
ATOM     69  C   UNL A   1      43.928  35.664  32.295  1.00  0.00     0.060 A 
BRANCH  69  70
ATOM     70  S   UNL A   1      44.098  37.368  32.866  1.00  0.00     0.124 S 
ATOM     71  O   UNL A   1      43.950  38.109  31.617  1.00  0.00    -0.237 OA
ATOM     72  O   UNL A   1      42.992  37.493  33.810  1.00  0.00    -0.237 OA
ATOM     73  O   UNL A   1      45.431  37.397  33.458  1.00  0.00    -0.744 OA
ENDBRANCH  69  70
ENDBRANCH  48  62
BRANCH  49  74
ATOM     74  C   UNL A   1      42.475  23.786  27.754  1.00  0.00     0.058 A 
ATOM     75  C   UNL A   1      42.300  22.674  28.592  1.00  0.00     0.135 A 
ATOM     76  C   UNL A   1      42.472  23.566  26.367  1.00  0.00     0.135 A 
ATOM     77  F   UNL A   1      42.301  22.833  29.924  1.00  0.00    -0.206 F 
ATOM     78  C   UNL A   1      42.144  21.391  28.078  1.00  0.00     0.059 A 
ATOM     79  C   UNL A   1      42.295  22.296  25.830  1.00  0.00     0.059 A 
ATOM     80  F   UNL A   1      42.618  24.598  25.523  1.00  0.00    -0.206 F 
ATOM     81  C   UNL A   1      42.140  21.212  26.694  1.00  0.00     0.060 A 
BRANCH  81  82
ATOM     82  S   UNL A   1      41.884  19.549  26.035  1.00  0.00     0.124 S 
ATOM     83  O   UNL A   1      42.300  18.721  27.161  1.00  0.00    -0.237 OA
ATOM     84  O   UNL A   1      40.456  19.553  25.738  1.00  0.00    -0.237 OA
ATOM     85  O   UNL A   1      42.759  19.516  24.866  1.00  0.00    -0.744 OA
ENDBRANCH  81  82
ENDBRANCH  49  74
BRANCH  61  86
ATOM     86  C   UNL A   1      47.824  27.139  30.721  1.00  0.00     0.058 A 
ATOM     87  C   UNL A   1      48.894  27.360  29.841  1.00  0.00     0.135 A 
ATOM     88  C   UNL A   1      48.108  26.553  31.966  1.00  0.00     0.135 A 
ATOM     89  F   UNL A   1      48.674  27.911  28.637  1.00  0.00    -0.206 F 
ATOM     90  C   UNL A   1      50.194  26.996  30.173  1.00  0.00     0.059 A 
ATOM     91  C   UNL A   1      49.404  26.206  32.330  1.00  0.00     0.059 A 
ATOM     92  F   UNL A   1      47.121  26.330  32.849  1.00  0.00    -0.206 F 
ATOM     93  C   UNL A   1      50.440  26.419  31.421  1.00  0.00     0.060 A 
BRANCH  93  94
ATOM     94  S   UNL A   1      52.136  25.980  31.854  1.00  0.00     0.124 S 
ATOM     95  O   UNL A   1      51.984  24.587  32.259  1.00  0.00    -0.237 OA
ATOM     96  O   UNL A   1      52.847  26.202  30.598  1.00  0.00    -0.237 OA
ATOM     97  O   UNL A   1      52.466  26.915  32.926  1.00  0.00    -0.744 OA
ENDBRANCH  93  94
ENDBRANCH  61  86
ENDBRANCH  35  36
ENDBRANCH  27  30
ENDBRANCH  25  26
ENDBRANCH  24  25
ENDBRANCH   1  24
TORSDOF 19
ENDMDL
MODEL 3
REMARK VINA RESULT:      -9.2      3.416      6.308
REMARK SMILES CC[N@@H+]1CCC[C@@H]1C[N@@H+](C)C[C@H]([NH3+])C(=O)NCCCNC(=O)c1ccc(-c2c3nc(c(-c4c(F)cc(S(=O)(=O)[O-])cc4F)c4ccc([nH]4)c(-c4c(F)cc(S(=O)(=O)[O-])cc4F)c4nc(c(-c5c(F)cc(S(=O)(=O)[O-])cc5F)c5ccc2[nH]5)C=C4)C=C3)cc1
REMARK SMILES IDX 17 1 16 2 14 3 15 4 12 6 11 7 9 8 10 9 8 11 7 12 3 13 4 14
REMARK SMILES IDX 5 16 6 17 2 18 1 19 13 20 18 24 19 25 20 26 21 27 22 29
REMARK SMILES IDX 23 30 24 31 88 32 25 33 87 34 26 35 27 36 28 37 81 38 29 39
REMARK SMILES IDX 86 40 80 41 82 42 30 43 85 44 79 45 78 46 31 48 65 49 44 50
REMARK SMILES IDX 64 51 45 52 48 53 63 54 83 55 46 56 47 57 62 59 84 60 49 61
REMARK SMILES IDX 32 62 33 63 42 64 34 65 35 66 41 67 43 68 36 69 37 70 38 71
REMARK SMILES IDX 39 72 40 73 66 74 67 75 76 76 68 77 69 78 75 79 77 80 70 81
REMARK SMILES IDX 71 82 72 83 73 84 74 85 50 86 51 87 60 88 52 89 53 90 59 91
REMARK SMILES IDX 61 92 54 93 55 94 56 95 57 96 58 97
REMARK H PARENT 16 5 9 10 3 15 13 21 13 22 13 23 20 28 82 47 48 58
REMARK Flexibility Score: inf
ROOT
ATOM      1  C   UNL A   1      32.830  27.262  25.093  1.00  0.00     0.118 C 
ENDROOT
BRANCH   1   2
ATOM      2  N   UNL A   1      31.916  27.823  24.113  1.00  0.00    -0.351 N 
ATOM      3  C   UNL A   1      30.656  27.457  23.747  1.00  0.00     0.284 C 
ATOM      4  O   UNL A   1      30.074  28.197  22.946  1.00  0.00    -0.268 OA
ATOM      5  H   UNL A   1      32.268  28.606  23.630  1.00  0.00     0.163 HD
BRANCH   3   6
ATOM      6  C   UNL A   1      29.985  26.168  24.266  1.00  0.00     0.326 C 
BRANCH   6   7
ATOM      7  C   UNL A   1      30.465  24.876  23.543  1.00  0.00     0.338 C 
BRANCH   7   8
ATOM      8  N   UNL A   1      30.732  23.641  24.326  1.00  0.00    -0.327 N 
ATOM      9  C   UNL A   1      30.947  24.009  25.736  1.00  0.00     0.333 C 
ATOM     10  H   UNL A   1      29.904  23.058  24.198  1.00  0.00     0.348 HD
BRANCH   8  11
ATOM     11  C   UNL A   1      31.859  22.797  23.855  1.00  0.00     0.327 C 
BRANCH  11  12
ATOM     12  C   UNL A   1      32.790  22.117  24.922  1.00  0.00     0.239 C 
ATOM     13  N   UNL A   1      34.284  22.237  24.760  1.00  0.00    -0.328 N 
ATOM     14  C   UNL A   1      34.856  20.901  25.003  1.00  0.00     0.262 C 
ATOM     15  H   UNL A   1      34.596  22.929  25.440  1.00  0.00     0.348 HD
ATOM     16  C   UNL A   1      33.781  19.942  24.566  1.00  0.00     0.068 C 
ATOM     17  C   UNL A   1      32.548  20.618  25.118  1.00  0.00     0.077 C 
BRANCH  13  18
ATOM     18  C   UNL A   1      34.772  22.805  23.500  1.00  0.00     0.259 C 
ATOM     19  C   UNL A   1      36.289  22.943  23.529  1.00  0.00     0.071 C 
ENDBRANCH  13  18
ENDBRANCH  11  12
ENDBRANCH   8  11
ENDBRANCH   7   8
ENDBRANCH   6   7
BRANCH   6  20
ATOM     20  N   UNL A   1      28.508  26.330  24.232  1.00  0.00    -0.343 N 
ATOM     21  H   UNL A   1      28.240  27.133  24.799  1.00  0.00     0.345 HD
ATOM     22  H   UNL A   1      28.065  25.489  24.603  1.00  0.00     0.345 HD
ATOM     23  H   UNL A   1      28.204  26.477  23.269  1.00  0.00     0.345 HD
ENDBRANCH   6  20
ENDBRANCH   3   6
ENDBRANCH   1   2
BRANCH   1  24
ATOM     24  C   UNL A   1      33.751  28.314  25.682  1.00  0.00     0.042 C 
BRANCH  24  25
ATOM     25  C   UNL A   1      33.572  28.511  27.182  1.00  0.00     0.118 C 
BRANCH  25  26
ATOM     26  N   UNL A   1      33.550  29.916  27.578  1.00  0.00    -0.352 N 
ATOM     27  C   UNL A   1      34.536  30.671  28.168  1.00  0.00     0.251 C 
ATOM     28  H   UNL A   1      32.708  30.391  27.395  1.00  0.00     0.163 HD
ATOM     29  O   UNL A   1      34.282  31.804  28.566  1.00  0.00    -0.269 OA
BRANCH  27  30
ATOM     30  C   UNL A   1      35.888  30.100  28.350  1.00  0.00     0.039 A 
ATOM     31  C   UNL A   1      36.784  30.117  27.280  1.00  0.00     0.014 A 
ATOM     32  C   UNL A   1      36.282  29.586  29.589  1.00  0.00     0.014 A 
ATOM     33  C   UNL A   1      38.103  29.698  27.478  1.00  0.00     0.010 A 
ATOM     34  C   UNL A   1      37.616  29.266  29.809  1.00  0.00     0.010 A 
ATOM     35  C   UNL A   1      38.542  29.315  28.756  1.00  0.00    -0.014 A 
BRANCH  35  36
ATOM     36  C   UNL A   1      39.962  28.959  29.017  1.00  0.00     0.031 A 
ATOM     37  C   UNL A   1      40.903  29.988  29.583  1.00  0.00     0.074 A 
ATOM     38  C   UNL A   1      40.421  27.739  28.674  1.00  0.00     0.049 A 
ATOM     39  N   UNL A   1      42.190  29.900  29.801  1.00  0.00    -0.248 NA
ATOM     40  C   UNL A   1      40.330  31.304  29.915  1.00  0.00     0.031 C 
ATOM     41  C   UNL A   1      39.624  26.674  28.058  1.00  0.00     0.029 A 
ATOM     42  N   UNL A   1      41.675  27.190  28.782  1.00  0.00    -0.354 N 
ATOM     43  C   UNL A   1      42.582  31.148  30.273  1.00  0.00     0.074 A 
ATOM     44  C   UNL A   1      41.409  31.994  30.255  1.00  0.00     0.031 C 
ATOM     45  C   UNL A   1      40.400  25.595  27.869  1.00  0.00     0.029 A 
ATOM     46  C   UNL A   1      41.757  25.899  28.313  1.00  0.00     0.049 A 
ATOM     47  H   UNL A   1      42.443  27.675  29.160  1.00  0.00     0.167 HD
ATOM     48  C   UNL A   1      43.800  31.546  30.710  1.00  0.00     0.037 A 
ATOM     49  C   UNL A   1      42.807  25.058  28.245  1.00  0.00     0.037 A 
ATOM     50  C   UNL A   1      44.954  30.688  30.763  1.00  0.00     0.049 A 
ATOM     51  C   UNL A   1      44.145  25.514  28.759  1.00  0.00     0.074 A 
ATOM     52  C   UNL A   1      46.217  30.974  31.254  1.00  0.00     0.029 A 
ATOM     53  N   UNL A   1      44.987  29.376  30.315  1.00  0.00    -0.354 N 
ATOM     54  N   UNL A   1      44.481  26.676  29.266  1.00  0.00    -0.248 NA
ATOM     55  C   UNL A   1      45.247  24.543  28.701  1.00  0.00     0.031 C 
ATOM     56  C   UNL A   1      47.024  29.847  31.067  1.00  0.00     0.029 A 
ATOM     57  C   UNL A   1      46.252  28.843  30.504  1.00  0.00     0.049 A 
ATOM     58  H   UNL A   1      44.224  28.894  29.922  1.00  0.00     0.167 HD
ATOM     59  C   UNL A   1      45.824  26.568  29.609  1.00  0.00     0.074 A 
ATOM     60  C   UNL A   1      46.235  25.222  29.265  1.00  0.00     0.031 C 
ATOM     61  C   UNL A   1      46.642  27.498  30.162  1.00  0.00     0.037 A 
BRANCH  48  62
ATOM     62  C   UNL A   1      43.941  32.969  31.177  1.00  0.00     0.058 A 
ATOM     63  C   UNL A   1      44.045  34.035  30.269  1.00  0.00     0.135 A 
ATOM     64  C   UNL A   1      43.946  33.274  32.548  1.00  0.00     0.135 A 
ATOM     65  F   UNL A   1      44.063  33.798  28.947  1.00  0.00    -0.206 F 
ATOM     66  C   UNL A   1      44.184  35.349  30.703  1.00  0.00     0.059 A 
ATOM     67  C   UNL A   1      44.054  34.585  33.004  1.00  0.00     0.059 A 
ATOM     68  F   UNL A   1      43.850  32.294  33.459  1.00  0.00    -0.206 F 
ATOM     69  C   UNL A   1      44.189  35.614  32.072  1.00  0.00     0.060 A 
BRANCH  69  70
ATOM     70  S   UNL A   1      44.369  37.325  32.618  1.00  0.00     0.124 S 
ATOM     71  O   UNL A   1      44.805  37.978  31.387  1.00  0.00    -0.237 OA
ATOM     72  O   UNL A   1      43.018  37.653  33.064  1.00  0.00    -0.237 OA
ATOM     73  O   UNL A   1      45.372  37.241  33.674  1.00  0.00    -0.744 OA
ENDBRANCH  69  70
ENDBRANCH  48  62
BRANCH  49  74
ATOM     74  C   UNL A   1      42.627  23.686  27.698  1.00  0.00     0.058 A 
ATOM     75  C   UNL A   1      42.387  22.597  28.548  1.00  0.00     0.135 A 
ATOM     76  C   UNL A   1      42.675  23.439  26.317  1.00  0.00     0.135 A 
ATOM     77  F   UNL A   1      42.336  22.782  29.876  1.00  0.00    -0.206 F 
ATOM     78  C   UNL A   1      42.217  21.308  28.053  1.00  0.00     0.059 A 
ATOM     79  C   UNL A   1      42.485  22.163  25.796  1.00  0.00     0.059 A 
ATOM     80  F   UNL A   1      42.884  24.450  25.459  1.00  0.00    -0.206 F 
ATOM     81  C   UNL A   1      42.265  21.102  26.673  1.00  0.00     0.060 A 
BRANCH  81  82
ATOM     82  S   UNL A   1      41.992  19.433  26.036  1.00  0.00     0.124 S 
ATOM     83  O   UNL A   1      42.402  18.615  27.172  1.00  0.00    -0.237 OA
ATOM     84  O   UNL A   1      40.563  19.448  25.742  1.00  0.00    -0.237 OA
ATOM     85  O   UNL A   1      42.864  19.376  24.867  1.00  0.00    -0.744 OA
ENDBRANCH  81  82
ENDBRANCH  49  74
BRANCH  61  86
ATOM     86  C   UNL A   1      48.055  27.085  30.461  1.00  0.00     0.058 A 
ATOM     87  C   UNL A   1      49.089  27.264  29.529  1.00  0.00     0.135 A 
ATOM     88  C   UNL A   1      48.388  26.550  31.717  1.00  0.00     0.135 A 
ATOM     89  F   UNL A   1      48.822  27.766  28.313  1.00  0.00    -0.206 F 
ATOM     90  C   UNL A   1      50.401  26.907  29.823  1.00  0.00     0.059 A 
ATOM     91  C   UNL A   1      49.697  26.211  32.042  1.00  0.00     0.059 A 
ATOM     92  F   UNL A   1      47.437  26.368  32.647  1.00  0.00    -0.206 F 
ATOM     93  C   UNL A   1      50.695  26.382  31.083  1.00  0.00     0.060 A 
BRANCH  93  94
ATOM     94  S   UNL A   1      52.406  25.952  31.465  1.00  0.00     0.124 S 
ATOM     95  O   UNL A   1      52.261  24.593  31.973  1.00  0.00    -0.237 OA
ATOM     96  O   UNL A   1      53.058  26.077  30.164  1.00  0.00    -0.237 OA
ATOM     97  O   UNL A   1      52.796  26.955  32.452  1.00  0.00    -0.744 OA
ENDBRANCH  93  94
ENDBRANCH  61  86
ENDBRANCH  35  36
ENDBRANCH  27  30
ENDBRANCH  25  26
ENDBRANCH  24  25
ENDBRANCH   1  24
TORSDOF 19
ENDMDL
