MODEL 1
REMARK VINA RESULT:     -12.5      0.000      0.000
REMARK SMILES COc1ccc(C2=NN(C(=O)CCC(=O)NCCCNC(=O)c3ccc(-c4c5nc(c(-c6c(F)cc(S(=O)(=O)[O-])cc6F)c6ccc([nH]6)c(-c6c(F)cc(S(=O)(=O)[O-])cc6F)c6nc(c(-c7c(F)cc(S(=O)(=O)[O-])cc7F)c7ccc4[nH]7)C=C6)C=C5)cc3)[C@H](c3ccc(Cl)cc3Cl)C2)cc1
REMARK SMILES IDX 17 1 16 2 14 3 15 4 13 6 12 7 10 8 11 9 9 10 7 11 8 12 98 13
REMARK SMILES IDX 89 14 6 15 3 16 4 17 100 18 5 19 99 20 2 21 1 22 90 23 91 24
REMARK SMILES IDX 96 25 92 26 95 27 97 28 93 29 94 30 18 31 19 32 20 33 21 34
REMARK SMILES IDX 22 36 23 37 24 38 88 39 25 40 87 41 26 42 27 43 28 44 81 45
REMARK SMILES IDX 29 46 86 47 80 48 82 49 30 50 85 51 79 52 78 53 31 55 65 56
REMARK SMILES IDX 44 57 64 58 45 59 48 60 63 61 83 62 46 63 47 64 62 66 84 67
REMARK SMILES IDX 49 68 32 69 33 70 42 71 34 72 35 73 41 74 43 75 36 76 37 77
REMARK SMILES IDX 38 78 39 79 40 80 66 81 67 82 76 83 68 84 69 85 75 86 77 87
REMARK SMILES IDX 70 88 71 89 72 90 73 91 74 92 50 93 51 94 60 95 52 96 53 97
REMARK SMILES IDX 59 98 61 99 54 100 55 101 56 102 57 103 58 104
REMARK H PARENT 16 5 20 35 82 54 48 65
REMARK Flexibility Score: inf
ROOT
ATOM      1  C   UNL A   1      34.544  30.225  27.243  1.00  0.00     0.117 C 
ENDROOT
BRANCH   1   2
ATOM      2  N   UNL A   1      33.483  30.401  26.274  1.00  0.00    -0.356 N 
ATOM      3  C   UNL A   1      32.185  29.991  26.326  1.00  0.00     0.220 C 
ATOM      4  O   UNL A   1      31.354  30.557  25.611  1.00  0.00    -0.275 OA
ATOM      5  H   UNL A   1      33.736  30.887  25.457  1.00  0.00     0.163 HD
BRANCH   3   6
ATOM      6  C   UNL A   1      31.771  28.840  27.210  1.00  0.00     0.110 C 
BRANCH   6   7
ATOM      7  C   UNL A   1      31.772  27.449  26.590  1.00  0.00     0.112 C 
BRANCH   7   8
ATOM      8  C   UNL A   1      33.018  26.833  25.991  1.00  0.00     0.243 C 
ATOM      9  O   UNL A   1      34.102  27.186  26.483  1.00  0.00    -0.273 OA
BRANCH   8  10
ATOM     10  N   UNL A   1      32.974  26.011  24.891  1.00  0.00    -0.225 N 
ATOM     11  C   UNL A   1      33.144  24.013  24.089  1.00  0.00     0.071 C 
ATOM     12  N   UNL A   1      33.085  24.699  25.179  1.00  0.00    -0.174 NA
ATOM     13  C   UNL A   1      33.008  24.812  22.832  1.00  0.00     0.091 C 
ATOM     14  C   UNL A   1      32.693  26.222  23.448  1.00  0.00     0.149 C 
BRANCH  11  15
ATOM     15  C   UNL A   1      33.280  22.555  24.251  1.00  0.00    -0.002 A 
ATOM     16  C   UNL A   1      34.072  19.032  24.572  1.00  0.00     0.118 A 
ATOM     17  C   UNL A   1      35.438  20.501  24.841  1.00  0.00     0.047 A 
ATOM     18  C   UNL A   1      32.393  19.554  24.132  1.00  0.00     0.047 A 
ATOM     19  C   UNL A   1      34.943  22.196  24.682  1.00  0.00     0.014 A 
ATOM     20  C   UNL A   1      32.052  21.301  23.979  1.00  0.00     0.014 A 
BRANCH  16  21
ATOM     21  O   UNL A   1      34.130  17.656  24.834  1.00  0.00    -0.497 OA
ATOM     22  C   UNL A   1      34.362  16.829  23.696  1.00  0.00     0.278 C 
ENDBRANCH  16  21
ENDBRANCH  11  15
BRANCH  14  23
ATOM     23  C   UNL A   1      31.264  26.757  23.311  1.00  0.00    -0.004 A 
ATOM     24  C   UNL A   1      30.137  25.967  23.611  1.00  0.00     0.009 A 
ATOM     25  C   UNL A   1      31.032  28.118  23.012  1.00  0.00     0.047 A 
ATOM     26  C   UNL A   1      28.849  26.519  23.624  1.00  0.00     0.021 A 
ATOM     27  C   UNL A   1      29.761  28.690  23.136  1.00  0.00     0.041 A 
ATOM     28  Cl  UNL A   1      32.258  29.152  22.367  1.00  0.00    -0.084 Cl
ATOM     29  C   UNL A   1      28.672  27.883  23.423  1.00  0.00     0.042 A 
ATOM     30  Cl  UNL A   1      27.097  28.573  23.480  1.00  0.00    -0.084 Cl
ENDBRANCH  14  23
ENDBRANCH   8  10
ENDBRANCH   7   8
ENDBRANCH   6   7
ENDBRANCH   3   6
ENDBRANCH   1   2
BRANCH   1  31
ATOM     31  C   UNL A   1      34.960  31.427  28.091  1.00  0.00     0.042 C 
BRANCH  31  32
ATOM     32  C   UNL A   1      35.065  31.335  29.621  1.00  0.00     0.118 C 
BRANCH  32  33
ATOM     33  N   UNL A   1      35.386  32.553  30.335  1.00  0.00    -0.352 N 
ATOM     34  C   UNL A   1      36.541  32.936  30.992  1.00  0.00     0.251 C 
ATOM     35  H   UNL A   1      34.663  33.220  30.355  1.00  0.00     0.163 HD
ATOM     36  O   UNL A   1      36.458  33.946  31.694  1.00  0.00    -0.269 OA
BRANCH  34  37
ATOM     37  C   UNL A   1      37.832  32.052  31.012  1.00  0.00     0.039 A 
ATOM     38  C   UNL A   1      38.178  31.828  29.250  1.00  0.00     0.014 A 
ATOM     39  C   UNL A   1      38.973  30.982  32.307  1.00  0.00     0.014 A 
ATOM     40  C   UNL A   1      39.491  30.752  28.760  1.00  0.00     0.010 A 
ATOM     41  C   UNL A   1      40.294  29.950  31.661  1.00  0.00     0.010 A 
ATOM     42  C   UNL A   1      40.550  29.883  29.909  1.00  0.00    -0.014 A 
BRANCH  42  43
ATOM     43  C   UNL A   1      41.894  29.383  29.450  1.00  0.00     0.031 A 
ATOM     44  C   UNL A   1      43.025  30.366  29.289  1.00  0.00     0.074 A 
ATOM     45  C   UNL A   1      42.036  28.125  28.964  1.00  0.00     0.049 A 
ATOM     46  N   UNL A   1      44.180  30.213  28.694  1.00  0.00    -0.248 NA
ATOM     47  C   UNL A   1      42.788  31.731  29.784  1.00  0.00     0.031 C 
ATOM     48  C   UNL A   1      40.999  27.089  28.899  1.00  0.00     0.029 A 
ATOM     49  N   UNL A   1      43.120  27.499  28.385  1.00  0.00    -0.354 N 
ATOM     50  C   UNL A   1      44.772  31.472  28.703  1.00  0.00     0.074 A 
ATOM     51  C   UNL A   1      43.790  32.393  29.226  1.00  0.00     0.031 C 
ATOM     52  C   UNL A   1      41.494  25.969  28.357  1.00  0.00     0.029 A 
ATOM     53  C   UNL A   1      42.881  26.195  27.998  1.00  0.00     0.049 A 
ATOM     54  H   UNL A   1      43.990  27.943  28.260  1.00  0.00     0.167 HD
ATOM     55  C   UNL A   1      46.042  31.819  28.381  1.00  0.00     0.037 A 
ATOM     56  C   UNL A   1      43.678  25.271  27.426  1.00  0.00     0.037 A 
ATOM     57  C   UNL A   1      47.030  30.873  27.939  1.00  0.00     0.049 A 
ATOM     58  C   UNL A   1      45.104  25.645  27.141  1.00  0.00     0.074 A 
ATOM     59  C   UNL A   1      48.377  31.075  27.707  1.00  0.00     0.029 A 
ATOM     60  N   UNL A   1      46.771  29.535  27.671  1.00  0.00    -0.354 N 
ATOM     61  N   UNL A   1      45.691  26.809  27.290  1.00  0.00    -0.248 NA
ATOM     62  C   UNL A   1      45.984  24.584  26.636  1.00  0.00     0.031 C 
ATOM     63  C   UNL A   1      48.921  29.874  27.240  1.00  0.00     0.029 A 
ATOM     64  C   UNL A   1      47.929  28.905  27.251  1.00  0.00     0.049 A 
ATOM     65  H   UNL A   1      45.893  29.100  27.766  1.00  0.00     0.167 HD
ATOM     66  C   UNL A   1      47.018  26.613  26.931  1.00  0.00     0.074 A 
ATOM     67  C   UNL A   1      47.148  25.215  26.571  1.00  0.00     0.031 C 
ATOM     68  C   UNL A   1      48.037  27.508  26.907  1.00  0.00     0.037 A 
BRANCH  55  69
ATOM     69  C   UNL A   1      46.427  33.269  28.546  1.00  0.00     0.058 A 
ATOM     70  C   UNL A   1      46.333  34.184  27.480  1.00  0.00     0.135 A 
ATOM     71  C   UNL A   1      46.917  33.751  29.769  1.00  0.00     0.135 A 
ATOM     72  F   UNL A   1      45.870  33.787  26.283  1.00  0.00    -0.206 F 
ATOM     73  C   UNL A   1      46.786  35.493  27.597  1.00  0.00     0.059 A 
ATOM     74  C   UNL A   1      47.332  35.073  29.923  1.00  0.00     0.059 A 
ATOM     75  F   UNL A   1      47.017  32.935  30.829  1.00  0.00    -0.206 F 
ATOM     76  C   UNL A   1      47.289  35.927  28.822  1.00  0.00     0.060 A 
BRANCH  76  77
ATOM     77  S   UNL A   1      47.892  37.622  28.945  1.00  0.00     0.124 S 
ATOM     78  O   UNL A   1      48.852  37.513  30.041  1.00  0.00    -0.237 OA
ATOM     79  O   UNL A   1      48.468  37.844  27.622  1.00  0.00    -0.237 OA
ATOM     80  O   UNL A   1      46.689  38.393  29.241  1.00  0.00    -0.744 OA
ENDBRANCH  76  77
ENDBRANCH  55  69
BRANCH  56  81
ATOM     81  C   UNL A   1      43.173  23.888  27.169  1.00  0.00     0.058 A 
ATOM     82  C   UNL A   1      42.762  23.498  25.883  1.00  0.00     0.135 A 
ATOM     83  C   UNL A   1      43.118  22.917  28.182  1.00  0.00     0.135 A 
ATOM     84  F   UNL A   1      42.791  24.383  24.874  1.00  0.00    -0.206 F 
ATOM     85  C   UNL A   1      42.299  22.212  25.616  1.00  0.00     0.059 A 
ATOM     86  C   UNL A   1      42.685  21.615  27.934  1.00  0.00     0.059 A 
ATOM     87  F   UNL A   1      43.520  23.222  29.426  1.00  0.00    -0.206 F 
ATOM     88  C   UNL A   1      42.270  21.273  26.647  1.00  0.00     0.060 A 
BRANCH  88  89
ATOM     89  S   UNL A   1      41.725  19.591  26.269  1.00  0.00     0.124 S 
ATOM     90  O   UNL A   1      42.025  18.895  27.513  1.00  0.00    -0.237 OA
ATOM     91  O   UNL A   1      40.309  19.791  25.975  1.00  0.00    -0.237 OA
ATOM     92  O   UNL A   1      42.548  19.218  25.123  1.00  0.00    -0.744 OA
ENDBRANCH  88  89
ENDBRANCH  56  81
BRANCH  68  93
ATOM     93  C   UNL A   1      49.396  26.998  26.520  1.00  0.00     0.058 A 
ATOM     94  C   UNL A   1      50.274  26.438  27.460  1.00  0.00     0.135 A 
ATOM     95  C   UNL A   1      49.790  27.003  25.172  1.00  0.00     0.135 A 
ATOM     96  F   UNL A   1      49.949  26.415  28.762  1.00  0.00    -0.206 F 
ATOM     97  C   UNL A   1      51.506  25.918  27.078  1.00  0.00     0.059 A 
ATOM     98  C   UNL A   1      50.998  26.453  24.763  1.00  0.00     0.059 A 
ATOM     99  F   UNL A   1      48.981  27.519  24.232  1.00  0.00    -0.206 F 
ATOM    100  C   UNL A   1      51.854  25.922  25.726  1.00  0.00     0.060 A 
BRANCH 100 101
ATOM    101  S   UNL A   1      53.432  25.197  25.242  1.00  0.00     0.124 S 
ATOM    102  O   UNL A   1      54.317  25.690  26.292  1.00  0.00    -0.237 OA
ATOM    103  O   UNL A   1      53.141  23.768  25.275  1.00  0.00    -0.237 OA
ATOM    104  O   UNL A   1      53.669  25.752  23.912  1.00  0.00    -0.744 OA
ENDBRANCH 100 101
ENDBRANCH  68  93
ENDBRANCH  42  43
ENDBRANCH  34  37
ENDBRANCH  32  33
ENDBRANCH  31  32
ENDBRANCH   1  31
TORSDOF 19
ENDMDL
MODEL 2
REMARK VINA RESULT:     -11.3      2.381      3.306
REMARK SMILES COc1ccc(C2=NN(C(=O)CCC(=O)NCCCNC(=O)c3ccc(-c4c5nc(c(-c6c(F)cc(S(=O)(=O)[O-])cc6F)c6ccc([nH]6)c(-c6c(F)cc(S(=O)(=O)[O-])cc6F)c6nc(c(-c7c(F)cc(S(=O)(=O)[O-])cc7F)c7ccc4[nH]7)C=C6)C=C5)cc3)[C@H](c3ccc(Cl)cc3Cl)C2)cc1
REMARK SMILES IDX 17 1 16 2 14 3 15 4 13 6 12 7 10 8 11 9 9 10 7 11 8 12 98 13
REMARK SMILES IDX 89 14 6 15 3 16 4 17 100 18 5 19 99 20 2 21 1 22 90 23 91 24
REMARK SMILES IDX 96 25 92 26 95 27 97 28 93 29 94 30 18 31 19 32 20 33 21 34
REMARK SMILES IDX 22 36 23 37 24 38 88 39 25 40 87 41 26 42 27 43 28 44 81 45
REMARK SMILES IDX 29 46 86 47 80 48 82 49 30 50 85 51 79 52 78 53 31 55 65 56
REMARK SMILES IDX 44 57 64 58 45 59 48 60 63 61 83 62 46 63 47 64 62 66 84 67
REMARK SMILES IDX 49 68 32 69 33 70 42 71 34 72 35 73 41 74 43 75 36 76 37 77
REMARK SMILES IDX 38 78 39 79 40 80 66 81 67 82 76 83 68 84 69 85 75 86 77 87
REMARK SMILES IDX 70 88 71 89 72 90 73 91 74 92 50 93 51 94 60 95 52 96 53 97
REMARK SMILES IDX 59 98 61 99 54 100 55 101 56 102 57 103 58 104
REMARK H PARENT 16 5 20 35 82 54 48 65
REMARK Flexibility Score: inf
ROOT
ATOM      1  C   UNL A   1      33.658  27.975  25.181  1.00  0.00     0.117 C 
ENDROOT
BRANCH   1   2
ATOM      2  N   UNL A   1      32.871  26.784  25.418  1.00  0.00    -0.356 N 
ATOM      3  C   UNL A   1      33.225  25.619  26.028  1.00  0.00     0.220 C 
ATOM      4  O   UNL A   1      32.337  24.890  26.477  1.00  0.00    -0.275 OA
ATOM      5  H   UNL A   1      31.944  26.820  25.089  1.00  0.00     0.163 HD
BRANCH   3   6
ATOM      6  C   UNL A   1      34.672  25.200  26.119  1.00  0.00     0.110 C 
BRANCH   6   7
ATOM      7  C   UNL A   1      35.217  24.321  25.002  1.00  0.00     0.112 C 
BRANCH   7   8
ATOM      8  C   UNL A   1      34.675  24.382  23.590  1.00  0.00     0.243 C 
ATOM      9  O   UNL A   1      34.999  25.373  22.915  1.00  0.00    -0.273 OA
BRANCH   8  10
ATOM     10  N   UNL A   1      33.784  23.456  23.105  1.00  0.00    -0.225 N 
ATOM     11  C   UNL A   1      32.967  21.460  23.227  1.00  0.00     0.071 C 
ATOM     12  N   UNL A   1      33.743  22.309  23.811  1.00  0.00    -0.174 NA
ATOM     13  C   UNL A   1      32.281  21.972  22.000  1.00  0.00     0.091 C 
ATOM     14  C   UNL A   1      32.741  23.473  22.048  1.00  0.00     0.149 C 
BRANCH  11  15
ATOM     15  C   UNL A   1      32.834  20.149  23.885  1.00  0.00    -0.002 A 
ATOM     16  C   UNL A   1      32.263  16.790  25.122  1.00  0.00     0.118 A 
ATOM     17  C   UNL A   1      32.189  17.271  23.158  1.00  0.00     0.047 A 
ATOM     18  C   UNL A   1      32.615  18.141  26.277  1.00  0.00     0.047 A 
ATOM     19  C   UNL A   1      32.504  18.942  22.654  1.00  0.00     0.014 A 
ATOM     20  C   UNL A   1      32.884  19.781  25.621  1.00  0.00     0.014 A 
BRANCH  16  21
ATOM     21  O   UNL A   1      32.263  15.546  25.770  1.00  0.00    -0.497 OA
ATOM     22  C   UNL A   1      33.372  14.702  25.470  1.00  0.00     0.278 C 
ENDBRANCH  16  21
ENDBRANCH  11  15
BRANCH  14  23
ATOM     23  C   UNL A   1      31.694  24.528  22.425  1.00  0.00    -0.004 A 
ATOM     24  C   UNL A   1      30.762  24.320  23.459  1.00  0.00     0.009 A 
ATOM     25  C   UNL A   1      31.723  25.811  21.834  1.00  0.00     0.047 A 
ATOM     26  C   UNL A   1      29.914  25.351  23.887  1.00  0.00     0.021 A 
ATOM     27  C   UNL A   1      30.957  26.867  22.338  1.00  0.00     0.041 A 
ATOM     28  Cl  UNL A   1      32.608  26.152  20.389  1.00  0.00    -0.084 Cl
ATOM     29  C   UNL A   1      30.041  26.627  23.350  1.00  0.00     0.042 A 
ATOM     30  Cl  UNL A   1      29.032  27.906  23.902  1.00  0.00    -0.084 Cl
ENDBRANCH  14  23
ENDBRANCH   8  10
ENDBRANCH   7   8
ENDBRANCH   6   7
ENDBRANCH   3   6
ENDBRANCH   1   2
BRANCH   1  31
ATOM     31  C   UNL A   1      33.180  29.295  25.786  1.00  0.00     0.042 C 
BRANCH  31  32
ATOM     32  C   UNL A   1      33.256  29.561  27.298  1.00  0.00     0.118 C 
BRANCH  32  33
ATOM     33  N   UNL A   1      33.357  30.943  27.720  1.00  0.00    -0.352 N 
ATOM     34  C   UNL A   1      34.300  31.579  28.505  1.00  0.00     0.251 C 
ATOM     35  H   UNL A   1      32.635  31.526  27.392  1.00  0.00     0.163 HD
ATOM     36  O   UNL A   1      34.018  32.721  28.876  1.00  0.00    -0.269 OA
BRANCH  34  37
ATOM     37  C   UNL A   1      35.566  30.848  29.062  1.00  0.00     0.039 A 
ATOM     38  C   UNL A   1      36.603  30.688  27.588  1.00  0.00     0.014 A 
ATOM     39  C   UNL A   1      36.213  29.897  30.736  1.00  0.00     0.014 A 
ATOM     40  C   UNL A   1      38.112  29.775  27.690  1.00  0.00     0.010 A 
ATOM     41  C   UNL A   1      37.786  29.031  30.697  1.00  0.00     0.010 A 
ATOM     42  C   UNL A   1      38.719  29.017  29.191  1.00  0.00    -0.014 A 
BRANCH  42  43
ATOM     43  C   UNL A   1      40.181  28.679  29.316  1.00  0.00     0.031 A 
ATOM     44  C   UNL A   1      41.154  29.765  29.698  1.00  0.00     0.074 A 
ATOM     45  C   UNL A   1      40.658  27.490  28.869  1.00  0.00     0.049 A 
ATOM     46  N   UNL A   1      42.461  29.769  29.638  1.00  0.00    -0.248 NA
ATOM     47  C   UNL A   1      40.575  31.051  30.118  1.00  0.00     0.031 C 
ATOM     48  C   UNL A   1      39.870  26.382  28.320  1.00  0.00     0.029 A 
ATOM     49  N   UNL A   1      41.950  27.018  28.770  1.00  0.00    -0.354 N 
ATOM     50  C   UNL A   1      42.844  31.067  29.961  1.00  0.00     0.074 A 
ATOM     51  C   UNL A   1      41.633  31.846  30.069  1.00  0.00     0.031 C 
ATOM     52  C   UNL A   1      40.673  25.365  27.980  1.00  0.00     0.029 A 
ATOM     53  C   UNL A   1      42.047  25.742  28.250  1.00  0.00     0.049 A 
ATOM     54  H   UNL A   1      42.736  27.544  29.046  1.00  0.00     0.167 HD
ATOM     55  C   UNL A   1      44.082  31.550  30.223  1.00  0.00     0.037 A 
ATOM     56  C   UNL A   1      43.112  24.948  28.021  1.00  0.00     0.037 A 
ATOM     57  C   UNL A   1      45.269  30.738  30.190  1.00  0.00     0.049 A 
ATOM     58  C   UNL A   1      44.473  25.467  28.383  1.00  0.00     0.074 A 
ATOM     59  C   UNL A   1      46.557  31.075  30.557  1.00  0.00     0.029 A 
ATOM     60  N   UNL A   1      45.302  29.415  29.768  1.00  0.00    -0.354 N 
ATOM     61  N   UNL A   1      44.805  26.657  28.825  1.00  0.00    -0.248 NA
ATOM     62  C   UNL A   1      45.601  24.539  28.241  1.00  0.00     0.031 C 
ATOM     63  C   UNL A   1      47.382  29.975  30.302  1.00  0.00     0.029 A 
ATOM     64  C   UNL A   1      46.596  28.929  29.842  1.00  0.00     0.049 A 
ATOM     65  H   UNL A   1      44.522  28.900  29.462  1.00  0.00     0.167 HD
ATOM     66  C   UNL A   1      46.175  26.610  29.050  1.00  0.00     0.074 A 
ATOM     67  C   UNL A   1      46.606  25.269  28.705  1.00  0.00     0.031 C 
ATOM     68  C   UNL A   1      47.000  27.586  29.504  1.00  0.00     0.037 A 
BRANCH  55  69
ATOM     69  C   UNL A   1      44.192  33.005  30.610  1.00  0.00     0.058 A 
ATOM     70  C   UNL A   1      44.351  34.016  29.644  1.00  0.00     0.135 A 
ATOM     71  C   UNL A   1      44.163  33.397  31.957  1.00  0.00     0.135 A 
ATOM     72  F   UNL A   1      44.385  33.708  28.337  1.00  0.00    -0.206 F 
ATOM     73  C   UNL A   1      44.558  35.344  30.001  1.00  0.00     0.059 A 
ATOM     74  C   UNL A   1      44.321  34.729  32.336  1.00  0.00     0.059 A 
ATOM     75  F   UNL A   1      43.999  32.484  32.926  1.00  0.00    -0.206 F 
ATOM     76  C   UNL A   1      44.546  35.690  31.351  1.00  0.00     0.060 A 
BRANCH  76  77
ATOM     77  S   UNL A   1      44.840  37.414  31.793  1.00  0.00     0.124 S 
ATOM     78  O   UNL A   1      43.631  37.734  32.546  1.00  0.00    -0.237 OA
ATOM     79  O   UNL A   1      46.068  37.328  32.578  1.00  0.00    -0.237 OA
ATOM     80  O   UNL A   1      44.969  38.081  30.501  1.00  0.00    -0.744 OA
ENDBRANCH  76  77
ENDBRANCH  55  69
BRANCH  56  81
ATOM     81  C   UNL A   1      42.925  23.559  27.503  1.00  0.00     0.058 A 
ATOM     82  C   UNL A   1      43.077  23.272  26.136  1.00  0.00     0.135 A 
ATOM     83  C   UNL A   1      42.624  22.483  28.354  1.00  0.00     0.135 A 
ATOM     84  F   UNL A   1      43.364  24.259  25.273  1.00  0.00    -0.206 F 
ATOM     85  C   UNL A   1      42.920  21.984  25.631  1.00  0.00     0.059 A 
ATOM     86  C   UNL A   1      42.489  21.179  27.878  1.00  0.00     0.059 A 
ATOM     87  F   UNL A   1      42.490  22.689  29.674  1.00  0.00    -0.206 F 
ATOM     88  C   UNL A   1      42.632  20.941  26.511  1.00  0.00     0.060 A 
BRANCH  88  89
ATOM     89  S   UNL A   1      42.492  19.264  25.847  1.00  0.00     0.124 S 
ATOM     90  O   UNL A   1      43.286  19.360  24.629  1.00  0.00    -0.237 OA
ATOM     91  O   UNL A   1      43.070  18.464  26.923  1.00  0.00    -0.237 OA
ATOM     92  O   UNL A   1      41.056  19.096  25.653  1.00  0.00    -0.744 OA
ENDBRANCH  88  89
ENDBRANCH  56  81
BRANCH  68  93
ATOM     93  C   UNL A   1      48.447  27.233  29.699  1.00  0.00     0.058 A 
ATOM     94  C   UNL A   1      49.413  27.494  28.717  1.00  0.00     0.135 A 
ATOM     95  C   UNL A   1      48.879  26.694  30.922  1.00  0.00     0.135 A 
ATOM     96  F   UNL A   1      49.052  28.002  27.528  1.00  0.00    -0.206 F 
ATOM     97  C   UNL A   1      50.758  27.214  28.933  1.00  0.00     0.059 A 
ATOM     98  C   UNL A   1      50.222  26.443  31.175  1.00  0.00     0.059 A 
ATOM     99  F   UNL A   1      47.995  26.434  31.899  1.00  0.00    -0.206 F 
ATOM    100  C   UNL A   1      51.153  26.697  30.169  1.00  0.00     0.060 A 
BRANCH 100 101
ATOM    101  S   UNL A   1      52.906  26.389  30.451  1.00  0.00     0.124 S 
ATOM    102  O   UNL A   1      53.361  26.028  29.113  1.00  0.00    -0.237 OA
ATOM    103  O   UNL A   1      53.371  27.677  30.954  1.00  0.00    -0.237 OA
ATOM    104  O   UNL A   1      52.908  25.303  31.428  1.00  0.00    -0.744 OA
ENDBRANCH 100 101
ENDBRANCH  68  93
ENDBRANCH  42  43
ENDBRANCH  34  37
ENDBRANCH  32  33
ENDBRANCH  31  32
ENDBRANCH   1  31
TORSDOF 19
ENDMDL
MODEL 3
REMARK VINA RESULT:     -11.0      9.098     16.852
REMARK SMILES COc1ccc(C2=NN(C(=O)CCC(=O)NCCCNC(=O)c3ccc(-c4c5nc(c(-c6c(F)cc(S(=O)(=O)[O-])cc6F)c6ccc([nH]6)c(-c6c(F)cc(S(=O)(=O)[O-])cc6F)c6nc(c(-c7c(F)cc(S(=O)(=O)[O-])cc7F)c7ccc4[nH]7)C=C6)C=C5)cc3)[C@H](c3ccc(Cl)cc3Cl)C2)cc1
REMARK SMILES IDX 17 1 16 2 14 3 15 4 13 6 12 7 10 8 11 9 9 10 7 11 8 12 98 13
REMARK SMILES IDX 89 14 6 15 3 16 4 17 100 18 5 19 99 20 2 21 1 22 90 23 91 24
REMARK SMILES IDX 96 25 92 26 95 27 97 28 93 29 94 30 18 31 19 32 20 33 21 34
REMARK SMILES IDX 22 36 23 37 24 38 88 39 25 40 87 41 26 42 27 43 28 44 81 45
REMARK SMILES IDX 29 46 86 47 80 48 82 49 30 50 85 51 79 52 78 53 31 55 65 56
REMARK SMILES IDX 44 57 64 58 45 59 48 60 63 61 83 62 46 63 47 64 62 66 84 67
REMARK SMILES IDX 49 68 32 69 33 70 42 71 34 72 35 73 41 74 43 75 36 76 37 77
REMARK SMILES IDX 38 78 39 79 40 80 66 81 67 82 76 83 68 84 69 85 75 86 77 87
REMARK SMILES IDX 70 88 71 89 72 90 73 91 74 92 50 93 51 94 60 95 52 96 53 97
REMARK SMILES IDX 59 98 61 99 54 100 55 101 56 102 57 103 58 104
REMARK H PARENT 16 5 20 35 82 54 48 65
REMARK Flexibility Score: inf
ROOT
ATOM      1  C   UNL A   1      50.345  22.462  35.052  1.00  0.00     0.117 C 
ENDROOT
BRANCH   1   2
ATOM      2  N   UNL A   1      50.814  21.113  34.816  1.00  0.00    -0.356 N 
ATOM      3  C   UNL A   1      50.777  20.028  35.638  1.00  0.00     0.220 C 
ATOM      4  O   UNL A   1      50.859  18.902  35.139  1.00  0.00    -0.275 OA
ATOM      5  H   UNL A   1      51.219  20.957  33.933  1.00  0.00     0.163 HD
BRANCH   3   6
ATOM      6  C   UNL A   1      50.681  20.192  37.135  1.00  0.00     0.110 C 
BRANCH   6   7
ATOM      7  C   UNL A   1      49.782  21.302  37.660  1.00  0.00     0.112 C 
BRANCH   7   8
ATOM      8  C   UNL A   1      48.904  21.120  38.879  1.00  0.00     0.243 C 
ATOM      9  O   UNL A   1      49.175  21.823  39.867  1.00  0.00    -0.273 OA
BRANCH   8  10
ATOM     10  N   UNL A   1      47.927  20.156  38.944  1.00  0.00    -0.225 N 
ATOM     11  C   UNL A   1      46.683  18.888  40.172  1.00  0.00     0.071 C 
ATOM     12  N   UNL A   1      47.515  19.872  40.195  1.00  0.00    -0.174 NA
ATOM     13  C   UNL A   1      46.345  18.378  38.807  1.00  0.00     0.091 C 
ATOM     14  C   UNL A   1      47.108  19.438  37.934  1.00  0.00     0.149 C 
BRANCH  11  15
ATOM     15  C   UNL A   1      46.155  18.458  41.478  1.00  0.00    -0.002 A 
ATOM     16  C   UNL A   1      45.163  17.046  44.667  1.00  0.00     0.118 A 
ATOM     17  C   UNL A   1      46.965  16.693  43.815  1.00  0.00     0.047 A 
ATOM     18  C   UNL A   1      44.021  18.108  43.743  1.00  0.00     0.047 A 
ATOM     19  C   UNL A   1      47.360  17.450  42.260  1.00  0.00     0.014 A 
ATOM     20  C   UNL A   1      44.552  18.775  42.173  1.00  0.00     0.014 A 
BRANCH  16  21
ATOM     21  O   UNL A   1      44.675  16.759  45.950  1.00  0.00    -0.497 OA
ATOM     22  C   UNL A   1      45.314  17.457  47.015  1.00  0.00     0.278 C 
ENDBRANCH  16  21
ENDBRANCH  11  15
BRANCH  14  23
ATOM     23  C   UNL A   1      46.271  20.472  37.173  1.00  0.00    -0.004 A 
ATOM     24  C   UNL A   1      46.079  21.781  37.656  1.00  0.00     0.009 A 
ATOM     25  C   UNL A   1      45.776  20.186  35.881  1.00  0.00     0.047 A 
ATOM     26  C   UNL A   1      45.439  22.753  36.876  1.00  0.00     0.021 A 
ATOM     27  C   UNL A   1      45.240  21.186  35.063  1.00  0.00     0.041 A 
ATOM     28  Cl  UNL A   1      45.689  18.578  35.252  1.00  0.00    -0.084 Cl
ATOM     29  C   UNL A   1      45.056  22.461  35.572  1.00  0.00     0.042 A 
ATOM     30  Cl  UNL A   1      44.308  23.664  34.596  1.00  0.00    -0.084 Cl
ENDBRANCH  14  23
ENDBRANCH   8  10
ENDBRANCH   7   8
ENDBRANCH   6   7
ENDBRANCH   3   6
ENDBRANCH   1   2
BRANCH   1  31
ATOM     31  C   UNL A   1      48.973  22.861  34.507  1.00  0.00     0.042 C 
BRANCH  31  32
ATOM     32  C   UNL A   1      48.281  24.161  34.943  1.00  0.00     0.118 C 
BRANCH  32  33
ATOM     33  N   UNL A   1      48.839  24.854  36.086  1.00  0.00    -0.352 N 
ATOM     34  C   UNL A   1      48.310  25.851  36.883  1.00  0.00     0.251 C 
ATOM     35  H   UNL A   1      49.746  24.566  36.339  1.00  0.00     0.163 HD
ATOM     36  O   UNL A   1      49.095  26.403  37.657  1.00  0.00    -0.269 OA
BRANCH  34  37
ATOM     37  C   UNL A   1      46.855  26.397  36.697  1.00  0.00     0.039 A 
ATOM     38  C   UNL A   1      47.119  27.867  35.674  1.00  0.00     0.014 A 
ATOM     39  C   UNL A   1      44.975  26.109  37.408  1.00  0.00     0.014 A 
ATOM     40  C   UNL A   1      45.749  28.924  35.315  1.00  0.00     0.010 A 
ATOM     41  C   UNL A   1      43.675  27.254  36.932  1.00  0.00     0.010 A 
ATOM     42  C   UNL A   1      44.078  28.613  35.869  1.00  0.00    -0.014 A 
BRANCH  42  43
ATOM     43  C   UNL A   1      42.924  29.268  35.157  1.00  0.00     0.031 A 
ATOM     44  C   UNL A   1      42.575  28.818  33.762  1.00  0.00     0.074 A 
ATOM     45  C   UNL A   1      42.354  30.395  35.652  1.00  0.00     0.049 A 
ATOM     46  N   UNL A   1      41.792  29.382  32.878  1.00  0.00    -0.248 NA
ATOM     47  C   UNL A   1      43.271  27.623  33.261  1.00  0.00     0.031 C 
ATOM     48  C   UNL A   1      42.680  31.058  36.919  1.00  0.00     0.029 A 
ATOM     49  N   UNL A   1      41.385  31.221  35.122  1.00  0.00    -0.354 N 
ATOM     50  C   UNL A   1      41.949  28.637  31.714  1.00  0.00     0.074 A 
ATOM     51  C   UNL A   1      43.003  27.683  31.965  1.00  0.00     0.031 C 
ATOM     52  C   UNL A   1      41.918  32.147  37.083  1.00  0.00     0.029 A 
ATOM     53  C   UNL A   1      41.059  32.297  35.925  1.00  0.00     0.049 A 
ATOM     54  H   UNL A   1      40.961  31.058  34.248  1.00  0.00     0.167 HD
ATOM     55  C   UNL A   1      41.229  28.687  30.567  1.00  0.00     0.037 A 
ATOM     56  C   UNL A   1      40.166  33.294  35.765  1.00  0.00     0.037 A 
ATOM     57  C   UNL A   1      40.128  29.590  30.365  1.00  0.00     0.049 A 
ATOM     58  C   UNL A   1      39.323  33.297  34.523  1.00  0.00     0.074 A 
ATOM     59  C   UNL A   1      39.244  29.651  29.305  1.00  0.00     0.029 A 
ATOM     60  N   UNL A   1      39.759  30.589  31.257  1.00  0.00    -0.354 N 
ATOM     61  N   UNL A   1      39.387  32.494  33.487  1.00  0.00    -0.248 NA
ATOM     62  C   UNL A   1      38.272  34.319  34.432  1.00  0.00     0.031 C 
ATOM     63  C   UNL A   1      38.376  30.726  29.528  1.00  0.00     0.029 A 
ATOM     64  C   UNL A   1      38.675  31.289  30.759  1.00  0.00     0.049 A 
ATOM     65  H   UNL A   1      40.204  30.771  32.116  1.00  0.00     0.167 HD
ATOM     66  C   UNL A   1      38.363  32.890  32.636  1.00  0.00     0.074 A 
ATOM     67  C   UNL A   1      37.688  33.996  33.287  1.00  0.00     0.031 C 
ATOM     68  C   UNL A   1      38.011  32.381  31.430  1.00  0.00     0.037 A 
BRANCH  55  69
ATOM     69  C   UNL A   1      41.591  27.707  29.478  1.00  0.00     0.058 A 
ATOM     70  C   UNL A   1      42.737  27.878  28.680  1.00  0.00     0.135 A 
ATOM     71  C   UNL A   1      40.777  26.596  29.208  1.00  0.00     0.135 A 
ATOM     72  F   UNL A   1      43.560  28.919  28.888  1.00  0.00    -0.206 F 
ATOM     73  C   UNL A   1      43.016  27.037  27.609  1.00  0.00     0.059 A 
ATOM     74  C   UNL A   1      41.063  25.712  28.169  1.00  0.00     0.059 A 
ATOM     75  F   UNL A   1      39.677  26.366  29.942  1.00  0.00    -0.206 F 
ATOM     76  C   UNL A   1      42.170  25.959  27.358  1.00  0.00     0.060 A 
BRANCH  76  77
ATOM     77  S   UNL A   1      42.537  24.894  25.949  1.00  0.00     0.124 S 
ATOM     78  O   UNL A   1      41.521  23.856  26.093  1.00  0.00    -0.237 OA
ATOM     79  O   UNL A   1      42.357  25.801  24.819  1.00  0.00    -0.237 OA
ATOM     80  O   UNL A   1      43.911  24.465  26.193  1.00  0.00    -0.744 OA
ENDBRANCH  76  77
ENDBRANCH  55  69
BRANCH  56  81
ATOM     81  C   UNL A   1      39.965  34.312  36.841  1.00  0.00     0.058 A 
ATOM     82  C   UNL A   1      39.192  34.018  37.977  1.00  0.00     0.135 A 
ATOM     83  C   UNL A   1      40.561  35.582  36.782  1.00  0.00     0.135 A 
ATOM     84  F   UNL A   1      38.596  32.821  38.089  1.00  0.00    -0.206 F 
ATOM     85  C   UNL A   1      39.000  34.945  38.998  1.00  0.00     0.059 A 
ATOM     86  C   UNL A   1      40.408  36.518  37.804  1.00  0.00     0.059 A 
ATOM     87  F   UNL A   1      41.332  35.914  35.733  1.00  0.00    -0.206 F 
ATOM     88  C   UNL A   1      39.618  36.192  38.907  1.00  0.00     0.060 A 
BRANCH  88  89
ATOM     89  S   UNL A   1      39.410  37.362  40.270  1.00  0.00     0.124 S 
ATOM     90  O   UNL A   1      38.672  36.561  41.238  1.00  0.00    -0.237 OA
ATOM     91  O   UNL A   1      40.794  37.669  40.620  1.00  0.00    -0.237 OA
ATOM     92  O   UNL A   1      38.666  38.461  39.663  1.00  0.00    -0.744 OA
ENDBRANCH  88  89
ENDBRANCH  56  81
BRANCH  68  93
ATOM     93  C   UNL A   1      36.816  32.982  30.748  1.00  0.00     0.058 A 
ATOM     94  C   UNL A   1      35.507  32.729  31.185  1.00  0.00     0.135 A 
ATOM     95  C   UNL A   1      36.993  33.886  29.688  1.00  0.00     0.135 A 
ATOM     96  F   UNL A   1      35.282  31.868  32.189  1.00  0.00    -0.206 F 
ATOM     97  C   UNL A   1      34.412  33.337  30.580  1.00  0.00     0.059 A 
ATOM     98  C   UNL A   1      35.917  34.535  29.095  1.00  0.00     0.059 A 
ATOM     99  F   UNL A   1      38.226  34.169  29.238  1.00  0.00    -0.206 F 
ATOM    100  C   UNL A   1      34.629  34.246  29.542  1.00  0.00     0.060 A 
BRANCH 100 101
ATOM    101  S   UNL A   1      33.203  35.065  28.803  1.00  0.00     0.124 S 
ATOM    102  O   UNL A   1      33.799  36.298  28.301  1.00  0.00    -0.237 OA
ATOM    103  O   UNL A   1      32.783  34.103  27.790  1.00  0.00    -0.237 OA
ATOM    104  O   UNL A   1      32.283  35.226  29.926  1.00  0.00    -0.744 OA
ENDBRANCH 100 101
ENDBRANCH  68  93
ENDBRANCH  42  43
ENDBRANCH  34  37
ENDBRANCH  32  33
ENDBRANCH  31  32
ENDBRANCH   1  31
TORSDOF 19
ENDMDL
