MODEL 1
REMARK VINA RESULT:     -12.4      0.000      0.000
REMARK SMILES O=C(NCCCNC(=O)[C@H]1C[C@H]2CCCC[C@@H]2[N@@H+]1C1CCS(=O)(=O)CC1)c1ccc(-c2c3nc(c(-c4c(F)cc(S(=O)(=O)[O-])cc4F)c4ccc([nH]4)c(-c4c(F)cc(S(=O)(=O)[O-])cc4F)c4nc(c(-c5c(F)cc(S(=O)(=O)[O-])cc5F)c5ccc2[nH]5)C=C4)C=C3)cc1
REMARK SMILES IDX 4 1 3 2 1 3 2 4 27 6 28 7 92 8 29 9 91 10 30 11 31 12 32 13
REMARK SMILES IDX 85 14 33 15 90 16 84 17 86 18 34 19 89 20 83 21 82 22 35 24
REMARK SMILES IDX 69 25 48 26 68 27 49 28 52 29 67 30 87 31 50 32 51 33 66 35
REMARK SMILES IDX 88 36 53 37 36 38 37 39 46 40 38 41 39 42 45 43 47 44 40 45
REMARK SMILES IDX 41 46 42 47 43 48 44 49 70 50 71 51 80 52 72 53 73 54 79 55
REMARK SMILES IDX 81 56 74 57 75 58 76 59 77 60 78 61 54 62 55 63 64 64 56 65
REMARK SMILES IDX 57 66 63 67 65 68 58 69 59 70 60 71 61 72 62 73 5 74 6 75
REMARK SMILES IDX 7 76 8 77 9 79 10 80 11 81 18 82 12 83 17 84 13 86 16 87
REMARK SMILES IDX 14 88 15 89 19 90 20 91 26 92 21 93 25 94 22 95 23 96 24 97
REMARK H PARENT 3 5 86 23 52 34 7 78 18 85
REMARK Flexibility Score: inf
ROOT
ATOM      1  C   UNL A   1      33.866  28.188  27.156  1.00  0.00     0.118 C 
ENDROOT
BRANCH   1   2
ATOM      2  N   UNL A   1      33.611  29.605  27.395  1.00  0.00    -0.352 N 
ATOM      3  O   UNL A   1      33.883  31.617  28.378  1.00  0.00    -0.269 OA
ATOM      4  C   UNL A   1      34.375  30.540  28.058  1.00  0.00     0.251 C 
ATOM      5  H   UNL A   1      32.763  29.944  27.027  1.00  0.00     0.163 HD
BRANCH   4   6
ATOM      6  C   UNL A   1      35.776  30.218  28.399  1.00  0.00     0.039 A 
ATOM      7  C   UNL A   1      36.771  30.439  27.453  1.00  0.00     0.014 A 
ATOM      8  C   UNL A   1      36.105  29.677  29.644  1.00  0.00     0.014 A 
ATOM      9  C   UNL A   1      38.023  29.886  27.638  1.00  0.00     0.010 A 
ATOM     10  C   UNL A   1      37.428  29.300  29.904  1.00  0.00     0.010 A 
ATOM     11  C   UNL A   1      38.393  29.371  28.889  1.00  0.00    -0.014 A 
BRANCH  11  12
ATOM     12  C   UNL A   1      39.828  29.048  29.095  1.00  0.00     0.031 A 
ATOM     13  C   UNL A   1      40.406  27.717  28.711  1.00  0.00     0.074 A 
ATOM     14  C   UNL A   1      40.623  30.032  29.566  1.00  0.00     0.049 A 
ATOM     15  N   UNL A   1      41.652  27.320  28.776  1.00  0.00    -0.248 NA
ATOM     16  C   UNL A   1      39.480  26.693  28.201  1.00  0.00     0.031 C 
ATOM     17  C   UNL A   1      40.157  31.357  29.995  1.00  0.00     0.029 A 
ATOM     18  N   UNL A   1      41.982  30.102  29.720  1.00  0.00    -0.354 N 
ATOM     19  C   UNL A   1      41.662  26.005  28.329  1.00  0.00     0.074 A 
ATOM     20  C   UNL A   1      40.290  25.656  28.028  1.00  0.00     0.031 C 
ATOM     21  C   UNL A   1      41.211  32.132  30.274  1.00  0.00     0.029 A 
ATOM     22  C   UNL A   1      42.419  31.331  30.158  1.00  0.00     0.049 A 
ATOM     23  H   UNL A   1      42.586  29.348  29.538  1.00  0.00     0.167 HD
ATOM     24  C   UNL A   1      42.722  25.174  28.178  1.00  0.00     0.037 A 
ATOM     25  C   UNL A   1      43.652  31.765  30.470  1.00  0.00     0.037 A 
ATOM     26  C   UNL A   1      44.084  25.544  28.482  1.00  0.00     0.049 A 
ATOM     27  C   UNL A   1      44.800  30.814  30.314  1.00  0.00     0.074 A 
ATOM     28  C   UNL A   1      45.231  24.778  28.365  1.00  0.00     0.029 A 
ATOM     29  N   UNL A   1      44.485  26.784  28.962  1.00  0.00    -0.354 N 
ATOM     30  N   UNL A   1      44.786  29.575  29.883  1.00  0.00    -0.248 NA
ATOM     31  C   UNL A   1      46.126  31.313  30.690  1.00  0.00     0.031 C 
ATOM     32  C   UNL A   1      46.316  25.537  28.816  1.00  0.00     0.029 A 
ATOM     33  C   UNL A   1      45.857  26.798  29.161  1.00  0.00     0.049 A 
ATOM     34  H   UNL A   1      43.882  27.544  29.137  1.00  0.00     0.167 HD
ATOM     35  C   UNL A   1      46.106  29.147  29.930  1.00  0.00     0.074 A 
ATOM     36  C   UNL A   1      46.892  30.274  30.392  1.00  0.00     0.031 C 
ATOM     37  C   UNL A   1      46.620  27.929  29.630  1.00  0.00     0.037 A 
BRANCH  24  38
ATOM     38  C   UNL A   1      42.462  23.781  27.667  1.00  0.00     0.058 A 
ATOM     39  C   UNL A   1      42.354  23.507  26.294  1.00  0.00     0.135 A 
ATOM     40  C   UNL A   1      42.388  22.695  28.556  1.00  0.00     0.135 A 
ATOM     41  F   UNL A   1      42.400  24.507  25.399  1.00  0.00    -0.206 F 
ATOM     42  C   UNL A   1      42.170  22.211  25.821  1.00  0.00     0.059 A 
ATOM     43  C   UNL A   1      42.230  21.387  28.104  1.00  0.00     0.059 A 
ATOM     44  F   UNL A   1      42.480  22.898  29.879  1.00  0.00    -0.206 F 
ATOM     45  C   UNL A   1      42.115  21.156  26.734  1.00  0.00     0.060 A 
BRANCH  45  46
ATOM     46  S   UNL A   1      41.899  19.480  26.099  1.00  0.00     0.124 S 
ATOM     47  O   UNL A   1      42.281  18.677  27.256  1.00  0.00    -0.237 OA
ATOM     48  O   UNL A   1      40.482  19.460  25.754  1.00  0.00    -0.237 OA
ATOM     49  O   UNL A   1      42.818  19.424  24.967  1.00  0.00    -0.744 OA
ENDBRANCH  45  46
ENDBRANCH  24  38
BRANCH  25  50
ATOM     50  C   UNL A   1      43.842  33.139  31.007  1.00  0.00     0.058 A 
ATOM     51  C   UNL A   1      43.840  33.396  32.385  1.00  0.00     0.135 A 
ATOM     52  C   UNL A   1      44.042  34.226  30.140  1.00  0.00     0.135 A 
ATOM     53  F   UNL A   1      43.657  32.391  33.255  1.00  0.00    -0.206 F 
ATOM     54  C   UNL A   1      43.999  34.685  32.883  1.00  0.00     0.059 A 
ATOM     55  C   UNL A   1      44.243  35.516  30.615  1.00  0.00     0.059 A 
ATOM     56  F   UNL A   1      44.078  34.032  28.812  1.00  0.00    -0.206 F 
ATOM     57  C   UNL A   1      44.199  35.739  31.989  1.00  0.00     0.060 A 
BRANCH  57  58
ATOM     58  S   UNL A   1      44.421  37.405  32.644  1.00  0.00     0.124 S 
ATOM     59  O   UNL A   1      43.366  37.466  33.647  1.00  0.00    -0.237 OA
ATOM     60  O   UNL A   1      45.788  37.354  33.154  1.00  0.00    -0.237 OA
ATOM     61  O   UNL A   1      44.229  38.254  31.472  1.00  0.00    -0.744 OA
ENDBRANCH  57  58
ENDBRANCH  25  50
BRANCH  37  62
ATOM     62  C   UNL A   1      48.108  27.773  29.774  1.00  0.00     0.058 A 
ATOM     63  C   UNL A   1      48.987  28.065  28.718  1.00  0.00     0.135 A 
ATOM     64  C   UNL A   1      48.662  27.321  30.982  1.00  0.00     0.135 A 
ATOM     65  F   UNL A   1      48.507  28.491  27.538  1.00  0.00    -0.206 F 
ATOM     66  C   UNL A   1      50.357  27.869  28.839  1.00  0.00     0.059 A 
ATOM     67  C   UNL A   1      50.033  27.153  31.137  1.00  0.00     0.059 A 
ATOM     68  F   UNL A   1      47.869  27.038  32.028  1.00  0.00    -0.206 F 
ATOM     69  C   UNL A   1      50.871  27.409  30.053  1.00  0.00     0.060 A 
BRANCH  69  70
ATOM     70  S   UNL A   1      52.652  27.158  30.196  1.00  0.00     0.124 S 
ATOM     71  O   UNL A   1      52.991  26.691  28.856  1.00  0.00    -0.237 OA
ATOM     72  O   UNL A   1      53.128  28.492  30.542  1.00  0.00    -0.237 OA
ATOM     73  O   UNL A   1      52.770  26.161  31.256  1.00  0.00    -0.744 OA
ENDBRANCH  69  70
ENDBRANCH  37  62
ENDBRANCH  11  12
ENDBRANCH   4   6
ENDBRANCH   1   2
BRANCH   1  74
ATOM     74  C   UNL A   1      33.154  27.687  25.922  1.00  0.00     0.042 C 
BRANCH  74  75
ATOM     75  C   UNL A   1      31.688  27.423  26.188  1.00  0.00     0.118 C 
BRANCH  75  76
ATOM     76  N   UNL A   1      31.466  26.155  26.846  1.00  0.00    -0.351 N 
ATOM     77  C   UNL A   1      31.890  24.895  26.582  1.00  0.00     0.278 C 
ATOM     78  H   UNL A   1      30.894  26.218  27.645  1.00  0.00     0.163 HD
ATOM     79  O   UNL A   1      31.469  24.022  27.352  1.00  0.00    -0.268 OA
BRANCH  77  80
ATOM     80  C   UNL A   1      32.869  24.511  25.447  1.00  0.00     0.275 C 
ATOM     81  C   UNL A   1      34.325  24.268  25.840  1.00  0.00     0.085 C 
ATOM     82  N   UNL A   1      32.393  23.310  24.711  1.00  0.00    -0.320 N 
ATOM     83  C   UNL A   1      34.677  22.945  25.179  1.00  0.00     0.054 C 
ATOM     84  C   UNL A   1      33.337  22.231  25.028  1.00  0.00     0.188 C 
ATOM     85  H   UNL A   1      31.456  23.089  25.050  1.00  0.00     0.349 HD
ATOM     86  C   UNL A   1      35.687  22.085  25.924  1.00  0.00     0.010 C 
ATOM     87  C   UNL A   1      33.491  20.935  24.234  1.00  0.00     0.065 C 
ATOM     88  C   UNL A   1      35.849  20.737  25.217  1.00  0.00     0.001 C 
ATOM     89  C   UNL A   1      34.510  20.035  24.959  1.00  0.00     0.006 C 
BRANCH  82  90
ATOM     90  C   UNL A   1      31.936  23.427  23.324  1.00  0.00     0.186 C 
ATOM     91  C   UNL A   1      30.573  24.139  23.163  1.00  0.00     0.081 C 
ATOM     92  C   UNL A   1      32.942  23.937  22.275  1.00  0.00     0.081 C 
ATOM     93  C   UNL A   1      30.567  25.660  23.192  1.00  0.00     0.143 C 
ATOM     94  C   UNL A   1      33.239  25.422  22.320  1.00  0.00     0.143 C 
ATOM     95  S   UNL A   1      31.771  26.402  22.114  1.00  0.00     0.150 S 
ATOM     96  O   UNL A   1      32.063  27.730  22.613  1.00  0.00    -0.229 OA
ATOM     97  O   UNL A   1      31.313  26.210  20.748  1.00  0.00    -0.229 OA
ENDBRANCH  82  90
ENDBRANCH  77  80
ENDBRANCH  75  76
ENDBRANCH  74  75
ENDBRANCH   1  74
TORSDOF 14
ENDMDL
MODEL 2
REMARK VINA RESULT:     -12.3      5.149      9.611
REMARK SMILES O=C(NCCCNC(=O)[C@H]1C[C@H]2CCCC[C@@H]2[N@@H+]1C1CCS(=O)(=O)CC1)c1ccc(-c2c3nc(c(-c4c(F)cc(S(=O)(=O)[O-])cc4F)c4ccc([nH]4)c(-c4c(F)cc(S(=O)(=O)[O-])cc4F)c4nc(c(-c5c(F)cc(S(=O)(=O)[O-])cc5F)c5ccc2[nH]5)C=C4)C=C3)cc1
REMARK SMILES IDX 4 1 3 2 1 3 2 4 27 6 28 7 92 8 29 9 91 10 30 11 31 12 32 13
REMARK SMILES IDX 85 14 33 15 90 16 84 17 86 18 34 19 89 20 83 21 82 22 35 24
REMARK SMILES IDX 69 25 48 26 68 27 49 28 52 29 67 30 87 31 50 32 51 33 66 35
REMARK SMILES IDX 88 36 53 37 36 38 37 39 46 40 38 41 39 42 45 43 47 44 40 45
REMARK SMILES IDX 41 46 42 47 43 48 44 49 70 50 71 51 80 52 72 53 73 54 79 55
REMARK SMILES IDX 81 56 74 57 75 58 76 59 77 60 78 61 54 62 55 63 64 64 56 65
REMARK SMILES IDX 57 66 63 67 65 68 58 69 59 70 60 71 61 72 62 73 5 74 6 75
REMARK SMILES IDX 7 76 8 77 9 79 10 80 11 81 18 82 12 83 17 84 13 86 16 87
REMARK SMILES IDX 14 88 15 89 19 90 20 91 26 92 21 93 25 94 22 95 23 96 24 97
REMARK H PARENT 3 5 86 23 52 34 7 78 18 85
REMARK Flexibility Score: inf
ROOT
ATOM      1  C   UNL A   1      38.931  23.872  26.759  1.00  0.00     0.118 C 
ENDROOT
BRANCH   1   2
ATOM      2  N   UNL A   1      40.069  24.389  26.005  1.00  0.00    -0.352 N 
ATOM      3  O   UNL A   1      41.516  25.949  25.256  1.00  0.00    -0.269 OA
ATOM      4  C   UNL A   1      40.752  25.576  26.141  1.00  0.00     0.251 C 
ATOM      5  H   UNL A   1      40.398  23.798  25.288  1.00  0.00     0.163 HD
BRANCH   4   6
ATOM      6  C   UNL A   1      40.535  26.401  27.348  1.00  0.00     0.039 A 
ATOM      7  C   UNL A   1      41.197  27.617  27.466  1.00  0.00     0.014 A 
ATOM      8  C   UNL A   1      39.694  25.962  28.373  1.00  0.00     0.014 A 
ATOM      9  C   UNL A   1      41.236  28.257  28.688  1.00  0.00     0.010 A 
ATOM     10  C   UNL A   1      39.578  26.723  29.543  1.00  0.00     0.010 A 
ATOM     11  C   UNL A   1      40.376  27.863  29.723  1.00  0.00    -0.014 A 
BRANCH  11  12
ATOM     12  C   UNL A   1      40.274  28.758  30.904  1.00  0.00     0.031 A 
ATOM     13  C   UNL A   1      41.206  28.638  32.075  1.00  0.00     0.074 A 
ATOM     14  C   UNL A   1      39.361  29.751  30.852  1.00  0.00     0.049 A 
ATOM     15  N   UNL A   1      41.273  29.392  33.143  1.00  0.00    -0.248 NA
ATOM     16  C   UNL A   1      42.179  27.534  32.062  1.00  0.00     0.031 C 
ATOM     17  C   UNL A   1      38.387  29.941  29.768  1.00  0.00     0.029 A 
ATOM     18  N   UNL A   1      39.125  30.809  31.687  1.00  0.00    -0.354 N 
ATOM     19  C   UNL A   1      42.280  28.852  33.933  1.00  0.00     0.074 A 
ATOM     20  C   UNL A   1      42.777  27.684  33.237  1.00  0.00     0.031 C 
ATOM     21  C   UNL A   1      37.728  31.090  29.958  1.00  0.00     0.029 A 
ATOM     22  C   UNL A   1      38.145  31.659  31.230  1.00  0.00     0.049 A 
ATOM     23  H   UNL A   1      39.609  30.949  32.533  1.00  0.00     0.167 HD
ATOM     24  C   UNL A   1      42.750  29.301  35.123  1.00  0.00     0.037 A 
ATOM     25  C   UNL A   1      37.607  32.759  31.784  1.00  0.00     0.037 A 
ATOM     26  C   UNL A   1      42.242  30.471  35.799  1.00  0.00     0.049 A 
ATOM     27  C   UNL A   1      38.132  33.215  33.111  1.00  0.00     0.074 A 
ATOM     28  C   UNL A   1      42.647  31.011  37.007  1.00  0.00     0.029 A 
ATOM     29  N   UNL A   1      41.220  31.284  35.325  1.00  0.00    -0.354 N 
ATOM     30  N   UNL A   1      39.091  32.691  33.838  1.00  0.00    -0.248 NA
ATOM     31  C   UNL A   1      37.502  34.401  33.698  1.00  0.00     0.031 C 
ATOM     32  C   UNL A   1      41.841  32.120  37.286  1.00  0.00     0.029 A 
ATOM     33  C   UNL A   1      40.972  32.310  36.225  1.00  0.00     0.049 A 
ATOM     34  H   UNL A   1      40.741  31.152  34.475  1.00  0.00     0.167 HD
ATOM     35  C   UNL A   1      39.185  33.493  34.969  1.00  0.00     0.074 A 
ATOM     36  C   UNL A   1      38.213  34.556  34.806  1.00  0.00     0.031 C 
ATOM     37  C   UNL A   1      39.993  33.354  36.048  1.00  0.00     0.037 A 
BRANCH  24  38
ATOM     38  C   UNL A   1      43.863  28.528  35.780  1.00  0.00     0.058 A 
ATOM     39  C   UNL A   1      43.605  27.464  36.658  1.00  0.00     0.135 A 
ATOM     40  C   UNL A   1      45.206  28.809  35.476  1.00  0.00     0.135 A 
ATOM     41  F   UNL A   1      42.342  27.161  37.000  1.00  0.00    -0.206 F 
ATOM     42  C   UNL A   1      44.634  26.715  37.220  1.00  0.00     0.059 A 
ATOM     43  C   UNL A   1      46.252  28.057  36.006  1.00  0.00     0.059 A 
ATOM     44  F   UNL A   1      45.514  29.818  34.645  1.00  0.00    -0.206 F 
ATOM     45  C   UNL A   1      45.955  27.016  36.883  1.00  0.00     0.060 A 
BRANCH  45  46
ATOM     46  S   UNL A   1      47.274  26.017  37.605  1.00  0.00     0.124 S 
ATOM     47  O   UNL A   1      48.167  25.844  36.463  1.00  0.00    -0.237 OA
ATOM     48  O   UNL A   1      47.770  26.881  38.671  1.00  0.00    -0.237 OA
ATOM     49  O   UNL A   1      46.585  24.810  38.049  1.00  0.00    -0.744 OA
ENDBRANCH  45  46
ENDBRANCH  24  38
BRANCH  25  50
ATOM     50  C   UNL A   1      36.482  33.458  31.106  1.00  0.00     0.058 A 
ATOM     51  C   UNL A   1      36.678  34.190  29.926  1.00  0.00     0.135 A 
ATOM     52  C   UNL A   1      35.180  33.395  31.628  1.00  0.00     0.135 A 
ATOM     53  F   UNL A   1      37.902  34.278  29.386  1.00  0.00    -0.206 F 
ATOM     54  C   UNL A   1      35.628  34.859  29.305  1.00  0.00     0.059 A 
ATOM     55  C   UNL A   1      34.108  34.021  31.004  1.00  0.00     0.059 A 
ATOM     56  F   UNL A   1      34.932  32.687  32.741  1.00  0.00    -0.206 F 
ATOM     57  C   UNL A   1      34.346  34.768  29.853  1.00  0.00     0.060 A 
BRANCH  57  58
ATOM     58  S   UNL A   1      32.987  35.624  29.032  1.00  0.00     0.124 S 
ATOM     59  O   UNL A   1      32.412  34.553  28.228  1.00  0.00    -0.237 OA
ATOM     60  O   UNL A   1      32.183  36.078  30.163  1.00  0.00    -0.237 OA
ATOM     61  O   UNL A   1      33.660  36.684  28.286  1.00  0.00    -0.744 OA
ENDBRANCH  57  58
ENDBRANCH  25  50
BRANCH  37  62
ATOM     62  C   UNL A   1      39.866  34.400  37.121  1.00  0.00     0.058 A 
ATOM     63  C   UNL A   1      40.571  35.612  37.058  1.00  0.00     0.135 A 
ATOM     64  C   UNL A   1      39.031  34.184  38.229  1.00  0.00     0.135 A 
ATOM     65  F   UNL A   1      41.391  35.864  36.025  1.00  0.00    -0.206 F 
ATOM     66  C   UNL A   1      40.491  36.552  38.078  1.00  0.00     0.059 A 
ATOM     67  C   UNL A   1      38.907  35.127  39.243  1.00  0.00     0.059 A 
ATOM     68  F   UNL A   1      38.324  33.047  38.334  1.00  0.00    -0.206 F 
ATOM     69  C   UNL A   1      39.658  36.299  39.169  1.00  0.00     0.060 A 
BRANCH  69  70
ATOM     70  S   UNL A   1      39.564  37.528  40.487  1.00  0.00     0.124 S 
ATOM     71  O   UNL A   1      38.904  36.772  41.546  1.00  0.00    -0.237 OA
ATOM     72  O   UNL A   1      40.969  37.846  40.716  1.00  0.00    -0.237 OA
ATOM     73  O   UNL A   1      38.771  38.601  39.895  1.00  0.00    -0.744 OA
ENDBRANCH  69  70
ENDBRANCH  37  62
ENDBRANCH  11  12
ENDBRANCH   4   6
ENDBRANCH   1   2
BRANCH   1  74
ATOM     74  C   UNL A   1      38.057  22.973  25.916  1.00  0.00     0.042 C 
BRANCH  74  75
ATOM     75  C   UNL A   1      36.629  23.470  25.861  1.00  0.00     0.118 C 
BRANCH  75  76
ATOM     76  N   UNL A   1      35.771  22.791  26.807  1.00  0.00    -0.351 N 
ATOM     77  C   UNL A   1      34.810  21.846  26.663  1.00  0.00     0.278 C 
ATOM     78  H   UNL A   1      35.913  23.069  27.741  1.00  0.00     0.163 HD
ATOM     79  O   UNL A   1      34.238  21.509  27.708  1.00  0.00    -0.268 OA
BRANCH  77  80
ATOM     80  C   UNL A   1      34.436  21.162  25.327  1.00  0.00     0.275 C 
ATOM     81  C   UNL A   1      35.405  20.108  24.793  1.00  0.00     0.085 C 
ATOM     82  N   UNL A   1      33.088  20.539  25.402  1.00  0.00    -0.320 N 
ATOM     83  C   UNL A   1      34.518  18.922  24.450  1.00  0.00     0.054 C 
ATOM     84  C   UNL A   1      33.301  19.087  25.354  1.00  0.00     0.188 C 
ATOM     85  H   UNL A   1      32.665  20.819  26.288  1.00  0.00     0.349 HD
ATOM     86  C   UNL A   1      35.158  17.552  24.619  1.00  0.00     0.010 C 
ATOM     87  C   UNL A   1      32.228  18.051  25.026  1.00  0.00     0.065 C 
ATOM     88  C   UNL A   1      34.121  16.455  24.364  1.00  0.00     0.001 C 
ATOM     89  C   UNL A   1      32.839  16.645  25.185  1.00  0.00     0.006 C 
BRANCH  82  90
ATOM     90  C   UNL A   1      31.976  21.088  24.621  1.00  0.00     0.186 C 
ATOM     91  C   UNL A   1      31.161  22.177  25.358  1.00  0.00     0.081 C 
ATOM     92  C   UNL A   1      32.258  21.512  23.167  1.00  0.00     0.081 C 
ATOM     93  C   UNL A   1      31.725  23.589  25.370  1.00  0.00     0.143 C 
ATOM     94  C   UNL A   1      33.036  22.801  22.999  1.00  0.00     0.143 C 
ATOM     95  S   UNL A   1      32.215  24.180  23.766  1.00  0.00     0.150 S 
ATOM     96  O   UNL A   1      33.203  25.222  23.952  1.00  0.00    -0.229 OA
ATOM     97  O   UNL A   1      31.004  24.436  23.004  1.00  0.00    -0.229 OA
ENDBRANCH  82  90
ENDBRANCH  77  80
ENDBRANCH  75  76
ENDBRANCH  74  75
ENDBRANCH   1  74
TORSDOF 14
ENDMDL
MODEL 3
REMARK VINA RESULT:     -12.2      5.139      9.876
REMARK SMILES O=C(NCCCNC(=O)[C@H]1C[C@H]2CCCC[C@@H]2[N@@H+]1C1CCS(=O)(=O)CC1)c1ccc(-c2c3nc(c(-c4c(F)cc(S(=O)(=O)[O-])cc4F)c4ccc([nH]4)c(-c4c(F)cc(S(=O)(=O)[O-])cc4F)c4nc(c(-c5c(F)cc(S(=O)(=O)[O-])cc5F)c5ccc2[nH]5)C=C4)C=C3)cc1
REMARK SMILES IDX 4 1 3 2 1 3 2 4 27 6 28 7 92 8 29 9 91 10 30 11 31 12 32 13
REMARK SMILES IDX 85 14 33 15 90 16 84 17 86 18 34 19 89 20 83 21 82 22 35 24
REMARK SMILES IDX 69 25 48 26 68 27 49 28 52 29 67 30 87 31 50 32 51 33 66 35
REMARK SMILES IDX 88 36 53 37 36 38 37 39 46 40 38 41 39 42 45 43 47 44 40 45
REMARK SMILES IDX 41 46 42 47 43 48 44 49 70 50 71 51 80 52 72 53 73 54 79 55
REMARK SMILES IDX 81 56 74 57 75 58 76 59 77 60 78 61 54 62 55 63 64 64 56 65
REMARK SMILES IDX 57 66 63 67 65 68 58 69 59 70 60 71 61 72 62 73 5 74 6 75
REMARK SMILES IDX 7 76 8 77 9 79 10 80 11 81 18 82 12 83 17 84 13 86 16 87
REMARK SMILES IDX 14 88 15 89 19 90 20 91 26 92 21 93 25 94 22 95 23 96 24 97
REMARK H PARENT 3 5 86 23 52 34 7 78 18 85
REMARK Flexibility Score: inf
ROOT
ATOM      1  C   UNL A   1      39.856  23.447  27.057  1.00  0.00     0.118 C 
ENDROOT
BRANCH   1   2
ATOM      2  N   UNL A   1      40.693  24.177  26.111  1.00  0.00    -0.352 N 
ATOM      3  O   UNL A   1      41.548  25.992  25.080  1.00  0.00    -0.269 OA
ATOM      4  C   UNL A   1      41.048  25.507  26.091  1.00  0.00     0.251 C 
ATOM      5  H   UNL A   1      41.060  23.636  25.374  1.00  0.00     0.163 HD
BRANCH   4   6
ATOM      6  C   UNL A   1      40.797  26.341  27.284  1.00  0.00     0.039 A 
ATOM      7  C   UNL A   1      41.555  27.490  27.481  1.00  0.00     0.014 A 
ATOM      8  C   UNL A   1      39.827  25.976  28.221  1.00  0.00     0.014 A 
ATOM      9  C   UNL A   1      41.538  28.116  28.711  1.00  0.00     0.010 A 
ATOM     10  C   UNL A   1      39.673  26.738  29.386  1.00  0.00     0.010 A 
ATOM     11  C   UNL A   1      40.552  27.797  29.656  1.00  0.00    -0.014 A 
BRANCH  11  12
ATOM     12  C   UNL A   1      40.424  28.690  30.835  1.00  0.00     0.031 A 
ATOM     13  C   UNL A   1      41.341  28.581  32.019  1.00  0.00     0.074 A 
ATOM     14  C   UNL A   1      39.501  29.673  30.771  1.00  0.00     0.049 A 
ATOM     15  N   UNL A   1      41.385  29.335  33.089  1.00  0.00    -0.248 NA
ATOM     16  C   UNL A   1      42.327  27.488  32.019  1.00  0.00     0.031 C 
ATOM     17  C   UNL A   1      38.540  29.853  29.674  1.00  0.00     0.029 A 
ATOM     18  N   UNL A   1      39.241  30.728  31.604  1.00  0.00    -0.354 N 
ATOM     19  C   UNL A   1      42.387  28.806  33.892  1.00  0.00     0.074 A 
ATOM     20  C   UNL A   1      42.906  27.643  33.203  1.00  0.00     0.031 C 
ATOM     21  C   UNL A   1      37.865  30.993  29.856  1.00  0.00     0.029 A 
ATOM     22  C   UNL A   1      38.258  31.567  31.134  1.00  0.00     0.049 A 
ATOM     23  H   UNL A   1      39.712  30.872  32.456  1.00  0.00     0.167 HD
ATOM     24  C   UNL A   1      42.835  29.259  35.089  1.00  0.00     0.037 A 
ATOM     25  C   UNL A   1      37.699  32.660  31.681  1.00  0.00     0.037 A 
ATOM     26  C   UNL A   1      42.305  30.423  35.758  1.00  0.00     0.049 A 
ATOM     27  C   UNL A   1      38.201  33.121  33.015  1.00  0.00     0.074 A 
ATOM     28  C   UNL A   1      42.686  30.967  36.972  1.00  0.00     0.029 A 
ATOM     29  N   UNL A   1      41.280  31.225  35.271  1.00  0.00    -0.354 N 
ATOM     30  N   UNL A   1      39.156  32.609  33.755  1.00  0.00    -0.248 NA
ATOM     31  C   UNL A   1      37.550  34.300  33.593  1.00  0.00     0.031 C 
ATOM     32  C   UNL A   1      41.864  32.066  37.240  1.00  0.00     0.029 A 
ATOM     33  C   UNL A   1      41.008  32.247  36.167  1.00  0.00     0.049 A 
ATOM     34  H   UNL A   1      40.815  31.087  34.414  1.00  0.00     0.167 HD
ATOM     35  C   UNL A   1      39.225  33.410  34.887  1.00  0.00     0.074 A 
ATOM     36  C   UNL A   1      38.243  34.462  34.711  1.00  0.00     0.031 C 
ATOM     37  C   UNL A   1      40.019  33.280  35.977  1.00  0.00     0.037 A 
BRANCH  24  38
ATOM     38  C   UNL A   1      43.948  28.499  35.761  1.00  0.00     0.058 A 
ATOM     39  C   UNL A   1      45.297  28.813  35.536  1.00  0.00     0.135 A 
ATOM     40  C   UNL A   1      43.662  27.489  36.696  1.00  0.00     0.135 A 
ATOM     41  F   UNL A   1      45.631  29.756  34.641  1.00  0.00    -0.206 F 
ATOM     42  C   UNL A   1      46.322  28.147  36.200  1.00  0.00     0.059 A 
ATOM     43  C   UNL A   1      44.670  26.827  37.393  1.00  0.00     0.059 A 
ATOM     44  F   UNL A   1      42.389  27.144  36.949  1.00  0.00    -0.206 F 
ATOM     45  C   UNL A   1      45.998  27.159  37.132  1.00  0.00     0.060 A 
BRANCH  45  46
ATOM     46  S   UNL A   1      47.342  26.324  38.002  1.00  0.00     0.124 S 
ATOM     47  O   UNL A   1      47.284  24.988  37.415  1.00  0.00    -0.237 OA
ATOM     48  O   UNL A   1      48.500  27.129  37.628  1.00  0.00    -0.237 OA
ATOM     49  O   UNL A   1      46.947  26.410  39.404  1.00  0.00    -0.744 OA
ENDBRANCH  45  46
ENDBRANCH  24  38
BRANCH  25  50
ATOM     50  C   UNL A   1      36.577  33.347  30.987  1.00  0.00     0.058 A 
ATOM     51  C   UNL A   1      36.790  34.135  29.848  1.00  0.00     0.135 A 
ATOM     52  C   UNL A   1      35.258  33.215  31.453  1.00  0.00     0.135 A 
ATOM     53  F   UNL A   1      38.031  34.291  29.362  1.00  0.00    -0.206 F 
ATOM     54  C   UNL A   1      35.741  34.793  29.213  1.00  0.00     0.059 A 
ATOM     55  C   UNL A   1      34.189  33.828  30.812  1.00  0.00     0.059 A 
ATOM     56  F   UNL A   1      34.995  32.451  32.524  1.00  0.00    -0.206 F 
ATOM     57  C   UNL A   1      34.443  34.632  29.704  1.00  0.00     0.060 A 
BRANCH  57  58
ATOM     58  S   UNL A   1      33.085  35.473  28.865  1.00  0.00     0.124 S 
ATOM     59  O   UNL A   1      32.488  34.379  28.109  1.00  0.00    -0.237 OA
ATOM     60  O   UNL A   1      32.300  35.980  29.986  1.00  0.00    -0.237 OA
ATOM     61  O   UNL A   1      33.763  36.494  28.071  1.00  0.00    -0.744 OA
ENDBRANCH  57  58
ENDBRANCH  25  50
BRANCH  37  62
ATOM     62  C   UNL A   1      39.866  34.324  37.049  1.00  0.00     0.058 A 
ATOM     63  C   UNL A   1      39.002  34.140  38.140  1.00  0.00     0.135 A 
ATOM     64  C   UNL A   1      40.589  35.526  36.980  1.00  0.00     0.135 A 
ATOM     65  F   UNL A   1      38.280  33.012  38.248  1.00  0.00    -0.206 F 
ATOM     66  C   UNL A   1      38.824  35.129  39.100  1.00  0.00     0.059 A 
ATOM     67  C   UNL A   1      40.453  36.514  37.948  1.00  0.00     0.059 A 
ATOM     68  F   UNL A   1      41.437  35.749  35.963  1.00  0.00    -0.206 F 
ATOM     69  C   UNL A   1      39.553  36.315  38.993  1.00  0.00     0.060 A 
BRANCH  69  70
ATOM     70  S   UNL A   1      39.311  37.592  40.245  1.00  0.00     0.124 S 
ATOM     71  O   UNL A   1      38.911  36.797  41.401  1.00  0.00    -0.237 OA
ATOM     72  O   UNL A   1      40.631  38.205  40.323  1.00  0.00    -0.237 OA
ATOM     73  O   UNL A   1      38.266  38.435  39.672  1.00  0.00    -0.744 OA
ENDBRANCH  69  70
ENDBRANCH  37  62
ENDBRANCH  11  12
ENDBRANCH   4   6
ENDBRANCH   1   2
BRANCH   1  74
ATOM     74  C   UNL A   1      38.705  22.750  26.371  1.00  0.00     0.042 C 
BRANCH  74  75
ATOM     75  C   UNL A   1      37.647  23.731  25.914  1.00  0.00     0.118 C 
BRANCH  75  76
ATOM     76  N   UNL A   1      37.128  23.412  24.602  1.00  0.00    -0.351 N 
ATOM     77  C   UNL A   1      35.885  23.470  24.067  1.00  0.00     0.278 C 
ATOM     78  H   UNL A   1      37.813  23.088  23.973  1.00  0.00     0.163 HD
ATOM     79  O   UNL A   1      35.793  23.077  22.896  1.00  0.00    -0.268 OA
BRANCH  77  80
ATOM     80  C   UNL A   1      34.634  24.021  24.791  1.00  0.00     0.275 C 
ATOM     81  C   UNL A   1      34.617  25.516  25.105  1.00  0.00     0.085 C 
ATOM     82  N   UNL A   1      33.392  23.704  24.037  1.00  0.00    -0.320 N 
ATOM     83  C   UNL A   1      33.259  25.988  24.613  1.00  0.00     0.054 C 
ATOM     84  C   UNL A   1      32.880  24.983  23.530  1.00  0.00     0.188 C 
ATOM     85  H   UNL A   1      33.646  23.080  23.270  1.00  0.00     0.349 HD
ATOM     86  C   UNL A   1      33.208  27.417  24.092  1.00  0.00     0.010 C 
ATOM     87  C   UNL A   1      31.457  25.224  23.030  1.00  0.00     0.065 C 
ATOM     88  C   UNL A   1      31.821  27.714  23.515  1.00  0.00     0.001 C 
ATOM     89  C   UNL A   1      31.364  26.665  22.493  1.00  0.00     0.006 C 
BRANCH  82  90
ATOM     90  C   UNL A   1      32.422  22.751  24.581  1.00  0.00     0.186 C 
ATOM     91  C   UNL A   1      31.961  21.671  23.574  1.00  0.00     0.081 C 
ATOM     92  C   UNL A   1      32.723  22.119  25.953  1.00  0.00     0.081 C 
ATOM     93  C   UNL A   1      32.873  20.473  23.361  1.00  0.00     0.143 C 
ATOM     94  C   UNL A   1      33.800  21.053  25.961  1.00  0.00     0.143 C 
ATOM     95  S   UNL A   1      33.412  19.704  24.871  1.00  0.00     0.150 S 
ATOM     96  O   UNL A   1      34.646  18.997  24.601  1.00  0.00    -0.229 OA
ATOM     97  O   UNL A   1      32.269  19.008  25.439  1.00  0.00    -0.229 OA
ENDBRANCH  82  90
ENDBRANCH  77  80
ENDBRANCH  75  76
ENDBRANCH  74  75
ENDBRANCH   1  74
TORSDOF 14
ENDMDL
