MODEL 1
REMARK VINA RESULT:     -13.4      0.000      0.000
REMARK SMILES O=C(NCCCNC(=O)[C@H]1CC2(CCN(C(=O)c3cccc(O)c3)CC2)CN1C(=O)C1CC1)c1ccc(-c2c3nc(c(-c4c(F)cc(S(=O)(=O)[O-])cc4F)c4ccc([nH]4)c(-c4c(F)cc(S(=O)(=O)[O-])cc4F)c4nc(c(-c5c(F)cc(S(=O)(=O)[O-])cc5F)c5ccc2[nH]5)C=C4)C=C3)cc1
REMARK SMILES IDX 4 1 3 2 1 3 2 4 34 6 35 7 99 8 36 9 98 10 37 11 38 12 39 13
REMARK SMILES IDX 92 14 40 15 97 16 91 17 93 18 41 19 96 20 90 21 89 22 42 24
REMARK SMILES IDX 76 25 55 26 75 27 56 28 59 29 74 30 94 31 57 32 58 33 73 35
REMARK SMILES IDX 95 36 60 37 43 38 44 39 53 40 45 41 46 42 52 43 54 44 47 45
REMARK SMILES IDX 48 46 49 47 50 48 51 49 77 50 78 51 87 52 79 53 80 54 86 55
REMARK SMILES IDX 88 56 81 57 82 58 83 59 84 60 85 61 61 62 62 63 71 64 63 65
REMARK SMILES IDX 64 66 70 67 72 68 65 69 66 70 67 71 68 72 69 73 5 74 6 75
REMARK SMILES IDX 7 76 8 77 9 79 10 80 11 81 28 82 12 83 27 84 13 85 26 86
REMARK SMILES IDX 14 87 25 88 15 89 16 90 17 91 29 92 30 93 31 94 32 95 33 96
REMARK SMILES IDX 18 97 19 98 24 99 20 100 22 101 21 102 23 103
REMARK H PARENT 3 5 93 23 59 34 7 78 23 104
REMARK Flexibility Score: inf
ROOT
ATOM      1  C   UNL A   1      39.284  23.318  26.945  1.00  0.00     0.118 C 
ENDROOT
BRANCH   1   2
ATOM      2  N   UNL A   1      40.416  23.702  26.126  1.00  0.00    -0.352 N 
ATOM      3  O   UNL A   1      42.239  24.890  25.537  1.00  0.00    -0.269 OA
ATOM      4  C   UNL A   1      41.306  24.737  26.323  1.00  0.00     0.251 C 
ATOM      5  H   UNL A   1      40.570  23.152  25.324  1.00  0.00     0.163 HD
BRANCH   4   6
ATOM      6  C   UNL A   1      41.126  25.695  27.445  1.00  0.00     0.039 A 
ATOM      7  C   UNL A   1      40.036  25.616  28.316  1.00  0.00     0.014 A 
ATOM      8  C   UNL A   1      42.104  26.676  27.650  1.00  0.00     0.014 A 
ATOM      9  C   UNL A   1      39.880  26.572  29.327  1.00  0.00     0.010 A 
ATOM     10  C   UNL A   1      41.968  27.604  28.692  1.00  0.00     0.010 A 
ATOM     11  C   UNL A   1      40.845  27.576  29.533  1.00  0.00    -0.014 A 
BRANCH  11  12
ATOM     12  C   UNL A   1      40.702  28.544  30.662  1.00  0.00     0.031 A 
ATOM     13  C   UNL A   1      41.556  28.440  31.903  1.00  0.00     0.074 A 
ATOM     14  C   UNL A   1      39.786  29.530  30.572  1.00  0.00     0.049 A 
ATOM     15  N   UNL A   1      41.549  29.193  32.976  1.00  0.00    -0.248 NA
ATOM     16  C   UNL A   1      42.539  27.347  31.948  1.00  0.00     0.031 C 
ATOM     17  C   UNL A   1      38.871  29.727  29.446  1.00  0.00     0.029 A 
ATOM     18  N   UNL A   1      39.468  30.550  31.437  1.00  0.00    -0.354 N 
ATOM     19  C   UNL A   1      42.524  28.672  33.821  1.00  0.00     0.074 A 
ATOM     20  C   UNL A   1      43.074  27.511  33.151  1.00  0.00     0.031 C 
ATOM     21  C   UNL A   1      38.112  30.809  29.678  1.00  0.00     0.029 A 
ATOM     22  C   UNL A   1      38.450  31.359  30.988  1.00  0.00     0.049 A 
ATOM     23  H   UNL A   1      39.926  30.688  32.298  1.00  0.00     0.167 HD
ATOM     24  C   UNL A   1      42.936  29.126  35.032  1.00  0.00     0.037 A 
ATOM     25  C   UNL A   1      37.839  32.412  31.565  1.00  0.00     0.037 A 
ATOM     26  C   UNL A   1      42.384  30.280  35.702  1.00  0.00     0.049 A 
ATOM     27  C   UNL A   1      38.297  32.881  32.919  1.00  0.00     0.074 A 
ATOM     28  C   UNL A   1      42.744  30.819  36.927  1.00  0.00     0.029 A 
ATOM     29  N   UNL A   1      41.358  31.073  35.211  1.00  0.00    -0.354 N 
ATOM     30  N   UNL A   1      39.244  32.393  33.684  1.00  0.00    -0.248 NA
ATOM     31  C   UNL A   1      37.609  34.048  33.486  1.00  0.00     0.031 C 
ATOM     32  C   UNL A   1      41.911  31.911  37.194  1.00  0.00     0.029 A 
ATOM     33  C   UNL A   1      41.064  32.086  36.112  1.00  0.00     0.049 A 
ATOM     34  H   UNL A   1      40.903  30.935  34.348  1.00  0.00     0.167 HD
ATOM     35  C   UNL A   1      39.276  33.204  34.813  1.00  0.00     0.074 A 
ATOM     36  C   UNL A   1      38.273  34.229  34.619  1.00  0.00     0.031 C 
ATOM     37  C   UNL A   1      40.063  33.105  35.913  1.00  0.00     0.037 A 
BRANCH  24  38
ATOM     38  C   UNL A   1      44.050  28.381  35.722  1.00  0.00     0.058 A 
ATOM     39  C   UNL A   1      43.785  27.334  36.621  1.00  0.00     0.135 A 
ATOM     40  C   UNL A   1      45.396  28.661  35.432  1.00  0.00     0.135 A 
ATOM     41  F   UNL A   1      42.519  27.026  36.944  1.00  0.00    -0.206 F 
ATOM     42  C   UNL A   1      44.811  26.611  37.223  1.00  0.00     0.059 A 
ATOM     43  C   UNL A   1      46.438  27.933  36.001  1.00  0.00     0.059 A 
ATOM     44  F   UNL A   1      45.710  29.646  34.575  1.00  0.00    -0.206 F 
ATOM     45  C   UNL A   1      46.135  26.916  36.905  1.00  0.00     0.060 A 
BRANCH  45  46
ATOM     46  S   UNL A   1      47.451  25.958  37.688  1.00  0.00     0.124 S 
ATOM     47  O   UNL A   1      48.324  27.016  38.186  1.00  0.00    -0.237 OA
ATOM     48  O   UNL A   1      46.725  25.203  38.704  1.00  0.00    -0.237 OA
ATOM     49  O   UNL A   1      47.993  25.164  36.590  1.00  0.00    -0.744 OA
ENDBRANCH  45  46
ENDBRANCH  24  38
BRANCH  25  50
ATOM     50  C   UNL A   1      36.712  33.090  30.868  1.00  0.00     0.058 A 
ATOM     51  C   UNL A   1      36.938  33.979  29.807  1.00  0.00     0.135 A 
ATOM     52  C   UNL A   1      35.382  32.862  31.257  1.00  0.00     0.135 A 
ATOM     53  F   UNL A   1      38.190  34.236  29.403  1.00  0.00    -0.206 F 
ATOM     54  C   UNL A   1      35.889  34.637  29.172  1.00  0.00     0.059 A 
ATOM     55  C   UNL A   1      34.315  33.483  30.616  1.00  0.00     0.059 A 
ATOM     56  F   UNL A   1      35.110  32.007  32.256  1.00  0.00    -0.206 F 
ATOM     57  C   UNL A   1      34.580  34.381  29.585  1.00  0.00     0.060 A 
BRANCH  57  58
ATOM     58  S   UNL A   1      33.223  35.215  28.734  1.00  0.00     0.124 S 
ATOM     59  O   UNL A   1      32.439  35.717  29.856  1.00  0.00    -0.237 OA
ATOM     60  O   UNL A   1      33.926  36.220  27.944  1.00  0.00    -0.237 OA
ATOM     61  O   UNL A   1      32.604  34.142  27.961  1.00  0.00    -0.744 OA
ENDBRANCH  57  58
ENDBRANCH  25  50
BRANCH  37  62
ATOM     62  C   UNL A   1      39.891  34.154  36.980  1.00  0.00     0.058 A 
ATOM     63  C   UNL A   1      39.061  33.947  38.093  1.00  0.00     0.135 A 
ATOM     64  C   UNL A   1      40.577  35.377  36.896  1.00  0.00     0.135 A 
ATOM     65  F   UNL A   1      38.377  32.799  38.223  1.00  0.00    -0.206 F 
ATOM     66  C   UNL A   1      38.887  34.929  39.065  1.00  0.00     0.059 A 
ATOM     67  C   UNL A   1      40.442  36.360  37.869  1.00  0.00     0.059 A 
ATOM     68  F   UNL A   1      41.393  35.623  35.858  1.00  0.00    -0.206 F 
ATOM     69  C   UNL A   1      39.580  36.134  38.942  1.00  0.00     0.060 A 
BRANCH  69  70
ATOM     70  S   UNL A   1      39.352  37.398  40.211  1.00  0.00     0.124 S 
ATOM     71  O   UNL A   1      38.474  38.344  39.531  1.00  0.00    -0.237 OA
ATOM     72  O   UNL A   1      38.744  36.641  41.301  1.00  0.00    -0.237 OA
ATOM     73  O   UNL A   1      40.709  37.873  40.466  1.00  0.00    -0.744 OA
ENDBRANCH  69  70
ENDBRANCH  37  62
ENDBRANCH  11  12
ENDBRANCH   4   6
ENDBRANCH   1   2
BRANCH   1  74
ATOM     74  C   UNL A   1      37.969  23.087  26.204  1.00  0.00     0.042 C 
BRANCH  74  75
ATOM     75  C   UNL A   1      37.954  22.178  24.973  1.00  0.00     0.117 C 
BRANCH  75  76
ATOM     76  N   UNL A   1      37.465  20.815  25.127  1.00  0.00    -0.354 N 
ATOM     77  C   UNL A   1      36.184  20.326  25.067  1.00  0.00     0.242 C 
ATOM     78  H   UNL A   1      38.161  20.141  25.299  1.00  0.00     0.163 HD
ATOM     79  O   UNL A   1      36.030  19.158  24.698  1.00  0.00    -0.273 OA
BRANCH  77  80
ATOM     80  C   UNL A   1      34.982  21.248  25.275  1.00  0.00     0.175 C 
ATOM     81  C   UNL A   1      34.757  22.499  24.400  1.00  0.00     0.044 C 
ATOM     82  N   UNL A   1      33.615  20.782  25.362  1.00  0.00    -0.330 N 
ATOM     83  C   UNL A   1      33.468  23.140  25.065  1.00  0.00    -0.006 C 
ATOM     84  C   UNL A   1      32.870  21.931  25.874  1.00  0.00     0.127 C 
ATOM     85  C   UNL A   1      32.382  23.646  24.079  1.00  0.00     0.030 C 
ATOM     86  C   UNL A   1      33.883  24.304  25.997  1.00  0.00     0.030 C 
ATOM     87  C   UNL A   1      32.684  24.984  23.404  1.00  0.00     0.120 C 
ATOM     88  C   UNL A   1      34.227  25.578  25.220  1.00  0.00     0.120 C 
ATOM     89  N   UNL A   1      33.108  25.985  24.381  1.00  0.00    -0.339 N 
ATOM     90  C   UNL A   1      32.689  27.317  24.428  1.00  0.00     0.253 C 
ATOM     91  O   UNL A   1      33.293  28.186  25.057  1.00  0.00    -0.269 OA
BRANCH  82  92
ATOM     92  C   UNL A   1      32.956  20.018  24.384  1.00  0.00     0.226 C 
ATOM     93  O   UNL A   1      32.662  20.512  23.298  1.00  0.00    -0.275 OA
BRANCH  92  94
ATOM     94  C   UNL A   1      32.473  18.619  24.595  1.00  0.00     0.079 C 
ATOM     95  C   UNL A   1      33.205  17.536  23.812  1.00  0.00     0.014 C 
ATOM     96  C   UNL A   1      33.022  17.393  25.278  1.00  0.00     0.014 C 
ENDBRANCH  92  94
ENDBRANCH  82  92
BRANCH  90  97
ATOM     97  C   UNL A   1      31.454  27.742  23.729  1.00  0.00     0.043 A 
ATOM     98  C   UNL A   1      30.203  27.246  24.120  1.00  0.00     0.014 A 
ATOM     99  C   UNL A   1      31.535  28.759  22.772  1.00  0.00     0.060 A 
ATOM    100  C   UNL A   1      29.041  27.737  23.517  1.00  0.00     0.005 A 
ATOM    101  C   UNL A   1      30.371  29.238  22.180  1.00  0.00     0.116 A 
ATOM    102  C   UNL A   1      29.124  28.732  22.539  1.00  0.00     0.046 A 
BRANCH 101 103
ATOM    103  O   UNL A   1      30.489  30.227  21.246  1.00  0.00    -0.508 OA
ATOM    104  H   UNL A   1      30.451  31.125  21.508  1.00  0.00     0.293 HD
ENDBRANCH 101 103
ENDBRANCH  90  97
ENDBRANCH  77  80
ENDBRANCH  75  76
ENDBRANCH  74  75
ENDBRANCH   1  74
TORSDOF 17
ENDMDL
MODEL 2
REMARK VINA RESULT:     -13.2      6.294     12.040
REMARK SMILES O=C(NCCCNC(=O)[C@H]1CC2(CCN(C(=O)c3cccc(O)c3)CC2)CN1C(=O)C1CC1)c1ccc(-c2c3nc(c(-c4c(F)cc(S(=O)(=O)[O-])cc4F)c4ccc([nH]4)c(-c4c(F)cc(S(=O)(=O)[O-])cc4F)c4nc(c(-c5c(F)cc(S(=O)(=O)[O-])cc5F)c5ccc2[nH]5)C=C4)C=C3)cc1
REMARK SMILES IDX 4 1 3 2 1 3 2 4 34 6 35 7 99 8 36 9 98 10 37 11 38 12 39 13
REMARK SMILES IDX 92 14 40 15 97 16 91 17 93 18 41 19 96 20 90 21 89 22 42 24
REMARK SMILES IDX 76 25 55 26 75 27 56 28 59 29 74 30 94 31 57 32 58 33 73 35
REMARK SMILES IDX 95 36 60 37 43 38 44 39 53 40 45 41 46 42 52 43 54 44 47 45
REMARK SMILES IDX 48 46 49 47 50 48 51 49 77 50 78 51 87 52 79 53 80 54 86 55
REMARK SMILES IDX 88 56 81 57 82 58 83 59 84 60 85 61 61 62 62 63 71 64 63 65
REMARK SMILES IDX 64 66 70 67 72 68 65 69 66 70 67 71 68 72 69 73 5 74 6 75
REMARK SMILES IDX 7 76 8 77 9 79 10 80 11 81 28 82 12 83 27 84 13 85 26 86
REMARK SMILES IDX 14 87 25 88 15 89 16 90 17 91 29 92 30 93 31 94 32 95 33 96
REMARK SMILES IDX 18 97 19 98 24 99 20 100 22 101 21 102 23 103
REMARK H PARENT 3 5 93 23 59 34 7 78 23 104
REMARK Flexibility Score: inf
ROOT
ATOM      1  C   UNL A   1      35.553  30.888  28.038  1.00  0.00     0.118 C 
ENDROOT
BRANCH   1   2
ATOM      2  N   UNL A   1      35.459  31.000  29.480  1.00  0.00    -0.352 N 
ATOM      3  O   UNL A   1      36.199  31.024  31.609  1.00  0.00    -0.269 OA
ATOM      4  C   UNL A   1      36.458  30.853  30.419  1.00  0.00     0.251 C 
ATOM      5  H   UNL A   1      34.564  31.209  29.835  1.00  0.00     0.163 HD
BRANCH   4   6
ATOM      6  C   UNL A   1      37.830  30.447  30.017  1.00  0.00     0.039 A 
ATOM      7  C   UNL A   1      38.847  30.255  30.956  1.00  0.00     0.014 A 
ATOM      8  C   UNL A   1      38.089  30.217  28.661  1.00  0.00     0.014 A 
ATOM      9  C   UNL A   1      40.138  29.923  30.527  1.00  0.00     0.010 A 
ATOM     10  C   UNL A   1      39.373  29.841  28.240  1.00  0.00     0.010 A 
ATOM     11  C   UNL A   1      40.419  29.708  29.165  1.00  0.00    -0.014 A 
BRANCH  11  12
ATOM     12  C   UNL A   1      41.784  29.283  28.731  1.00  0.00     0.031 A 
ATOM     13  C   UNL A   1      42.924  30.268  28.638  1.00  0.00     0.074 A 
ATOM     14  C   UNL A   1      42.000  27.992  28.409  1.00  0.00     0.049 A 
ATOM     15  N   UNL A   1      44.165  30.064  28.269  1.00  0.00    -0.248 NA
ATOM     16  C   UNL A   1      42.633  31.664  29.001  1.00  0.00     0.031 C 
ATOM     17  C   UNL A   1      40.981  26.940  28.421  1.00  0.00     0.029 A 
ATOM     18  N   UNL A   1      43.142  27.339  28.010  1.00  0.00    -0.354 N 
ATOM     19  C   UNL A   1      44.804  31.296  28.358  1.00  0.00     0.074 A 
ATOM     20  C   UNL A   1      43.800  32.253  28.777  1.00  0.00     0.031 C 
ATOM     21  C   UNL A   1      41.544  25.775  28.067  1.00  0.00     0.029 A 
ATOM     22  C   UNL A   1      42.954  26.000  27.758  1.00  0.00     0.049 A 
ATOM     23  H   UNL A   1      44.013  27.788  27.913  1.00  0.00     0.167 HD
ATOM     24  C   UNL A   1      46.107  31.602  28.129  1.00  0.00     0.037 A 
ATOM     25  C   UNL A   1      43.806  25.056  27.311  1.00  0.00     0.037 A 
ATOM     26  C   UNL A   1      47.107  30.649  27.706  1.00  0.00     0.049 A 
ATOM     27  C   UNL A   1      45.240  25.425  27.041  1.00  0.00     0.074 A 
ATOM     28  C   UNL A   1      48.453  30.865  27.459  1.00  0.00     0.029 A 
ATOM     29  N   UNL A   1      46.875  29.303  27.466  1.00  0.00    -0.354 N 
ATOM     30  N   UNL A   1      45.829  26.591  27.164  1.00  0.00    -0.248 NA
ATOM     31  C   UNL A   1      46.127  24.350  26.577  1.00  0.00     0.031 C 
ATOM     32  C   UNL A   1      49.025  29.661  27.031  1.00  0.00     0.029 A 
ATOM     33  C   UNL A   1      48.048  28.681  27.062  1.00  0.00     0.049 A 
ATOM     34  H   UNL A   1      46.004  28.854  27.567  1.00  0.00     0.167 HD
ATOM     35  C   UNL A   1      47.158  26.383  26.810  1.00  0.00     0.074 A 
ATOM     36  C   UNL A   1      47.292  24.977  26.495  1.00  0.00     0.031 C 
ATOM     37  C   UNL A   1      48.175  27.279  26.749  1.00  0.00     0.037 A 
BRANCH  24  38
ATOM     38  C   UNL A   1      46.544  33.029  28.338  1.00  0.00     0.058 A 
ATOM     39  C   UNL A   1      46.477  33.976  27.300  1.00  0.00     0.135 A 
ATOM     40  C   UNL A   1      46.964  33.480  29.601  1.00  0.00     0.135 A 
ATOM     41  F   UNL A   1      46.090  33.602  26.071  1.00  0.00    -0.206 F 
ATOM     42  C   UNL A   1      46.832  35.306  27.502  1.00  0.00     0.059 A 
ATOM     43  C   UNL A   1      47.298  34.812  29.832  1.00  0.00     0.059 A 
ATOM     44  F   UNL A   1      47.042  32.623  30.631  1.00  0.00    -0.206 F 
ATOM     45  C   UNL A   1      47.240  35.716  28.772  1.00  0.00     0.060 A 
BRANCH  45  46
ATOM     46  S   UNL A   1      47.685  37.450  29.016  1.00  0.00     0.124 S 
ATOM     47  O   UNL A   1      48.740  37.340  30.018  1.00  0.00    -0.237 OA
ATOM     48  O   UNL A   1      48.118  37.851  27.681  1.00  0.00    -0.237 OA
ATOM     49  O   UNL A   1      46.442  38.058  29.479  1.00  0.00    -0.744 OA
ENDBRANCH  45  46
ENDBRANCH  24  38
BRANCH  25  50
ATOM     50  C   UNL A   1      43.322  23.670  27.073  1.00  0.00     0.058 A 
ATOM     51  C   UNL A   1      43.086  23.191  25.776  1.00  0.00     0.135 A 
ATOM     52  C   UNL A   1      43.080  22.796  28.146  1.00  0.00     0.135 A 
ATOM     53  F   UNL A   1      43.294  23.989  24.719  1.00  0.00    -0.206 F 
ATOM     54  C   UNL A   1      42.604  21.905  25.550  1.00  0.00     0.059 A 
ATOM     55  C   UNL A   1      42.630  21.495  27.943  1.00  0.00     0.059 A 
ATOM     56  F   UNL A   1      43.306  23.199  29.406  1.00  0.00    -0.206 F 
ATOM     57  C   UNL A   1      42.380  21.064  26.643  1.00  0.00     0.060 A 
BRANCH  57  58
ATOM     58  S   UNL A   1      41.786  19.386  26.339  1.00  0.00     0.124 S 
ATOM     59  O   UNL A   1      40.342  19.587  26.312  1.00  0.00    -0.237 OA
ATOM     60  O   UNL A   1      42.412  19.065  25.060  1.00  0.00    -0.237 OA
ATOM     61  O   UNL A   1      42.299  18.639  27.483  1.00  0.00    -0.744 OA
ENDBRANCH  57  58
ENDBRANCH  25  50
BRANCH  37  62
ATOM     62  C   UNL A   1      49.531  26.757  26.354  1.00  0.00     0.058 A 
ATOM     63  C   UNL A   1      50.400  26.173  27.290  1.00  0.00     0.135 A 
ATOM     64  C   UNL A   1      49.961  26.829  25.019  1.00  0.00     0.135 A 
ATOM     65  F   UNL A   1      50.043  26.084  28.581  1.00  0.00    -0.206 F 
ATOM     66  C   UNL A   1      51.662  25.713  26.923  1.00  0.00     0.059 A 
ATOM     67  C   UNL A   1      51.206  26.349  24.625  1.00  0.00     0.059 A 
ATOM     68  F   UNL A   1      49.166  27.367  24.081  1.00  0.00    -0.206 F 
ATOM     69  C   UNL A   1      52.057  25.808  25.588  1.00  0.00     0.060 A 
BRANCH  69  70
ATOM     70  S   UNL A   1      53.693  25.203  25.123  1.00  0.00     0.124 S 
ATOM     71  O   UNL A   1      53.454  23.769  25.003  1.00  0.00    -0.237 OA
ATOM     72  O   UNL A   1      53.944  25.910  23.871  1.00  0.00    -0.237 OA
ATOM     73  O   UNL A   1      54.537  25.608  26.243  1.00  0.00    -0.744 OA
ENDBRANCH  69  70
ENDBRANCH  37  62
ENDBRANCH  11  12
ENDBRANCH   4   6
ENDBRANCH   1   2
BRANCH   1  74
ATOM     74  C   UNL A   1      34.824  29.704  27.408  1.00  0.00     0.042 C 
BRANCH  74  75
ATOM     75  C   UNL A   1      33.560  29.956  26.584  1.00  0.00     0.117 C 
BRANCH  75  76
ATOM     76  N   UNL A   1      32.281  29.529  27.133  1.00  0.00    -0.354 N 
ATOM     77  C   UNL A   1      31.682  28.293  27.114  1.00  0.00     0.242 C 
ATOM     78  H   UNL A   1      31.767  30.234  27.589  1.00  0.00     0.163 HD
ATOM     79  O   UNL A   1      30.914  28.011  28.040  1.00  0.00    -0.273 OA
BRANCH  77  80
ATOM     80  C   UNL A   1      32.090  27.239  26.085  1.00  0.00     0.175 C 
ATOM     81  C   UNL A   1      31.978  25.728  26.381  1.00  0.00     0.044 C 
ATOM     82  N   UNL A   1      31.636  27.236  24.711  1.00  0.00    -0.330 N 
ATOM     83  C   UNL A   1      32.598  25.088  25.070  1.00  0.00    -0.006 C 
ATOM     84  C   UNL A   1      32.508  26.273  24.041  1.00  0.00     0.127 C 
ATOM     85  C   UNL A   1      31.826  23.877  24.481  1.00  0.00     0.030 C 
ATOM     86  C   UNL A   1      34.064  24.668  25.335  1.00  0.00     0.030 C 
ATOM     87  C   UNL A   1      32.032  22.551  25.212  1.00  0.00     0.120 C 
ATOM     88  C   UNL A   1      34.162  23.361  26.129  1.00  0.00     0.120 C 
ATOM     89  N   UNL A   1      33.452  22.290  25.444  1.00  0.00    -0.339 N 
ATOM     90  C   UNL A   1      34.104  21.068  25.262  1.00  0.00     0.253 C 
ATOM     91  O   UNL A   1      35.204  20.817  25.755  1.00  0.00    -0.269 OA
BRANCH  82  92
ATOM     92  C   UNL A   1      30.292  27.224  24.303  1.00  0.00     0.226 C 
ATOM     93  O   UNL A   1      29.518  26.368  24.725  1.00  0.00    -0.275 OA
BRANCH  92  94
ATOM     94  C   UNL A   1      29.717  28.147  23.277  1.00  0.00     0.079 C 
ATOM     95  C   UNL A   1      29.910  29.636  23.536  1.00  0.00     0.014 C 
ATOM     96  C   UNL A   1      30.290  29.058  22.223  1.00  0.00     0.014 C 
ENDBRANCH  92  94
ENDBRANCH  82  92
BRANCH  90  97
ATOM     97  C   UNL A   1      33.496  20.008  24.425  1.00  0.00     0.043 A 
ATOM     98  C   UNL A   1      32.637  20.336  23.367  1.00  0.00     0.014 A 
ATOM     99  C   UNL A   1      33.907  18.683  24.608  1.00  0.00     0.060 A 
ATOM    100  C   UNL A   1      32.155  19.329  22.526  1.00  0.00     0.005 A 
ATOM    101  C   UNL A   1      33.419  17.692  23.762  1.00  0.00     0.116 A 
ATOM    102  C   UNL A   1      32.541  18.001  22.726  1.00  0.00     0.046 A 
BRANCH 101 103
ATOM    103  O   UNL A   1      33.837  16.410  23.973  1.00  0.00    -0.508 OA
ATOM    104  H   UNL A   1      34.752  16.221  24.043  1.00  0.00     0.293 HD
ENDBRANCH 101 103
ENDBRANCH  90  97
ENDBRANCH  77  80
ENDBRANCH  75  76
ENDBRANCH  74  75
ENDBRANCH   1  74
TORSDOF 17
ENDMDL
MODEL 3
REMARK VINA RESULT:     -13.0      6.343     11.745
REMARK SMILES O=C(NCCCNC(=O)[C@H]1CC2(CCN(C(=O)c3cccc(O)c3)CC2)CN1C(=O)C1CC1)c1ccc(-c2c3nc(c(-c4c(F)cc(S(=O)(=O)[O-])cc4F)c4ccc([nH]4)c(-c4c(F)cc(S(=O)(=O)[O-])cc4F)c4nc(c(-c5c(F)cc(S(=O)(=O)[O-])cc5F)c5ccc2[nH]5)C=C4)C=C3)cc1
REMARK SMILES IDX 4 1 3 2 1 3 2 4 34 6 35 7 99 8 36 9 98 10 37 11 38 12 39 13
REMARK SMILES IDX 92 14 40 15 97 16 91 17 93 18 41 19 96 20 90 21 89 22 42 24
REMARK SMILES IDX 76 25 55 26 75 27 56 28 59 29 74 30 94 31 57 32 58 33 73 35
REMARK SMILES IDX 95 36 60 37 43 38 44 39 53 40 45 41 46 42 52 43 54 44 47 45
REMARK SMILES IDX 48 46 49 47 50 48 51 49 77 50 78 51 87 52 79 53 80 54 86 55
REMARK SMILES IDX 88 56 81 57 82 58 83 59 84 60 85 61 61 62 62 63 71 64 63 65
REMARK SMILES IDX 64 66 70 67 72 68 65 69 66 70 67 71 68 72 69 73 5 74 6 75
REMARK SMILES IDX 7 76 8 77 9 79 10 80 11 81 28 82 12 83 27 84 13 85 26 86
REMARK SMILES IDX 14 87 25 88 15 89 16 90 17 91 29 92 30 93 31 94 32 95 33 96
REMARK SMILES IDX 18 97 19 98 24 99 20 100 22 101 21 102 23 103
REMARK H PARENT 3 5 93 23 59 34 7 78 23 104
REMARK Flexibility Score: inf
ROOT
ATOM      1  C   UNL A   1      35.507  30.839  28.314  1.00  0.00     0.118 C 
ENDROOT
BRANCH   1   2
ATOM      2  N   UNL A   1      35.496  30.828  29.763  1.00  0.00    -0.352 N 
ATOM      3  O   UNL A   1      36.356  30.660  31.840  1.00  0.00    -0.269 OA
ATOM      4  C   UNL A   1      36.545  30.588  30.626  1.00  0.00     0.251 C 
ATOM      5  H   UNL A   1      34.627  31.016  30.186  1.00  0.00     0.163 HD
BRANCH   4   6
ATOM      6  C   UNL A   1      37.884  30.201  30.113  1.00  0.00     0.039 A 
ATOM      7  C   UNL A   1      38.204  30.278  28.754  1.00  0.00     0.014 A 
ATOM      8  C   UNL A   1      38.858  29.787  31.029  1.00  0.00     0.014 A 
ATOM      9  C   UNL A   1      39.462  29.853  28.309  1.00  0.00     0.010 A 
ATOM     10  C   UNL A   1      40.132  29.407  30.584  1.00  0.00     0.010 A 
ATOM     11  C   UNL A   1      40.445  29.416  29.216  1.00  0.00    -0.014 A 
BRANCH  11  12
ATOM     12  C   UNL A   1      41.807  29.036  28.734  1.00  0.00     0.031 A 
ATOM     13  C   UNL A   1      42.129  27.622  28.315  1.00  0.00     0.074 A 
ATOM     14  C   UNL A   1      42.771  29.977  28.675  1.00  0.00     0.049 A 
ATOM     15  N   UNL A   1      43.263  27.126  27.883  1.00  0.00    -0.248 NA
ATOM     16  C   UNL A   1      41.041  26.636  28.398  1.00  0.00     0.031 C 
ATOM     17  C   UNL A   1      42.606  31.375  29.081  1.00  0.00     0.029 A 
ATOM     18  N   UNL A   1      44.078  29.908  28.256  1.00  0.00    -0.354 N 
ATOM     19  C   UNL A   1      43.028  25.777  27.639  1.00  0.00     0.074 A 
ATOM     20  C   UNL A   1      41.651  25.523  28.012  1.00  0.00     0.031 C 
ATOM     21  C   UNL A   1      43.757  32.033  28.872  1.00  0.00     0.029 A 
ATOM     22  C   UNL A   1      44.757  31.099  28.362  1.00  0.00     0.049 A 
ATOM     23  H   UNL A   1      44.489  29.082  27.911  1.00  0.00     0.167 HD
ATOM     24  C   UNL A   1      43.872  24.840  27.135  1.00  0.00     0.037 A 
ATOM     25  C   UNL A   1      46.042  31.410  28.100  1.00  0.00     0.037 A 
ATOM     26  C   UNL A   1      45.246  25.092  26.769  1.00  0.00     0.049 A 
ATOM     27  C   UNL A   1      46.964  30.348  27.566  1.00  0.00     0.074 A 
ATOM     28  C   UNL A   1      46.173  24.206  26.243  1.00  0.00     0.029 A 
ATOM     29  N   UNL A   1      45.893  26.313  26.889  1.00  0.00    -0.354 N 
ATOM     30  N   UNL A   1      46.710  29.087  27.311  1.00  0.00    -0.248 NA
ATOM     31  C   UNL A   1      48.347  30.752  27.277  1.00  0.00     0.031 C 
ATOM     32  C   UNL A   1      47.389  24.881  26.083  1.00  0.00     0.029 A 
ATOM     33  C   UNL A   1      47.208  26.200  26.460  1.00  0.00     0.049 A 
ATOM     34  H   UNL A   1      45.479  27.139  27.230  1.00  0.00     0.167 HD
ATOM     35  C   UNL A   1      47.895  28.553  26.816  1.00  0.00     0.074 A 
ATOM     36  C   UNL A   1      48.857  29.634  26.782  1.00  0.00     0.031 C 
ATOM     37  C   UNL A   1      48.162  27.281  26.428  1.00  0.00     0.037 A 
BRANCH  24  38
ATOM     38  C   UNL A   1      43.338  23.444  26.938  1.00  0.00     0.058 A 
ATOM     39  C   UNL A   1      42.981  22.969  25.664  1.00  0.00     0.135 A 
ATOM     40  C   UNL A   1      43.249  22.545  28.014  1.00  0.00     0.135 A 
ATOM     41  F   UNL A   1      43.037  23.785  24.600  1.00  0.00    -0.206 F 
ATOM     42  C   UNL A   1      42.534  21.665  25.471  1.00  0.00     0.059 A 
ATOM     43  C   UNL A   1      42.831  21.228  27.839  1.00  0.00     0.059 A 
ATOM     44  F   UNL A   1      43.584  22.941  29.253  1.00  0.00    -0.206 F 
ATOM     45  C   UNL A   1      42.464  20.801  26.564  1.00  0.00     0.060 A 
BRANCH  45  46
ATOM     46  S   UNL A   1      41.893  19.109  26.289  1.00  0.00     0.124 S 
ATOM     47  O   UNL A   1      42.803  18.663  25.238  1.00  0.00    -0.237 OA
ATOM     48  O   UNL A   1      42.090  18.497  27.599  1.00  0.00    -0.237 OA
ATOM     49  O   UNL A   1      40.503  19.280  25.882  1.00  0.00    -0.744 OA
ENDBRANCH  45  46
ENDBRANCH  24  38
BRANCH  25  50
ATOM     50  C   UNL A   1      46.539  32.789  28.354  1.00  0.00     0.058 A 
ATOM     51  C   UNL A   1      46.508  33.773  27.354  1.00  0.00     0.135 A 
ATOM     52  C   UNL A   1      47.060  33.149  29.608  1.00  0.00     0.135 A 
ATOM     53  F   UNL A   1      46.027  33.477  26.138  1.00  0.00    -0.206 F 
ATOM     54  C   UNL A   1      46.999  35.056  27.578  1.00  0.00     0.059 A 
ATOM     55  C   UNL A   1      47.526  34.434  29.865  1.00  0.00     0.059 A 
ATOM     56  F   UNL A   1      47.097  32.251  30.604  1.00  0.00    -0.206 F 
ATOM     57  C   UNL A   1      47.506  35.376  28.839  1.00  0.00     0.060 A 
BRANCH  57  58
ATOM     58  S   UNL A   1      48.111  37.052  29.131  1.00  0.00     0.124 S 
ATOM     59  O   UNL A   1      49.201  37.142  28.167  1.00  0.00    -0.237 OA
ATOM     60  O   UNL A   1      46.931  37.860  28.840  1.00  0.00    -0.237 OA
ATOM     61  O   UNL A   1      48.510  37.023  30.536  1.00  0.00    -0.744 OA
ENDBRANCH  57  58
ENDBRANCH  25  50
BRANCH  37  62
ATOM     62  C   UNL A   1      49.545  26.996  25.904  1.00  0.00     0.058 A 
ATOM     63  C   UNL A   1      49.874  27.176  24.551  1.00  0.00     0.135 A 
ATOM     64  C   UNL A   1      50.558  26.551  26.769  1.00  0.00     0.135 A 
ATOM     65  F   UNL A   1      48.943  27.593  23.678  1.00  0.00    -0.206 F 
ATOM     66  C   UNL A   1      51.147  26.888  24.067  1.00  0.00     0.059 A 
ATOM     67  C   UNL A   1      51.845  26.286  26.313  1.00  0.00     0.059 A 
ATOM     68  F   UNL A   1      50.301  26.373  28.075  1.00  0.00    -0.206 F 
ATOM     69  C   UNL A   1      52.125  26.441  24.956  1.00  0.00     0.060 A 
BRANCH  69  70
ATOM     70  S   UNL A   1      53.775  26.077  24.319  1.00  0.00     0.124 S 
ATOM     71  O   UNL A   1      54.550  27.191  24.854  1.00  0.00    -0.237 OA
ATOM     72  O   UNL A   1      54.057  24.771  24.906  1.00  0.00    -0.237 OA
ATOM     73  O   UNL A   1      53.589  26.079  22.871  1.00  0.00    -0.744 OA
ENDBRANCH  69  70
ENDBRANCH  37  62
ENDBRANCH  11  12
ENDBRANCH   4   6
ENDBRANCH   1   2
BRANCH   1  74
ATOM     74  C   UNL A   1      34.996  29.572  27.630  1.00  0.00     0.042 C 
BRANCH  74  75
ATOM     75  C   UNL A   1      33.787  29.661  26.697  1.00  0.00     0.117 C 
BRANCH  75  76
ATOM     76  N   UNL A   1      32.484  29.269  27.216  1.00  0.00    -0.354 N 
ATOM     77  C   UNL A   1      31.847  28.053  27.172  1.00  0.00     0.242 C 
ATOM     78  H   UNL A   1      31.984  29.985  27.669  1.00  0.00     0.163 HD
ATOM     79  O   UNL A   1      31.053  27.786  28.079  1.00  0.00    -0.273 OA
BRANCH  77  80
ATOM     80  C   UNL A   1      32.243  26.997  26.139  1.00  0.00     0.175 C 
ATOM     81  C   UNL A   1      32.165  25.488  26.451  1.00  0.00     0.044 C 
ATOM     82  N   UNL A   1      31.747  26.975  24.780  1.00  0.00    -0.330 N 
ATOM     83  C   UNL A   1      32.757  24.847  25.126  1.00  0.00    -0.006 C 
ATOM     84  C   UNL A   1      32.616  26.022  24.092  1.00  0.00     0.127 C 
ATOM     85  C   UNL A   1      31.989  23.618  24.571  1.00  0.00     0.030 C 
ATOM     86  C   UNL A   1      34.237  24.455  25.350  1.00  0.00     0.030 C 
ATOM     87  C   UNL A   1      32.240  22.303  25.306  1.00  0.00     0.120 C 
ATOM     88  C   UNL A   1      34.382  23.157  26.152  1.00  0.00     0.120 C 
ATOM     89  N   UNL A   1      33.670  22.068  25.497  1.00  0.00    -0.339 N 
ATOM     90  C   UNL A   1      34.338  20.855  25.305  1.00  0.00     0.253 C 
ATOM     91  O   UNL A   1      35.456  20.627  25.767  1.00  0.00    -0.269 OA
BRANCH  82  92
ATOM     92  C   UNL A   1      30.393  26.937  24.413  1.00  0.00     0.226 C 
ATOM     93  O   UNL A   1      29.575  26.328  25.100  1.00  0.00    -0.275 OA
BRANCH  92  94
ATOM     94  C   UNL A   1      29.847  27.518  23.147  1.00  0.00     0.079 C 
ATOM     95  C   UNL A   1      28.530  28.272  23.273  1.00  0.00     0.014 C 
ATOM     96  C   UNL A   1      29.686  28.911  22.597  1.00  0.00     0.014 C 
ENDBRANCH  92  94
ENDBRANCH  82  92
BRANCH  90  97
ATOM     97  C   UNL A   1      33.723  19.779  24.495  1.00  0.00     0.043 A 
ATOM     98  C   UNL A   1      32.701  20.064  23.581  1.00  0.00     0.014 A 
ATOM     99  C   UNL A   1      34.279  18.495  24.544  1.00  0.00     0.060 A 
ATOM    100  C   UNL A   1      32.205  19.053  22.753  1.00  0.00     0.005 A 
ATOM    101  C   UNL A   1      33.776  17.498  23.714  1.00  0.00     0.116 A 
ATOM    102  C   UNL A   1      32.739  17.764  22.823  1.00  0.00     0.046 A 
BRANCH 101 103
ATOM    103  O   UNL A   1      34.338  16.257  23.793  1.00  0.00    -0.508 OA
ATOM    104  H   UNL A   1      34.298  15.677  23.058  1.00  0.00     0.293 HD
ENDBRANCH 101 103
ENDBRANCH  90  97
ENDBRANCH  77  80
ENDBRANCH  75  76
ENDBRANCH  74  75
ENDBRANCH   1  74
TORSDOF 17
ENDMDL
