MODEL 1
REMARK VINA RESULT:     -13.6      0.000      0.000
REMARK SMILES O=C(NCCCNC(=O)[C@H]1CC=CC[C@@H]1C(=O)Nc1ccccc1C(=O)NCc1ccco1)c1ccc(-c2c3nc(c(-c4c(F)cc(S(=O)(=O)[O-])cc4F)c4ccc([nH]4)c(-c4c(F)cc(S(=O)(=O)[O-])cc4F)c4nc(c(-c5c(F)cc(S(=O)(=O)[O-])cc5F)c5ccc2[nH]5)C=C4)C=C3)cc1
REMARK SMILES IDX 6 1 5 2 4 3 3 4 1 5 2 6 34 8 35 9 99 10 36 11 98 12 37 13
REMARK SMILES IDX 38 14 39 15 92 16 40 17 97 18 91 19 93 20 41 21 96 22 90 23
REMARK SMILES IDX 89 24 42 26 76 27 55 28 75 29 56 30 59 31 74 32 94 33 57 34
REMARK SMILES IDX 58 35 73 37 95 38 60 39 43 40 44 41 53 42 45 43 46 44 52 45
REMARK SMILES IDX 54 46 47 47 48 48 49 49 50 50 51 51 77 52 78 53 87 54 79 55
REMARK SMILES IDX 80 56 86 57 88 58 81 59 82 60 83 61 84 62 85 63 61 64 62 65
REMARK SMILES IDX 71 66 63 67 64 68 70 69 72 70 65 71 66 72 67 73 68 74 69 75
REMARK SMILES IDX 7 76 8 77 9 79 10 80 11 81 15 82 12 83 14 84 13 85 16 86
REMARK SMILES IDX 17 87 18 88 19 90 20 91 24 92 21 93 23 94 22 95 25 96 26 97
REMARK SMILES IDX 27 98 28 100 29 101 30 102 33 103 31 104 32 105
REMARK H PARENT 3 7 93 25 59 36 7 78 18 89 27 99
REMARK Flexibility Score: inf
ROOT
ATOM      1  C   UNL A   1      34.301  29.013  27.094  1.00  0.00     0.117 C 
ENDROOT
BRANCH   1   2
ATOM      2  C   UNL A   1      34.341  30.533  27.098  1.00  0.00     0.042 C 
BRANCH   2   3
ATOM      3  C   UNL A   1      35.524  31.086  27.880  1.00  0.00     0.118 C 
BRANCH   3   4
ATOM      4  N   UNL A   1      35.461  30.689  29.275  1.00  0.00    -0.352 N 
ATOM      5  O   UNL A   1      36.029  29.429  31.043  1.00  0.00    -0.269 OA
ATOM      6  C   UNL A   1      36.388  30.004  30.022  1.00  0.00     0.251 C 
ATOM      7  H   UNL A   1      34.639  30.947  29.752  1.00  0.00     0.163 HD
BRANCH   6   8
ATOM      8  C   UNL A   1      37.807  29.969  29.600  1.00  0.00     0.039 A 
ATOM      9  C   UNL A   1      38.828  30.217  30.521  1.00  0.00     0.014 A 
ATOM     10  C   UNL A   1      38.130  29.574  28.298  1.00  0.00     0.014 A 
ATOM     11  C   UNL A   1      40.157  30.170  30.126  1.00  0.00     0.010 A 
ATOM     12  C   UNL A   1      39.469  29.407  27.933  1.00  0.00     0.010 A 
ATOM     13  C   UNL A   1      40.490  29.687  28.854  1.00  0.00    -0.014 A 
BRANCH  13  14
ATOM     14  C   UNL A   1      41.894  29.282  28.597  1.00  0.00     0.031 A 
ATOM     15  C   UNL A   1      43.014  30.276  28.611  1.00  0.00     0.074 A 
ATOM     16  C   UNL A   1      42.123  27.979  28.329  1.00  0.00     0.049 A 
ATOM     17  N   UNL A   1      44.280  30.080  28.350  1.00  0.00    -0.248 NA
ATOM     18  C   UNL A   1      42.679  31.667  28.951  1.00  0.00     0.031 C 
ATOM     19  C   UNL A   1      41.087  26.939  28.262  1.00  0.00     0.029 A 
ATOM     20  N   UNL A   1      43.281  27.297  28.066  1.00  0.00    -0.354 N 
ATOM     21  C   UNL A   1      44.890  31.322  28.460  1.00  0.00     0.074 A 
ATOM     22  C   UNL A   1      43.855  32.271  28.813  1.00  0.00     0.031 C 
ATOM     23  C   UNL A   1      41.658  25.754  28.015  1.00  0.00     0.029 A 
ATOM     24  C   UNL A   1      43.085  25.958  27.814  1.00  0.00     0.049 A 
ATOM     25  H   UNL A   1      44.169  27.723  28.057  1.00  0.00     0.167 HD
ATOM     26  C   UNL A   1      46.196  31.630  28.274  1.00  0.00     0.037 A 
ATOM     27  C   UNL A   1      43.946  25.005  27.415  1.00  0.00     0.037 A 
ATOM     28  C   UNL A   1      47.210  30.657  27.950  1.00  0.00     0.049 A 
ATOM     29  C   UNL A   1      45.379  25.386  27.199  1.00  0.00     0.074 A 
ATOM     30  C   UNL A   1      48.574  30.850  27.826  1.00  0.00     0.029 A 
ATOM     31  N   UNL A   1      46.970  29.316  27.686  1.00  0.00    -0.354 N 
ATOM     32  N   UNL A   1      45.950  26.554  27.375  1.00  0.00    -0.248 NA
ATOM     33  C   UNL A   1      46.282  24.335  26.715  1.00  0.00     0.031 C 
ATOM     34  C   UNL A   1      49.152  29.641  27.430  1.00  0.00     0.029 A 
ATOM     35  C   UNL A   1      48.156  28.681  27.355  1.00  0.00     0.049 A 
ATOM     36  H   UNL A   1      46.088  28.880  27.728  1.00  0.00     0.167 HD
ATOM     37  C   UNL A   1      47.280  26.379  27.020  1.00  0.00     0.074 A 
ATOM     38  C   UNL A   1      47.435  24.986  26.652  1.00  0.00     0.031 C 
ATOM     39  C   UNL A   1      48.281  27.292  26.987  1.00  0.00     0.037 A 
BRANCH  26  40
ATOM     40  C   UNL A   1      46.619  33.067  28.388  1.00  0.00     0.058 A 
ATOM     41  C   UNL A   1      46.570  33.945  27.297  1.00  0.00     0.135 A 
ATOM     42  C   UNL A   1      46.973  33.597  29.642  1.00  0.00     0.135 A 
ATOM     43  F   UNL A   1      46.252  33.490  26.075  1.00  0.00    -0.206 F 
ATOM     44  C   UNL A   1      46.854  35.301  27.443  1.00  0.00     0.059 A 
ATOM     45  C   UNL A   1      47.241  34.952  29.814  1.00  0.00     0.059 A 
ATOM     46  F   UNL A   1      47.040  32.798  30.718  1.00  0.00    -0.206 F 
ATOM     47  C   UNL A   1      47.180  35.797  28.707  1.00  0.00     0.060 A 
BRANCH  47  48
ATOM     48  S   UNL A   1      47.488  37.567  28.888  1.00  0.00     0.124 S 
ATOM     49  O   UNL A   1      47.061  37.799  30.264  1.00  0.00    -0.237 OA
ATOM     50  O   UNL A   1      48.925  37.658  28.648  1.00  0.00    -0.237 OA
ATOM     51  O   UNL A   1      46.645  38.168  27.859  1.00  0.00    -0.744 OA
ENDBRANCH  47  48
ENDBRANCH  26  40
BRANCH  27  52
ATOM     52  C   UNL A   1      43.456  23.631  27.125  1.00  0.00     0.058 A 
ATOM     53  C   UNL A   1      43.243  23.196  25.810  1.00  0.00     0.135 A 
ATOM     54  C   UNL A   1      43.195  22.723  28.165  1.00  0.00     0.135 A 
ATOM     55  F   UNL A   1      43.477  24.025  24.782  1.00  0.00    -0.206 F 
ATOM     56  C   UNL A   1      42.763  21.918  25.536  1.00  0.00     0.059 A 
ATOM     57  C   UNL A   1      42.747  21.431  27.915  1.00  0.00     0.059 A 
ATOM     58  F   UNL A   1      43.403  23.083  29.441  1.00  0.00    -0.206 F 
ATOM     59  C   UNL A   1      42.515  21.045  26.597  1.00  0.00     0.060 A 
BRANCH  59  60
ATOM     60  S   UNL A   1      41.905  19.385  26.234  1.00  0.00     0.124 S 
ATOM     61  O   UNL A   1      40.473  19.624  26.104  1.00  0.00    -0.237 OA
ATOM     62  O   UNL A   1      42.613  19.057  25.001  1.00  0.00    -0.237 OA
ATOM     63  O   UNL A   1      42.313  18.615  27.406  1.00  0.00    -0.744 OA
ENDBRANCH  59  60
ENDBRANCH  27  52
BRANCH  39  64
ATOM     64  C   UNL A   1      49.627  26.809  26.537  1.00  0.00     0.058 A 
ATOM     65  C   UNL A   1      50.513  26.189  27.432  1.00  0.00     0.135 A 
ATOM     66  C   UNL A   1      50.015  26.919  25.193  1.00  0.00     0.135 A 
ATOM     67  F   UNL A   1      50.194  26.076  28.731  1.00  0.00    -0.206 F 
ATOM     68  C   UNL A   1      51.745  25.703  27.009  1.00  0.00     0.059 A 
ATOM     69  C   UNL A   1      51.230  26.415  24.743  1.00  0.00     0.059 A 
ATOM     70  F   UNL A   1      49.199  27.501  24.299  1.00  0.00    -0.206 F 
ATOM     71  C   UNL A   1      52.091  25.816  25.662  1.00  0.00     0.060 A 
BRANCH  71  72
ATOM     72  S   UNL A   1      53.670  25.132  25.118  1.00  0.00     0.124 S 
ATOM     73  O   UNL A   1      53.443  23.701  25.285  1.00  0.00    -0.237 OA
ATOM     74  O   UNL A   1      53.757  25.605  23.739  1.00  0.00    -0.237 OA
ATOM     75  O   UNL A   1      54.633  25.728  26.040  1.00  0.00    -0.744 OA
ENDBRANCH  71  72
ENDBRANCH  39  64
ENDBRANCH  13  14
ENDBRANCH   6   8
ENDBRANCH   3   4
ENDBRANCH   2   3
ENDBRANCH   1   2
BRANCH   1  76
ATOM     76  N   UNL A   1      33.093  28.533  27.728  1.00  0.00    -0.356 N 
ATOM     77  C   UNL A   1      31.963  27.936  27.295  1.00  0.00     0.224 C 
ATOM     78  H   UNL A   1      33.095  28.674  28.702  1.00  0.00     0.163 HD
ATOM     79  O   UNL A   1      31.066  27.944  28.152  1.00  0.00    -0.275 OA
BRANCH  77  80
ATOM     80  C   UNL A   1      31.760  27.151  25.977  1.00  0.00     0.095 C 
ATOM     81  C   UNL A   1      31.338  28.175  24.890  1.00  0.00     0.041 C 
ATOM     82  C   UNL A   1      32.777  26.123  25.453  1.00  0.00     0.095 C 
ATOM     83  C   UNL A   1      32.496  28.785  24.175  1.00  0.00    -0.030 C 
ATOM     84  C   UNL A   1      33.859  26.731  24.496  1.00  0.00     0.041 C 
ATOM     85  C   UNL A   1      33.647  28.130  24.016  1.00  0.00    -0.030 C 
BRANCH  82  86
ATOM     86  C   UNL A   1      32.297  24.784  24.849  1.00  0.00     0.228 C 
ATOM     87  O   UNL A   1      31.114  24.668  24.480  1.00  0.00    -0.274 OA
ATOM     88  N   UNL A   1      33.015  23.719  24.432  1.00  0.00    -0.325 N 
ATOM     89  H   UNL A   1      32.461  23.184  23.818  1.00  0.00     0.169 HD
BRANCH  88  90
ATOM     90  C   UNL A   1      34.267  23.104  24.562  1.00  0.00     0.054 A 
ATOM     91  C   UNL A   1      35.077  23.334  23.421  1.00  0.00     0.027 A 
ATOM     92  C   UNL A   1      34.772  22.255  25.559  1.00  0.00     0.063 A 
ATOM     93  C   UNL A   1      36.403  22.912  23.342  1.00  0.00     0.002 A 
ATOM     94  C   UNL A   1      36.149  21.915  25.503  1.00  0.00     0.016 A 
ATOM     95  C   UNL A   1      36.961  22.249  24.418  1.00  0.00     0.001 A 
BRANCH  92  96
ATOM     96  C   UNL A   1      34.049  21.475  26.621  1.00  0.00     0.253 C 
ATOM     97  O   UNL A   1      34.167  21.835  27.794  1.00  0.00    -0.269 OA
ATOM     98  N   UNL A   1      33.335  20.326  26.394  1.00  0.00    -0.345 N 
ATOM     99  H   UNL A   1      33.113  19.807  27.200  1.00  0.00     0.164 HD
BRANCH  98 100
ATOM    100  C   UNL A   1      32.861  19.764  25.160  1.00  0.00     0.191 C 
BRANCH 100 101
ATOM    101  C   UNL A   1      33.328  18.384  24.928  1.00  0.00     0.122 A 
ATOM    102  C   UNL A   1      34.353  17.852  24.179  1.00  0.00     0.047 A 
ATOM    103  O   UNL A   1      32.512  17.386  25.381  1.00  0.00    -0.467 OA
ATOM    104  C   UNL A   1      34.116  16.457  24.120  1.00  0.00     0.042 A 
ATOM    105  C   UNL A   1      32.985  16.224  24.866  1.00  0.00     0.195 A 
ENDBRANCH 100 101
ENDBRANCH  98 100
ENDBRANCH  92  96
ENDBRANCH  88  90
ENDBRANCH  82  86
ENDBRANCH  77  80
ENDBRANCH   1  76
TORSDOF 18
ENDMDL
MODEL 2
REMARK VINA RESULT:     -13.6      2.426      3.497
REMARK SMILES O=C(NCCCNC(=O)[C@H]1CC=CC[C@@H]1C(=O)Nc1ccccc1C(=O)NCc1ccco1)c1ccc(-c2c3nc(c(-c4c(F)cc(S(=O)(=O)[O-])cc4F)c4ccc([nH]4)c(-c4c(F)cc(S(=O)(=O)[O-])cc4F)c4nc(c(-c5c(F)cc(S(=O)(=O)[O-])cc5F)c5ccc2[nH]5)C=C4)C=C3)cc1
REMARK SMILES IDX 6 1 5 2 4 3 3 4 1 5 2 6 34 8 35 9 99 10 36 11 98 12 37 13
REMARK SMILES IDX 38 14 39 15 92 16 40 17 97 18 91 19 93 20 41 21 96 22 90 23
REMARK SMILES IDX 89 24 42 26 76 27 55 28 75 29 56 30 59 31 74 32 94 33 57 34
REMARK SMILES IDX 58 35 73 37 95 38 60 39 43 40 44 41 53 42 45 43 46 44 52 45
REMARK SMILES IDX 54 46 47 47 48 48 49 49 50 50 51 51 77 52 78 53 87 54 79 55
REMARK SMILES IDX 80 56 86 57 88 58 81 59 82 60 83 61 84 62 85 63 61 64 62 65
REMARK SMILES IDX 71 66 63 67 64 68 70 69 72 70 65 71 66 72 67 73 68 74 69 75
REMARK SMILES IDX 7 76 8 77 9 79 10 80 11 81 15 82 12 83 14 84 13 85 16 86
REMARK SMILES IDX 17 87 18 88 19 90 20 91 24 92 21 93 23 94 22 95 25 96 26 97
REMARK SMILES IDX 27 98 28 100 29 101 30 102 33 103 31 104 32 105
REMARK H PARENT 3 7 93 25 59 36 7 78 18 89 27 99
REMARK Flexibility Score: inf
ROOT
ATOM      1  C   UNL A   1      31.803  27.801  26.165  1.00  0.00     0.117 C 
ENDROOT
BRANCH   1   2
ATOM      2  C   UNL A   1      32.201  28.473  27.471  1.00  0.00     0.042 C 
BRANCH   2   3
ATOM      3  C   UNL A   1      33.657  28.912  27.485  1.00  0.00     0.118 C 
BRANCH   3   4
ATOM      4  N   UNL A   1      33.783  30.292  27.915  1.00  0.00    -0.352 N 
ATOM      5  O   UNL A   1      34.549  31.931  29.244  1.00  0.00    -0.269 OA
ATOM      6  C   UNL A   1      34.779  30.879  28.658  1.00  0.00     0.251 C 
ATOM      7  H   UNL A   1      33.054  30.892  27.635  1.00  0.00     0.163 HD
BRANCH   6   8
ATOM      8  C   UNL A   1      36.116  30.250  28.742  1.00  0.00     0.039 A 
ATOM      9  C   UNL A   1      36.996  30.303  27.658  1.00  0.00     0.014 A 
ATOM     10  C   UNL A   1      36.544  29.699  29.955  1.00  0.00     0.014 A 
ATOM     11  C   UNL A   1      38.254  29.723  27.744  1.00  0.00     0.010 A 
ATOM     12  C   UNL A   1      37.854  29.226  30.081  1.00  0.00     0.010 A 
ATOM     13  C   UNL A   1      38.722  29.253  28.979  1.00  0.00    -0.014 A 
BRANCH  13  14
ATOM     14  C   UNL A   1      40.176  29.006  29.135  1.00  0.00     0.031 A 
ATOM     15  C   UNL A   1      41.113  30.083  29.585  1.00  0.00     0.074 A 
ATOM     16  C   UNL A   1      40.629  27.770  28.836  1.00  0.00     0.049 A 
ATOM     17  N   UNL A   1      42.413  30.032  29.713  1.00  0.00    -0.248 NA
ATOM     18  C   UNL A   1      40.527  31.389  29.927  1.00  0.00     0.031 C 
ATOM     19  C   UNL A   1      39.793  26.660  28.358  1.00  0.00     0.029 A 
ATOM     20  N   UNL A   1      41.886  27.228  28.885  1.00  0.00    -0.354 N 
ATOM     21  C   UNL A   1      42.808  31.299  30.117  1.00  0.00     0.074 A 
ATOM     22  C   UNL A   1      41.609  32.105  30.215  1.00  0.00     0.031 C 
ATOM     23  C   UNL A   1      40.550  25.567  28.195  1.00  0.00     0.029 A 
ATOM     24  C   UNL A   1      41.936  25.918  28.466  1.00  0.00     0.049 A 
ATOM     25  H   UNL A   1      42.678  27.727  29.190  1.00  0.00     0.167 HD
ATOM     26  C   UNL A   1      44.063  31.739  30.374  1.00  0.00     0.037 A 
ATOM     27  C   UNL A   1      42.985  25.098  28.271  1.00  0.00     0.037 A 
ATOM     28  C   UNL A   1      45.237  30.905  30.295  1.00  0.00     0.049 A 
ATOM     29  C   UNL A   1      44.361  25.626  28.545  1.00  0.00     0.074 A 
ATOM     30  C   UNL A   1      46.542  31.230  30.618  1.00  0.00     0.029 A 
ATOM     31  N   UNL A   1      45.250  29.590  29.851  1.00  0.00    -0.354 N 
ATOM     32  N   UNL A   1      44.709  26.809  28.993  1.00  0.00    -0.248 NA
ATOM     33  C   UNL A   1      45.486  24.724  28.273  1.00  0.00     0.031 C 
ATOM     34  C   UNL A   1      47.353  30.132  30.315  1.00  0.00     0.029 A 
ATOM     35  C   UNL A   1      46.547  29.106  29.848  1.00  0.00     0.049 A 
ATOM     36  H   UNL A   1      44.454  29.078  29.577  1.00  0.00     0.167 HD
ATOM     37  C   UNL A   1      46.095  26.795  29.054  1.00  0.00     0.074 A 
ATOM     38  C   UNL A   1      46.518  25.476  28.629  1.00  0.00     0.031 C 
ATOM     39  C   UNL A   1      46.942  27.788  29.414  1.00  0.00     0.037 A 
BRANCH  26  40
ATOM     40  C   UNL A   1      44.257  33.183  30.742  1.00  0.00     0.058 A 
ATOM     41  C   UNL A   1      44.479  34.174  29.775  1.00  0.00     0.135 A 
ATOM     42  C   UNL A   1      44.106  33.593  32.078  1.00  0.00     0.135 A 
ATOM     43  F   UNL A   1      44.644  33.836  28.486  1.00  0.00    -0.206 F 
ATOM     44  C   UNL A   1      44.541  35.522  30.117  1.00  0.00     0.059 A 
ATOM     45  C   UNL A   1      44.146  34.937  32.440  1.00  0.00     0.059 A 
ATOM     46  F   UNL A   1      43.897  32.685  33.044  1.00  0.00    -0.206 F 
ATOM     47  C   UNL A   1      44.365  35.895  31.452  1.00  0.00     0.060 A 
BRANCH  47  48
ATOM     48  S   UNL A   1      44.391  37.652  31.869  1.00  0.00     0.124 S 
ATOM     49  O   UNL A   1      43.917  38.254  30.626  1.00  0.00    -0.237 OA
ATOM     50  O   UNL A   1      43.468  37.718  32.996  1.00  0.00    -0.237 OA
ATOM     51  O   UNL A   1      45.792  37.905  32.193  1.00  0.00    -0.744 OA
ENDBRANCH  47  48
ENDBRANCH  26  40
BRANCH  27  52
ATOM     52  C   UNL A   1      42.772  23.733  27.721  1.00  0.00     0.058 A 
ATOM     53  C   UNL A   1      42.711  23.505  26.339  1.00  0.00     0.135 A 
ATOM     54  C   UNL A   1      42.631  22.625  28.574  1.00  0.00     0.135 A 
ATOM     55  F   UNL A   1      42.840  24.529  25.484  1.00  0.00    -0.206 F 
ATOM     56  C   UNL A   1      42.490  22.231  25.822  1.00  0.00     0.059 A 
ATOM     57  C   UNL A   1      42.442  21.340  28.081  1.00  0.00     0.059 A 
ATOM     58  F   UNL A   1      42.703  22.786  29.904  1.00  0.00    -0.206 F 
ATOM     59  C   UNL A   1      42.353  21.156  26.702  1.00  0.00     0.060 A 
BRANCH  59  60
ATOM     60  S   UNL A   1      42.080  19.505  26.025  1.00  0.00     0.124 S 
ATOM     61  O   UNL A   1      42.488  18.662  27.142  1.00  0.00    -0.237 OA
ATOM     62  O   UNL A   1      40.651  19.525  25.728  1.00  0.00    -0.237 OA
ATOM     63  O   UNL A   1      42.954  19.475  24.856  1.00  0.00    -0.744 OA
ENDBRANCH  59  60
ENDBRANCH  27  52
BRANCH  39  64
ATOM     64  C   UNL A   1      48.409  27.482  29.363  1.00  0.00     0.058 A 
ATOM     65  C   UNL A   1      49.157  27.701  28.195  1.00  0.00     0.135 A 
ATOM     66  C   UNL A   1      49.084  27.017  30.502  1.00  0.00     0.135 A 
ATOM     67  F   UNL A   1      48.553  28.129  27.076  1.00  0.00    -0.206 F 
ATOM     68  C   UNL A   1      50.525  27.457  28.157  1.00  0.00     0.059 A 
ATOM     69  C   UNL A   1      50.456  26.793  30.494  1.00  0.00     0.059 A 
ATOM     70  F   UNL A   1      48.412  26.797  31.644  1.00  0.00    -0.206 F 
ATOM     71  C   UNL A   1      51.166  27.009  29.313  1.00  0.00     0.060 A 
BRANCH  71  72
ATOM     72  S   UNL A   1      52.950  26.749  29.263  1.00  0.00     0.124 S 
ATOM     73  O   UNL A   1      53.159  25.911  30.439  1.00  0.00    -0.237 OA
ATOM     74  O   UNL A   1      53.134  26.089  27.973  1.00  0.00    -0.237 OA
ATOM     75  O   UNL A   1      53.493  28.102  29.351  1.00  0.00    -0.744 OA
ENDBRANCH  71  72
ENDBRANCH  39  64
ENDBRANCH  13  14
ENDBRANCH   6   8
ENDBRANCH   3   4
ENDBRANCH   2   3
ENDBRANCH   1   2
BRANCH   1  76
ATOM     76  N   UNL A   1      31.037  26.602  26.421  1.00  0.00    -0.356 N 
ATOM     77  C   UNL A   1      30.235  25.809  25.681  1.00  0.00     0.224 C 
ATOM     78  H   UNL A   1      31.119  26.291  27.351  1.00  0.00     0.163 HD
ATOM     79  O   UNL A   1      29.563  25.034  26.378  1.00  0.00    -0.275 OA
BRANCH  77  80
ATOM     80  C   UNL A   1      30.208  25.676  24.140  1.00  0.00     0.095 C 
ATOM     81  C   UNL A   1      28.822  26.177  23.657  1.00  0.00     0.041 C 
ATOM     82  C   UNL A   1      31.356  26.165  23.239  1.00  0.00     0.095 C 
ATOM     83  C   UNL A   1      28.788  27.642  23.382  1.00  0.00    -0.030 C 
ATOM     84  C   UNL A   1      31.192  27.644  22.748  1.00  0.00     0.041 C 
ATOM     85  C   UNL A   1      29.875  28.307  22.988  1.00  0.00    -0.030 C 
BRANCH  82  86
ATOM     86  C   UNL A   1      31.833  25.310  22.043  1.00  0.00     0.228 C 
ATOM     87  O   UNL A   1      31.780  25.783  20.894  1.00  0.00    -0.274 OA
ATOM     88  N   UNL A   1      32.529  24.152  22.032  1.00  0.00    -0.325 N 
ATOM     89  H   UNL A   1      32.945  24.041  21.147  1.00  0.00     0.169 HD
BRANCH  88  90
ATOM     90  C   UNL A   1      32.869  23.054  22.833  1.00  0.00     0.054 A 
ATOM     91  C   UNL A   1      31.723  22.296  23.184  1.00  0.00     0.027 A 
ATOM     92  C   UNL A   1      34.098  22.673  23.392  1.00  0.00     0.063 A 
ATOM     93  C   UNL A   1      31.801  21.100  23.894  1.00  0.00     0.002 A 
ATOM     94  C   UNL A   1      34.171  21.407  24.031  1.00  0.00     0.016 A 
ATOM     95  C   UNL A   1      33.041  20.621  24.268  1.00  0.00     0.001 A 
BRANCH  92  96
ATOM     96  C   UNL A   1      35.358  23.469  23.590  1.00  0.00     0.253 C 
ATOM     97  O   UNL A   1      36.310  23.254  22.837  1.00  0.00    -0.269 OA
ATOM     98  N   UNL A   1      35.564  24.359  24.613  1.00  0.00    -0.345 N 
ATOM     99  H   UNL A   1      36.501  24.628  24.747  1.00  0.00     0.164 HD
BRANCH  98 100
ATOM    100  C   UNL A   1      34.623  24.959  25.517  1.00  0.00     0.191 C 
BRANCH 100 101
ATOM    101  C   UNL A   1      34.017  23.994  26.454  1.00  0.00     0.122 A 
ATOM    102  C   UNL A   1      34.537  22.977  27.222  1.00  0.00     0.047 A 
ATOM    103  O   UNL A   1      32.652  23.940  26.467  1.00  0.00    -0.467 OA
ATOM    104  C   UNL A   1      33.430  22.222  27.680  1.00  0.00     0.042 A 
ATOM    105  C   UNL A   1      32.306  22.848  27.195  1.00  0.00     0.195 A 
ENDBRANCH 100 101
ENDBRANCH  98 100
ENDBRANCH  92  96
ENDBRANCH  88  90
ENDBRANCH  82  86
ENDBRANCH  77  80
ENDBRANCH   1  76
TORSDOF 18
ENDMDL
MODEL 3
REMARK VINA RESULT:     -13.5      2.723      8.411
REMARK SMILES O=C(NCCCNC(=O)[C@H]1CC=CC[C@@H]1C(=O)Nc1ccccc1C(=O)NCc1ccco1)c1ccc(-c2c3nc(c(-c4c(F)cc(S(=O)(=O)[O-])cc4F)c4ccc([nH]4)c(-c4c(F)cc(S(=O)(=O)[O-])cc4F)c4nc(c(-c5c(F)cc(S(=O)(=O)[O-])cc5F)c5ccc2[nH]5)C=C4)C=C3)cc1
REMARK SMILES IDX 6 1 5 2 4 3 3 4 1 5 2 6 34 8 35 9 99 10 36 11 98 12 37 13
REMARK SMILES IDX 38 14 39 15 92 16 40 17 97 18 91 19 93 20 41 21 96 22 90 23
REMARK SMILES IDX 89 24 42 26 76 27 55 28 75 29 56 30 59 31 74 32 94 33 57 34
REMARK SMILES IDX 58 35 73 37 95 38 60 39 43 40 44 41 53 42 45 43 46 44 52 45
REMARK SMILES IDX 54 46 47 47 48 48 49 49 50 50 51 51 77 52 78 53 87 54 79 55
REMARK SMILES IDX 80 56 86 57 88 58 81 59 82 60 83 61 84 62 85 63 61 64 62 65
REMARK SMILES IDX 71 66 63 67 64 68 70 69 72 70 65 71 66 72 67 73 68 74 69 75
REMARK SMILES IDX 7 76 8 77 9 79 10 80 11 81 15 82 12 83 14 84 13 85 16 86
REMARK SMILES IDX 17 87 18 88 19 90 20 91 24 92 21 93 23 94 22 95 25 96 26 97
REMARK SMILES IDX 27 98 28 100 29 101 30 102 33 103 31 104 32 105
REMARK H PARENT 3 7 93 25 59 36 7 78 18 89 27 99
REMARK Flexibility Score: inf
ROOT
ATOM      1  C   UNL A   1      31.527  28.076  26.655  1.00  0.00     0.117 C 
ENDROOT
BRANCH   1   2
ATOM      2  C   UNL A   1      32.808  28.315  27.440  1.00  0.00     0.042 C 
BRANCH   2   3
ATOM      3  C   UNL A   1      33.742  29.300  26.753  1.00  0.00     0.118 C 
BRANCH   3   4
ATOM      4  N   UNL A   1      33.850  30.534  27.510  1.00  0.00    -0.352 N 
ATOM      5  O   UNL A   1      34.506  31.780  29.258  1.00  0.00    -0.269 OA
ATOM      6  C   UNL A   1      34.775  30.886  28.463  1.00  0.00     0.251 C 
ATOM      7  H   UNL A   1      33.164  31.214  27.314  1.00  0.00     0.163 HD
BRANCH   6   8
ATOM      8  C   UNL A   1      36.084  30.198  28.522  1.00  0.00     0.039 A 
ATOM      9  C   UNL A   1      36.991  30.304  27.464  1.00  0.00     0.014 A 
ATOM     10  C   UNL A   1      36.461  29.531  29.692  1.00  0.00     0.014 A 
ATOM     11  C   UNL A   1      38.223  29.669  27.527  1.00  0.00     0.010 A 
ATOM     12  C   UNL A   1      37.748  28.996  29.805  1.00  0.00     0.010 A 
ATOM     13  C   UNL A   1      38.642  29.079  28.727  1.00  0.00    -0.014 A 
BRANCH  13  14
ATOM     14  C   UNL A   1      40.082  28.760  28.892  1.00  0.00     0.031 A 
ATOM     15  C   UNL A   1      40.649  27.444  28.461  1.00  0.00     0.074 A 
ATOM     16  C   UNL A   1      40.862  29.700  29.466  1.00  0.00     0.049 A 
ATOM     17  N   UNL A   1      41.872  27.001  28.592  1.00  0.00    -0.248 NA
ATOM     18  C   UNL A   1      39.734  26.494  27.809  1.00  0.00     0.031 C 
ATOM     19  C   UNL A   1      40.391  31.006  29.948  1.00  0.00     0.029 A 
ATOM     20  N   UNL A   1      42.203  29.719  29.744  1.00  0.00    -0.354 N 
ATOM     21  C   UNL A   1      41.872  25.714  28.072  1.00  0.00     0.074 A 
ATOM     22  C   UNL A   1      40.524  25.441  27.620  1.00  0.00     0.031 C 
ATOM     23  C   UNL A   1      41.427  31.707  30.424  1.00  0.00     0.029 A 
ATOM     24  C   UNL A   1      42.618  30.873  30.369  1.00  0.00     0.049 A 
ATOM     25  H   UNL A   1      42.813  28.979  29.518  1.00  0.00     0.167 HD
ATOM     26  C   UNL A   1      42.909  24.847  27.992  1.00  0.00     0.037 A 
ATOM     27  C   UNL A   1      43.812  31.209  30.889  1.00  0.00     0.037 A 
ATOM     28  C   UNL A   1      44.249  25.158  28.425  1.00  0.00     0.049 A 
ATOM     29  C   UNL A   1      44.931  30.216  30.801  1.00  0.00     0.074 A 
ATOM     30  C   UNL A   1      45.389  24.382  28.308  1.00  0.00     0.029 A 
ATOM     31  N   UNL A   1      44.626  26.328  29.068  1.00  0.00    -0.354 N 
ATOM     32  N   UNL A   1      44.928  29.028  30.243  1.00  0.00    -0.248 NA
ATOM     33  C   UNL A   1      46.206  30.592  31.422  1.00  0.00     0.031 C 
ATOM     34  C   UNL A   1      46.442  25.057  28.932  1.00  0.00     0.029 A 
ATOM     35  C   UNL A   1      45.971  26.275  29.395  1.00  0.00     0.049 A 
ATOM     36  H   UNL A   1      44.026  27.084  29.264  1.00  0.00     0.167 HD
ATOM     37  C   UNL A   1      46.200  28.513  30.449  1.00  0.00     0.074 A 
ATOM     38  C   UNL A   1      46.954  29.532  31.153  1.00  0.00     0.031 C 
ATOM     39  C   UNL A   1      46.696  27.302  30.102  1.00  0.00     0.037 A 
BRANCH  26  40
ATOM     40  C   UNL A   1      42.655  23.472  27.440  1.00  0.00     0.058 A 
ATOM     41  C   UNL A   1      42.815  23.176  26.079  1.00  0.00     0.135 A 
ATOM     42  C   UNL A   1      42.355  22.410  28.312  1.00  0.00     0.135 A 
ATOM     43  F   UNL A   1      43.088  24.154  25.202  1.00  0.00    -0.206 F 
ATOM     44  C   UNL A   1      42.691  21.875  25.600  1.00  0.00     0.059 A 
ATOM     45  C   UNL A   1      42.245  21.100  27.857  1.00  0.00     0.059 A 
ATOM     46  F   UNL A   1      42.187  22.640  29.624  1.00  0.00    -0.206 F 
ATOM     47  C   UNL A   1      42.414  20.841  26.498  1.00  0.00     0.060 A 
BRANCH  47  48
ATOM     48  S   UNL A   1      42.313  19.152  25.867  1.00  0.00     0.124 S 
ATOM     49  O   UNL A   1      40.879  19.016  25.627  1.00  0.00    -0.237 OA
ATOM     50  O   UNL A   1      43.150  19.215  24.674  1.00  0.00    -0.237 OA
ATOM     51  O   UNL A   1      42.845  18.346  26.961  1.00  0.00    -0.744 OA
ENDBRANCH  47  48
ENDBRANCH  26  40
BRANCH  27  52
ATOM     52  C   UNL A   1      43.978  32.505  31.600  1.00  0.00     0.058 A 
ATOM     53  C   UNL A   1      43.761  32.612  32.981  1.00  0.00     0.135 A 
ATOM     54  C   UNL A   1      44.364  33.665  30.907  1.00  0.00     0.135 A 
ATOM     55  F   UNL A   1      43.392  31.533  33.688  1.00  0.00    -0.206 F 
ATOM     56  C   UNL A   1      43.895  33.828  33.645  1.00  0.00     0.059 A 
ATOM     57  C   UNL A   1      44.535  34.882  31.554  1.00  0.00     0.059 A 
ATOM     58  F   UNL A   1      44.605  33.612  29.587  1.00  0.00    -0.206 F 
ATOM     59  C   UNL A   1      44.279  34.958  32.921  1.00  0.00     0.060 A 
BRANCH  59  60
ATOM     60  S   UNL A   1      44.462  36.529  33.791  1.00  0.00     0.124 S 
ATOM     61  O   UNL A   1      45.875  36.499  34.150  1.00  0.00    -0.237 OA
ATOM     62  O   UNL A   1      44.083  37.497  32.767  1.00  0.00    -0.237 OA
ATOM     63  O   UNL A   1      43.525  36.406  34.904  1.00  0.00    -0.744 OA
ENDBRANCH  59  60
ENDBRANCH  27  52
BRANCH  39  64
ATOM     64  C   UNL A   1      48.119  27.016  30.479  1.00  0.00     0.058 A 
ATOM     65  C   UNL A   1      49.184  27.414  29.656  1.00  0.00     0.135 A 
ATOM     66  C   UNL A   1      48.424  26.386  31.695  1.00  0.00     0.135 A 
ATOM     67  F   UNL A   1      48.941  28.005  28.475  1.00  0.00    -0.206 F 
ATOM     68  C   UNL A   1      50.505  27.187  30.022  1.00  0.00     0.059 A 
ATOM     69  C   UNL A   1      49.739  26.174  32.094  1.00  0.00     0.059 A 
ATOM     70  F   UNL A   1      47.439  25.990  32.518  1.00  0.00    -0.206 F 
ATOM     71  C   UNL A   1      50.772  26.571  31.246  1.00  0.00     0.060 A 
BRANCH  71  72
ATOM     72  S   UNL A   1      52.493  26.332  31.733  1.00  0.00     0.124 S 
ATOM     73  O   UNL A   1      52.487  24.937  32.158  1.00  0.00    -0.237 OA
ATOM     74  O   UNL A   1      53.210  26.615  30.493  1.00  0.00    -0.237 OA
ATOM     75  O   UNL A   1      52.684  27.313  32.797  1.00  0.00    -0.744 OA
ENDBRANCH  71  72
ENDBRANCH  39  64
ENDBRANCH  13  14
ENDBRANCH   6   8
ENDBRANCH   3   4
ENDBRANCH   2   3
ENDBRANCH   1   2
BRANCH   1  76
ATOM     76  N   UNL A   1      31.025  26.741  26.892  1.00  0.00    -0.356 N 
ATOM     77  C   UNL A   1      30.592  25.734  26.107  1.00  0.00     0.224 C 
ATOM     78  H   UNL A   1      30.994  26.513  27.849  1.00  0.00     0.163 HD
ATOM     79  O   UNL A   1      29.993  24.858  26.749  1.00  0.00    -0.275 OA
BRANCH  77  80
ATOM     80  C   UNL A   1      30.899  25.512  24.607  1.00  0.00     0.095 C 
ATOM     81  C   UNL A   1      29.795  26.239  23.796  1.00  0.00     0.041 C 
ATOM     82  C   UNL A   1      32.300  25.713  24.004  1.00  0.00     0.095 C 
ATOM     83  C   UNL A   1      30.123  27.664  23.500  1.00  0.00    -0.030 C 
ATOM     84  C   UNL A   1      32.558  27.163  23.466  1.00  0.00     0.041 C 
ATOM     85  C   UNL A   1      31.383  28.081  23.370  1.00  0.00    -0.030 C 
BRANCH  82  86
ATOM     86  C   UNL A   1      32.860  24.709  22.971  1.00  0.00     0.228 C 
ATOM     87  O   UNL A   1      32.475  24.767  21.789  1.00  0.00    -0.274 OA
ATOM     88  N   UNL A   1      33.907  23.861  23.072  1.00  0.00    -0.325 N 
ATOM     89  H   UNL A   1      34.198  23.609  22.166  1.00  0.00     0.169 HD
BRANCH  88  90
ATOM     90  C   UNL A   1      34.725  23.213  24.007  1.00  0.00     0.054 A 
ATOM     91  C   UNL A   1      35.967  22.839  23.435  1.00  0.00     0.027 A 
ATOM     92  C   UNL A   1      34.467  22.811  25.326  1.00  0.00     0.063 A 
ATOM     93  C   UNL A   1      36.996  22.267  24.180  1.00  0.00     0.002 A 
ATOM     94  C   UNL A   1      35.556  22.315  26.091  1.00  0.00     0.016 A 
ATOM     95  C   UNL A   1      36.809  22.059  25.533  1.00  0.00     0.001 A 
BRANCH  92  96
ATOM     96  C   UNL A   1      33.159  22.647  26.049  1.00  0.00     0.253 C 
ATOM     97  O   UNL A   1      32.935  23.368  27.023  1.00  0.00    -0.269 OA
ATOM     98  N   UNL A   1      32.225  21.684  25.761  1.00  0.00    -0.345 N 
ATOM     99  H   UNL A   1      31.537  21.553  26.452  1.00  0.00     0.164 HD
BRANCH  98 100
ATOM    100  C   UNL A   1      32.099  20.839  24.607  1.00  0.00     0.191 C 
BRANCH 100 101
ATOM    101  C   UNL A   1      32.820  19.559  24.738  1.00  0.00     0.122 A 
ATOM    102  C   UNL A   1      34.146  19.210  24.610  1.00  0.00     0.047 A 
ATOM    103  O   UNL A   1      32.047  18.436  24.830  1.00  0.00    -0.467 OA
ATOM    104  C   UNL A   1      34.179  17.795  24.559  1.00  0.00     0.042 A 
ATOM    105  C   UNL A   1      32.878  17.372  24.698  1.00  0.00     0.195 A 
ENDBRANCH 100 101
ENDBRANCH  98 100
ENDBRANCH  92  96
ENDBRANCH  88  90
ENDBRANCH  82  86
ENDBRANCH  77  80
ENDBRANCH   1  76
TORSDOF 18
ENDMDL
