MODEL 1
REMARK VINA RESULT:     -12.7      0.000      0.000
REMARK SMILES CN(C(=O)C[C@@H]1SC(=O)N(c2ccccc2)C1=O)c1ccccc1C(=O)NCCCNC(=O)c1ccc(-c2c3nc(c(-c4c(F)cc(S(=O)(=O)[O-])cc4F)c4ccc([nH]4)c(-c4c(F)cc(S(=O)(=O)[O-])cc4F)c4nc(c(-c5c(F)cc(S(=O)(=O)[O-])cc5F)c5ccc2[nH]5)C=C4)C=C3)cc1
REMARK SMILES IDX 28 1 27 2 25 3 26 4 24 6 19 7 20 8 21 9 23 10 22 11 2 12
REMARK SMILES IDX 1 13 3 14 4 15 5 16 6 17 7 18 17 19 8 20 10 21 18 22 9 23
REMARK SMILES IDX 11 24 12 25 16 26 13 27 15 28 14 29 29 30 30 31 31 32 32 33
REMARK SMILES IDX 33 35 34 36 35 37 99 38 36 39 98 40 37 41 38 42 39 43 92 44
REMARK SMILES IDX 40 45 97 46 91 47 93 48 41 49 96 50 90 51 89 52 42 54 76 55
REMARK SMILES IDX 55 56 75 57 56 58 59 59 74 60 94 61 57 62 58 63 73 65 95 66
REMARK SMILES IDX 60 67 43 68 44 69 53 70 45 71 46 72 52 73 54 74 47 75 48 76
REMARK SMILES IDX 49 77 50 78 51 79 77 80 78 81 87 82 79 83 80 84 86 85 88 86
REMARK SMILES IDX 81 87 82 88 83 89 84 90 85 91 61 92 62 93 71 94 63 95 64 96
REMARK SMILES IDX 70 97 72 98 65 99 66 100 67 101 68 102 69 103
REMARK H PARENT 27 5 31 34 93 53 59 64
REMARK Flexibility Score: inf
ROOT
ATOM      1  C   UNL A   1      37.153  21.854  25.715  1.00  0.00     0.118 C 
ENDROOT
BRANCH   1   2
ATOM      2  N   UNL A   1      35.906  21.874  26.420  1.00  0.00    -0.352 N 
ATOM      3  C   UNL A   1      34.574  21.820  26.192  1.00  0.00     0.253 C 
ATOM      4  O   UNL A   1      33.975  21.874  27.281  1.00  0.00    -0.269 OA
ATOM      5  H   UNL A   1      36.073  21.955  27.386  1.00  0.00     0.163 HD
BRANCH   3   6
ATOM      6  C   UNL A   1      33.744  21.677  24.931  1.00  0.00     0.063 A 
ATOM      7  C   UNL A   1      33.396  22.512  23.832  1.00  0.00     0.056 A 
ATOM      8  C   UNL A   1      32.644  21.926  22.771  1.00  0.00     0.027 A 
ATOM      9  C   UNL A   1      32.132  20.630  22.801  1.00  0.00     0.002 A 
ATOM     10  C   UNL A   1      33.187  20.353  24.911  1.00  0.00     0.016 A 
ATOM     11  C   UNL A   1      32.389  19.841  23.891  1.00  0.00     0.001 A 
BRANCH   7  12
ATOM     12  N   UNL A   1      33.718  23.920  23.642  1.00  0.00    -0.315 N 
ATOM     13  C   UNL A   1      35.152  24.204  23.699  1.00  0.00     0.153 C 
BRANCH  12  14
ATOM     14  C   UNL A   1      32.974  24.676  22.684  1.00  0.00     0.228 C 
ATOM     15  O   UNL A   1      33.137  24.615  21.461  1.00  0.00    -0.274 OA
BRANCH  14  16
ATOM     16  C   UNL A   1      31.784  25.505  23.180  1.00  0.00     0.125 C 
BRANCH  16  17
ATOM     17  C   UNL A   1      32.092  26.126  24.533  1.00  0.00     0.156 C 
ATOM     18  S   UNL A   1      30.642  26.440  25.591  1.00  0.00    -0.050 SA
ATOM     19  C   UNL A   1      32.859  27.449  24.646  1.00  0.00     0.248 C 
ATOM     20  C   UNL A   1      31.599  27.444  26.639  1.00  0.00     0.293 C 
ATOM     21  N   UNL A   1      32.672  27.955  25.942  1.00  0.00    -0.240 N 
ATOM     22  O   UNL A   1      33.622  27.852  23.778  1.00  0.00    -0.273 OA
ATOM     23  O   UNL A   1      31.283  27.583  27.811  1.00  0.00    -0.261 OA
BRANCH  21  24
ATOM     24  C   UNL A   1      33.484  28.953  26.550  1.00  0.00     0.053 A 
ATOM     25  C   UNL A   1      33.017  30.249  26.759  1.00  0.00     0.027 A 
ATOM     26  C   UNL A   1      34.762  28.617  27.043  1.00  0.00     0.027 A 
ATOM     27  C   UNL A   1      33.786  31.151  27.505  1.00  0.00     0.002 A 
ATOM     28  C   UNL A   1      35.552  29.544  27.725  1.00  0.00     0.002 A 
ATOM     29  C   UNL A   1      35.058  30.817  27.961  1.00  0.00     0.000 A 
ENDBRANCH  21  24
ENDBRANCH  16  17
ENDBRANCH  14  16
ENDBRANCH  12  14
ENDBRANCH   7  12
ENDBRANCH   3   6
ENDBRANCH   1   2
BRANCH   1  30
ATOM     30  C   UNL A   1      37.713  23.253  25.587  1.00  0.00     0.042 C 
BRANCH  30  31
ATOM     31  C   UNL A   1      38.717  23.656  26.665  1.00  0.00     0.118 C 
BRANCH  31  32
ATOM     32  N   UNL A   1      40.114  23.683  26.258  1.00  0.00    -0.352 N 
ATOM     33  C   UNL A   1      41.176  24.475  26.632  1.00  0.00     0.251 C 
ATOM     34  H   UNL A   1      40.343  23.005  25.582  1.00  0.00     0.163 HD
ATOM     35  O   UNL A   1      42.273  24.186  26.152  1.00  0.00    -0.269 OA
BRANCH  33  36
ATOM     36  C   UNL A   1      41.055  25.654  27.533  1.00  0.00     0.039 A 
ATOM     37  C   UNL A   1      40.008  25.674  28.466  1.00  0.00     0.014 A 
ATOM     38  C   UNL A   1      41.906  26.749  27.485  1.00  0.00     0.014 A 
ATOM     39  C   UNL A   1      39.869  26.735  29.379  1.00  0.00     0.010 A 
ATOM     40  C   UNL A   1      41.833  27.741  28.466  1.00  0.00     0.010 A 
ATOM     41  C   UNL A   1      40.820  27.760  29.437  1.00  0.00    -0.014 A 
BRANCH  41  42
ATOM     42  C   UNL A   1      40.820  28.844  30.478  1.00  0.00     0.031 A 
ATOM     43  C   UNL A   1      41.533  28.626  31.800  1.00  0.00     0.074 A 
ATOM     44  C   UNL A   1      40.031  29.935  30.338  1.00  0.00     0.049 A 
ATOM     45  N   UNL A   1      41.422  29.283  32.930  1.00  0.00    -0.248 NA
ATOM     46  C   UNL A   1      42.455  27.479  31.877  1.00  0.00     0.031 C 
ATOM     47  C   UNL A   1      39.189  30.247  29.178  1.00  0.00     0.029 A 
ATOM     48  N   UNL A   1      39.713  30.931  31.242  1.00  0.00    -0.354 N 
ATOM     49  C   UNL A   1      42.251  28.626  33.838  1.00  0.00     0.074 A 
ATOM     50  C   UNL A   1      42.756  27.451  33.167  1.00  0.00     0.031 C 
ATOM     51  C   UNL A   1      38.393  31.288  29.470  1.00  0.00     0.029 A 
ATOM     52  C   UNL A   1      38.647  31.710  30.843  1.00  0.00     0.049 A 
ATOM     53  H   UNL A   1      40.200  31.070  32.086  1.00  0.00     0.167 HD
ATOM     54  C   UNL A   1      42.619  28.997  35.090  1.00  0.00     0.037 A 
ATOM     55  C   UNL A   1      37.901  32.608  31.516  1.00  0.00     0.037 A 
ATOM     56  C   UNL A   1      42.167  30.201  35.738  1.00  0.00     0.049 A 
ATOM     57  C   UNL A   1      38.272  32.985  32.922  1.00  0.00     0.074 A 
ATOM     58  C   UNL A   1      42.609  30.760  36.925  1.00  0.00     0.029 A 
ATOM     59  N   UNL A   1      41.167  31.031  35.256  1.00  0.00    -0.354 N 
ATOM     60  N   UNL A   1      39.168  32.444  33.710  1.00  0.00    -0.248 NA
ATOM     61  C   UNL A   1      37.566  34.132  33.510  1.00  0.00     0.031 C 
ATOM     62  C   UNL A   1      41.841  31.899  37.187  1.00  0.00     0.029 A 
ATOM     63  C   UNL A   1      40.960  32.082  36.135  1.00  0.00     0.049 A 
ATOM     64  H   UNL A   1      40.676  30.893  34.414  1.00  0.00     0.167 HD
ATOM     65  C   UNL A   1      39.191  33.237  34.854  1.00  0.00     0.074 A 
ATOM     66  C   UNL A   1      38.197  34.272  34.667  1.00  0.00     0.031 C 
ATOM     67  C   UNL A   1      39.993  33.132  35.941  1.00  0.00     0.037 A 
BRANCH  54  68
ATOM     68  C   UNL A   1      43.625  28.140  35.822  1.00  0.00     0.058 A 
ATOM     69  C   UNL A   1      45.008  28.348  35.669  1.00  0.00     0.135 A 
ATOM     70  C   UNL A   1      43.216  27.161  36.742  1.00  0.00     0.135 A 
ATOM     71  F   UNL A   1      45.464  29.271  34.807  1.00  0.00    -0.206 F 
ATOM     72  C   UNL A   1      45.942  27.591  36.366  1.00  0.00     0.059 A 
ATOM     73  C   UNL A   1      44.134  26.417  37.480  1.00  0.00     0.059 A 
ATOM     74  F   UNL A   1      41.910  26.924  36.941  1.00  0.00    -0.206 F 
ATOM     75  C   UNL A   1      45.497  26.629  37.273  1.00  0.00     0.060 A 
BRANCH  75  76
ATOM     76  S   UNL A   1      46.731  25.678  38.184  1.00  0.00     0.124 S 
ATOM     77  O   UNL A   1      47.551  25.151  37.097  1.00  0.00    -0.237 OA
ATOM     78  O   UNL A   1      47.361  26.701  39.014  1.00  0.00    -0.237 OA
ATOM     79  O   UNL A   1      45.936  24.691  38.905  1.00  0.00    -0.744 OA
ENDBRANCH  75  76
ENDBRANCH  54  68
BRANCH  55  80
ATOM     80  C   UNL A   1      36.727  33.243  30.861  1.00  0.00     0.058 A 
ATOM     81  C   UNL A   1      35.423  32.895  31.240  1.00  0.00     0.135 A 
ATOM     82  C   UNL A   1      36.880  34.194  29.839  1.00  0.00     0.135 A 
ATOM     83  F   UNL A   1      35.230  31.981  32.203  1.00  0.00    -0.206 F 
ATOM     84  C   UNL A   1      34.311  33.446  30.617  1.00  0.00     0.059 A 
ATOM     85  C   UNL A   1      35.781  34.776  29.212  1.00  0.00     0.059 A 
ATOM     86  F   UNL A   1      38.108  34.571  29.450  1.00  0.00    -0.206 F 
ATOM     87  C   UNL A   1      34.499  34.388  29.604  1.00  0.00     0.060 A 
BRANCH  87  88
ATOM     88  S   UNL A   1      33.036  35.118  28.835  1.00  0.00     0.124 S 
ATOM     89  O   UNL A   1      32.607  34.047  27.943  1.00  0.00    -0.237 OA
ATOM     90  O   UNL A   1      32.182  35.366  29.991  1.00  0.00    -0.237 OA
ATOM     91  O   UNL A   1      33.560  36.313  28.180  1.00  0.00    -0.744 OA
ENDBRANCH  87  88
ENDBRANCH  55  80
BRANCH  67  92
ATOM     92  C   UNL A   1      39.915  34.220  36.978  1.00  0.00     0.058 A 
ATOM     93  C   UNL A   1      40.595  35.439  36.841  1.00  0.00     0.135 A 
ATOM     94  C   UNL A   1      39.108  34.045  38.115  1.00  0.00     0.135 A 
ATOM     95  F   UNL A   1      41.388  35.657  35.780  1.00  0.00    -0.206 F 
ATOM     96  C   UNL A   1      40.499  36.437  37.808  1.00  0.00     0.059 A 
ATOM     97  C   UNL A   1      38.971  35.040  39.077  1.00  0.00     0.059 A 
ATOM     98  F   UNL A   1      38.430  32.900  38.294  1.00  0.00    -0.206 F 
ATOM     99  C   UNL A   1      39.682  36.228  38.921  1.00  0.00     0.060 A 
BRANCH  99 100
ATOM    100  S   UNL A   1      39.538  37.542  40.151  1.00  0.00     0.124 S 
ATOM    101  O   UNL A   1      38.997  36.817  41.294  1.00  0.00    -0.237 OA
ATOM    102  O   UNL A   1      40.920  37.996  40.283  1.00  0.00    -0.237 OA
ATOM    103  O   UNL A   1      38.629  38.498  39.526  1.00  0.00    -0.744 OA
ENDBRANCH  99 100
ENDBRANCH  67  92
ENDBRANCH  41  42
ENDBRANCH  33  36
ENDBRANCH  31  32
ENDBRANCH  30  31
ENDBRANCH   1  30
TORSDOF 18
ENDMDL
MODEL 2
REMARK VINA RESULT:     -12.4      1.698      2.185
REMARK SMILES CN(C(=O)C[C@@H]1SC(=O)N(c2ccccc2)C1=O)c1ccccc1C(=O)NCCCNC(=O)c1ccc(-c2c3nc(c(-c4c(F)cc(S(=O)(=O)[O-])cc4F)c4ccc([nH]4)c(-c4c(F)cc(S(=O)(=O)[O-])cc4F)c4nc(c(-c5c(F)cc(S(=O)(=O)[O-])cc5F)c5ccc2[nH]5)C=C4)C=C3)cc1
REMARK SMILES IDX 28 1 27 2 25 3 26 4 24 6 19 7 20 8 21 9 23 10 22 11 2 12
REMARK SMILES IDX 1 13 3 14 4 15 5 16 6 17 7 18 17 19 8 20 10 21 18 22 9 23
REMARK SMILES IDX 11 24 12 25 16 26 13 27 15 28 14 29 29 30 30 31 31 32 32 33
REMARK SMILES IDX 33 35 34 36 35 37 99 38 36 39 98 40 37 41 38 42 39 43 92 44
REMARK SMILES IDX 40 45 97 46 91 47 93 48 41 49 96 50 90 51 89 52 42 54 76 55
REMARK SMILES IDX 55 56 75 57 56 58 59 59 74 60 94 61 57 62 58 63 73 65 95 66
REMARK SMILES IDX 60 67 43 68 44 69 53 70 45 71 46 72 52 73 54 74 47 75 48 76
REMARK SMILES IDX 49 77 50 78 51 79 77 80 78 81 87 82 79 83 80 84 86 85 88 86
REMARK SMILES IDX 81 87 82 88 83 89 84 90 85 91 61 92 62 93 71 94 63 95 64 96
REMARK SMILES IDX 70 97 72 98 65 99 66 100 67 101 68 102 69 103
REMARK H PARENT 27 5 31 34 93 53 59 64
REMARK Flexibility Score: inf
ROOT
ATOM      1  C   UNL A   1      37.251  22.983  25.347  1.00  0.00     0.118 C 
ENDROOT
BRANCH   1   2
ATOM      2  N   UNL A   1      36.203  22.429  26.150  1.00  0.00    -0.352 N 
ATOM      3  C   UNL A   1      34.924  22.000  26.051  1.00  0.00     0.253 C 
ATOM      4  O   UNL A   1      34.545  21.598  27.165  1.00  0.00    -0.269 OA
ATOM      5  H   UNL A   1      36.514  22.330  27.078  1.00  0.00     0.163 HD
BRANCH   3   6
ATOM      6  C   UNL A   1      33.954  21.896  24.890  1.00  0.00     0.063 A 
ATOM      7  C   UNL A   1      33.425  22.785  23.912  1.00  0.00     0.056 A 
ATOM      8  C   UNL A   1      32.582  22.230  22.904  1.00  0.00     0.027 A 
ATOM      9  C   UNL A   1      32.154  20.905  22.887  1.00  0.00     0.002 A 
ATOM     10  C   UNL A   1      33.476  20.542  24.826  1.00  0.00     0.016 A 
ATOM     11  C   UNL A   1      32.590  20.055  23.870  1.00  0.00     0.001 A 
BRANCH   7  12
ATOM     12  N   UNL A   1      33.638  24.222  23.803  1.00  0.00    -0.315 N 
ATOM     13  C   UNL A   1      33.652  24.707  22.423  1.00  0.00     0.153 C 
BRANCH  12  14
ATOM     14  C   UNL A   1      33.019  25.088  24.757  1.00  0.00     0.228 C 
ATOM     15  O   UNL A   1      32.512  24.714  25.820  1.00  0.00    -0.274 OA
BRANCH  14  16
ATOM     16  C   UNL A   1      33.122  26.601  24.537  1.00  0.00     0.125 C 
BRANCH  16  17
ATOM     17  C   UNL A   1      31.740  27.220  24.418  1.00  0.00     0.156 C 
ATOM     18  S   UNL A   1      30.452  26.120  23.746  1.00  0.00    -0.050 SA
ATOM     19  C   UNL A   1      31.509  28.506  23.614  1.00  0.00     0.248 C 
ATOM     20  C   UNL A   1      29.391  27.477  23.506  1.00  0.00     0.293 C 
ATOM     21  N   UNL A   1      30.132  28.629  23.370  1.00  0.00    -0.240 N 
ATOM     22  O   UNL A   1      32.393  29.326  23.403  1.00  0.00    -0.273 OA
ATOM     23  O   UNL A   1      28.179  27.314  23.500  1.00  0.00    -0.261 OA
BRANCH  21  24
ATOM     24  C   UNL A   1      29.481  29.833  22.978  1.00  0.00     0.053 A 
ATOM     25  C   UNL A   1      29.269  30.876  23.876  1.00  0.00     0.027 A 
ATOM     26  C   UNL A   1      29.116  30.030  21.630  1.00  0.00     0.027 A 
ATOM     27  C   UNL A   1      28.774  32.101  23.413  1.00  0.00     0.002 A 
ATOM     28  C   UNL A   1      28.557  31.231  21.189  1.00  0.00     0.002 A 
ATOM     29  C   UNL A   1      28.391  32.274  22.086  1.00  0.00     0.000 A 
ENDBRANCH  21  24
ENDBRANCH  16  17
ENDBRANCH  14  16
ENDBRANCH  12  14
ENDBRANCH   7  12
ENDBRANCH   3   6
ENDBRANCH   1   2
BRANCH   1  30
ATOM     30  C   UNL A   1      38.067  23.973  26.148  1.00  0.00     0.042 C 
BRANCH  30  31
ATOM     31  C   UNL A   1      39.238  23.377  26.927  1.00  0.00     0.118 C 
BRANCH  31  32
ATOM     32  N   UNL A   1      40.558  23.582  26.350  1.00  0.00    -0.352 N 
ATOM     33  C   UNL A   1      41.543  24.512  26.590  1.00  0.00     0.251 C 
ATOM     34  H   UNL A   1      40.791  22.928  25.652  1.00  0.00     0.163 HD
ATOM     35  O   UNL A   1      42.603  24.363  25.978  1.00  0.00    -0.269 OA
BRANCH  33  36
ATOM     36  C   UNL A   1      41.379  25.680  27.499  1.00  0.00     0.039 A 
ATOM     37  C   UNL A   1      40.331  25.655  28.431  1.00  0.00     0.014 A 
ATOM     38  C   UNL A   1      42.189  26.807  27.459  1.00  0.00     0.014 A 
ATOM     39  C   UNL A   1      40.151  26.704  29.351  1.00  0.00     0.010 A 
ATOM     40  C   UNL A   1      42.078  27.788  28.446  1.00  0.00     0.010 A 
ATOM     41  C   UNL A   1      41.064  27.763  29.416  1.00  0.00    -0.014 A 
BRANCH  41  42
ATOM     42  C   UNL A   1      41.023  28.840  30.464  1.00  0.00     0.031 A 
ATOM     43  C   UNL A   1      41.722  28.629  31.795  1.00  0.00     0.074 A 
ATOM     44  C   UNL A   1      40.210  29.913  30.321  1.00  0.00     0.049 A 
ATOM     45  N   UNL A   1      41.580  29.275  32.928  1.00  0.00    -0.248 NA
ATOM     46  C   UNL A   1      42.671  27.505  31.877  1.00  0.00     0.031 C 
ATOM     47  C   UNL A   1      39.377  30.212  29.151  1.00  0.00     0.029 A 
ATOM     48  N   UNL A   1      39.856  30.894  31.226  1.00  0.00    -0.354 N 
ATOM     49  C   UNL A   1      42.411  28.633  33.843  1.00  0.00     0.074 A 
ATOM     50  C   UNL A   1      42.954  27.475  33.171  1.00  0.00     0.031 C 
ATOM     51  C   UNL A   1      38.552  31.232  29.438  1.00  0.00     0.029 A 
ATOM     52  C   UNL A   1      38.777  31.650  30.817  1.00  0.00     0.049 A 
ATOM     53  H   UNL A   1      40.327  31.039  32.078  1.00  0.00     0.167 HD
ATOM     54  C   UNL A   1      42.752  29.003  35.103  1.00  0.00     0.037 A 
ATOM     55  C   UNL A   1      38.000  32.526  31.486  1.00  0.00     0.037 A 
ATOM     56  C   UNL A   1      42.262  30.192  35.752  1.00  0.00     0.049 A 
ATOM     57  C   UNL A   1      38.342  32.901  32.899  1.00  0.00     0.074 A 
ATOM     58  C   UNL A   1      42.674  30.753  36.949  1.00  0.00     0.029 A 
ATOM     59  N   UNL A   1      41.250  31.000  35.261  1.00  0.00    -0.354 N 
ATOM     60  N   UNL A   1      39.239  32.376  33.696  1.00  0.00    -0.248 NA
ATOM     61  C   UNL A   1      37.600  34.026  33.485  1.00  0.00     0.031 C 
ATOM     62  C   UNL A   1      41.874  31.871  37.208  1.00  0.00     0.029 A 
ATOM     63  C   UNL A   1      41.005  32.040  36.144  1.00  0.00     0.049 A 
ATOM     64  H   UNL A   1      40.773  30.857  34.412  1.00  0.00     0.167 HD
ATOM     65  C   UNL A   1      39.227  33.162  34.846  1.00  0.00     0.074 A 
ATOM     66  C   UNL A   1      38.211  34.173  34.652  1.00  0.00     0.031 C 
ATOM     67  C   UNL A   1      40.015  33.068  35.944  1.00  0.00     0.037 A 
BRANCH  54  68
ATOM     68  C   UNL A   1      43.768  28.166  35.843  1.00  0.00     0.058 A 
ATOM     69  C   UNL A   1      45.147  28.409  35.714  1.00  0.00     0.135 A 
ATOM     70  C   UNL A   1      43.370  27.168  36.748  1.00  0.00     0.135 A 
ATOM     71  F   UNL A   1      45.593  29.351  34.867  1.00  0.00    -0.206 F 
ATOM     72  C   UNL A   1      46.090  27.670  36.419  1.00  0.00     0.059 A 
ATOM     73  C   UNL A   1      44.295  26.442  37.494  1.00  0.00     0.059 A 
ATOM     74  F   UNL A   1      42.067  26.897  36.925  1.00  0.00    -0.206 F 
ATOM     75  C   UNL A   1      45.655  26.690  37.311  1.00  0.00     0.060 A 
BRANCH  75  76
ATOM     76  S   UNL A   1      46.898  25.763  38.233  1.00  0.00     0.124 S 
ATOM     77  O   UNL A   1      47.994  26.725  38.292  1.00  0.00    -0.237 OA
ATOM     78  O   UNL A   1      46.217  25.500  39.497  1.00  0.00    -0.237 OA
ATOM     79  O   UNL A   1      47.138  24.590  37.398  1.00  0.00    -0.744 OA
ENDBRANCH  75  76
ENDBRANCH  54  68
BRANCH  55  80
ATOM     80  C   UNL A   1      36.820  33.136  30.818  1.00  0.00     0.058 A 
ATOM     81  C   UNL A   1      35.520  32.752  31.174  1.00  0.00     0.135 A 
ATOM     82  C   UNL A   1      36.965  34.100  29.806  1.00  0.00     0.135 A 
ATOM     83  F   UNL A   1      35.335  31.825  32.126  1.00  0.00    -0.206 F 
ATOM     84  C   UNL A   1      34.404  33.281  30.538  1.00  0.00     0.059 A 
ATOM     85  C   UNL A   1      35.861  34.660  29.167  1.00  0.00     0.059 A 
ATOM     86  F   UNL A   1      38.189  34.511  29.440  1.00  0.00    -0.206 F 
ATOM     87  C   UNL A   1      34.583  34.236  29.536  1.00  0.00     0.060 A 
BRANCH  87  88
ATOM     88  S   UNL A   1      33.115  34.936  28.751  1.00  0.00     0.124 S 
ATOM     89  O   UNL A   1      32.718  33.858  27.853  1.00  0.00    -0.237 OA
ATOM     90  O   UNL A   1      32.242  35.165  29.898  1.00  0.00    -0.237 OA
ATOM     91  O   UNL A   1      33.621  36.143  28.104  1.00  0.00    -0.744 OA
ENDBRANCH  87  88
ENDBRANCH  55  80
BRANCH  67  92
ATOM     92  C   UNL A   1      39.896  34.146  36.986  1.00  0.00     0.058 A 
ATOM     93  C   UNL A   1      40.547  35.383  36.867  1.00  0.00     0.135 A 
ATOM     94  C   UNL A   1      39.080  33.943  38.112  1.00  0.00     0.135 A 
ATOM     95  F   UNL A   1      41.348  35.628  35.818  1.00  0.00    -0.206 F 
ATOM     96  C   UNL A   1      40.413  36.371  37.839  1.00  0.00     0.059 A 
ATOM     97  C   UNL A   1      38.904  34.928  39.079  1.00  0.00     0.059 A 
ATOM     98  F   UNL A   1      38.428  32.780  38.274  1.00  0.00    -0.206 F 
ATOM     99  C   UNL A   1      39.587  36.135  38.939  1.00  0.00     0.060 A 
BRANCH  99 100
ATOM    100  S   UNL A   1      39.395  37.436  40.176  1.00  0.00     0.124 S 
ATOM    101  O   UNL A   1      40.755  37.953  40.273  1.00  0.00    -0.237 OA
ATOM    102  O   UNL A   1      38.422  38.324  39.543  1.00  0.00    -0.237 OA
ATOM    103  O   UNL A   1      38.909  36.721  41.352  1.00  0.00    -0.744 OA
ENDBRANCH  99 100
ENDBRANCH  67  92
ENDBRANCH  41  42
ENDBRANCH  33  36
ENDBRANCH  31  32
ENDBRANCH  30  31
ENDBRANCH   1  30
TORSDOF 18
ENDMDL
MODEL 3
REMARK VINA RESULT:     -12.3      1.915      2.799
REMARK SMILES CN(C(=O)C[C@@H]1SC(=O)N(c2ccccc2)C1=O)c1ccccc1C(=O)NCCCNC(=O)c1ccc(-c2c3nc(c(-c4c(F)cc(S(=O)(=O)[O-])cc4F)c4ccc([nH]4)c(-c4c(F)cc(S(=O)(=O)[O-])cc4F)c4nc(c(-c5c(F)cc(S(=O)(=O)[O-])cc5F)c5ccc2[nH]5)C=C4)C=C3)cc1
REMARK SMILES IDX 28 1 27 2 25 3 26 4 24 6 19 7 20 8 21 9 23 10 22 11 2 12
REMARK SMILES IDX 1 13 3 14 4 15 5 16 6 17 7 18 17 19 8 20 10 21 18 22 9 23
REMARK SMILES IDX 11 24 12 25 16 26 13 27 15 28 14 29 29 30 30 31 31 32 32 33
REMARK SMILES IDX 33 35 34 36 35 37 99 38 36 39 98 40 37 41 38 42 39 43 92 44
REMARK SMILES IDX 40 45 97 46 91 47 93 48 41 49 96 50 90 51 89 52 42 54 76 55
REMARK SMILES IDX 55 56 75 57 56 58 59 59 74 60 94 61 57 62 58 63 73 65 95 66
REMARK SMILES IDX 60 67 43 68 44 69 53 70 45 71 46 72 52 73 54 74 47 75 48 76
REMARK SMILES IDX 49 77 50 78 51 79 77 80 78 81 87 82 79 83 80 84 86 85 88 86
REMARK SMILES IDX 81 87 82 88 83 89 84 90 85 91 61 92 62 93 71 94 63 95 64 96
REMARK SMILES IDX 70 97 72 98 65 99 66 100 67 101 68 102 69 103
REMARK H PARENT 27 5 31 34 93 53 59 64
REMARK Flexibility Score: inf
ROOT
ATOM      1  C   UNL A   1      37.787  23.560  25.990  1.00  0.00     0.118 C 
ENDROOT
BRANCH   1   2
ATOM      2  N   UNL A   1      37.435  23.335  24.620  1.00  0.00    -0.352 N 
ATOM      3  C   UNL A   1      36.417  22.864  23.864  1.00  0.00     0.253 C 
ATOM      4  O   UNL A   1      36.733  22.946  22.663  1.00  0.00    -0.269 OA
ATOM      5  H   UNL A   1      38.177  23.615  24.038  1.00  0.00     0.163 HD
BRANCH   3   6
ATOM      6  C   UNL A   1      35.040  22.326  24.202  1.00  0.00     0.063 A 
ATOM      7  C   UNL A   1      33.698  22.770  24.040  1.00  0.00     0.056 A 
ATOM      8  C   UNL A   1      32.656  21.875  24.426  1.00  0.00     0.027 A 
ATOM      9  C   UNL A   1      32.872  20.651  25.057  1.00  0.00     0.002 A 
ATOM     10  C   UNL A   1      35.204  21.059  24.859  1.00  0.00     0.016 A 
ATOM     11  C   UNL A   1      34.160  20.246  25.293  1.00  0.00     0.001 A 
BRANCH   7  12
ATOM     12  N   UNL A   1      33.236  24.048  23.517  1.00  0.00    -0.315 N 
ATOM     13  C   UNL A   1      32.410  23.925  22.317  1.00  0.00     0.153 C 
BRANCH  12  14
ATOM     14  C   UNL A   1      32.844  25.071  24.436  1.00  0.00     0.228 C 
ATOM     15  O   UNL A   1      32.523  24.873  25.612  1.00  0.00    -0.274 OA
BRANCH  14  16
ATOM     16  C   UNL A   1      32.979  26.532  23.996  1.00  0.00     0.125 C 
BRANCH  16  17
ATOM     17  C   UNL A   1      31.626  27.225  24.018  1.00  0.00     0.156 C 
ATOM     18  S   UNL A   1      30.222  26.205  23.464  1.00  0.00    -0.050 SA
ATOM     19  C   UNL A   1      31.388  28.534  23.255  1.00  0.00     0.248 C 
ATOM     20  C   UNL A   1      29.217  27.618  23.343  1.00  0.00     0.293 C 
ATOM     21  N   UNL A   1      30.002  28.733  23.147  1.00  0.00    -0.240 N 
ATOM     22  O   UNL A   1      32.290  29.309  22.968  1.00  0.00    -0.273 OA
ATOM     23  O   UNL A   1      28.004  27.519  23.454  1.00  0.00    -0.261 OA
BRANCH  21  24
ATOM     24  C   UNL A   1      29.381  29.975  22.834  1.00  0.00     0.053 A 
ATOM     25  C   UNL A   1      29.248  30.985  23.783  1.00  0.00     0.027 A 
ATOM     26  C   UNL A   1      28.967  30.241  21.513  1.00  0.00     0.027 A 
ATOM     27  C   UNL A   1      28.781  32.246  23.392  1.00  0.00     0.002 A 
ATOM     28  C   UNL A   1      28.436  31.479  21.146  1.00  0.00     0.002 A 
ATOM     29  C   UNL A   1      28.348  32.489  22.091  1.00  0.00     0.000 A 
ENDBRANCH  21  24
ENDBRANCH  16  17
ENDBRANCH  14  16
ENDBRANCH  12  14
ENDBRANCH   7  12
ENDBRANCH   3   6
ENDBRANCH   1   2
BRANCH   1  30
ATOM     30  C   UNL A   1      38.684  22.452  26.496  1.00  0.00     0.042 C 
BRANCH  30  31
ATOM     31  C   UNL A   1      40.029  22.905  27.059  1.00  0.00     0.118 C 
BRANCH  31  32
ATOM     32  N   UNL A   1      40.908  23.601  26.133  1.00  0.00    -0.352 N 
ATOM     33  C   UNL A   1      41.647  24.757  26.242  1.00  0.00     0.251 C 
ATOM     34  H   UNL A   1      40.988  23.160  25.256  1.00  0.00     0.163 HD
ATOM     35  O   UNL A   1      42.368  25.042  25.283  1.00  0.00    -0.269 OA
BRANCH  33  36
ATOM     36  C   UNL A   1      41.587  25.673  27.414  1.00  0.00     0.039 A 
ATOM     37  C   UNL A   1      42.753  26.362  27.780  1.00  0.00     0.014 A 
ATOM     38  C   UNL A   1      40.447  25.866  28.183  1.00  0.00     0.014 A 
ATOM     39  C   UNL A   1      42.750  27.280  28.846  1.00  0.00     0.010 A 
ATOM     40  C   UNL A   1      40.419  26.860  29.163  1.00  0.00     0.010 A 
ATOM     41  C   UNL A   1      41.563  27.593  29.518  1.00  0.00    -0.014 A 
BRANCH  41  42
ATOM     42  C   UNL A   1      41.452  28.666  30.564  1.00  0.00     0.031 A 
ATOM     43  C   UNL A   1      42.129  28.485  31.911  1.00  0.00     0.074 A 
ATOM     44  C   UNL A   1      40.598  29.704  30.402  1.00  0.00     0.049 A 
ATOM     45  N   UNL A   1      41.933  29.124  33.040  1.00  0.00    -0.248 NA
ATOM     46  C   UNL A   1      43.123  27.402  32.016  1.00  0.00     0.031 C 
ATOM     47  C   UNL A   1      39.779  29.968  29.213  1.00  0.00     0.029 A 
ATOM     48  N   UNL A   1      40.181  30.668  31.298  1.00  0.00    -0.354 N 
ATOM     49  C   UNL A   1      42.770  28.517  33.974  1.00  0.00     0.074 A 
ATOM     50  C   UNL A   1      43.377  27.384  33.315  1.00  0.00     0.031 C 
ATOM     51  C   UNL A   1      38.906  30.951  29.481  1.00  0.00     0.029 A 
ATOM     52  C   UNL A   1      39.081  31.378  30.864  1.00  0.00     0.049 A 
ATOM     53  H   UNL A   1      40.626  30.833  32.161  1.00  0.00     0.167 HD
ATOM     54  C   UNL A   1      43.067  28.902  35.241  1.00  0.00     0.037 A 
ATOM     55  C   UNL A   1      38.253  32.220  31.515  1.00  0.00     0.037 A 
ATOM     56  C   UNL A   1      42.512  30.068  35.878  1.00  0.00     0.049 A 
ATOM     57  C   UNL A   1      38.546  32.609  32.936  1.00  0.00     0.074 A 
ATOM     58  C   UNL A   1      42.872  30.645  37.084  1.00  0.00     0.029 A 
ATOM     59  N   UNL A   1      41.477  30.833  35.364  1.00  0.00    -0.354 N 
ATOM     60  N   UNL A   1      39.446  32.122  33.753  1.00  0.00    -0.248 NA
ATOM     61  C   UNL A   1      37.744  33.701  33.503  1.00  0.00     0.031 C 
ATOM     62  C   UNL A   1      42.020  31.729  37.324  1.00  0.00     0.029 A 
ATOM     63  C   UNL A   1      41.168  31.861  36.240  1.00  0.00     0.049 A 
ATOM     64  H   UNL A   1      41.027  30.670  34.504  1.00  0.00     0.167 HD
ATOM     65  C   UNL A   1      39.375  32.906  34.901  1.00  0.00     0.074 A 
ATOM     66  C   UNL A   1      38.321  33.874  34.684  1.00  0.00     0.031 C 
ATOM     67  C   UNL A   1      40.141  32.846  36.017  1.00  0.00     0.037 A 
BRANCH  54  68
ATOM     68  C   UNL A   1      44.100  28.108  36.005  1.00  0.00     0.058 A 
ATOM     69  C   UNL A   1      43.728  27.056  36.860  1.00  0.00     0.135 A 
ATOM     70  C   UNL A   1      45.475  28.340  35.826  1.00  0.00     0.135 A 
ATOM     71  F   UNL A   1      42.430  26.782  37.072  1.00  0.00    -0.206 F 
ATOM     72  C   UNL A   1      44.672  26.295  37.539  1.00  0.00     0.059 A 
ATOM     73  C   UNL A   1      46.439  27.564  36.466  1.00  0.00     0.059 A 
ATOM     74  F   UNL A   1      45.894  29.321  35.013  1.00  0.00    -0.206 F 
ATOM     75  C   UNL A   1      46.027  26.553  37.333  1.00  0.00     0.060 A 
BRANCH  75  76
ATOM     76  S   UNL A   1      47.232  25.533  38.206  1.00  0.00     0.124 S 
ATOM     77  O   UNL A   1      46.448  25.068  39.346  1.00  0.00    -0.237 OA
ATOM     78  O   UNL A   1      47.563  24.519  37.209  1.00  0.00    -0.237 OA
ATOM     79  O   UNL A   1      48.305  26.470  38.524  1.00  0.00    -0.744 OA
ENDBRANCH  75  76
ENDBRANCH  54  68
BRANCH  55  80
ATOM     80  C   UNL A   1      37.063  32.780  30.820  1.00  0.00     0.058 A 
ATOM     81  C   UNL A   1      37.200  33.838  29.911  1.00  0.00     0.135 A 
ATOM     82  C   UNL A   1      35.771  32.283  31.058  1.00  0.00     0.135 A 
ATOM     83  F   UNL A   1      38.414  34.353  29.664  1.00  0.00    -0.206 F 
ATOM     84  C   UNL A   1      36.099  34.403  29.279  1.00  0.00     0.059 A 
ATOM     85  C   UNL A   1      34.654  32.818  30.422  1.00  0.00     0.059 A 
ATOM     86  F   UNL A   1      35.591  31.261  31.908  1.00  0.00    -0.206 F 
ATOM     87  C   UNL A   1      34.829  33.885  29.539  1.00  0.00     0.060 A 
BRANCH  87  88
ATOM     88  S   UNL A   1      33.418  34.611  28.675  1.00  0.00     0.124 S 
ATOM     89  O   UNL A   1      32.541  34.962  29.786  1.00  0.00    -0.237 OA
ATOM     90  O   UNL A   1      34.039  35.730  27.975  1.00  0.00    -0.237 OA
ATOM     91  O   UNL A   1      32.950  33.524  27.820  1.00  0.00    -0.744 OA
ENDBRANCH  87  88
ENDBRANCH  55  80
BRANCH  67  92
ATOM     92  C   UNL A   1      39.953  33.918  37.056  1.00  0.00     0.058 A 
ATOM     93  C   UNL A   1      40.557  35.180  36.953  1.00  0.00     0.135 A 
ATOM     94  C   UNL A   1      39.116  33.682  38.160  1.00  0.00     0.135 A 
ATOM     95  F   UNL A   1      41.375  35.457  35.925  1.00  0.00    -0.206 F 
ATOM     96  C   UNL A   1      40.359  36.161  37.921  1.00  0.00     0.059 A 
ATOM     97  C   UNL A   1      38.877  34.658  39.122  1.00  0.00     0.059 A 
ATOM     98  F   UNL A   1      38.507  32.494  38.306  1.00  0.00    -0.206 F 
ATOM     99  C   UNL A   1      39.515  35.891  39.000  1.00  0.00     0.060 A 
BRANCH  99 100
ATOM    100  S   UNL A   1      39.239  37.183  40.231  1.00  0.00     0.124 S 
ATOM    101  O   UNL A   1      38.514  38.181  39.452  1.00  0.00    -0.237 OA
ATOM    102  O   UNL A   1      38.459  36.481  41.247  1.00  0.00    -0.237 OA
ATOM    103  O   UNL A   1      40.589  37.562  40.636  1.00  0.00    -0.744 OA
ENDBRANCH  99 100
ENDBRANCH  67  92
ENDBRANCH  41  42
ENDBRANCH  33  36
ENDBRANCH  31  32
ENDBRANCH  30  31
ENDBRANCH   1  30
TORSDOF 18
ENDMDL
