MODEL 1
REMARK VINA RESULT:     -11.7      0.000      0.000
REMARK SMILES COc1ccc(-c2sc(N)nc2C(=O)NCCCNC(=O)c2ccc(-c3c4nc(c(-c5c(F)cc(S(=O)(=O)[O-])cc5F)c5ccc([nH]5)c(-c5c(F)cc(S(=O)(=O)[O-])cc5F)c5nc(c(-c6c(F)cc(S(=O)(=O)[O-])cc6F)c6ccc3[nH]6)C=C5)C=C4)cc2)cc1OC
REMARK SMILES IDX 17 1 16 2 15 3 13 4 14 5 12 7 7 8 8 9 9 10 11 11 6 12 3 13
REMARK SMILES IDX 4 14 89 15 5 16 88 17 2 18 1 19 90 20 91 21 10 22 18 25
REMARK SMILES IDX 19 26 20 27 21 29 22 30 23 31 87 32 24 33 86 34 25 35 26 36
REMARK SMILES IDX 27 37 80 38 28 39 85 40 79 41 81 42 29 43 84 44 78 45 77 46
REMARK SMILES IDX 30 48 64 49 43 50 63 51 44 52 47 53 62 54 82 55 45 56 46 57
REMARK SMILES IDX 61 59 83 60 48 61 31 62 32 63 41 64 33 65 34 66 40 67 42 68
REMARK SMILES IDX 35 69 36 70 37 71 38 72 39 73 65 74 66 75 75 76 67 77 68 78
REMARK SMILES IDX 74 79 76 80 69 81 70 82 71 83 72 84 73 85 49 86 50 87 59 88
REMARK SMILES IDX 51 89 52 90 58 91 60 92 53 93 54 94 55 95 56 96 57 97
REMARK H PARENT 15 6 10 23 10 24 19 28 81 47 47 58
REMARK Flexibility Score: inf
ROOT
ATOM      1  C   UNL A   1      34.353  31.046  27.549  1.00  0.00     0.042 C 
ENDROOT
BRANCH   1   2
ATOM      2  C   UNL A   1      34.268  29.561  27.214  1.00  0.00     0.118 C 
BRANCH   2   3
ATOM      3  N   UNL A   1      33.028  28.966  27.677  1.00  0.00    -0.351 N 
ATOM      4  C   UNL A   1      32.026  28.283  27.029  1.00  0.00     0.271 C 
ATOM      5  O   UNL A   1      31.126  27.858  27.752  1.00  0.00    -0.267 OA
ATOM      6  H   UNL A   1      32.874  29.073  28.644  1.00  0.00     0.163 HD
BRANCH   4   7
ATOM      7  C   UNL A   1      32.053  28.063  25.570  1.00  0.00     0.149 A 
ATOM      8  C   UNL A   1      32.557  26.915  24.951  1.00  0.00     0.069 A 
ATOM      9  S   UNL A   1      32.483  27.100  23.239  1.00  0.00    -0.096 S 
ATOM     10  C   UNL A   1      31.766  28.636  23.431  1.00  0.00     0.181 A 
ATOM     11  N   UNL A   1      31.582  29.014  24.665  1.00  0.00    -0.215 NA
BRANCH   8  12
ATOM     12  C   UNL A   1      33.077  25.664  25.513  1.00  0.00    -0.002 A 
ATOM     13  C   UNL A   1      34.119  23.210  26.424  1.00  0.00     0.160 A 
ATOM     14  C   UNL A   1      32.764  23.523  26.611  1.00  0.00     0.051 A 
ATOM     15  C   UNL A   1      34.966  24.121  25.787  1.00  0.00     0.161 A 
ATOM     16  C   UNL A   1      32.247  24.744  26.161  1.00  0.00     0.014 A 
ATOM     17  C   UNL A   1      34.435  25.346  25.360  1.00  0.00     0.060 A 
BRANCH  13  18
ATOM     18  O   UNL A   1      34.523  21.948  26.768  1.00  0.00    -0.493 OA
ATOM     19  C   UNL A   1      34.092  20.973  25.820  1.00  0.00     0.278 C 
ENDBRANCH  13  18
BRANCH  15  20
ATOM     20  O   UNL A   1      36.290  23.998  25.469  1.00  0.00    -0.493 OA
ATOM     21  C   UNL A   1      36.663  23.289  24.303  1.00  0.00     0.278 C 
ENDBRANCH  15  20
ENDBRANCH   8  12
BRANCH  10  22
ATOM     22  N   UNL A   1      31.422  29.399  22.389  1.00  0.00    -0.375 N 
ATOM     23  H   UNL A   1      30.778  29.062  21.724  1.00  0.00     0.159 HD
ATOM     24  H   UNL A   1      31.812  30.297  22.286  1.00  0.00     0.159 HD
ENDBRANCH  10  22
ENDBRANCH   4   7
ENDBRANCH   2   3
ENDBRANCH   1   2
BRANCH   1  25
ATOM     25  C   UNL A   1      35.604  31.428  28.339  1.00  0.00     0.118 C 
BRANCH  25  26
ATOM     26  N   UNL A   1      35.505  31.077  29.753  1.00  0.00    -0.352 N 
ATOM     27  C   UNL A   1      36.382  30.410  30.569  1.00  0.00     0.251 C 
ATOM     28  H   UNL A   1      34.672  31.368  30.191  1.00  0.00     0.163 HD
ATOM     29  O   UNL A   1      36.008  30.037  31.678  1.00  0.00    -0.269 OA
BRANCH  27  30
ATOM     30  C   UNL A   1      37.762  30.128  30.120  1.00  0.00     0.039 A 
ATOM     31  C   UNL A   1      38.745  29.863  31.078  1.00  0.00     0.014 A 
ATOM     32  C   UNL A   1      38.096  30.151  28.765  1.00  0.00     0.014 A 
ATOM     33  C   UNL A   1      40.045  29.554  30.670  1.00  0.00     0.010 A 
ATOM     34  C   UNL A   1      39.367  29.760  28.357  1.00  0.00     0.010 A 
ATOM     35  C   UNL A   1      40.357  29.460  29.303  1.00  0.00    -0.014 A 
BRANCH  35  36
ATOM     36  C   UNL A   1      41.709  29.047  28.845  1.00  0.00     0.031 A 
ATOM     37  C   UNL A   1      42.826  30.053  28.773  1.00  0.00     0.074 A 
ATOM     38  C   UNL A   1      41.912  27.780  28.435  1.00  0.00     0.049 A 
ATOM     39  N   UNL A   1      44.054  29.895  28.349  1.00  0.00    -0.248 NA
ATOM     40  C   UNL A   1      42.513  31.422  29.212  1.00  0.00     0.031 C 
ATOM     41  C   UNL A   1      40.899  26.722  28.422  1.00  0.00     0.029 A 
ATOM     42  N   UNL A   1      43.037  27.166  27.945  1.00  0.00    -0.354 N 
ATOM     43  C   UNL A   1      44.656  31.142  28.462  1.00  0.00     0.074 A 
ATOM     44  C   UNL A   1      43.638  32.059  28.928  1.00  0.00     0.031 C 
ATOM     45  C   UNL A   1      41.459  25.582  27.989  1.00  0.00     0.029 A 
ATOM     46  C   UNL A   1      42.855  25.836  27.647  1.00  0.00     0.049 A 
ATOM     47  H   UNL A   1      43.895  27.633  27.820  1.00  0.00     0.167 HD
ATOM     48  C   UNL A   1      45.945  31.489  28.226  1.00  0.00     0.037 A 
ATOM     49  C   UNL A   1      43.715  24.925  27.151  1.00  0.00     0.037 A 
ATOM     50  C   UNL A   1      46.952  30.568  27.761  1.00  0.00     0.049 A 
ATOM     51  C   UNL A   1      45.129  25.341  26.850  1.00  0.00     0.074 A 
ATOM     52  C   UNL A   1      48.294  30.806  27.525  1.00  0.00     0.029 A 
ATOM     53  N   UNL A   1      46.723  29.235  27.452  1.00  0.00    -0.354 N 
ATOM     54  N   UNL A   1      45.698  26.511  27.016  1.00  0.00    -0.248 NA
ATOM     55  C   UNL A   1      46.018  24.311  26.295  1.00  0.00     0.031 C 
ATOM     56  C   UNL A   1      48.864  29.632  27.020  1.00  0.00     0.029 A 
ATOM     57  C   UNL A   1      47.893  28.644  27.001  1.00  0.00     0.049 A 
ATOM     58  H   UNL A   1      45.857  28.774  27.540  1.00  0.00     0.167 HD
ATOM     59  C   UNL A   1      47.021  26.350  26.619  1.00  0.00     0.074 A 
ATOM     60  C   UNL A   1      47.167  24.967  26.212  1.00  0.00     0.031 C 
ATOM     61  C   UNL A   1      48.025  27.263  26.598  1.00  0.00     0.037 A 
BRANCH  48  62
ATOM     62  C   UNL A   1      46.327  32.928  28.460  1.00  0.00     0.058 A 
ATOM     63  C   UNL A   1      46.737  33.387  29.724  1.00  0.00     0.135 A 
ATOM     64  C   UNL A   1      46.272  33.864  27.414  1.00  0.00     0.135 A 
ATOM     65  F   UNL A   1      46.800  32.541  30.763  1.00  0.00    -0.206 F 
ATOM     66  C   UNL A   1      47.021  34.730  29.956  1.00  0.00     0.059 A 
ATOM     67  C   UNL A   1      46.588  35.206  27.615  1.00  0.00     0.059 A 
ATOM     68  F   UNL A   1      45.895  33.484  26.183  1.00  0.00    -0.206 F 
ATOM     69  C   UNL A   1      46.935  35.633  28.895  1.00  0.00     0.060 A 
BRANCH  69  70
ATOM     70  S   UNL A   1      47.267  37.377  29.222  1.00  0.00     0.124 S 
ATOM     71  O   UNL A   1      48.133  37.723  28.099  1.00  0.00    -0.237 OA
ATOM     72  O   UNL A   1      45.930  37.960  29.192  1.00  0.00    -0.237 OA
ATOM     73  O   UNL A   1      47.912  37.363  30.530  1.00  0.00    -0.744 OA
ENDBRANCH  69  70
ENDBRANCH  48  62
BRANCH  49  74
ATOM     74  C   UNL A   1      43.272  23.519  26.956  1.00  0.00     0.058 A 
ATOM     75  C   UNL A   1      43.058  23.010  25.665  1.00  0.00     0.135 A 
ATOM     76  C   UNL A   1      43.086  22.647  28.039  1.00  0.00     0.135 A 
ATOM     77  F   UNL A   1      43.215  23.806  24.597  1.00  0.00    -0.206 F 
ATOM     78  C   UNL A   1      42.668  21.693  25.455  1.00  0.00     0.059 A 
ATOM     79  C   UNL A   1      42.722  21.317  27.854  1.00  0.00     0.059 A 
ATOM     80  F   UNL A   1      43.292  23.079  29.294  1.00  0.00    -0.206 F 
ATOM     81  C   UNL A   1      42.511  20.850  26.558  1.00  0.00     0.060 A 
BRANCH  81  82
ATOM     82  S   UNL A   1      42.069  19.123  26.266  1.00  0.00     0.124 S 
ATOM     83  O   UNL A   1      43.017  18.749  25.222  1.00  0.00    -0.237 OA
ATOM     84  O   UNL A   1      42.295  18.525  27.578  1.00  0.00    -0.237 OA
ATOM     85  O   UNL A   1      40.671  19.199  25.852  1.00  0.00    -0.744 OA
ENDBRANCH  81  82
ENDBRANCH  49  74
BRANCH  61  86
ATOM     86  C   UNL A   1      49.384  26.789  26.155  1.00  0.00     0.058 A 
ATOM     87  C   UNL A   1      49.829  26.943  24.833  1.00  0.00     0.135 A 
ATOM     88  C   UNL A   1      50.271  26.215  27.082  1.00  0.00     0.135 A 
ATOM     89  F   UNL A   1      49.019  27.476  23.904  1.00  0.00    -0.206 F 
ATOM     90  C   UNL A   1      51.096  26.523  24.440  1.00  0.00     0.059 A 
ATOM     91  C   UNL A   1      51.554  25.818  26.717  1.00  0.00     0.059 A 
ATOM     92  F   UNL A   1      49.901  26.053  28.362  1.00  0.00    -0.206 F 
ATOM     93  C   UNL A   1      51.953  25.966  25.390  1.00  0.00     0.060 A 
BRANCH  93  94
ATOM     94  S   UNL A   1      53.607  25.460  24.872  1.00  0.00     0.124 S 
ATOM     95  O   UNL A   1      53.542  24.013  25.048  1.00  0.00    -0.237 OA
ATOM     96  O   UNL A   1      53.657  25.929  23.491  1.00  0.00    -0.237 OA
ATOM     97  O   UNL A   1      54.485  26.166  25.800  1.00  0.00    -0.744 OA
ENDBRANCH  93  94
ENDBRANCH  61  86
ENDBRANCH  35  36
ENDBRANCH  27  30
ENDBRANCH  25  26
ENDBRANCH   1  25
TORSDOF 17
ENDMDL
MODEL 2
REMARK VINA RESULT:     -11.7      3.028      3.989
REMARK SMILES COc1ccc(-c2sc(N)nc2C(=O)NCCCNC(=O)c2ccc(-c3c4nc(c(-c5c(F)cc(S(=O)(=O)[O-])cc5F)c5ccc([nH]5)c(-c5c(F)cc(S(=O)(=O)[O-])cc5F)c5nc(c(-c6c(F)cc(S(=O)(=O)[O-])cc6F)c6ccc3[nH]6)C=C5)C=C4)cc2)cc1OC
REMARK SMILES IDX 17 1 16 2 15 3 13 4 14 5 12 7 7 8 8 9 9 10 11 11 6 12 3 13
REMARK SMILES IDX 4 14 89 15 5 16 88 17 2 18 1 19 90 20 91 21 10 22 18 25
REMARK SMILES IDX 19 26 20 27 21 29 22 30 23 31 87 32 24 33 86 34 25 35 26 36
REMARK SMILES IDX 27 37 80 38 28 39 85 40 79 41 81 42 29 43 84 44 78 45 77 46
REMARK SMILES IDX 30 48 64 49 43 50 63 51 44 52 47 53 62 54 82 55 45 56 46 57
REMARK SMILES IDX 61 59 83 60 48 61 31 62 32 63 41 64 33 65 34 66 40 67 42 68
REMARK SMILES IDX 35 69 36 70 37 71 38 72 39 73 65 74 66 75 75 76 67 77 68 78
REMARK SMILES IDX 74 79 76 80 69 81 70 82 71 83 72 84 73 85 49 86 50 87 59 88
REMARK SMILES IDX 51 89 52 90 58 91 60 92 53 93 54 94 55 95 56 96 57 97
REMARK H PARENT 15 6 10 23 10 24 19 28 81 47 47 58
REMARK Flexibility Score: inf
ROOT
ATOM      1  C   UNL A   1      33.743  28.491  25.084  1.00  0.00     0.042 C 
ENDROOT
BRANCH   1   2
ATOM      2  C   UNL A   1      32.499  27.810  24.523  1.00  0.00     0.118 C 
BRANCH   2   3
ATOM      3  N   UNL A   1      32.831  26.770  23.567  1.00  0.00    -0.351 N 
ATOM      4  C   UNL A   1      32.701  25.402  23.599  1.00  0.00     0.271 C 
ATOM      5  O   UNL A   1      33.036  24.816  22.570  1.00  0.00    -0.267 OA
ATOM      6  H   UNL A   1      33.228  27.111  22.731  1.00  0.00     0.163 HD
BRANCH   4   7
ATOM      7  C   UNL A   1      32.172  24.698  24.784  1.00  0.00     0.149 A 
ATOM      8  C   UNL A   1      32.876  23.737  25.515  1.00  0.00     0.069 A 
ATOM      9  S   UNL A   1      31.867  23.102  26.759  1.00  0.00    -0.096 S 
ATOM     10  C   UNL A   1      30.608  24.150  26.281  1.00  0.00     0.181 A 
ATOM     11  N   UNL A   1      30.886  24.928  25.272  1.00  0.00    -0.215 NA
BRANCH   8  12
ATOM     12  C   UNL A   1      34.254  23.250  25.395  1.00  0.00    -0.002 A 
ATOM     13  C   UNL A   1      36.873  22.213  25.309  1.00  0.00     0.160 A 
ATOM     14  C   UNL A   1      36.655  23.585  25.506  1.00  0.00     0.051 A 
ATOM     15  C   UNL A   1      35.786  21.349  25.146  1.00  0.00     0.161 A 
ATOM     16  C   UNL A   1      35.354  24.101  25.546  1.00  0.00     0.014 A 
ATOM     17  C   UNL A   1      34.491  21.886  25.170  1.00  0.00     0.060 A 
BRANCH  13  18
ATOM     18  O   UNL A   1      38.160  21.761  25.416  1.00  0.00    -0.493 OA
ATOM     19  C   UNL A   1      38.921  22.534  26.342  1.00  0.00     0.278 C 
ENDBRANCH  13  18
BRANCH  15  20
ATOM     20  O   UNL A   1      35.775  19.991  24.988  1.00  0.00    -0.493 OA
ATOM     21  C   UNL A   1      34.569  19.340  24.634  1.00  0.00     0.278 C 
ENDBRANCH  15  20
ENDBRANCH   8  12
BRANCH  10  22
ATOM     22  N   UNL A   1      29.421  24.168  26.894  1.00  0.00    -0.375 N 
ATOM     23  H   UNL A   1      29.367  24.375  27.855  1.00  0.00     0.159 HD
ATOM     24  H   UNL A   1      28.601  23.973  26.386  1.00  0.00     0.159 HD
ENDBRANCH  10  22
ENDBRANCH   4   7
ENDBRANCH   2   3
ENDBRANCH   1   2
BRANCH   1  25
ATOM     25  C   UNL A   1      33.799  28.509  26.611  1.00  0.00     0.118 C 
BRANCH  25  26
ATOM     26  N   UNL A   1      33.682  29.855  27.162  1.00  0.00    -0.352 N 
ATOM     27  C   UNL A   1      34.534  30.566  27.968  1.00  0.00     0.251 C 
ATOM     28  H   UNL A   1      32.856  30.331  26.913  1.00  0.00     0.163 HD
ATOM     29  O   UNL A   1      34.143  31.607  28.489  1.00  0.00    -0.269 OA
BRANCH  27  30
ATOM     30  C   UNL A   1      35.908  30.081  28.223  1.00  0.00     0.039 A 
ATOM     31  C   UNL A   1      36.857  30.165  27.199  1.00  0.00     0.014 A 
ATOM     32  C   UNL A   1      36.257  29.523  29.454  1.00  0.00     0.014 A 
ATOM     33  C   UNL A   1      38.169  29.750  27.435  1.00  0.00     0.010 A 
ATOM     34  C   UNL A   1      37.583  29.191  29.714  1.00  0.00     0.010 A 
ATOM     35  C   UNL A   1      38.553  29.298  28.708  1.00  0.00    -0.014 A 
BRANCH  35  36
ATOM     36  C   UNL A   1      39.962  28.934  29.008  1.00  0.00     0.031 A 
ATOM     37  C   UNL A   1      40.884  29.934  29.651  1.00  0.00     0.074 A 
ATOM     38  C   UNL A   1      40.427  27.723  28.642  1.00  0.00     0.049 A 
ATOM     39  N   UNL A   1      42.156  29.821  29.939  1.00  0.00    -0.248 NA
ATOM     40  C   UNL A   1      40.306  31.243  29.992  1.00  0.00     0.031 C 
ATOM     41  C   UNL A   1      39.641  26.681  27.979  1.00  0.00     0.029 A 
ATOM     42  N   UNL A   1      41.674  27.165  28.773  1.00  0.00    -0.354 N 
ATOM     43  C   UNL A   1      42.530  31.042  30.485  1.00  0.00     0.074 A 
ATOM     44  C   UNL A   1      41.369  31.904  30.424  1.00  0.00     0.031 C 
ATOM     45  C   UNL A   1      40.412  25.596  27.799  1.00  0.00     0.029 A 
ATOM     46  C   UNL A   1      41.758  25.881  28.288  1.00  0.00     0.049 A 
ATOM     47  H   UNL A   1      42.437  27.639  29.176  1.00  0.00     0.167 HD
ATOM     48  C   UNL A   1      43.724  31.407  31.015  1.00  0.00     0.037 A 
ATOM     49  C   UNL A   1      42.801  25.030  28.240  1.00  0.00     0.037 A 
ATOM     50  C   UNL A   1      44.875  30.541  31.072  1.00  0.00     0.049 A 
ATOM     51  C   UNL A   1      44.130  25.470  28.790  1.00  0.00     0.074 A 
ATOM     52  C   UNL A   1      46.120  30.798  31.619  1.00  0.00     0.029 A 
ATOM     53  N   UNL A   1      44.926  29.256  30.552  1.00  0.00    -0.354 N 
ATOM     54  N   UNL A   1      44.453  26.609  29.356  1.00  0.00    -0.248 NA
ATOM     55  C   UNL A   1      45.237  24.508  28.696  1.00  0.00     0.031 C 
ATOM     56  C   UNL A   1      46.939  29.688  31.381  1.00  0.00     0.029 A 
ATOM     57  C   UNL A   1      46.188  28.715  30.741  1.00  0.00     0.049 A 
ATOM     58  H   UNL A   1      44.175  28.793  30.114  1.00  0.00     0.167 HD
ATOM     59  C   UNL A   1      45.791  26.488  29.717  1.00  0.00     0.074 A 
ATOM     60  C   UNL A   1      46.212  25.163  29.311  1.00  0.00     0.031 C 
ATOM     61  C   UNL A   1      46.595  27.391  30.332  1.00  0.00     0.037 A 
BRANCH  48  62
ATOM     62  C   UNL A   1      43.837  32.806  31.565  1.00  0.00     0.058 A 
ATOM     63  C   UNL A   1      43.524  33.101  32.903  1.00  0.00     0.135 A 
ATOM     64  C   UNL A   1      44.251  33.867  30.744  1.00  0.00     0.135 A 
ATOM     65  F   UNL A   1      43.113  32.129  33.732  1.00  0.00    -0.206 F 
ATOM     66  C   UNL A   1      43.560  34.404  33.391  1.00  0.00     0.059 A 
ATOM     67  C   UNL A   1      44.330  35.174  31.221  1.00  0.00     0.059 A 
ATOM     68  F   UNL A   1      44.570  33.647  29.460  1.00  0.00    -0.206 F 
ATOM     69  C   UNL A   1      43.957  35.435  32.539  1.00  0.00     0.060 A 
BRANCH  69  70
ATOM     70  S   UNL A   1      43.959  37.124  33.175  1.00  0.00     0.124 S 
ATOM     71  O   UNL A   1      45.212  37.150  33.924  1.00  0.00    -0.237 OA
ATOM     72  O   UNL A   1      43.937  37.919  31.952  1.00  0.00    -0.237 OA
ATOM     73  O   UNL A   1      42.745  37.186  33.982  1.00  0.00    -0.744 OA
ENDBRANCH  69  70
ENDBRANCH  48  62
BRANCH  49  74
ATOM     74  C   UNL A   1      42.614  23.659  27.693  1.00  0.00     0.058 A 
ATOM     75  C   UNL A   1      42.707  23.422  26.313  1.00  0.00     0.135 A 
ATOM     76  C   UNL A   1      42.373  22.559  28.529  1.00  0.00     0.135 A 
ATOM     77  F   UNL A   1      42.929  24.443  25.472  1.00  0.00    -0.206 F 
ATOM     78  C   UNL A   1      42.561  22.147  25.781  1.00  0.00     0.059 A 
ATOM     79  C   UNL A   1      42.250  21.269  28.023  1.00  0.00     0.059 A 
ATOM     80  F   UNL A   1      42.290  22.729  29.859  1.00  0.00    -0.206 F 
ATOM     81  C   UNL A   1      42.341  21.073  26.646  1.00  0.00     0.060 A 
BRANCH  81  82
ATOM     82  S   UNL A   1      42.220  19.413  25.945  1.00  0.00     0.124 S 
ATOM     83  O   UNL A   1      42.765  18.597  27.025  1.00  0.00    -0.237 OA
ATOM     84  O   UNL A   1      40.786  19.286  25.710  1.00  0.00    -0.237 OA
ATOM     85  O   UNL A   1      43.042  19.496  24.741  1.00  0.00    -0.744 OA
ENDBRANCH  81  82
ENDBRANCH  49  74
BRANCH  61  86
ATOM     86  C   UNL A   1      48.006  26.966  30.642  1.00  0.00     0.058 A 
ATOM     87  C   UNL A   1      49.081  27.291  29.801  1.00  0.00     0.135 A 
ATOM     88  C   UNL A   1      48.290  26.261  31.824  1.00  0.00     0.135 A 
ATOM     89  F   UNL A   1      48.866  27.955  28.654  1.00  0.00    -0.206 F 
ATOM     90  C   UNL A   1      50.385  26.913  30.108  1.00  0.00     0.059 A 
ATOM     91  C   UNL A   1      49.589  25.901  32.167  1.00  0.00     0.059 A 
ATOM     92  F   UNL A   1      47.301  25.932  32.670  1.00  0.00    -0.206 F 
ATOM     93  C   UNL A   1      50.629  26.222  31.296  1.00  0.00     0.060 A 
BRANCH  93  94
ATOM     94  S   UNL A   1      52.330  25.771  31.699  1.00  0.00     0.124 S 
ATOM     95  O   UNL A   1      52.658  26.747  32.732  1.00  0.00    -0.237 OA
ATOM     96  O   UNL A   1      52.187  24.390  32.153  1.00  0.00    -0.237 OA
ATOM     97  O   UNL A   1      53.036  25.937  30.431  1.00  0.00    -0.744 OA
ENDBRANCH  93  94
ENDBRANCH  61  86
ENDBRANCH  35  36
ENDBRANCH  27  30
ENDBRANCH  25  26
ENDBRANCH   1  25
TORSDOF 17
ENDMDL
MODEL 3
REMARK VINA RESULT:     -11.7      0.602      1.982
REMARK SMILES COc1ccc(-c2sc(N)nc2C(=O)NCCCNC(=O)c2ccc(-c3c4nc(c(-c5c(F)cc(S(=O)(=O)[O-])cc5F)c5ccc([nH]5)c(-c5c(F)cc(S(=O)(=O)[O-])cc5F)c5nc(c(-c6c(F)cc(S(=O)(=O)[O-])cc6F)c6ccc3[nH]6)C=C5)C=C4)cc2)cc1OC
REMARK SMILES IDX 17 1 16 2 15 3 13 4 14 5 12 7 7 8 8 9 9 10 11 11 6 12 3 13
REMARK SMILES IDX 4 14 89 15 5 16 88 17 2 18 1 19 90 20 91 21 10 22 18 25
REMARK SMILES IDX 19 26 20 27 21 29 22 30 23 31 87 32 24 33 86 34 25 35 26 36
REMARK SMILES IDX 27 37 80 38 28 39 85 40 79 41 81 42 29 43 84 44 78 45 77 46
REMARK SMILES IDX 30 48 64 49 43 50 63 51 44 52 47 53 62 54 82 55 45 56 46 57
REMARK SMILES IDX 61 59 83 60 48 61 31 62 32 63 41 64 33 65 34 66 40 67 42 68
REMARK SMILES IDX 35 69 36 70 37 71 38 72 39 73 65 74 66 75 75 76 67 77 68 78
REMARK SMILES IDX 74 79 76 80 69 81 70 82 71 83 72 84 73 85 49 86 50 87 59 88
REMARK SMILES IDX 51 89 52 90 58 91 60 92 53 93 54 94 55 95 56 96 57 97
REMARK H PARENT 15 6 10 23 10 24 19 28 81 47 47 58
REMARK Flexibility Score: inf
ROOT
ATOM      1  C   UNL A   1      34.906  30.069  27.273  1.00  0.00     0.042 C 
ENDROOT
BRANCH   1   2
ATOM      2  C   UNL A   1      33.450  30.454  27.033  1.00  0.00     0.118 C 
BRANCH   2   3
ATOM      3  N   UNL A   1      32.530  29.488  27.603  1.00  0.00    -0.351 N 
ATOM      4  C   UNL A   1      31.736  28.516  27.040  1.00  0.00     0.271 C 
ATOM      5  O   UNL A   1      31.109  27.820  27.839  1.00  0.00    -0.267 OA
ATOM      6  H   UNL A   1      32.459  29.538  28.585  1.00  0.00     0.163 HD
BRANCH   4   7
ATOM      7  C   UNL A   1      31.667  28.318  25.580  1.00  0.00     0.149 A 
ATOM      8  C   UNL A   1      32.162  27.196  24.908  1.00  0.00     0.069 A 
ATOM      9  S   UNL A   1      31.962  27.402  23.209  1.00  0.00    -0.096 S 
ATOM     10  C   UNL A   1      31.214  28.913  23.476  1.00  0.00     0.181 A 
ATOM     11  N   UNL A   1      31.105  29.266  24.726  1.00  0.00    -0.215 NA
BRANCH   8  12
ATOM     12  C   UNL A   1      32.758  25.954  25.412  1.00  0.00    -0.002 A 
ATOM     13  C   UNL A   1      33.861  23.622  26.546  1.00  0.00     0.160 A 
ATOM     14  C   UNL A   1      34.670  24.520  25.834  1.00  0.00     0.051 A 
ATOM     15  C   UNL A   1      32.493  23.875  26.690  1.00  0.00     0.161 A 
ATOM     16  C   UNL A   1      34.122  25.678  25.269  1.00  0.00     0.014 A 
ATOM     17  C   UNL A   1      31.959  25.030  26.101  1.00  0.00     0.060 A 
BRANCH  13  18
ATOM     18  O   UNL A   1      34.486  22.585  27.183  1.00  0.00    -0.493 OA
ATOM     19  C   UNL A   1      34.989  21.618  26.262  1.00  0.00     0.278 C 
ENDBRANCH  13  18
BRANCH  15  20
ATOM     20  O   UNL A   1      31.547  23.162  27.372  1.00  0.00    -0.493 OA
ATOM     21  C   UNL A   1      30.270  22.967  26.794  1.00  0.00     0.278 C 
ENDBRANCH  15  20
ENDBRANCH   8  12
BRANCH  10  22
ATOM     22  N   UNL A   1      30.775  29.679  22.473  1.00  0.00    -0.375 N 
ATOM     23  H   UNL A   1      30.127  29.318  21.826  1.00  0.00     0.159 HD
ATOM     24  H   UNL A   1      31.099  30.604  22.382  1.00  0.00     0.159 HD
ENDBRANCH  10  22
ENDBRANCH   4   7
ENDBRANCH   2   3
ENDBRANCH   1   2
BRANCH   1  25
ATOM     25  C   UNL A   1      35.660  31.046  28.174  1.00  0.00     0.118 C 
BRANCH  25  26
ATOM     26  N   UNL A   1      35.557  30.700  29.588  1.00  0.00    -0.352 N 
ATOM     27  C   UNL A   1      36.446  30.064  30.417  1.00  0.00     0.251 C 
ATOM     28  H   UNL A   1      34.712  30.968  30.016  1.00  0.00     0.163 HD
ATOM     29  O   UNL A   1      36.072  29.686  31.524  1.00  0.00    -0.269 OA
BRANCH  27  30
ATOM     30  C   UNL A   1      37.838  29.822  29.984  1.00  0.00     0.039 A 
ATOM     31  C   UNL A   1      38.817  29.576  30.952  1.00  0.00     0.014 A 
ATOM     32  C   UNL A   1      38.188  29.862  28.633  1.00  0.00     0.014 A 
ATOM     33  C   UNL A   1      40.129  29.305  30.558  1.00  0.00     0.010 A 
ATOM     34  C   UNL A   1      39.474  29.507  28.238  1.00  0.00     0.010 A 
ATOM     35  C   UNL A   1      40.460  29.228  29.195  1.00  0.00    -0.014 A 
BRANCH  35  36
ATOM     36  C   UNL A   1      41.828  28.854  28.751  1.00  0.00     0.031 A 
ATOM     37  C   UNL A   1      42.919  29.888  28.702  1.00  0.00     0.074 A 
ATOM     38  C   UNL A   1      42.069  27.596  28.333  1.00  0.00     0.049 A 
ATOM     39  N   UNL A   1      44.157  29.766  28.293  1.00  0.00    -0.248 NA
ATOM     40  C   UNL A   1      42.566  31.245  29.148  1.00  0.00     0.031 C 
ATOM     41  C   UNL A   1      41.084  26.513  28.298  1.00  0.00     0.029 A 
ATOM     42  N   UNL A   1      43.216  27.016  27.853  1.00  0.00    -0.354 N 
ATOM     43  C   UNL A   1      44.725  31.028  28.424  1.00  0.00     0.074 A 
ATOM     44  C   UNL A   1      43.678  31.914  28.885  1.00  0.00     0.031 C 
ATOM     45  C   UNL A   1      41.679  25.391  27.863  1.00  0.00     0.029 A 
ATOM     46  C   UNL A   1      43.072  25.684  27.541  1.00  0.00     0.049 A 
ATOM     47  H   UNL A   1      44.063  27.506  27.743  1.00  0.00     0.167 HD
ATOM     48  C   UNL A   1      46.007  31.409  28.208  1.00  0.00     0.037 A 
ATOM     49  C   UNL A   1      43.961  24.800  27.048  1.00  0.00     0.037 A 
ATOM     50  C   UNL A   1      47.044  30.519  27.749  1.00  0.00     0.049 A 
ATOM     51  C   UNL A   1      45.368  25.254  26.770  1.00  0.00     0.074 A 
ATOM     52  C   UNL A   1      48.382  30.793  27.533  1.00  0.00     0.029 A 
ATOM     53  N   UNL A   1      46.853  29.183  27.425  1.00  0.00    -0.354 N 
ATOM     54  N   UNL A   1      45.905  26.437  26.953  1.00  0.00    -0.248 NA
ATOM     55  C   UNL A   1      46.290  24.253  26.218  1.00  0.00     0.031 C 
ATOM     56  C   UNL A   1      48.989  29.638  27.025  1.00  0.00     0.029 A 
ATOM     57  C   UNL A   1      48.044  28.626  26.985  1.00  0.00     0.049 A 
ATOM     58  H   UNL A   1      45.999  28.699  27.498  1.00  0.00     0.167 HD
ATOM     59  C   UNL A   1      47.237  26.314  26.572  1.00  0.00     0.074 A 
ATOM     60  C   UNL A   1      47.423  24.939  26.155  1.00  0.00     0.031 C 
ATOM     61  C   UNL A   1      48.217  27.252  26.573  1.00  0.00     0.037 A 
BRANCH  48  62
ATOM     62  C   UNL A   1      46.349  32.856  28.459  1.00  0.00     0.058 A 
ATOM     63  C   UNL A   1      46.267  33.821  27.440  1.00  0.00     0.135 A 
ATOM     64  C   UNL A   1      46.775  33.283  29.727  1.00  0.00     0.135 A 
ATOM     65  F   UNL A   1      45.876  33.470  26.206  1.00  0.00    -0.206 F 
ATOM     66  C   UNL A   1      46.650  35.142  27.654  1.00  0.00     0.059 A 
ATOM     67  C   UNL A   1      47.128  34.608  29.974  1.00  0.00     0.059 A 
ATOM     68  F   UNL A   1      46.866  32.409  30.742  1.00  0.00    -0.206 F 
ATOM     69  C   UNL A   1      47.087  35.523  28.923  1.00  0.00     0.060 A 
BRANCH  69  70
ATOM     70  S   UNL A   1      47.620  37.230  29.173  1.00  0.00     0.124 S 
ATOM     71  O   UNL A   1      47.559  37.755  27.812  1.00  0.00    -0.237 OA
ATOM     72  O   UNL A   1      46.610  37.741  30.094  1.00  0.00    -0.237 OA
ATOM     73  O   UNL A   1      48.961  37.090  29.732  1.00  0.00    -0.744 OA
ENDBRANCH  69  70
ENDBRANCH  48  62
BRANCH  49  74
ATOM     74  C   UNL A   1      43.557  23.384  26.836  1.00  0.00     0.058 A 
ATOM     75  C   UNL A   1      43.375  22.522  27.928  1.00  0.00     0.135 A 
ATOM     76  C   UNL A   1      43.313  22.872  25.553  1.00  0.00     0.135 A 
ATOM     77  F   UNL A   1      43.603  22.963  29.174  1.00  0.00    -0.206 F 
ATOM     78  C   UNL A   1      42.974  21.203  27.757  1.00  0.00     0.059 A 
ATOM     79  C   UNL A   1      42.885  21.563  25.357  1.00  0.00     0.059 A 
ATOM     80  F   UNL A   1      43.459  23.659  24.474  1.00  0.00    -0.206 F 
ATOM     81  C   UNL A   1      42.723  20.733  26.466  1.00  0.00     0.060 A 
BRANCH  81  82
ATOM     82  S   UNL A   1      42.137  19.037  26.264  1.00  0.00     0.124 S 
ATOM     83  O   UNL A   1      42.266  18.517  27.620  1.00  0.00    -0.237 OA
ATOM     84  O   UNL A   1      40.774  19.240  25.785  1.00  0.00    -0.237 OA
ATOM     85  O   UNL A   1      43.062  18.477  25.282  1.00  0.00    -0.744 OA
ENDBRANCH  81  82
ENDBRANCH  49  74
BRANCH  61  86
ATOM     86  C   UNL A   1      49.593  26.818  26.143  1.00  0.00     0.058 A 
ATOM     87  C   UNL A   1      50.464  26.144  27.013  1.00  0.00     0.135 A 
ATOM     88  C   UNL A   1      50.027  27.039  24.825  1.00  0.00     0.135 A 
ATOM     89  F   UNL A   1      50.105  25.914  28.287  1.00  0.00    -0.206 F 
ATOM     90  C   UNL A   1      51.725  25.726  26.599  1.00  0.00     0.059 A 
ATOM     91  C   UNL A   1      51.270  26.601  24.381  1.00  0.00     0.059 A 
ATOM     92  F   UNL A   1      49.231  27.670  23.948  1.00  0.00    -0.206 F 
ATOM     93  C   UNL A   1      52.118  25.956  25.280  1.00  0.00     0.060 A 
BRANCH  93  94
ATOM     94  S   UNL A   1      53.742  25.375  24.748  1.00  0.00     0.124 S 
ATOM     95  O   UNL A   1      53.830  25.934  23.403  1.00  0.00    -0.237 OA
ATOM     96  O   UNL A   1      54.628  25.972  25.742  1.00  0.00    -0.237 OA
ATOM     97  O   UNL A   1      53.623  23.921  24.817  1.00  0.00    -0.744 OA
ENDBRANCH  93  94
ENDBRANCH  61  86
ENDBRANCH  35  36
ENDBRANCH  27  30
ENDBRANCH  25  26
ENDBRANCH   1  25
TORSDOF 17
ENDMDL
