MODEL 1
REMARK VINA RESULT:     -12.1      0.000      0.000
REMARK SMILES CCCCc1cc(S(F)(F)(F)(F)F)cc2c1O[C@@H](C(F)(F)F)C(C(=O)NCCCNC(=O)c1ccc(-c3c4nc(c(-c5c(F)cc(S(=O)(=O)[O-])cc5F)c5ccc([nH]5)c(-c5c(F)cc(S(=O)(=O)[O-])cc5F)c5nc(c(-c6c(F)cc(S(=O)(=O)[O-])cc6F)c6ccc3[nH]6)C=C5)C=C4)cc1)=C2
REMARK SMILES IDX 28 1 27 2 26 3 24 4 25 5 23 7 5 8 6 9 16 10 7 11 15 12 17 13
REMARK SMILES IDX 14 14 99 15 18 16 4 17 3 18 2 19 1 20 8 21 9 22 10 23 11 24
REMARK SMILES IDX 12 25 13 26 19 27 20 28 21 29 22 30 29 31 30 32 31 33 32 35
REMARK SMILES IDX 33 36 34 37 98 38 35 39 97 40 36 41 37 42 38 43 91 44 39 45
REMARK SMILES IDX 96 46 90 47 92 48 40 49 95 50 89 51 88 52 41 54 75 55 54 56
REMARK SMILES IDX 74 57 55 58 58 59 73 60 93 61 56 62 57 63 72 65 94 66 59 67
REMARK SMILES IDX 42 68 43 69 52 70 44 71 45 72 51 73 53 74 46 75 47 76 48 77
REMARK SMILES IDX 49 78 50 79 76 80 77 81 86 82 78 83 79 84 85 85 87 86 80 87
REMARK SMILES IDX 81 88 82 89 83 90 84 91 60 92 61 93 70 94 62 95 63 96 69 97
REMARK SMILES IDX 71 98 64 99 65 100 66 101 67 102 68 103
REMARK H PARENT 26 6 30 34 92 53 58 64
REMARK Flexibility Score: inf
ROOT
ATOM      1  C   UNL A   1      38.074  22.852  26.176  1.00  0.00     0.042 C 
ENDROOT
BRANCH   1   2
ATOM      2  C   UNL A   1      36.797  23.297  25.481  1.00  0.00     0.118 C 
BRANCH   2   3
ATOM      3  N   UNL A   1      35.759  22.271  25.658  1.00  0.00    -0.352 N 
ATOM      4  C   UNL A   1      34.342  22.621  25.486  1.00  0.00     0.251 C 
ATOM      5  O   UNL A   1      33.445  21.734  25.638  1.00  0.00    -0.270 OA
ATOM      6  H   UNL A   1      36.013  21.349  25.891  1.00  0.00     0.163 HD
BRANCH   4   7
ATOM      7  C   UNL A   1      33.950  24.045  25.126  1.00  0.00     0.067 C 
ATOM      8  C   UNL A   1      33.295  27.966  23.844  1.00  0.00    -0.004 A 
ATOM      9  C   UNL A   1      33.382  29.011  24.746  1.00  0.00     0.032 A 
ATOM     10  C   UNL A   1      33.568  26.693  24.281  1.00  0.00     0.131 A 
ATOM     11  C   UNL A   1      33.739  28.788  26.051  1.00  0.00     0.108 A 
ATOM     12  C   UNL A   1      33.911  26.427  25.593  1.00  0.00     0.019 A 
ATOM     13  O   UNL A   1      33.586  25.683  23.350  1.00  0.00    -0.475 OA
ATOM     14  C   UNL A   1      33.996  27.500  26.473  1.00  0.00     0.036 A 
ATOM     15  C   UNL A   1      34.220  25.052  25.948  1.00  0.00     0.025 C 
ATOM     16  C   UNL A   1      33.239  24.347  23.812  1.00  0.00     0.314 C 
BRANCH   8  17
ATOM     17  C   UNL A   1      32.904  28.222  22.397  1.00  0.00     0.039 C 
BRANCH  17  18
ATOM     18  C   UNL A   1      31.435  28.606  22.330  1.00  0.00     0.005 C 
BRANCH  18  19
ATOM     19  C   UNL A   1      30.579  27.354  22.429  1.00  0.00    -0.003 C 
ATOM     20  C   UNL A   1      29.579  27.510  23.561  1.00  0.00     0.004 C 
ENDBRANCH  18  19
ENDBRANCH  17  18
ENDBRANCH   8  17
BRANCH  11  21
ATOM     21  S   UNL A   1      33.871  30.172  27.209  1.00  0.00     0.310 S 
ATOM     22  F   UNL A   1      34.246  29.210  28.413  1.00  0.00    -0.094 F 
ATOM     23  F   UNL A   1      32.360  29.961  27.601  1.00  0.00    -0.094 F 
ATOM     24  F   UNL A   1      33.991  31.361  28.203  1.00  0.00    -0.094 F 
ATOM     25  F   UNL A   1      35.418  30.278  26.908  1.00  0.00    -0.094 F 
ATOM     26  F   UNL A   1      33.793  28.895  26.281  1.00  0.00    -0.094 F 
ENDBRANCH  11  21
BRANCH  16  27
ATOM     27  C   UNL A   1      33.675  23.332  22.768  1.00  0.00     0.429 C 
ATOM     28  F   UNL A   1      33.093  22.162  23.018  1.00  0.00    -0.167 F 
ATOM     29  F   UNL A   1      33.314  23.757  21.561  1.00  0.00    -0.167 F 
ATOM     30  F   UNL A   1      34.995  23.189  22.812  1.00  0.00    -0.167 F 
ENDBRANCH  16  27
ENDBRANCH   4   7
ENDBRANCH   2   3
ENDBRANCH   1   2
BRANCH   1  31
ATOM     31  C   UNL A   1      38.934  24.068  26.482  1.00  0.00     0.118 C 
BRANCH  31  32
ATOM     32  N   UNL A   1      40.257  23.898  25.864  1.00  0.00    -0.352 N 
ATOM     33  C   UNL A   1      41.404  24.674  26.359  1.00  0.00     0.251 C 
ATOM     34  H   UNL A   1      40.376  23.266  25.119  1.00  0.00     0.163 HD
ATOM     35  O   UNL A   1      42.548  24.528  25.826  1.00  0.00    -0.269 OA
BRANCH  33  36
ATOM     36  C   UNL A   1      41.222  25.650  27.510  1.00  0.00     0.039 A 
ATOM     37  C   UNL A   1      40.258  25.392  28.471  1.00  0.00     0.014 A 
ATOM     38  C   UNL A   1      41.993  26.728  27.581  1.00  0.00     0.014 A 
ATOM     39  C   UNL A   1      39.986  26.490  29.321  1.00  0.00     0.010 A 
ATOM     40  C   UNL A   1      41.754  27.699  28.524  1.00  0.00     0.010 A 
ATOM     41  C   UNL A   1      40.778  27.536  29.468  1.00  0.00    -0.014 A 
BRANCH  41  42
ATOM     42  C   UNL A   1      40.615  28.509  30.624  1.00  0.00     0.031 A 
ATOM     43  C   UNL A   1      39.656  29.517  30.505  1.00  0.00     0.074 A 
ATOM     44  C   UNL A   1      41.432  28.344  31.731  1.00  0.00     0.049 A 
ATOM     45  N   UNL A   1      39.340  30.449  31.405  1.00  0.00    -0.248 NA
ATOM     46  C   UNL A   1      38.813  29.714  29.318  1.00  0.00     0.031 C 
ATOM     47  C   UNL A   1      42.394  27.324  31.863  1.00  0.00     0.029 A 
ATOM     48  N   UNL A   1      41.470  29.111  32.874  1.00  0.00    -0.354 N 
ATOM     49  C   UNL A   1      38.361  31.227  30.938  1.00  0.00     0.074 A 
ATOM     50  C   UNL A   1      38.012  30.769  29.586  1.00  0.00     0.031 C 
ATOM     51  C   UNL A   1      43.011  27.480  33.063  1.00  0.00     0.029 A 
ATOM     52  C   UNL A   1      42.445  28.600  33.703  1.00  0.00     0.049 A 
ATOM     53  H   UNL A   1      40.899  29.889  33.067  1.00  0.00     0.167 HD
ATOM     54  C   UNL A   1      37.746  32.299  31.585  1.00  0.00     0.037 A 
ATOM     55  C   UNL A   1      42.834  29.071  34.946  1.00  0.00     0.037 A 
ATOM     56  C   UNL A   1      38.106  32.742  32.848  1.00  0.00     0.049 A 
ATOM     57  C   UNL A   1      42.258  30.178  35.571  1.00  0.00     0.074 A 
ATOM     58  C   UNL A   1      37.490  33.817  33.520  1.00  0.00     0.029 A 
ATOM     59  N   UNL A   1      39.096  32.247  33.666  1.00  0.00    -0.354 N 
ATOM     60  N   UNL A   1      41.253  30.932  35.120  1.00  0.00    -0.248 NA
ATOM     61  C   UNL A   1      42.683  30.706  36.873  1.00  0.00     0.031 C 
ATOM     62  C   UNL A   1      38.107  33.972  34.721  1.00  0.00     0.029 A 
ATOM     63  C   UNL A   1      39.120  32.998  34.820  1.00  0.00     0.049 A 
ATOM     64  H   UNL A   1      39.687  31.486  33.460  1.00  0.00     0.167 HD
ATOM     65  C   UNL A   1      40.964  31.889  36.003  1.00  0.00     0.074 A 
ATOM     66  C   UNL A   1      41.884  31.762  37.141  1.00  0.00     0.031 C 
ATOM     67  C   UNL A   1      39.967  32.862  35.908  1.00  0.00     0.037 A 
BRANCH  54  68
ATOM     68  C   UNL A   1      36.617  33.020  30.866  1.00  0.00     0.058 A 
ATOM     69  C   UNL A   1      36.945  33.923  29.869  1.00  0.00     0.135 A 
ATOM     70  C   UNL A   1      35.352  32.774  31.185  1.00  0.00     0.135 A 
ATOM     71  F   UNL A   1      38.164  34.016  29.345  1.00  0.00    -0.206 F 
ATOM     72  C   UNL A   1      35.864  34.738  29.456  1.00  0.00     0.059 A 
ATOM     73  C   UNL A   1      34.336  33.521  30.640  1.00  0.00     0.059 A 
ATOM     74  F   UNL A   1      35.065  31.795  32.038  1.00  0.00    -0.206 F 
ATOM     75  C   UNL A   1      34.592  34.471  29.691  1.00  0.00     0.060 A 
BRANCH  75  76
ATOM     76  S   UNL A   1      33.261  35.319  28.806  1.00  0.00     0.124 S 
ATOM     77  O   UNL A   1      32.544  34.326  27.889  1.00  0.00    -0.237 OA
ATOM     78  O   UNL A   1      32.262  35.894  29.813  1.00  0.00    -0.237 OA
ATOM     79  O   UNL A   1      33.918  36.589  27.868  1.00  0.00    -0.744 OA
ENDBRANCH  75  76
ENDBRANCH  54  68
BRANCH  55  80
ATOM     80  C   UNL A   1      43.951  28.338  35.673  1.00  0.00     0.058 A 
ATOM     81  C   UNL A   1      45.256  28.730  35.428  1.00  0.00     0.135 A 
ATOM     82  C   UNL A   1      43.674  27.357  36.523  1.00  0.00     0.135 A 
ATOM     83  F   UNL A   1      45.568  29.855  34.792  1.00  0.00    -0.206 F 
ATOM     84  C   UNL A   1      46.227  27.825  35.916  1.00  0.00     0.059 A 
ATOM     85  C   UNL A   1      44.681  26.599  37.068  1.00  0.00     0.059 A 
ATOM     86  F   UNL A   1      42.410  27.105  36.850  1.00  0.00    -0.206 F 
ATOM     87  C   UNL A   1      45.994  26.892  36.823  1.00  0.00     0.060 A 
BRANCH  87  88
ATOM     88  S   UNL A   1      47.339  26.049  37.692  1.00  0.00     0.124 S 
ATOM     89  O   UNL A   1      47.089  24.539  37.675  1.00  0.00    -0.237 OA
ATOM     90  O   UNL A   1      48.667  26.354  36.995  1.00  0.00    -0.237 OA
ATOM     91  O   UNL A   1      47.405  26.598  39.310  1.00  0.00    -0.744 OA
ENDBRANCH  87  88
ENDBRANCH  55  80
BRANCH  67  92
ATOM     92  C   UNL A   1      39.800  33.830  37.068  1.00  0.00     0.058 A 
ATOM     93  C   UNL A   1      38.983  33.480  38.130  1.00  0.00     0.135 A 
ATOM     94  C   UNL A   1      40.446  34.990  37.049  1.00  0.00     0.135 A 
ATOM     95  F   UNL A   1      38.522  32.246  38.316  1.00  0.00    -0.206 F 
ATOM     96  C   UNL A   1      38.682  34.555  39.000  1.00  0.00     0.059 A 
ATOM     97  C   UNL A   1      40.203  35.942  38.009  1.00  0.00     0.059 A 
ATOM     98  F   UNL A   1      41.337  35.232  36.092  1.00  0.00    -0.206 F 
ATOM     99  C   UNL A   1      39.361  35.686  39.055  1.00  0.00     0.060 A 
BRANCH  99 100
ATOM    100  S   UNL A   1      39.187  36.836  40.443  1.00  0.00     0.124 S 
ATOM    101  O   UNL A   1      40.573  37.303  40.894  1.00  0.00    -0.237 OA
ATOM    102  O   UNL A   1      38.360  38.046  40.002  1.00  0.00    -0.237 OA
ATOM    103  O   UNL A   1      38.400  36.049  41.740  1.00  0.00    -0.744 OA
ENDBRANCH  99 100
ENDBRANCH  67  92
ENDBRANCH  41  42
ENDBRANCH  33  36
ENDBRANCH  31  32
ENDBRANCH   1  31
TORSDOF 18
ENDMDL
MODEL 2
REMARK VINA RESULT:     -11.9      6.427     11.358
REMARK SMILES CCCCc1cc(S(F)(F)(F)(F)F)cc2c1O[C@@H](C(F)(F)F)C(C(=O)NCCCNC(=O)c1ccc(-c3c4nc(c(-c5c(F)cc(S(=O)(=O)[O-])cc5F)c5ccc([nH]5)c(-c5c(F)cc(S(=O)(=O)[O-])cc5F)c5nc(c(-c6c(F)cc(S(=O)(=O)[O-])cc6F)c6ccc3[nH]6)C=C5)C=C4)cc1)=C2
REMARK SMILES IDX 28 1 27 2 26 3 24 4 25 5 23 7 5 8 6 9 16 10 7 11 15 12 17 13
REMARK SMILES IDX 14 14 99 15 18 16 4 17 3 18 2 19 1 20 8 21 9 22 10 23 11 24
REMARK SMILES IDX 12 25 13 26 19 27 20 28 21 29 22 30 29 31 30 32 31 33 32 35
REMARK SMILES IDX 33 36 34 37 98 38 35 39 97 40 36 41 37 42 38 43 91 44 39 45
REMARK SMILES IDX 96 46 90 47 92 48 40 49 95 50 89 51 88 52 41 54 75 55 54 56
REMARK SMILES IDX 74 57 55 58 58 59 73 60 93 61 56 62 57 63 72 65 94 66 59 67
REMARK SMILES IDX 42 68 43 69 52 70 44 71 45 72 51 73 53 74 46 75 47 76 48 77
REMARK SMILES IDX 49 78 50 79 76 80 77 81 86 82 78 83 79 84 85 85 87 86 80 87
REMARK SMILES IDX 81 88 82 89 83 90 84 91 60 92 61 93 70 94 62 95 63 96 69 97
REMARK SMILES IDX 71 98 64 99 65 100 66 101 67 102 68 103
REMARK H PARENT 26 6 30 34 92 53 58 64
REMARK Flexibility Score: inf
ROOT
ATOM      1  C   UNL A   1      35.112  29.369  27.465  1.00  0.00     0.042 C 
ENDROOT
BRANCH   1   2
ATOM      2  C   UNL A   1      33.879  29.827  26.702  1.00  0.00     0.118 C 
BRANCH   2   3
ATOM      3  N   UNL A   1      32.670  29.400  27.422  1.00  0.00    -0.352 N 
ATOM      4  C   UNL A   1      32.072  28.087  27.140  1.00  0.00     0.251 C 
ATOM      5  O   UNL A   1      31.028  27.718  27.763  1.00  0.00    -0.270 OA
ATOM      6  H   UNL A   1      32.260  29.993  28.091  1.00  0.00     0.163 HD
BRANCH   4   7
ATOM      7  C   UNL A   1      32.705  27.170  26.105  1.00  0.00     0.067 C 
ATOM      8  C   UNL A   1      34.008  24.382  23.281  1.00  0.00    -0.004 A 
ATOM      9  C   UNL A   1      35.048  23.523  23.588  1.00  0.00     0.032 A 
ATOM     10  C   UNL A   1      33.565  25.252  24.247  1.00  0.00     0.131 A 
ATOM     11  C   UNL A   1      35.626  23.531  24.831  1.00  0.00     0.108 A 
ATOM     12  C   UNL A   1      34.135  25.302  25.506  1.00  0.00     0.019 A 
ATOM     13  O   UNL A   1      32.460  26.018  23.965  1.00  0.00    -0.475 OA
ATOM     14  C   UNL A   1      35.175  24.422  25.783  1.00  0.00     0.036 A 
ATOM     15  C   UNL A   1      33.569  26.230  26.470  1.00  0.00     0.025 C 
ATOM     16  C   UNL A   1      32.361  27.310  24.628  1.00  0.00     0.314 C 
BRANCH   8  17
ATOM     17  C   UNL A   1      33.369  24.363  21.902  1.00  0.00     0.039 C 
BRANCH  17  18
ATOM     18  C   UNL A   1      32.900  22.955  21.581  1.00  0.00     0.005 C 
BRANCH  18  19
ATOM     19  C   UNL A   1      32.097  22.408  22.750  1.00  0.00    -0.003 C 
ATOM     20  C   UNL A   1      32.154  20.890  22.739  1.00  0.00     0.004 C 
ENDBRANCH  18  19
ENDBRANCH  17  18
ENDBRANCH   8  17
BRANCH  11  21
ATOM     21  S   UNL A   1      36.969  22.383  25.220  1.00  0.00     0.310 S 
ATOM     22  F   UNL A   1      37.205  22.043  23.689  1.00  0.00    -0.094 F 
ATOM     23  F   UNL A   1      35.924  21.204  25.249  1.00  0.00    -0.094 F 
ATOM     24  F   UNL A   1      38.127  21.401  25.552  1.00  0.00    -0.094 F 
ATOM     25  F   UNL A   1      38.019  23.550  25.048  1.00  0.00    -0.094 F 
ATOM     26  F   UNL A   1      35.820  23.371  24.770  1.00  0.00    -0.094 F 
ENDBRANCH  11  21
BRANCH  16  27
ATOM     27  C   UNL A   1      30.938  27.828  24.497  1.00  0.00     0.429 C 
ATOM     28  F   UNL A   1      30.115  27.037  25.180  1.00  0.00    -0.167 F 
ATOM     29  F   UNL A   1      30.870  29.063  24.982  1.00  0.00    -0.167 F 
ATOM     30  F   UNL A   1      30.585  27.834  23.216  1.00  0.00    -0.167 F 
ENDBRANCH  16  27
ENDBRANCH   4   7
ENDBRANCH   2   3
ENDBRANCH   1   2
BRANCH   1  31
ATOM     31  C   UNL A   1      35.757  30.563  28.149  1.00  0.00     0.118 C 
BRANCH  31  32
ATOM     32  N   UNL A   1      35.448  30.530  29.586  1.00  0.00    -0.352 N 
ATOM     33  C   UNL A   1      36.490  30.160  30.554  1.00  0.00     0.251 C 
ATOM     34  H   UNL A   1      34.542  30.757  29.900  1.00  0.00     0.163 HD
ATOM     35  O   UNL A   1      36.223  30.131  31.796  1.00  0.00    -0.269 OA
BRANCH  33  36
ATOM     36  C   UNL A   1      37.888  29.812  30.069  1.00  0.00     0.039 A 
ATOM     37  C   UNL A   1      38.762  29.168  30.929  1.00  0.00     0.014 A 
ATOM     38  C   UNL A   1      38.245  30.121  28.829  1.00  0.00     0.014 A 
ATOM     39  C   UNL A   1      40.103  29.149  30.476  1.00  0.00     0.010 A 
ATOM     40  C   UNL A   1      39.543  29.951  28.411  1.00  0.00     0.010 A 
ATOM     41  C   UNL A   1      40.475  29.375  29.230  1.00  0.00    -0.014 A 
BRANCH  41  42
ATOM     42  C   UNL A   1      41.865  29.015  28.731  1.00  0.00     0.031 A 
ATOM     43  C   UNL A   1      42.827  30.025  28.680  1.00  0.00     0.074 A 
ATOM     44  C   UNL A   1      42.096  27.705  28.346  1.00  0.00     0.049 A 
ATOM     45  N   UNL A   1      44.101  29.917  28.300  1.00  0.00    -0.248 NA
ATOM     46  C   UNL A   1      42.574  31.423  29.055  1.00  0.00     0.031 C 
ATOM     47  C   UNL A   1      41.134  26.679  28.402  1.00  0.00     0.029 A 
ATOM     48  N   UNL A   1      43.261  27.163  27.850  1.00  0.00    -0.354 N 
ATOM     49  C   UNL A   1      44.716  31.097  28.405  1.00  0.00     0.074 A 
ATOM     50  C   UNL A   1      43.740  32.084  28.886  1.00  0.00     0.031 C 
ATOM     51  C   UNL A   1      41.706  25.537  27.937  1.00  0.00     0.029 A 
ATOM     52  C   UNL A   1      43.037  25.831  27.582  1.00  0.00     0.049 A 
ATOM     53  H   UNL A   1      44.109  27.645  27.711  1.00  0.00     0.167 HD
ATOM     54  C   UNL A   1      46.050  31.388  28.119  1.00  0.00     0.037 A 
ATOM     55  C   UNL A   1      43.928  24.909  27.057  1.00  0.00     0.037 A 
ATOM     56  C   UNL A   1      46.953  30.455  27.634  1.00  0.00     0.049 A 
ATOM     57  C   UNL A   1      45.247  25.213  26.716  1.00  0.00     0.074 A 
ATOM     58  C   UNL A   1      48.304  30.729  27.348  1.00  0.00     0.029 A 
ATOM     59  N   UNL A   1      46.721  29.129  27.344  1.00  0.00    -0.354 N 
ATOM     60  N   UNL A   1      45.872  26.384  26.858  1.00  0.00    -0.248 NA
ATOM     61  C   UNL A   1      46.190  24.254  26.129  1.00  0.00     0.031 C 
ATOM     62  C   UNL A   1      48.877  29.588  26.883  1.00  0.00     0.029 A 
ATOM     63  C   UNL A   1      47.893  28.581  26.870  1.00  0.00     0.049 A 
ATOM     64  H   UNL A   1      45.866  28.655  27.455  1.00  0.00     0.167 HD
ATOM     65  C   UNL A   1      47.134  26.285  26.439  1.00  0.00     0.074 A 
ATOM     66  C   UNL A   1      47.357  24.914  25.958  1.00  0.00     0.031 C 
ATOM     67  C   UNL A   1      48.113  27.281  26.443  1.00  0.00     0.037 A 
BRANCH  54  68
ATOM     68  C   UNL A   1      46.540  32.807  28.353  1.00  0.00     0.058 A 
ATOM     69  C   UNL A   1      47.064  33.125  29.595  1.00  0.00     0.135 A 
ATOM     70  C   UNL A   1      46.476  33.709  27.380  1.00  0.00     0.135 A 
ATOM     71  F   UNL A   1      47.381  32.209  30.505  1.00  0.00    -0.206 F 
ATOM     72  C   UNL A   1      47.232  34.514  29.807  1.00  0.00     0.059 A 
ATOM     73  C   UNL A   1      46.786  35.026  27.626  1.00  0.00     0.059 A 
ATOM     74  F   UNL A   1      46.110  33.336  26.158  1.00  0.00    -0.206 F 
ATOM     75  C   UNL A   1      47.253  35.422  28.848  1.00  0.00     0.060 A 
BRANCH  75  76
ATOM     76  S   UNL A   1      47.867  37.100  29.136  1.00  0.00     0.124 S 
ATOM     77  O   UNL A   1      47.147  38.074  28.202  1.00  0.00    -0.237 OA
ATOM     78  O   UNL A   1      47.603  37.498  30.590  1.00  0.00    -0.237 OA
ATOM     79  O   UNL A   1      49.548  37.152  28.828  1.00  0.00    -0.744 OA
ENDBRANCH  75  76
ENDBRANCH  54  68
BRANCH  55  80
ATOM     80  C   UNL A   1      43.441  23.485  26.839  1.00  0.00     0.058 A 
ATOM     81  C   UNL A   1      43.364  22.646  27.938  1.00  0.00     0.135 A 
ATOM     82  C   UNL A   1      43.094  23.068  25.627  1.00  0.00     0.135 A 
ATOM     83  F   UNL A   1      43.454  23.082  29.191  1.00  0.00    -0.206 F 
ATOM     84  C   UNL A   1      43.179  21.283  27.606  1.00  0.00     0.059 A 
ATOM     85  C   UNL A   1      42.795  21.746  25.402  1.00  0.00     0.059 A 
ATOM     86  F   UNL A   1      43.036  23.937  24.622  1.00  0.00    -0.206 F 
ATOM     87  C   UNL A   1      42.757  20.848  26.432  1.00  0.00     0.060 A 
BRANCH  87  88
ATOM     88  S   UNL A   1      42.160  19.155  26.201  1.00  0.00     0.124 S 
ATOM     89  O   UNL A   1      42.278  18.388  27.520  1.00  0.00    -0.237 OA
ATOM     90  O   UNL A   1      40.696  19.187  25.758  1.00  0.00    -0.237 OA
ATOM     91  O   UNL A   1      43.101  18.378  25.004  1.00  0.00    -0.744 OA
ENDBRANCH  87  88
ENDBRANCH  55  80
BRANCH  67  92
ATOM     92  C   UNL A   1      49.505  26.917  25.949  1.00  0.00     0.058 A 
ATOM     93  C   UNL A   1      49.821  27.110  24.614  1.00  0.00     0.135 A 
ATOM     94  C   UNL A   1      50.395  26.430  26.805  1.00  0.00     0.135 A 
ATOM     95  F   UNL A   1      49.063  27.819  23.783  1.00  0.00    -0.206 F 
ATOM     96  C   UNL A   1      51.025  26.483  24.215  1.00  0.00     0.059 A 
ATOM     97  C   UNL A   1      51.606  25.960  26.362  1.00  0.00     0.059 A 
ATOM     98  F   UNL A   1      50.111  26.398  28.104  1.00  0.00    -0.206 F 
ATOM     99  C   UNL A   1      51.962  26.063  25.045  1.00  0.00     0.060 A 
BRANCH  99 100
ATOM    100  S   UNL A   1      53.629  25.649  24.473  1.00  0.00     0.124 S 
ATOM    101  O   UNL A   1      53.891  24.159  24.704  1.00  0.00    -0.237 OA
ATOM    102  O   UNL A   1      53.748  25.962  22.980  1.00  0.00    -0.237 OA
ATOM    103  O   UNL A   1      54.776  26.571  25.343  1.00  0.00    -0.744 OA
ENDBRANCH  99 100
ENDBRANCH  67  92
ENDBRANCH  41  42
ENDBRANCH  33  36
ENDBRANCH  31  32
ENDBRANCH   1  31
TORSDOF 18
ENDMDL
MODEL 3
REMARK VINA RESULT:     -11.8      6.286     11.591
REMARK SMILES CCCCc1cc(S(F)(F)(F)(F)F)cc2c1O[C@@H](C(F)(F)F)C(C(=O)NCCCNC(=O)c1ccc(-c3c4nc(c(-c5c(F)cc(S(=O)(=O)[O-])cc5F)c5ccc([nH]5)c(-c5c(F)cc(S(=O)(=O)[O-])cc5F)c5nc(c(-c6c(F)cc(S(=O)(=O)[O-])cc6F)c6ccc3[nH]6)C=C5)C=C4)cc1)=C2
REMARK SMILES IDX 28 1 27 2 26 3 24 4 25 5 23 7 5 8 6 9 16 10 7 11 15 12 17 13
REMARK SMILES IDX 14 14 99 15 18 16 4 17 3 18 2 19 1 20 8 21 9 22 10 23 11 24
REMARK SMILES IDX 12 25 13 26 19 27 20 28 21 29 22 30 29 31 30 32 31 33 32 35
REMARK SMILES IDX 33 36 34 37 98 38 35 39 97 40 36 41 37 42 38 43 91 44 39 45
REMARK SMILES IDX 96 46 90 47 92 48 40 49 95 50 89 51 88 52 41 54 75 55 54 56
REMARK SMILES IDX 74 57 55 58 58 59 73 60 93 61 56 62 57 63 72 65 94 66 59 67
REMARK SMILES IDX 42 68 43 69 52 70 44 71 45 72 51 73 53 74 46 75 47 76 48 77
REMARK SMILES IDX 49 78 50 79 76 80 77 81 86 82 78 83 79 84 85 85 87 86 80 87
REMARK SMILES IDX 81 88 82 89 83 90 84 91 60 92 61 93 70 94 62 95 63 96 69 97
REMARK SMILES IDX 71 98 64 99 65 100 66 101 67 102 68 103
REMARK H PARENT 26 6 30 34 92 53 58 64
REMARK Flexibility Score: inf
ROOT
ATOM      1  C   UNL A   1      34.944  29.482  27.618  1.00  0.00     0.042 C 
ENDROOT
BRANCH   1   2
ATOM      2  C   UNL A   1      33.765  29.761  26.700  1.00  0.00     0.118 C 
BRANCH   2   3
ATOM      3  N   UNL A   1      32.517  29.369  27.371  1.00  0.00    -0.352 N 
ATOM      4  C   UNL A   1      31.907  28.063  27.086  1.00  0.00     0.251 C 
ATOM      5  O   UNL A   1      30.829  27.724  27.667  1.00  0.00    -0.270 OA
ATOM      6  H   UNL A   1      32.089  29.982  28.012  1.00  0.00     0.163 HD
BRANCH   4   7
ATOM      7  C   UNL A   1      32.568  27.116  26.096  1.00  0.00     0.067 C 
ATOM      8  C   UNL A   1      33.952  24.239  23.403  1.00  0.00    -0.004 A 
ATOM      9  C   UNL A   1      35.004  23.413  23.756  1.00  0.00     0.032 A 
ATOM     10  C   UNL A   1      33.482  25.139  24.328  1.00  0.00     0.131 A 
ATOM     11  C   UNL A   1      35.569  23.484  25.003  1.00  0.00     0.108 A 
ATOM     12  C   UNL A   1      34.039  25.253  25.589  1.00  0.00     0.019 A 
ATOM     13  O   UNL A   1      32.366  25.872  24.004  1.00  0.00    -0.475 OA
ATOM     14  C   UNL A   1      35.092  24.405  25.912  1.00  0.00     0.036 A 
ATOM     15  C   UNL A   1      33.445  26.208  26.508  1.00  0.00     0.025 C 
ATOM     16  C   UNL A   1      32.236  27.188  24.611  1.00  0.00     0.314 C 
BRANCH   8  17
ATOM     17  C   UNL A   1      33.327  24.150  22.020  1.00  0.00     0.039 C 
BRANCH  17  18
ATOM     18  C   UNL A   1      32.923  22.713  21.739  1.00  0.00     0.005 C 
BRANCH  18  19
ATOM     19  C   UNL A   1      31.915  22.257  22.780  1.00  0.00    -0.003 C 
ATOM     20  C   UNL A   1      32.294  20.873  23.281  1.00  0.00     0.004 C 
ENDBRANCH  18  19
ENDBRANCH  17  18
ENDBRANCH   8  17
BRANCH  11  21
ATOM     21  S   UNL A   1      36.930  22.379  25.451  1.00  0.00     0.310 S 
ATOM     22  F   UNL A   1      36.775  21.543  24.113  1.00  0.00    -0.094 F 
ATOM     23  F   UNL A   1      35.887  21.396  26.106  1.00  0.00    -0.094 F 
ATOM     24  F   UNL A   1      38.103  21.433  25.834  1.00  0.00    -0.094 F 
ATOM     25  F   UNL A   1      37.943  23.305  24.669  1.00  0.00    -0.094 F 
ATOM     26  F   UNL A   1      35.738  23.292  24.958  1.00  0.00    -0.094 F 
ENDBRANCH  11  21
BRANCH  16  27
ATOM     27  C   UNL A   1      30.805  27.672  24.445  1.00  0.00     0.429 C 
ATOM     28  F   UNL A   1      30.710  28.929  24.870  1.00  0.00    -0.167 F 
ATOM     29  F   UNL A   1      30.464  27.611  23.162  1.00  0.00    -0.167 F 
ATOM     30  F   UNL A   1      29.991  26.901  25.159  1.00  0.00    -0.167 F 
ENDBRANCH  16  27
ENDBRANCH   4   7
ENDBRANCH   2   3
ENDBRANCH   1   2
BRANCH   1  31
ATOM     31  C   UNL A   1      35.540  30.798  28.091  1.00  0.00     0.118 C 
BRANCH  31  32
ATOM     32  N   UNL A   1      35.250  30.981  29.520  1.00  0.00    -0.352 N 
ATOM     33  C   UNL A   1      36.309  30.770  30.518  1.00  0.00     0.251 C 
ATOM     34  H   UNL A   1      34.347  31.245  29.810  1.00  0.00     0.163 HD
ATOM     35  O   UNL A   1      36.058  30.927  31.754  1.00  0.00    -0.269 OA
BRANCH  33  36
ATOM     36  C   UNL A   1      37.703  30.363  30.072  1.00  0.00     0.039 A 
ATOM     37  C   UNL A   1      38.102  30.626  28.771  1.00  0.00     0.014 A 
ATOM     38  C   UNL A   1      38.520  29.772  30.935  1.00  0.00     0.014 A 
ATOM     39  C   UNL A   1      39.291  29.961  28.390  1.00  0.00     0.010 A 
ATOM     40  C   UNL A   1      39.728  29.264  30.522  1.00  0.00     0.010 A 
ATOM     41  C   UNL A   1      40.159  29.435  29.236  1.00  0.00    -0.014 A 
BRANCH  41  42
ATOM     42  C   UNL A   1      41.561  29.041  28.803  1.00  0.00     0.031 A 
ATOM     43  C   UNL A   1      41.789  27.710  28.446  1.00  0.00     0.074 A 
ATOM     44  C   UNL A   1      42.538  30.023  28.794  1.00  0.00     0.049 A 
ATOM     45  N   UNL A   1      42.930  27.167  28.018  1.00  0.00    -0.248 NA
ATOM     46  C   UNL A   1      40.763  26.659  28.488  1.00  0.00     0.031 C 
ATOM     47  C   UNL A   1      42.313  31.369  29.144  1.00  0.00     0.029 A 
ATOM     48  N   UNL A   1      43.867  29.891  28.459  1.00  0.00    -0.354 N 
ATOM     49  C   UNL A   1      42.754  25.871  27.757  1.00  0.00     0.074 A 
ATOM     50  C   UNL A   1      41.358  25.524  28.061  1.00  0.00     0.031 C 
ATOM     51  C   UNL A   1      43.492  32.036  29.033  1.00  0.00     0.029 A 
ATOM     52  C   UNL A   1      44.473  31.118  28.611  1.00  0.00     0.049 A 
ATOM     53  H   UNL A   1      44.308  29.062  28.163  1.00  0.00     0.167 HD
ATOM     54  C   UNL A   1      43.700  24.964  27.277  1.00  0.00     0.037 A 
ATOM     55  C   UNL A   1      45.805  31.438  28.400  1.00  0.00     0.037 A 
ATOM     56  C   UNL A   1      45.021  25.296  27.024  1.00  0.00     0.049 A 
ATOM     57  C   UNL A   1      46.765  30.519  27.974  1.00  0.00     0.074 A 
ATOM     58  C   UNL A   1      45.987  24.396  26.532  1.00  0.00     0.029 A 
ATOM     59  N   UNL A   1      45.633  26.517  27.199  1.00  0.00    -0.354 N 
ATOM     60  N   UNL A   1      46.580  29.231  27.676  1.00  0.00    -0.248 NA
ATOM     61  C   UNL A   1      48.185  30.839  27.779  1.00  0.00     0.031 C 
ATOM     62  C   UNL A   1      47.166  25.063  26.420  1.00  0.00     0.029 A 
ATOM     63  C   UNL A   1      46.958  26.391  26.842  1.00  0.00     0.049 A 
ATOM     64  H   UNL A   1      45.199  27.339  27.524  1.00  0.00     0.167 HD
ATOM     65  C   UNL A   1      47.730  28.679  27.288  1.00  0.00     0.074 A 
ATOM     66  C   UNL A   1      48.781  29.703  27.354  1.00  0.00     0.031 C 
ATOM     67  C   UNL A   1      47.945  27.362  26.876  1.00  0.00     0.037 A 
BRANCH  54  68
ATOM     68  C   UNL A   1      43.256  23.535  27.015  1.00  0.00     0.058 A 
ATOM     69  C   UNL A   1      43.115  22.682  28.098  1.00  0.00     0.135 A 
ATOM     70  C   UNL A   1      42.999  23.126  25.778  1.00  0.00     0.135 A 
ATOM     71  F   UNL A   1      43.112  23.103  29.359  1.00  0.00    -0.206 F 
ATOM     72  C   UNL A   1      42.973  21.320  27.739  1.00  0.00     0.059 A 
ATOM     73  C   UNL A   1      42.735  21.802  25.519  1.00  0.00     0.059 A 
ATOM     74  F   UNL A   1      42.998  24.005  24.780  1.00  0.00    -0.206 F 
ATOM     75  C   UNL A   1      42.639  20.893  26.535  1.00  0.00     0.060 A 
BRANCH  75  76
ATOM     76  S   UNL A   1      42.086  19.194  26.245  1.00  0.00     0.124 S 
ATOM     77  O   UNL A   1      40.607  19.199  25.852  1.00  0.00    -0.237 OA
ATOM     78  O   UNL A   1      42.911  18.573  25.116  1.00  0.00    -0.237 OA
ATOM     79  O   UNL A   1      42.292  18.276  27.673  1.00  0.00    -0.744 OA
ENDBRANCH  75  76
ENDBRANCH  54  68
BRANCH  55  80
ATOM     80  C   UNL A   1      46.245  32.873  28.645  1.00  0.00     0.058 A 
ATOM     81  C   UNL A   1      46.178  33.767  27.590  1.00  0.00     0.135 A 
ATOM     82  C   UNL A   1      46.672  33.253  29.844  1.00  0.00     0.135 A 
ATOM     83  F   UNL A   1      45.528  33.506  26.459  1.00  0.00    -0.206 F 
ATOM     84  C   UNL A   1      46.862  34.982  27.824  1.00  0.00     0.059 A 
ATOM     85  C   UNL A   1      47.206  34.504  30.032  1.00  0.00     0.059 A 
ATOM     86  F   UNL A   1      46.584  32.414  30.872  1.00  0.00    -0.206 F 
ATOM     87  C   UNL A   1      47.226  35.420  29.016  1.00  0.00     0.060 A 
BRANCH  87  88
ATOM     88  S   UNL A   1      47.725  37.138  29.290  1.00  0.00     0.124 S 
ATOM     89  O   UNL A   1      48.151  37.318  30.749  1.00  0.00    -0.237 OA
ATOM     90  O   UNL A   1      48.897  37.482  28.369  1.00  0.00    -0.237 OA
ATOM     91  O   UNL A   1      46.409  38.175  28.949  1.00  0.00    -0.744 OA
ENDBRANCH  87  88
ENDBRANCH  55  80
BRANCH  67  92
ATOM     92  C   UNL A   1      49.348  26.971  26.437  1.00  0.00     0.058 A 
ATOM     93  C   UNL A   1      49.705  27.114  25.107  1.00  0.00     0.135 A 
ATOM     94  C   UNL A   1      50.207  26.507  27.336  1.00  0.00     0.135 A 
ATOM     95  F   UNL A   1      48.979  27.800  24.229  1.00  0.00    -0.206 F 
ATOM     96  C   UNL A   1      50.915  26.464  24.766  1.00  0.00     0.059 A 
ATOM     97  C   UNL A   1      51.427  26.011  26.946  1.00  0.00     0.059 A 
ATOM     98  F   UNL A   1      49.884  26.523  28.626  1.00  0.00    -0.206 F 
ATOM     99  C   UNL A   1      51.823  26.066  25.639  1.00  0.00     0.060 A 
BRANCH  99 100
ATOM    100  S   UNL A   1      53.503  25.619  25.131  1.00  0.00     0.124 S 
ATOM    101  O   UNL A   1      53.815  24.197  25.603  1.00  0.00    -0.237 OA
ATOM    102  O   UNL A   1      53.609  25.685  23.606  1.00  0.00    -0.237 OA
ATOM    103  O   UNL A   1      54.618  26.710  25.829  1.00  0.00    -0.744 OA
ENDBRANCH  99 100
ENDBRANCH  67  92
ENDBRANCH  41  42
ENDBRANCH  33  36
ENDBRANCH  31  32
ENDBRANCH   1  31
TORSDOF 18
ENDMDL
