MODEL 1
REMARK VINA RESULT:     -11.8      0.000      0.000
REMARK SMILES COC(=O)c1sc(SCC(=O)NCCCNC(=O)c2ccc(-c3c4nc(c(-c5c(F)cc(S(=O)(=O)[O-])cc5F)c5ccc([nH]5)c(-c5c(F)cc(S(=O)(=O)[O-])cc5F)c5nc(c(-c6c(F)cc(S(=O)(=O)[O-])cc6F)c6ccc3[nH]6)C=C5)C=C4)cc2)c(NC(=O)c2ccccc2)c1O
REMARK SMILES IDX 13 1 12 2 10 3 11 4 9 6 8 7 7 8 5 9 6 10 95 11 85 12 3 13
REMARK SMILES IDX 4 14 2 15 1 16 96 17 86 19 87 20 88 22 89 23 90 24 94 25
REMARK SMILES IDX 91 26 93 27 92 28 14 29 15 30 16 31 17 32 18 34 19 35 20 36
REMARK SMILES IDX 84 37 21 38 83 39 22 40 23 41 24 42 77 43 25 44 82 45 76 46
REMARK SMILES IDX 78 47 26 48 81 49 75 50 74 51 27 53 61 54 40 55 60 56 41 57
REMARK SMILES IDX 44 58 59 59 79 60 42 61 43 62 58 64 80 65 45 66 28 67 29 68
REMARK SMILES IDX 38 69 30 70 31 71 37 72 39 73 32 74 33 75 34 76 35 77 36 78
REMARK SMILES IDX 62 79 63 80 72 81 64 82 65 83 71 84 73 85 66 86 67 87 68 88
REMARK SMILES IDX 69 89 70 90 46 91 47 92 56 93 48 94 49 95 55 96 57 97 50 98
REMARK SMILES IDX 51 99 52 100 53 101 54 102
REMARK H PARENT 12 5 96 18 86 21 16 33 78 52 44 63
REMARK Flexibility Score: inf
ROOT
ATOM      1  C   UNL A   1      34.906  33.118  28.251  1.00  0.00     0.117 C 
ENDROOT
BRANCH   1   2
ATOM      2  N   UNL A   1      35.898  32.073  28.068  1.00  0.00    -0.355 N 
ATOM      3  C   UNL A   1      35.783  30.781  27.617  1.00  0.00     0.230 C 
ATOM      4  O   UNL A   1      36.851  30.242  27.307  1.00  0.00    -0.274 OA
ATOM      5  H   UNL A   1      36.815  32.338  28.310  1.00  0.00     0.163 HD
BRANCH   3   6
ATOM      6  C   UNL A   1      34.214  30.062  27.368  1.00  0.00     0.175 C 
BRANCH   6   7
ATOM      7  S   UNL A   1      33.595  27.708  26.486  1.00  0.00    -0.103 SA
BRANCH   7   8
ATOM      8  C   UNL A   1      32.034  27.499  25.503  1.00  0.00     0.089 A 
ATOM      9  C   UNL A   1      30.239  27.867  23.791  1.00  0.00     0.157 A 
ATOM     10  S   UNL A   1      31.795  28.518  24.122  1.00  0.00    -0.116 S 
ATOM     11  C   UNL A   1      29.952  26.845  24.670  1.00  0.00     0.166 A 
ATOM     12  C   UNL A   1      30.968  26.609  25.640  1.00  0.00     0.109 A 
BRANCH   9  13
ATOM     13  C   UNL A   1      29.441  28.408  22.708  1.00  0.00     0.352 C 
ATOM     14  O   UNL A   1      29.859  28.872  21.654  1.00  0.00    -0.245 OA
BRANCH  13  15
ATOM     15  O   UNL A   1      28.118  28.320  23.044  1.00  0.00    -0.465 OA
ATOM     16  C   UNL A   1      27.403  29.560  23.117  1.00  0.00     0.282 C 
ENDBRANCH  13  15
ENDBRANCH   9  13
BRANCH  11  17
ATOM     17  O   UNL A   1      28.800  26.136  24.666  1.00  0.00    -0.504 OA
ATOM     18  H   UNL A   1      28.341  25.985  25.469  1.00  0.00     0.293 HD
ENDBRANCH  11  17
BRANCH  12  19
ATOM     19  N   UNL A   1      30.779  25.617  26.598  1.00  0.00    -0.317 N 
ATOM     20  C   UNL A   1      31.263  24.345  26.541  1.00  0.00     0.255 C 
ATOM     21  H   UNL A   1      30.246  25.857  27.391  1.00  0.00     0.170 HD
ATOM     22  O   UNL A   1      30.833  23.413  27.205  1.00  0.00    -0.269 OA
BRANCH  20  23
ATOM     23  C   UNL A   1      32.316  24.143  25.550  1.00  0.00     0.040 A 
ATOM     24  C   UNL A   1      33.987  24.034  26.188  1.00  0.00     0.014 A 
ATOM     25  C   UNL A   1      31.921  23.506  23.868  1.00  0.00     0.014 A 
ATOM     26  C   UNL A   1      35.267  23.294  25.169  1.00  0.00     0.001 A 
ATOM     27  C   UNL A   1      33.229  22.734  22.897  1.00  0.00     0.001 A 
ATOM     28  C   UNL A   1      34.894  22.625  23.558  1.00  0.00     0.000 A 
ENDBRANCH  20  23
ENDBRANCH  12  19
ENDBRANCH   7   8
ENDBRANCH   6   7
ENDBRANCH   3   6
ENDBRANCH   1   2
BRANCH   1  29
ATOM     29  C   UNL A   1      34.924  33.743  29.645  1.00  0.00     0.042 C 
BRANCH  29  30
ATOM     30  C   UNL A   1      34.766  32.725  30.740  1.00  0.00     0.118 C 
BRANCH  30  31
ATOM     31  N   UNL A   1      34.759  33.300  32.082  1.00  0.00    -0.352 N 
ATOM     32  C   UNL A   1      35.492  32.874  33.177  1.00  0.00     0.251 C 
ATOM     33  H   UNL A   1      34.169  34.076  32.224  1.00  0.00     0.163 HD
ATOM     34  O   UNL A   1      35.175  33.212  34.311  1.00  0.00    -0.269 OA
BRANCH  32  35
ATOM     35  C   UNL A   1      36.655  32.002  32.929  1.00  0.00     0.039 A 
ATOM     36  C   UNL A   1      36.533  30.651  32.610  1.00  0.00     0.014 A 
ATOM     37  C   UNL A   1      37.905  32.609  32.960  1.00  0.00     0.014 A 
ATOM     38  C   UNL A   1      37.696  29.953  32.297  1.00  0.00     0.010 A 
ATOM     39  C   UNL A   1      38.957  32.024  32.332  1.00  0.00     0.010 A 
ATOM     40  C   UNL A   1      38.904  30.661  32.155  1.00  0.00    -0.014 A 
BRANCH  40  41
ATOM     41  C   UNL A   1      40.145  30.029  31.758  1.00  0.00     0.031 A 
ATOM     42  C   UNL A   1      40.992  29.676  32.911  1.00  0.00     0.074 A 
ATOM     43  C   UNL A   1      40.422  29.637  30.495  1.00  0.00     0.049 A 
ATOM     44  N   UNL A   1      41.953  30.387  33.393  1.00  0.00    -0.248 NA
ATOM     45  C   UNL A   1      40.577  28.563  33.776  1.00  0.00     0.031 C 
ATOM     46  C   UNL A   1      39.564  29.622  29.302  1.00  0.00     0.029 A 
ATOM     47  N   UNL A   1      41.579  29.105  30.025  1.00  0.00    -0.354 N 
ATOM     48  C   UNL A   1      42.458  29.649  34.450  1.00  0.00     0.074 A 
ATOM     49  C   UNL A   1      41.427  28.704  34.796  1.00  0.00     0.031 C 
ATOM     50  C   UNL A   1      40.165  28.922  28.311  1.00  0.00     0.029 A 
ATOM     51  C   UNL A   1      41.516  28.598  28.731  1.00  0.00     0.049 A 
ATOM     52  H   UNL A   1      42.405  29.080  30.562  1.00  0.00     0.167 HD
ATOM     53  C   UNL A   1      43.789  29.687  34.732  1.00  0.00     0.037 A 
ATOM     54  C   UNL A   1      42.520  27.968  28.066  1.00  0.00     0.037 A 
ATOM     55  C   UNL A   1      44.422  30.797  34.049  1.00  0.00     0.049 A 
ATOM     56  C   UNL A   1      43.788  28.394  28.724  1.00  0.00     0.074 A 
ATOM     57  C   UNL A   1      44.215  32.165  34.035  1.00  0.00     0.029 A 
ATOM     58  N   UNL A   1      45.124  30.518  32.897  1.00  0.00    -0.354 N 
ATOM     59  N   UNL A   1      44.233  29.623  28.699  1.00  0.00    -0.248 NA
ATOM     60  C   UNL A   1      44.275  27.580  29.828  1.00  0.00     0.031 C 
ATOM     61  C   UNL A   1      44.351  32.546  32.666  1.00  0.00     0.029 A 
ATOM     62  C   UNL A   1      44.731  31.418  31.936  1.00  0.00     0.049 A 
ATOM     63  H   UNL A   1      45.788  29.802  32.782  1.00  0.00     0.167 HD
ATOM     64  C   UNL A   1      44.691  29.866  29.986  1.00  0.00     0.074 A 
ATOM     65  C   UNL A   1      44.752  28.547  30.619  1.00  0.00     0.031 C 
ATOM     66  C   UNL A   1      44.696  31.127  30.516  1.00  0.00     0.037 A 
BRANCH  53  67
ATOM     67  C   UNL A   1      44.571  28.518  35.276  1.00  0.00     0.058 A 
ATOM     68  C   UNL A   1      44.583  27.312  34.548  1.00  0.00     0.135 A 
ATOM     69  C   UNL A   1      45.088  28.440  36.589  1.00  0.00     0.135 A 
ATOM     70  F   UNL A   1      44.112  27.267  33.291  1.00  0.00    -0.206 F 
ATOM     71  C   UNL A   1      45.004  26.106  35.108  1.00  0.00     0.059 A 
ATOM     72  C   UNL A   1      45.564  27.261  37.147  1.00  0.00     0.059 A 
ATOM     73  F   UNL A   1      45.074  29.472  37.439  1.00  0.00    -0.206 F 
ATOM     74  C   UNL A   1      45.481  26.091  36.413  1.00  0.00     0.060 A 
BRANCH  74  75
ATOM     75  S   UNL A   1      45.945  24.527  37.171  1.00  0.00     0.124 S 
ATOM     76  O   UNL A   1      47.233  24.866  37.766  1.00  0.00    -0.237 OA
ATOM     77  O   UNL A   1      44.844  24.310  38.102  1.00  0.00    -0.237 OA
ATOM     78  O   UNL A   1      45.994  23.608  36.039  1.00  0.00    -0.744 OA
ENDBRANCH  74  75
ENDBRANCH  53  67
BRANCH  54  79
ATOM     79  C   UNL A   1      42.433  26.758  27.201  1.00  0.00     0.058 A 
ATOM     80  C   UNL A   1      43.241  26.618  26.056  1.00  0.00     0.135 A 
ATOM     81  C   UNL A   1      41.785  25.587  27.643  1.00  0.00     0.135 A 
ATOM     82  F   UNL A   1      43.908  27.677  25.570  1.00  0.00    -0.206 F 
ATOM     83  C   UNL A   1      43.450  25.382  25.430  1.00  0.00     0.059 A 
ATOM     84  C   UNL A   1      41.972  24.346  27.032  1.00  0.00     0.059 A 
ATOM     85  F   UNL A   1      41.026  25.595  28.749  1.00  0.00    -0.206 F 
ATOM     86  C   UNL A   1      42.830  24.244  25.943  1.00  0.00     0.060 A 
BRANCH  86  87
ATOM     87  S   UNL A   1      43.253  22.615  25.274  1.00  0.00     0.124 S 
ATOM     88  O   UNL A   1      43.561  22.930  23.883  1.00  0.00    -0.237 OA
ATOM     89  O   UNL A   1      44.387  22.224  26.105  1.00  0.00    -0.237 OA
ATOM     90  O   UNL A   1      42.035  21.836  25.484  1.00  0.00    -0.744 OA
ENDBRANCH  86  87
ENDBRANCH  54  79
BRANCH  66  91
ATOM     91  C   UNL A   1      44.460  32.296  29.586  1.00  0.00     0.058 A 
ATOM     92  C   UNL A   1      43.214  32.911  29.357  1.00  0.00     0.135 A 
ATOM     93  C   UNL A   1      45.583  32.913  29.014  1.00  0.00     0.135 A 
ATOM     94  F   UNL A   1      42.101  32.452  29.944  1.00  0.00    -0.206 F 
ATOM     95  C   UNL A   1      43.089  34.056  28.565  1.00  0.00     0.059 A 
ATOM     96  C   UNL A   1      45.486  34.071  28.247  1.00  0.00     0.059 A 
ATOM     97  F   UNL A   1      46.811  32.415  29.240  1.00  0.00    -0.206 F 
ATOM     98  C   UNL A   1      44.234  34.630  28.012  1.00  0.00     0.060 A 
BRANCH  98  99
ATOM     99  S   UNL A   1      44.085  36.140  27.029  1.00  0.00     0.124 S 
ATOM    100  O   UNL A   1      45.416  36.256  26.442  1.00  0.00    -0.237 OA
ATOM    101  O   UNL A   1      43.008  35.810  26.100  1.00  0.00    -0.237 OA
ATOM    102  O   UNL A   1      43.750  37.160  28.019  1.00  0.00    -0.744 OA
ENDBRANCH  98  99
ENDBRANCH  66  91
ENDBRANCH  40  41
ENDBRANCH  32  35
ENDBRANCH  30  31
ENDBRANCH  29  30
ENDBRANCH   1  29
TORSDOF 20
ENDMDL
MODEL 2
REMARK VINA RESULT:     -11.0      4.850      7.907
REMARK SMILES COC(=O)c1sc(SCC(=O)NCCCNC(=O)c2ccc(-c3c4nc(c(-c5c(F)cc(S(=O)(=O)[O-])cc5F)c5ccc([nH]5)c(-c5c(F)cc(S(=O)(=O)[O-])cc5F)c5nc(c(-c6c(F)cc(S(=O)(=O)[O-])cc6F)c6ccc3[nH]6)C=C5)C=C4)cc2)c(NC(=O)c2ccccc2)c1O
REMARK SMILES IDX 13 1 12 2 10 3 11 4 9 6 8 7 7 8 5 9 6 10 95 11 85 12 3 13
REMARK SMILES IDX 4 14 2 15 1 16 96 17 86 19 87 20 88 22 89 23 90 24 94 25
REMARK SMILES IDX 91 26 93 27 92 28 14 29 15 30 16 31 17 32 18 34 19 35 20 36
REMARK SMILES IDX 84 37 21 38 83 39 22 40 23 41 24 42 77 43 25 44 82 45 76 46
REMARK SMILES IDX 78 47 26 48 81 49 75 50 74 51 27 53 61 54 40 55 60 56 41 57
REMARK SMILES IDX 44 58 59 59 79 60 42 61 43 62 58 64 80 65 45 66 28 67 29 68
REMARK SMILES IDX 38 69 30 70 31 71 37 72 39 73 32 74 33 75 34 76 35 77 36 78
REMARK SMILES IDX 62 79 63 80 72 81 64 82 65 83 71 84 73 85 66 86 67 87 68 88
REMARK SMILES IDX 69 89 70 90 46 91 47 92 56 93 48 94 49 95 55 96 57 97 50 98
REMARK SMILES IDX 51 99 52 100 53 101 54 102
REMARK H PARENT 12 5 96 18 86 21 16 33 78 52 44 63
REMARK Flexibility Score: inf
ROOT
ATOM      1  C   UNL A   1      44.122  35.643  28.914  1.00  0.00     0.117 C 
ENDROOT
BRANCH   1   2
ATOM      2  N   UNL A   1      42.739  35.539  28.482  1.00  0.00    -0.355 N 
ATOM      3  C   UNL A   1      41.629  35.022  29.104  1.00  0.00     0.230 C 
ATOM      4  O   UNL A   1      40.551  35.342  28.593  1.00  0.00    -0.274 OA
ATOM      5  H   UNL A   1      42.567  35.904  27.584  1.00  0.00     0.163 HD
BRANCH   3   6
ATOM      6  C   UNL A   1      41.782  34.123  30.591  1.00  0.00     0.175 C 
BRANCH   6   7
ATOM      7  S   UNL A   1      40.313  32.204  31.519  1.00  0.00    -0.103 SA
BRANCH   7   8
ATOM      8  C   UNL A   1      38.471  32.298  31.304  1.00  0.00     0.089 A 
ATOM      9  C   UNL A   1      36.204  33.069  30.562  1.00  0.00     0.157 A 
ATOM     10  S   UNL A   1      37.835  33.483  30.211  1.00  0.00    -0.116 S 
ATOM     11  C   UNL A   1      36.158  32.001  31.431  1.00  0.00     0.166 A 
ATOM     12  C   UNL A   1      37.437  31.537  31.851  1.00  0.00     0.109 A 
BRANCH   9  13
ATOM     13  C   UNL A   1      35.119  33.819  29.958  1.00  0.00     0.352 C 
ATOM     14  O   UNL A   1      33.981  33.938  30.394  1.00  0.00    -0.245 OA
BRANCH  13  15
ATOM     15  O   UNL A   1      35.565  34.389  28.797  1.00  0.00    -0.465 OA
ATOM     16  C   UNL A   1      34.696  35.356  28.195  1.00  0.00     0.282 C 
ENDBRANCH  13  15
ENDBRANCH   9  13
BRANCH  11  17
ATOM     17  O   UNL A   1      35.016  31.445  31.897  1.00  0.00    -0.504 OA
ATOM     18  H   UNL A   1      34.206  31.912  31.829  1.00  0.00     0.293 HD
ENDBRANCH  11  17
BRANCH  12  19
ATOM     19  N   UNL A   1      37.517  30.479  32.751  1.00  0.00    -0.317 N 
ATOM     20  C   UNL A   1      37.622  29.159  32.429  1.00  0.00     0.255 C 
ATOM     21  H   UNL A   1      37.495  30.703  33.709  1.00  0.00     0.170 HD
ATOM     22  O   UNL A   1      37.369  28.240  33.194  1.00  0.00    -0.269 OA
BRANCH  20  23
ATOM     23  C   UNL A   1      38.000  28.904  31.042  1.00  0.00     0.040 A 
ATOM     24  C   UNL A   1      36.748  29.253  29.807  1.00  0.00     0.014 A 
ATOM     25  C   UNL A   1      39.770  28.768  30.555  1.00  0.00     0.014 A 
ATOM     26  C   UNL A   1      37.243  29.469  28.095  1.00  0.00     0.001 A 
ATOM     27  C   UNL A   1      40.226  29.033  28.831  1.00  0.00     0.001 A 
ATOM     28  C   UNL A   1      38.958  29.391  27.612  1.00  0.00     0.000 A 
ENDBRANCH  20  23
ENDBRANCH  12  19
ENDBRANCH   7   8
ENDBRANCH   6   7
ENDBRANCH   3   6
ENDBRANCH   1   2
BRANCH   1  29
ATOM     29  C   UNL A   1      44.975  36.547  28.027  1.00  0.00     0.042 C 
BRANCH  29  30
ATOM     30  C   UNL A   1      45.899  35.774  27.128  1.00  0.00     0.118 C 
BRANCH  30  31
ATOM     31  N   UNL A   1      45.392  35.603  25.769  1.00  0.00    -0.352 N 
ATOM     32  C   UNL A   1      45.140  34.409  25.116  1.00  0.00     0.251 C 
ATOM     33  H   UNL A   1      45.210  36.428  25.262  1.00  0.00     0.163 HD
ATOM     34  O   UNL A   1      45.030  34.374  23.897  1.00  0.00    -0.269 OA
BRANCH  32  35
ATOM     35  C   UNL A   1      45.014  33.190  25.937  1.00  0.00     0.039 A 
ATOM     36  C   UNL A   1      43.788  32.587  26.211  1.00  0.00     0.014 A 
ATOM     37  C   UNL A   1      46.198  32.613  26.380  1.00  0.00     0.014 A 
ATOM     38  C   UNL A   1      43.801  31.384  26.910  1.00  0.00     0.010 A 
ATOM     39  C   UNL A   1      46.219  31.304  26.743  1.00  0.00     0.010 A 
ATOM     40  C   UNL A   1      45.032  30.751  27.162  1.00  0.00    -0.014 A 
BRANCH  40  41
ATOM     41  C   UNL A   1      45.136  29.461  27.815  1.00  0.00     0.031 A 
ATOM     42  C   UNL A   1      44.916  29.547  29.270  1.00  0.00     0.074 A 
ATOM     43  C   UNL A   1      45.238  28.287  27.155  1.00  0.00     0.049 A 
ATOM     44  N   UNL A   1      45.831  29.649  30.171  1.00  0.00    -0.248 NA
ATOM     45  C   UNL A   1      43.556  29.808  29.763  1.00  0.00     0.031 C 
ATOM     46  C   UNL A   1      45.146  28.003  25.716  1.00  0.00     0.029 A 
ATOM     47  N   UNL A   1      45.408  27.049  27.684  1.00  0.00    -0.354 N 
ATOM     48  C   UNL A   1      45.153  29.683  31.377  1.00  0.00     0.074 A 
ATOM     49  C   UNL A   1      43.797  30.046  31.054  1.00  0.00     0.031 C 
ATOM     50  C   UNL A   1      45.057  26.666  25.516  1.00  0.00     0.029 A 
ATOM     51  C   UNL A   1      45.269  25.995  26.785  1.00  0.00     0.049 A 
ATOM     52  H   UNL A   1      45.616  26.906  28.636  1.00  0.00     0.167 HD
ATOM     53  C   UNL A   1      45.702  29.111  32.484  1.00  0.00     0.037 A 
ATOM     54  C   UNL A   1      45.337  24.672  27.083  1.00  0.00     0.037 A 
ATOM     55  C   UNL A   1      47.110  28.840  32.270  1.00  0.00     0.049 A 
ATOM     56  C   UNL A   1      46.098  24.571  28.361  1.00  0.00     0.074 A 
ATOM     57  C   UNL A   1      48.200  29.618  31.925  1.00  0.00     0.029 A 
ATOM     58  N   UNL A   1      47.469  27.545  31.964  1.00  0.00    -0.354 N 
ATOM     59  N   UNL A   1      47.360  24.895  28.473  1.00  0.00    -0.248 NA
ATOM     60  C   UNL A   1      45.335  24.608  29.600  1.00  0.00     0.031 C 
ATOM     61  C   UNL A   1      48.932  28.834  30.984  1.00  0.00     0.029 A 
ATOM     62  C   UNL A   1      48.312  27.588  30.880  1.00  0.00     0.049 A 
ATOM     63  H   UNL A   1      47.174  26.734  32.436  1.00  0.00     0.167 HD
ATOM     64  C   UNL A   1      47.447  25.585  29.674  1.00  0.00     0.074 A 
ATOM     65  C   UNL A   1      46.179  25.318  30.355  1.00  0.00     0.031 C 
ATOM     66  C   UNL A   1      48.403  26.542  29.879  1.00  0.00     0.037 A 
BRANCH  53  67
ATOM     67  C   UNL A   1      44.904  28.439  33.573  1.00  0.00     0.058 A 
ATOM     68  C   UNL A   1      44.011  27.407  33.222  1.00  0.00     0.135 A 
ATOM     69  C   UNL A   1      44.779  28.928  34.893  1.00  0.00     0.135 A 
ATOM     70  F   UNL A   1      44.037  26.870  31.991  1.00  0.00    -0.206 F 
ATOM     71  C   UNL A   1      43.020  26.950  34.089  1.00  0.00     0.059 A 
ATOM     72  C   UNL A   1      43.836  28.448  35.792  1.00  0.00     0.059 A 
ATOM     73  F   UNL A   1      45.493  29.958  35.358  1.00  0.00    -0.206 F 
ATOM     74  C   UNL A   1      42.934  27.487  35.369  1.00  0.00     0.060 A 
BRANCH  74  75
ATOM     75  S   UNL A   1      41.607  26.965  36.464  1.00  0.00     0.124 S 
ATOM     76  O   UNL A   1      40.871  28.213  36.641  1.00  0.00    -0.237 OA
ATOM     77  O   UNL A   1      40.948  25.939  35.665  1.00  0.00    -0.237 OA
ATOM     78  O   UNL A   1      42.317  26.477  37.642  1.00  0.00    -0.744 OA
ENDBRANCH  74  75
ENDBRANCH  53  67
BRANCH  54  79
ATOM     79  C   UNL A   1      44.473  23.569  26.574  1.00  0.00     0.058 A 
ATOM     80  C   UNL A   1      45.011  22.508  25.820  1.00  0.00     0.135 A 
ATOM     81  C   UNL A   1      43.170  23.370  27.073  1.00  0.00     0.135 A 
ATOM     82  F   UNL A   1      46.252  22.603  25.316  1.00  0.00    -0.206 F 
ATOM     83  C   UNL A   1      44.329  21.300  25.630  1.00  0.00     0.059 A 
ATOM     84  C   UNL A   1      42.468  22.177  26.892  1.00  0.00     0.059 A 
ATOM     85  F   UNL A   1      42.577  24.296  27.842  1.00  0.00    -0.206 F 
ATOM     86  C   UNL A   1      43.064  21.134  26.194  1.00  0.00     0.060 A 
BRANCH  86  87
ATOM     87  S   UNL A   1      42.263  19.511  26.133  1.00  0.00     0.124 S 
ATOM     88  O   UNL A   1      43.078  18.808  25.149  1.00  0.00    -0.237 OA
ATOM     89  O   UNL A   1      42.389  19.051  27.512  1.00  0.00    -0.237 OA
ATOM     90  O   UNL A   1      40.900  19.823  25.708  1.00  0.00    -0.744 OA
ENDBRANCH  86  87
ENDBRANCH  54  79
BRANCH  66  91
ATOM     91  C   UNL A   1      49.540  26.644  28.887  1.00  0.00     0.058 A 
ATOM     92  C   UNL A   1      50.672  25.808  28.864  1.00  0.00     0.135 A 
ATOM     93  C   UNL A   1      49.397  27.544  27.820  1.00  0.00     0.135 A 
ATOM     94  F   UNL A   1      50.841  24.850  29.785  1.00  0.00    -0.206 F 
ATOM     95  C   UNL A   1      51.633  25.893  27.851  1.00  0.00     0.059 A 
ATOM     96  C   UNL A   1      50.326  27.626  26.786  1.00  0.00     0.059 A 
ATOM     97  F   UNL A   1      48.311  28.332  27.748  1.00  0.00    -0.206 F 
ATOM     98  C   UNL A   1      51.451  26.808  26.815  1.00  0.00     0.060 A 
BRANCH  98  99
ATOM     99  S   UNL A   1      52.663  26.887  25.476  1.00  0.00     0.124 S 
ATOM    100  O   UNL A   1      52.102  25.960  24.498  1.00  0.00    -0.237 OA
ATOM    101  O   UNL A   1      52.633  28.299  25.103  1.00  0.00    -0.237 OA
ATOM    102  O   UNL A   1      53.903  26.447  26.111  1.00  0.00    -0.744 OA
ENDBRANCH  98  99
ENDBRANCH  66  91
ENDBRANCH  40  41
ENDBRANCH  32  35
ENDBRANCH  30  31
ENDBRANCH  29  30
ENDBRANCH   1  29
TORSDOF 20
ENDMDL
MODEL 3
REMARK VINA RESULT:     -10.9      4.911     12.901
REMARK SMILES COC(=O)c1sc(SCC(=O)NCCCNC(=O)c2ccc(-c3c4nc(c(-c5c(F)cc(S(=O)(=O)[O-])cc5F)c5ccc([nH]5)c(-c5c(F)cc(S(=O)(=O)[O-])cc5F)c5nc(c(-c6c(F)cc(S(=O)(=O)[O-])cc6F)c6ccc3[nH]6)C=C5)C=C4)cc2)c(NC(=O)c2ccccc2)c1O
REMARK SMILES IDX 13 1 12 2 10 3 11 4 9 6 8 7 7 8 5 9 6 10 95 11 85 12 3 13
REMARK SMILES IDX 4 14 2 15 1 16 96 17 86 19 87 20 88 22 89 23 90 24 94 25
REMARK SMILES IDX 91 26 93 27 92 28 14 29 15 30 16 31 17 32 18 34 19 35 20 36
REMARK SMILES IDX 84 37 21 38 83 39 22 40 23 41 24 42 77 43 25 44 82 45 76 46
REMARK SMILES IDX 78 47 26 48 81 49 75 50 74 51 27 53 61 54 40 55 60 56 41 57
REMARK SMILES IDX 44 58 59 59 79 60 42 61 43 62 58 64 80 65 45 66 28 67 29 68
REMARK SMILES IDX 38 69 30 70 31 71 37 72 39 73 32 74 33 75 34 76 35 77 36 78
REMARK SMILES IDX 62 79 63 80 72 81 64 82 65 83 71 84 73 85 66 86 67 87 68 88
REMARK SMILES IDX 69 89 70 90 46 91 47 92 56 93 48 94 49 95 55 96 57 97 50 98
REMARK SMILES IDX 51 99 52 100 53 101 54 102
REMARK H PARENT 12 5 96 18 86 21 16 33 78 52 44 63
REMARK Flexibility Score: inf
ROOT
ATOM      1  C   UNL A   1      43.880  25.323  25.184  1.00  0.00     0.117 C 
ENDROOT
BRANCH   1   2
ATOM      2  N   UNL A   1      44.149  25.377  26.610  1.00  0.00    -0.355 N 
ATOM      3  C   UNL A   1      45.145  25.998  27.323  1.00  0.00     0.230 C 
ATOM      4  O   UNL A   1      44.933  26.093  28.537  1.00  0.00    -0.274 OA
ATOM      5  H   UNL A   1      43.504  24.881  27.163  1.00  0.00     0.163 HD
BRANCH   3   6
ATOM      6  C   UNL A   1      46.505  26.722  26.506  1.00  0.00     0.175 C 
BRANCH   6   7
ATOM      7  S   UNL A   1      48.443  25.598  25.208  1.00  0.00    -0.103 SA
BRANCH   7   8
ATOM      8  C   UNL A   1      49.546  26.653  24.150  1.00  0.00     0.089 A 
ATOM      9  C   UNL A   1      50.346  28.125  22.285  1.00  0.00     0.157 A 
ATOM     10  S   UNL A   1      48.841  27.467  22.793  1.00  0.00    -0.116 S 
ATOM     11  C   UNL A   1      51.340  27.790  23.179  1.00  0.00     0.166 A 
ATOM     12  C   UNL A   1      50.901  26.967  24.256  1.00  0.00     0.109 A 
BRANCH   9  13
ATOM     13  C   UNL A   1      50.422  28.908  21.067  1.00  0.00     0.352 C 
ATOM     14  O   UNL A   1      50.104  30.082  20.932  1.00  0.00    -0.245 OA
BRANCH  13  15
ATOM     15  O   UNL A   1      50.915  28.120  20.063  1.00  0.00    -0.465 OA
ATOM     16  C   UNL A   1      50.318  26.825  19.926  1.00  0.00     0.282 C 
ENDBRANCH  13  15
ENDBRANCH   9  13
BRANCH  11  17
ATOM     17  O   UNL A   1      52.635  28.157  23.053  1.00  0.00    -0.504 OA
ATOM     18  H   UNL A   1      52.866  29.066  23.042  1.00  0.00     0.293 HD
ENDBRANCH  11  17
BRANCH  12  19
ATOM     19  N   UNL A   1      51.822  26.542  25.208  1.00  0.00    -0.317 N 
ATOM     20  C   UNL A   1      52.068  27.140  26.407  1.00  0.00     0.255 C 
ATOM     21  H   UNL A   1      52.345  25.735  24.997  1.00  0.00     0.170 HD
ATOM     22  O   UNL A   1      53.076  26.958  27.075  1.00  0.00    -0.269 OA
BRANCH  20  23
ATOM     23  C   UNL A   1      51.049  28.099  26.825  1.00  0.00     0.040 A 
ATOM     24  C   UNL A   1      49.952  27.562  28.136  1.00  0.00     0.014 A 
ATOM     25  C   UNL A   1      51.222  29.890  26.435  1.00  0.00     0.014 A 
ATOM     26  C   UNL A   1      49.028  28.790  29.063  1.00  0.00     0.001 A 
ATOM     27  C   UNL A   1      50.305  31.091  27.419  1.00  0.00     0.001 A 
ATOM     28  C   UNL A   1      49.219  30.533  28.734  1.00  0.00     0.000 A 
ENDBRANCH  20  23
ENDBRANCH  12  19
ENDBRANCH   7   8
ENDBRANCH   6   7
ENDBRANCH   3   6
ENDBRANCH   1   2
BRANCH   1  29
ATOM     29  C   UNL A   1      43.698  23.904  24.648  1.00  0.00     0.042 C 
BRANCH  29  30
ATOM     30  C   UNL A   1      43.255  22.935  25.709  1.00  0.00     0.118 C 
BRANCH  30  31
ATOM     31  N   UNL A   1      41.924  22.380  25.482  1.00  0.00    -0.352 N 
ATOM     32  C   UNL A   1      40.769  22.667  26.189  1.00  0.00     0.251 C 
ATOM     33  H   UNL A   1      41.839  21.732  24.745  1.00  0.00     0.163 HD
ATOM     34  O   UNL A   1      39.799  21.921  26.130  1.00  0.00    -0.269 OA
BRANCH  32  35
ATOM     35  C   UNL A   1      40.751  23.890  27.012  1.00  0.00     0.039 A 
ATOM     36  C   UNL A   1      41.451  24.006  28.211  1.00  0.00     0.014 A 
ATOM     37  C   UNL A   1      40.048  24.975  26.499  1.00  0.00     0.014 A 
ATOM     38  C   UNL A   1      41.443  25.242  28.849  1.00  0.00     0.010 A 
ATOM     39  C   UNL A   1      40.328  26.230  26.935  1.00  0.00     0.010 A 
ATOM     40  C   UNL A   1      40.879  26.350  28.189  1.00  0.00    -0.014 A 
BRANCH  40  41
ATOM     41  C   UNL A   1      40.894  27.689  28.744  1.00  0.00     0.031 A 
ATOM     42  C   UNL A   1      41.990  28.511  28.202  1.00  0.00     0.074 A 
ATOM     43  C   UNL A   1      39.915  28.192  29.527  1.00  0.00     0.049 A 
ATOM     44  N   UNL A   1      43.147  28.686  28.742  1.00  0.00    -0.248 NA
ATOM     45  C   UNL A   1      41.902  28.973  26.809  1.00  0.00     0.031 C 
ATOM     46  C   UNL A   1      38.612  27.620  29.892  1.00  0.00     0.029 A 
ATOM     47  N   UNL A   1      39.883  29.401  30.142  1.00  0.00    -0.354 N 
ATOM     48  C   UNL A   1      43.824  29.538  27.885  1.00  0.00     0.074 A 
ATOM     49  C   UNL A   1      43.133  29.456  26.624  1.00  0.00     0.031 C 
ATOM     50  C   UNL A   1      37.846  28.564  30.490  1.00  0.00     0.029 A 
ATOM     51  C   UNL A   1      38.661  29.744  30.713  1.00  0.00     0.049 A 
ATOM     52  H   UNL A   1      40.668  29.994  30.182  1.00  0.00     0.167 HD
ATOM     53  C   UNL A   1      44.698  30.453  28.386  1.00  0.00     0.037 A 
ATOM     54  C   UNL A   1      38.364  30.917  31.330  1.00  0.00     0.037 A 
ATOM     55  C   UNL A   1      45.025  30.144  29.764  1.00  0.00     0.049 A 
ATOM     56  C   UNL A   1      39.666  31.507  31.753  1.00  0.00     0.074 A 
ATOM     57  C   UNL A   1      45.556  29.038  30.403  1.00  0.00     0.029 A 
ATOM     58  N   UNL A   1      44.387  30.868  30.747  1.00  0.00    -0.354 N 
ATOM     59  N   UNL A   1      40.442  30.964  32.655  1.00  0.00    -0.248 NA
ATOM     60  C   UNL A   1      40.335  32.397  30.816  1.00  0.00     0.031 C 
ATOM     61  C   UNL A   1      44.793  28.902  31.602  1.00  0.00     0.029 A 
ATOM     62  C   UNL A   1      43.911  29.981  31.682  1.00  0.00     0.049 A 
ATOM     63  H   UNL A   1      44.290  31.847  30.775  1.00  0.00     0.167 HD
ATOM     64  C   UNL A   1      41.727  31.088  32.146  1.00  0.00     0.074 A 
ATOM     65  C   UNL A   1      41.603  32.040  31.040  1.00  0.00     0.031 C 
ATOM     66  C   UNL A   1      42.712  30.196  32.468  1.00  0.00     0.037 A 
BRANCH  53  67
ATOM     67  C   UNL A   1      44.930  31.817  27.785  1.00  0.00     0.058 A 
ATOM     68  C   UNL A   1      46.135  32.059  27.096  1.00  0.00     0.135 A 
ATOM     69  C   UNL A   1      44.153  32.962  28.072  1.00  0.00     0.135 A 
ATOM     70  F   UNL A   1      46.954  31.045  26.774  1.00  0.00    -0.206 F 
ATOM     71  C   UNL A   1      46.572  33.347  26.786  1.00  0.00     0.059 A 
ATOM     72  C   UNL A   1      44.542  34.248  27.722  1.00  0.00     0.059 A 
ATOM     73  F   UNL A   1      43.025  32.915  28.789  1.00  0.00    -0.206 F 
ATOM     74  C   UNL A   1      45.771  34.435  27.115  1.00  0.00     0.060 A 
BRANCH  74  75
ATOM     75  S   UNL A   1      46.365  36.102  26.796  1.00  0.00     0.124 S 
ATOM     76  O   UNL A   1      45.119  36.860  26.811  1.00  0.00    -0.237 OA
ATOM     77  O   UNL A   1      47.263  36.320  27.925  1.00  0.00    -0.237 OA
ATOM     78  O   UNL A   1      47.017  35.983  25.496  1.00  0.00    -0.744 OA
ENDBRANCH  74  75
ENDBRANCH  53  67
BRANCH  54  79
ATOM     79  C   UNL A   1      37.116  31.725  31.222  1.00  0.00     0.058 A 
ATOM     80  C   UNL A   1      36.179  31.768  32.272  1.00  0.00     0.135 A 
ATOM     81  C   UNL A   1      36.964  32.706  30.221  1.00  0.00     0.135 A 
ATOM     82  F   UNL A   1      36.254  30.881  33.277  1.00  0.00    -0.206 F 
ATOM     83  C   UNL A   1      35.197  32.763  32.363  1.00  0.00     0.059 A 
ATOM     84  C   UNL A   1      35.989  33.703  30.286  1.00  0.00     0.059 A 
ATOM     85  F   UNL A   1      37.827  32.786  29.197  1.00  0.00    -0.206 F 
ATOM     86  C   UNL A   1      35.127  33.744  31.375  1.00  0.00     0.060 A 
BRANCH  86  87
ATOM     87  S   UNL A   1      34.002  35.148  31.587  1.00  0.00     0.124 S 
ATOM     88  O   UNL A   1      33.741  35.537  30.206  1.00  0.00    -0.237 OA
ATOM     89  O   UNL A   1      32.884  34.543  32.302  1.00  0.00    -0.237 OA
ATOM     90  O   UNL A   1      34.792  36.098  32.367  1.00  0.00    -0.744 OA
ENDBRANCH  86  87
ENDBRANCH  54  79
BRANCH  66  91
ATOM     91  C   UNL A   1      42.462  29.231  33.606  1.00  0.00     0.058 A 
ATOM     92  C   UNL A   1      41.808  27.990  33.487  1.00  0.00     0.135 A 
ATOM     93  C   UNL A   1      43.046  29.521  34.848  1.00  0.00     0.135 A 
ATOM     94  F   UNL A   1      41.307  27.584  32.313  1.00  0.00    -0.206 F 
ATOM     95  C   UNL A   1      41.706  27.102  34.562  1.00  0.00     0.059 A 
ATOM     96  C   UNL A   1      42.983  28.639  35.924  1.00  0.00     0.059 A 
ATOM     97  F   UNL A   1      43.736  30.662  35.016  1.00  0.00    -0.206 F 
ATOM     98  C   UNL A   1      42.297  27.436  35.780  1.00  0.00     0.060 A 
BRANCH  98  99
ATOM     99  S   UNL A   1      42.214  26.271  37.159  1.00  0.00     0.124 S 
ATOM    100  O   UNL A   1      42.584  25.012  36.520  1.00  0.00    -0.237 OA
ATOM    101  O   UNL A   1      43.191  26.817  38.097  1.00  0.00    -0.237 OA
ATOM    102  O   UNL A   1      40.824  26.361  37.598  1.00  0.00    -0.744 OA
ENDBRANCH  98  99
ENDBRANCH  66  91
ENDBRANCH  40  41
ENDBRANCH  32  35
ENDBRANCH  30  31
ENDBRANCH  29  30
ENDBRANCH   1  29
TORSDOF 20
ENDMDL
