MODEL 1
REMARK VINA RESULT:     -11.4      0.000      0.000
REMARK SMILES C[NH2+][C@](C)(CC[N@H+]1CCC(C)(C)C1)C(=O)NCCCNC(=O)c1ccc(-c2c3nc(c(-c4c(F)cc(S(=O)(=O)[O-])cc4F)c4ccc([nH]4)c(-c4c(F)cc(S(=O)(=O)[O-])cc4F)c4nc(c(-c5c(F)cc(S(=O)(=O)[O-])cc5F)c5ccc2[nH]5)C=C4)C=C3)cc1
REMARK SMILES IDX 18 1 17 2 16 3 14 4 15 5 3 7 4 8 2 9 1 10 5 13 6 14 7 15
REMARK SMILES IDX 8 16 13 17 9 19 10 20 11 21 12 22 19 23 20 24 21 25 22 27
REMARK SMILES IDX 23 28 24 29 88 30 25 31 87 32 26 33 27 34 28 35 81 36 29 37
REMARK SMILES IDX 86 38 80 39 82 40 30 41 85 42 79 43 78 44 31 46 65 47 44 48
REMARK SMILES IDX 64 49 45 50 48 51 63 52 83 53 46 54 47 55 62 57 84 58 49 59
REMARK SMILES IDX 32 60 33 61 42 62 34 63 35 64 41 65 43 66 36 67 37 68 38 69
REMARK SMILES IDX 39 70 40 71 66 72 67 73 76 74 68 75 69 76 75 77 77 78 70 79
REMARK SMILES IDX 71 80 72 81 73 82 74 83 50 84 51 85 60 86 52 87 53 88 59 89
REMARK SMILES IDX 61 90 54 91 55 92 56 93 57 94 58 95
REMARK H PARENT 16 6 2 11 2 12 7 18 20 26 82 45 48 56
REMARK Flexibility Score: inf
ROOT
ATOM      1  C   UNL A   1      39.508  22.077  26.386  1.00  0.00     0.042 C 
ENDROOT
BRANCH   1   2
ATOM      2  C   UNL A   1      38.036  22.346  26.075  1.00  0.00     0.118 C 
BRANCH   2   3
ATOM      3  N   UNL A   1      37.721  22.439  24.659  1.00  0.00    -0.351 N 
ATOM      4  C   UNL A   1      36.587  22.737  23.957  1.00  0.00     0.281 C 
ATOM      5  O   UNL A   1      36.764  22.968  22.754  1.00  0.00    -0.268 OA
ATOM      6  H   UNL A   1      38.494  22.247  24.080  1.00  0.00     0.163 HD
BRANCH   4   7
ATOM      7  C   UNL A   1      35.163  22.840  24.600  1.00  0.00     0.177 C 
ATOM      8  C   UNL A   1      34.099  22.954  23.483  1.00  0.00     0.090 C 
BRANCH   7   9
ATOM      9  N   UNL A   1      35.022  24.068  25.450  1.00  0.00    -0.336 N 
ATOM     10  C   UNL A   1      33.715  24.260  26.064  1.00  0.00     0.331 C 
ATOM     11  H   UNL A   1      35.716  24.013  26.197  1.00  0.00     0.346 HD
ATOM     12  H   UNL A   1      35.156  24.860  24.822  1.00  0.00     0.346 HD
ENDBRANCH   7   9
BRANCH   7  13
ATOM     13  C   UNL A   1      34.850  21.607  25.499  1.00  0.00     0.140 C 
BRANCH  13  14
ATOM     14  C   UNL A   1      33.622  20.746  25.123  1.00  0.00     0.269 C 
BRANCH  14  15
ATOM     15  N   UNL A   1      33.946  19.494  24.450  1.00  0.00    -0.334 N 
ATOM     16  C   UNL A   1      35.316  19.029  24.689  1.00  0.00     0.263 C 
ATOM     17  C   UNL A   1      33.063  18.381  24.816  1.00  0.00     0.268 C 
ATOM     18  H   UNL A   1      33.824  19.737  23.467  1.00  0.00     0.348 HD
ATOM     19  C   UNL A   1      35.260  17.510  24.808  1.00  0.00     0.073 C 
ATOM     20  C   UNL A   1      33.847  17.145  24.350  1.00  0.00     0.019 C 
ATOM     21  C   UNL A   1      33.798  16.978  22.819  1.00  0.00     0.017 C 
ATOM     22  C   UNL A   1      33.358  15.859  25.013  1.00  0.00     0.017 C 
ENDBRANCH  14  15
ENDBRANCH  13  14
ENDBRANCH   7  13
ENDBRANCH   4   7
ENDBRANCH   2   3
ENDBRANCH   1   2
BRANCH   1  23
ATOM     23  C   UNL A   1      40.271  23.233  27.029  1.00  0.00     0.118 C 
BRANCH  23  24
ATOM     24  N   UNL A   1      41.027  24.008  26.064  1.00  0.00    -0.352 N 
ATOM     25  C   UNL A   1      41.357  25.342  26.073  1.00  0.00     0.251 C 
ATOM     26  H   UNL A   1      41.352  23.503  25.285  1.00  0.00     0.163 HD
ATOM     27  O   UNL A   1      41.857  25.833  25.064  1.00  0.00    -0.269 OA
BRANCH  25  28
ATOM     28  C   UNL A   1      41.102  26.197  27.259  1.00  0.00     0.039 A 
ATOM     29  C   UNL A   1      41.993  27.242  27.519  1.00  0.00     0.014 A 
ATOM     30  C   UNL A   1      40.050  25.950  28.149  1.00  0.00     0.014 A 
ATOM     31  C   UNL A   1      41.811  28.057  28.640  1.00  0.00     0.010 A 
ATOM     32  C   UNL A   1      39.836  26.801  29.239  1.00  0.00     0.010 A 
ATOM     33  C   UNL A   1      40.720  27.858  29.503  1.00  0.00    -0.014 A 
BRANCH  33  34
ATOM     34  C   UNL A   1      40.516  28.761  30.669  1.00  0.00     0.031 A 
ATOM     35  C   UNL A   1      41.364  28.633  31.907  1.00  0.00     0.074 A 
ATOM     36  C   UNL A   1      39.557  29.706  30.612  1.00  0.00     0.049 A 
ATOM     37  N   UNL A   1      41.362  29.372  32.987  1.00  0.00    -0.248 NA
ATOM     38  C   UNL A   1      42.326  27.521  31.944  1.00  0.00     0.031 C 
ATOM     39  C   UNL A   1      38.628  29.902  29.497  1.00  0.00     0.029 A 
ATOM     40  N   UNL A   1      39.208  30.687  31.509  1.00  0.00    -0.354 N 
ATOM     41  C   UNL A   1      42.319  28.819  33.832  1.00  0.00     0.074 A 
ATOM     42  C   UNL A   1      42.844  27.651  33.158  1.00  0.00     0.031 C 
ATOM     43  C   UNL A   1      37.838  30.955  29.762  1.00  0.00     0.029 A 
ATOM     44  C   UNL A   1      38.189  31.498  31.072  1.00  0.00     0.049 A 
ATOM     45  H   UNL A   1      39.647  30.797  32.384  1.00  0.00     0.167 HD
ATOM     46  C   UNL A   1      42.738  29.256  35.044  1.00  0.00     0.037 A 
ATOM     47  C   UNL A   1      37.607  32.567  31.650  1.00  0.00     0.037 A 
ATOM     48  C   UNL A   1      42.228  30.429  35.709  1.00  0.00     0.049 A 
ATOM     49  C   UNL A   1      38.108  33.048  32.984  1.00  0.00     0.074 A 
ATOM     50  C   UNL A   1      42.630  30.981  36.914  1.00  0.00     0.029 A 
ATOM     51  N   UNL A   1      41.204  31.231  35.227  1.00  0.00    -0.354 N 
ATOM     52  N   UNL A   1      39.062  32.553  33.733  1.00  0.00    -0.248 NA
ATOM     53  C   UNL A   1      37.461  34.244  33.541  1.00  0.00     0.031 C 
ATOM     54  C   UNL A   1      41.826  32.097  37.176  1.00  0.00     0.029 A 
ATOM     55  C   UNL A   1      40.949  32.263  36.118  1.00  0.00     0.049 A 
ATOM     56  H   UNL A   1      40.728  31.088  34.378  1.00  0.00     0.167 HD
ATOM     57  C   UNL A   1      39.139  33.382  34.847  1.00  0.00     0.074 A 
ATOM     58  C   UNL A   1      38.151  34.425  34.660  1.00  0.00     0.031 C 
ATOM     59  C   UNL A   1      39.954  33.288  35.927  1.00  0.00     0.037 A 
BRANCH  46  60
ATOM     60  C   UNL A   1      43.817  28.464  35.732  1.00  0.00     0.058 A 
ATOM     61  C   UNL A   1      45.177  28.732  35.511  1.00  0.00     0.135 A 
ATOM     62  C   UNL A   1      43.491  27.451  36.648  1.00  0.00     0.135 A 
ATOM     63  F   UNL A   1      45.544  29.682  34.635  1.00  0.00    -0.206 F 
ATOM     64  C   UNL A   1      46.176  28.005  36.149  1.00  0.00     0.059 A 
ATOM     65  C   UNL A   1      44.474  26.727  37.317  1.00  0.00     0.059 A 
ATOM     66  F   UNL A   1      42.207  27.155  36.900  1.00  0.00    -0.206 F 
ATOM     67  C   UNL A   1      45.814  27.001  37.049  1.00  0.00     0.060 A 
BRANCH  67  68
ATOM     68  S   UNL A   1      47.122  26.065  37.870  1.00  0.00     0.124 S 
ATOM     69  O   UNL A   1      48.256  26.313  36.985  1.00  0.00    -0.237 OA
ATOM     70  O   UNL A   1      47.191  26.704  39.180  1.00  0.00    -0.237 OA
ATOM     71  O   UNL A   1      46.611  24.697  37.871  1.00  0.00    -0.744 OA
ENDBRANCH  67  68
ENDBRANCH  46  60
BRANCH  47  72
ATOM     72  C   UNL A   1      36.506  33.276  30.950  1.00  0.00     0.058 A 
ATOM     73  C   UNL A   1      35.182  33.188  31.410  1.00  0.00     0.135 A 
ATOM     74  C   UNL A   1      36.756  34.070  29.821  1.00  0.00     0.135 A 
ATOM     75  F   UNL A   1      34.895  32.435  32.482  1.00  0.00    -0.206 F 
ATOM     76  C   UNL A   1      34.144  33.854  30.769  1.00  0.00     0.059 A 
ATOM     77  C   UNL A   1      35.737  34.764  29.176  1.00  0.00     0.059 A 
ATOM     78  F   UNL A   1      38.007  34.198  29.354  1.00  0.00    -0.206 F 
ATOM     79  C   UNL A   1      34.433  34.643  29.654  1.00  0.00     0.060 A 
BRANCH  79  80
ATOM     80  S   UNL A   1      33.089  35.558  28.865  1.00  0.00     0.124 S 
ATOM     81  O   UNL A   1      33.822  36.594  28.147  1.00  0.00    -0.237 OA
ATOM     82  O   UNL A   1      32.458  34.532  28.041  1.00  0.00    -0.237 OA
ATOM     83  O   UNL A   1      32.290  36.017  29.998  1.00  0.00    -0.744 OA
ENDBRANCH  79  80
ENDBRANCH  47  72
BRANCH  59  84
ATOM     84  C   UNL A   1      39.810  34.346  36.984  1.00  0.00     0.058 A 
ATOM     85  C   UNL A   1      38.956  34.173  38.086  1.00  0.00     0.135 A 
ATOM     86  C   UNL A   1      40.540  35.543  36.902  1.00  0.00     0.135 A 
ATOM     87  F   UNL A   1      38.233  33.048  38.208  1.00  0.00    -0.206 F 
ATOM     88  C   UNL A   1      38.803  35.164  39.049  1.00  0.00     0.059 A 
ATOM     89  C   UNL A   1      40.419  36.539  37.868  1.00  0.00     0.059 A 
ATOM     90  F   UNL A   1      41.379  35.755  35.876  1.00  0.00    -0.206 F 
ATOM     91  C   UNL A   1      39.532  36.348  38.927  1.00  0.00     0.060 A 
BRANCH  91  92
ATOM     92  S   UNL A   1      39.325  37.630  40.181  1.00  0.00     0.124 S 
ATOM     93  O   UNL A   1      38.249  38.430  39.605  1.00  0.00    -0.237 OA
ATOM     94  O   UNL A   1      38.974  36.858  41.369  1.00  0.00    -0.237 OA
ATOM     95  O   UNL A   1      40.634  38.274  40.226  1.00  0.00    -0.744 OA
ENDBRANCH  91  92
ENDBRANCH  59  84
ENDBRANCH  33  34
ENDBRANCH  25  28
ENDBRANCH  23  24
ENDBRANCH   1  23
TORSDOF 17
ENDMDL
MODEL 2
REMARK VINA RESULT:     -11.2      7.252     12.924
REMARK SMILES C[NH2+][C@](C)(CC[N@H+]1CCC(C)(C)C1)C(=O)NCCCNC(=O)c1ccc(-c2c3nc(c(-c4c(F)cc(S(=O)(=O)[O-])cc4F)c4ccc([nH]4)c(-c4c(F)cc(S(=O)(=O)[O-])cc4F)c4nc(c(-c5c(F)cc(S(=O)(=O)[O-])cc5F)c5ccc2[nH]5)C=C4)C=C3)cc1
REMARK SMILES IDX 18 1 17 2 16 3 14 4 15 5 3 7 4 8 2 9 1 10 5 13 6 14 7 15
REMARK SMILES IDX 8 16 13 17 9 19 10 20 11 21 12 22 19 23 20 24 21 25 22 27
REMARK SMILES IDX 23 28 24 29 88 30 25 31 87 32 26 33 27 34 28 35 81 36 29 37
REMARK SMILES IDX 86 38 80 39 82 40 30 41 85 42 79 43 78 44 31 46 65 47 44 48
REMARK SMILES IDX 64 49 45 50 48 51 63 52 83 53 46 54 47 55 62 57 84 58 49 59
REMARK SMILES IDX 32 60 33 61 42 62 34 63 35 64 41 65 43 66 36 67 37 68 38 69
REMARK SMILES IDX 39 70 40 71 66 72 67 73 76 74 68 75 69 76 75 77 77 78 70 79
REMARK SMILES IDX 71 80 72 81 73 82 74 83 50 84 51 85 60 86 52 87 53 88 59 89
REMARK SMILES IDX 61 90 54 91 55 92 56 93 57 94 58 95
REMARK H PARENT 16 6 2 11 2 12 7 18 20 26 82 45 48 56
REMARK Flexibility Score: inf
ROOT
ATOM      1  C   UNL A   1      34.858  30.718  27.562  1.00  0.00     0.042 C 
ENDROOT
BRANCH   1   2
ATOM      2  C   UNL A   1      33.554  30.370  26.843  1.00  0.00     0.118 C 
BRANCH   2   3
ATOM      3  N   UNL A   1      32.636  29.549  27.613  1.00  0.00    -0.351 N 
ATOM      4  C   UNL A   1      31.993  28.366  27.377  1.00  0.00     0.281 C 
ATOM      5  O   UNL A   1      31.483  27.840  28.374  1.00  0.00    -0.268 OA
ATOM      6  H   UNL A   1      32.433  29.926  28.500  1.00  0.00     0.163 HD
BRANCH   4   7
ATOM      7  C   UNL A   1      31.931  27.672  25.975  1.00  0.00     0.177 C 
ATOM      8  C   UNL A   1      31.082  26.382  26.075  1.00  0.00     0.090 C 
BRANCH   7   9
ATOM      9  N   UNL A   1      33.290  27.251  25.500  1.00  0.00    -0.336 N 
ATOM     10  C   UNL A   1      33.636  25.856  25.743  1.00  0.00     0.331 C 
ATOM     11  H   UNL A   1      33.335  27.415  24.493  1.00  0.00     0.346 HD
ATOM     12  H   UNL A   1      33.958  27.803  26.037  1.00  0.00     0.346 HD
ENDBRANCH   7   9
BRANCH   7  13
ATOM     13  C   UNL A   1      31.326  28.616  24.894  1.00  0.00     0.140 C 
BRANCH  13  14
ATOM     14  C   UNL A   1      30.944  27.988  23.534  1.00  0.00     0.269 C 
BRANCH  14  15
ATOM     15  N   UNL A   1      29.812  28.625  22.871  1.00  0.00    -0.334 N 
ATOM     16  C   UNL A   1      28.527  27.966  23.125  1.00  0.00     0.263 C 
ATOM     17  C   UNL A   1      29.631  30.035  23.237  1.00  0.00     0.268 C 
ATOM     18  H   UNL A   1      30.061  28.542  21.886  1.00  0.00     0.348 HD
ATOM     19  C   UNL A   1      27.477  29.063  23.253  1.00  0.00     0.073 C 
ATOM     20  C   UNL A   1      28.193  30.331  22.786  1.00  0.00     0.019 C 
ATOM     21  C   UNL A   1      28.092  30.480  21.256  1.00  0.00     0.017 C 
ATOM     22  C   UNL A   1      27.617  31.578  23.453  1.00  0.00     0.017 C 
ENDBRANCH  14  15
ENDBRANCH  13  14
ENDBRANCH   7  13
ENDBRANCH   4   7
ENDBRANCH   2   3
ENDBRANCH   1   2
BRANCH   1  23
ATOM     23  C   UNL A   1      35.316  29.718  28.622  1.00  0.00     0.118 C 
BRANCH  23  24
ATOM     24  N   UNL A   1      35.528  30.336  29.917  1.00  0.00    -0.352 N 
ATOM     25  C   UNL A   1      36.680  30.457  30.655  1.00  0.00     0.251 C 
ATOM     26  H   UNL A   1      34.725  30.728  30.329  1.00  0.00     0.163 HD
ATOM     27  O   UNL A   1      36.601  30.866  31.811  1.00  0.00    -0.269 OA
BRANCH  25  28
ATOM     28  C   UNL A   1      38.004  30.085  30.095  1.00  0.00     0.039 A 
ATOM     29  C   UNL A   1      39.009  29.699  30.986  1.00  0.00     0.014 A 
ATOM     30  C   UNL A   1      38.290  30.171  28.728  1.00  0.00     0.014 A 
ATOM     31  C   UNL A   1      40.280  29.366  30.509  1.00  0.00     0.010 A 
ATOM     32  C   UNL A   1      39.546  29.783  28.246  1.00  0.00     0.010 A 
ATOM     33  C   UNL A   1      40.558  29.386  29.132  1.00  0.00    -0.014 A 
BRANCH  33  34
ATOM     34  C   UNL A   1      41.904  28.989  28.636  1.00  0.00     0.031 A 
ATOM     35  C   UNL A   1      43.033  29.983  28.575  1.00  0.00     0.074 A 
ATOM     36  C   UNL A   1      42.112  27.718  28.238  1.00  0.00     0.049 A 
ATOM     37  N   UNL A   1      44.281  29.793  28.228  1.00  0.00    -0.248 NA
ATOM     38  C   UNL A   1      42.716  31.375  28.931  1.00  0.00     0.031 C 
ATOM     39  C   UNL A   1      41.092  26.669  28.193  1.00  0.00     0.029 A 
ATOM     40  N   UNL A   1      43.253  27.089  27.802  1.00  0.00    -0.354 N 
ATOM     41  C   UNL A   1      44.900  31.035  28.324  1.00  0.00     0.074 A 
ATOM     42  C   UNL A   1      43.875  31.981  28.712  1.00  0.00     0.031 C 
ATOM     43  C   UNL A   1      41.657  25.522  27.784  1.00  0.00     0.029 A 
ATOM     44  C   UNL A   1      43.075  25.755  27.519  1.00  0.00     0.049 A 
ATOM     45  H   UNL A   1      44.117  27.550  27.700  1.00  0.00     0.167 HD
ATOM     46  C   UNL A   1      46.202  31.355  28.131  1.00  0.00     0.037 A 
ATOM     47  C   UNL A   1      43.952  24.820  27.106  1.00  0.00     0.037 A 
ATOM     48  C   UNL A   1      47.226  30.410  27.761  1.00  0.00     0.049 A 
ATOM     49  C   UNL A   1      45.398  25.193  26.925  1.00  0.00     0.074 A 
ATOM     50  C   UNL A   1      48.584  30.631  27.596  1.00  0.00     0.029 A 
ATOM     51  N   UNL A   1      47.008  29.066  27.496  1.00  0.00    -0.354 N 
ATOM     52  N   UNL A   1      45.975  26.358  27.090  1.00  0.00    -0.248 NA
ATOM     53  C   UNL A   1      46.312  24.118  26.515  1.00  0.00     0.031 C 
ATOM     54  C   UNL A   1      49.180  29.427  27.199  1.00  0.00     0.029 A 
ATOM     55  C   UNL A   1      48.201  28.449  27.153  1.00  0.00     0.049 A 
ATOM     56  H   UNL A   1      46.134  28.617  27.544  1.00  0.00     0.167 HD
ATOM     57  C   UNL A   1      47.323  26.155  26.816  1.00  0.00     0.074 A 
ATOM     58  C   UNL A   1      47.478  24.751  26.498  1.00  0.00     0.031 C 
ATOM     59  C   UNL A   1      48.341  27.052  26.825  1.00  0.00     0.037 A 
BRANCH  46  60
ATOM     60  C   UNL A   1      46.601  32.792  28.329  1.00  0.00     0.058 A 
ATOM     61  C   UNL A   1      47.033  33.267  29.578  1.00  0.00     0.135 A 
ATOM     62  C   UNL A   1      46.586  33.696  27.255  1.00  0.00     0.135 A 
ATOM     63  F   UNL A   1      47.055  32.448  30.641  1.00  0.00    -0.206 F 
ATOM     64  C   UNL A   1      47.407  34.594  29.762  1.00  0.00     0.059 A 
ATOM     65  C   UNL A   1      46.979  35.022  27.410  1.00  0.00     0.059 A 
ATOM     66  F   UNL A   1      46.184  33.295  26.039  1.00  0.00    -0.206 F 
ATOM     67  C   UNL A   1      47.374  35.466  28.672  1.00  0.00     0.060 A 
BRANCH  67  68
ATOM     68  S   UNL A   1      47.862  37.185  28.926  1.00  0.00     0.124 S 
ATOM     69  O   UNL A   1      49.023  37.290  28.048  1.00  0.00    -0.237 OA
ATOM     70  O   UNL A   1      46.675  37.916  28.496  1.00  0.00    -0.237 OA
ATOM     71  O   UNL A   1      48.148  37.249  30.357  1.00  0.00    -0.744 OA
ENDBRANCH  67  68
ENDBRANCH  46  60
BRANCH  47  72
ATOM     72  C   UNL A   1      43.490  23.429  26.871  1.00  0.00     0.058 A 
ATOM     73  C   UNL A   1      43.318  22.935  25.568  1.00  0.00     0.135 A 
ATOM     74  C   UNL A   1      43.232  22.559  27.941  1.00  0.00     0.135 A 
ATOM     75  F   UNL A   1      43.546  23.734  24.515  1.00  0.00    -0.206 F 
ATOM     76  C   UNL A   1      42.894  21.632  25.334  1.00  0.00     0.059 A 
ATOM     77  C   UNL A   1      42.829  21.244  27.731  1.00  0.00     0.059 A 
ATOM     78  F   UNL A   1      43.399  22.979  29.204  1.00  0.00    -0.206 F 
ATOM     79  C   UNL A   1      42.656  20.792  26.423  1.00  0.00     0.060 A 
BRANCH  79  80
ATOM     80  S   UNL A   1      42.169  19.080  26.111  1.00  0.00     0.124 S 
ATOM     81  O   UNL A   1      43.069  18.713  25.024  1.00  0.00    -0.237 OA
ATOM     82  O   UNL A   1      42.429  18.446  27.398  1.00  0.00    -0.237 OA
ATOM     83  O   UNL A   1      40.758  19.197  25.753  1.00  0.00    -0.744 OA
ENDBRANCH  79  80
ENDBRANCH  47  72
BRANCH  59  84
ATOM     84  C   UNL A   1      49.710  26.534  26.487  1.00  0.00     0.058 A 
ATOM     85  C   UNL A   1      50.575  26.042  27.478  1.00  0.00     0.135 A 
ATOM     86  C   UNL A   1      50.161  26.518  25.157  1.00  0.00     0.135 A 
ATOM     87  F   UNL A   1      50.193  26.039  28.765  1.00  0.00    -0.206 F 
ATOM     88  C   UNL A   1      51.852  25.588  27.168  1.00  0.00     0.059 A 
ATOM     89  C   UNL A   1      51.427  26.047  24.821  1.00  0.00     0.059 A 
ATOM     90  F   UNL A   1      49.370  26.967  24.169  1.00  0.00    -0.206 F 
ATOM     91  C   UNL A   1      52.273  25.602  25.837  1.00  0.00     0.060 A 
BRANCH  91  92
ATOM     92  S   UNL A   1      53.934  25.013  25.443  1.00  0.00     0.124 S 
ATOM     93  O   UNL A   1      54.246  25.794  24.252  1.00  0.00    -0.237 OA
ATOM     94  O   UNL A   1      54.686  25.362  26.644  1.00  0.00    -0.237 OA
ATOM     95  O   UNL A   1      53.743  23.583  25.226  1.00  0.00    -0.744 OA
ENDBRANCH  91  92
ENDBRANCH  59  84
ENDBRANCH  33  34
ENDBRANCH  25  28
ENDBRANCH  23  24
ENDBRANCH   1  23
TORSDOF 17
ENDMDL
MODEL 3
REMARK VINA RESULT:     -11.1      6.240      8.451
REMARK SMILES C[NH2+][C@](C)(CC[N@H+]1CCC(C)(C)C1)C(=O)NCCCNC(=O)c1ccc(-c2c3nc(c(-c4c(F)cc(S(=O)(=O)[O-])cc4F)c4ccc([nH]4)c(-c4c(F)cc(S(=O)(=O)[O-])cc4F)c4nc(c(-c5c(F)cc(S(=O)(=O)[O-])cc5F)c5ccc2[nH]5)C=C4)C=C3)cc1
REMARK SMILES IDX 18 1 17 2 16 3 14 4 15 5 3 7 4 8 2 9 1 10 5 13 6 14 7 15
REMARK SMILES IDX 8 16 13 17 9 19 10 20 11 21 12 22 19 23 20 24 21 25 22 27
REMARK SMILES IDX 23 28 24 29 88 30 25 31 87 32 26 33 27 34 28 35 81 36 29 37
REMARK SMILES IDX 86 38 80 39 82 40 30 41 85 42 79 43 78 44 31 46 65 47 44 48
REMARK SMILES IDX 64 49 45 50 48 51 63 52 83 53 46 54 47 55 62 57 84 58 49 59
REMARK SMILES IDX 32 60 33 61 42 62 34 63 35 64 41 65 43 66 36 67 37 68 38 69
REMARK SMILES IDX 39 70 40 71 66 72 67 73 76 74 68 75 69 76 75 77 77 78 70 79
REMARK SMILES IDX 71 80 72 81 73 82 74 83 50 84 51 85 60 86 52 87 53 88 59 89
REMARK SMILES IDX 61 90 54 91 55 92 56 93 57 94 58 95
REMARK H PARENT 16 6 2 11 2 12 7 18 20 26 82 45 48 56
REMARK Flexibility Score: inf
ROOT
ATOM      1  C   UNL A   1      37.986  20.591  24.849  1.00  0.00     0.042 C 
ENDROOT
BRANCH   1   2
ATOM      2  C   UNL A   1      36.495  20.531  25.178  1.00  0.00     0.118 C 
BRANCH   2   3
ATOM      3  N   UNL A   1      36.015  21.608  26.028  1.00  0.00    -0.351 N 
ATOM      4  C   UNL A   1      34.793  22.182  26.233  1.00  0.00     0.281 C 
ATOM      5  O   UNL A   1      34.719  22.914  27.229  1.00  0.00    -0.268 OA
ATOM      6  H   UNL A   1      36.727  22.010  26.577  1.00  0.00     0.163 HD
BRANCH   4   7
ATOM      7  C   UNL A   1      33.541  21.918  25.329  1.00  0.00     0.177 C 
ATOM      8  C   UNL A   1      33.913  22.165  23.848  1.00  0.00     0.090 C 
BRANCH   7   9
ATOM      9  N   UNL A   1      32.415  22.856  25.647  1.00  0.00    -0.336 N 
ATOM     10  C   UNL A   1      31.660  23.342  24.500  1.00  0.00     0.331 C 
ATOM     11  H   UNL A   1      31.767  22.369  26.267  1.00  0.00     0.346 HD
ATOM     12  H   UNL A   1      32.846  23.679  26.068  1.00  0.00     0.346 HD
ENDBRANCH   7   9
BRANCH   7  13
ATOM     13  C   UNL A   1      33.007  20.465  25.501  1.00  0.00     0.140 C 
BRANCH  13  14
ATOM     14  C   UNL A   1      32.527  19.728  24.230  1.00  0.00     0.269 C 
BRANCH  14  15
ATOM     15  N   UNL A   1      32.692  18.280  24.273  1.00  0.00    -0.334 N 
ATOM     16  C   UNL A   1      33.041  17.684  22.980  1.00  0.00     0.263 C 
ATOM     17  C   UNL A   1      33.714  17.831  25.224  1.00  0.00     0.268 C 
ATOM     18  H   UNL A   1      31.768  17.965  24.567  1.00  0.00     0.348 HD
ATOM     19  C   UNL A   1      34.032  16.560  23.257  1.00  0.00     0.073 C 
ATOM     20  C   UNL A   1      33.998  16.389  24.777  1.00  0.00     0.019 C 
ATOM     21  C   UNL A   1      32.866  15.428  25.190  1.00  0.00     0.017 C 
ATOM     22  C   UNL A   1      35.328  15.862  25.311  1.00  0.00     0.017 C 
ENDBRANCH  14  15
ENDBRANCH  13  14
ENDBRANCH   7  13
ENDBRANCH   4   7
ENDBRANCH   2   3
ENDBRANCH   1   2
BRANCH   1  23
ATOM     23  C   UNL A   1      38.926  20.671  26.050  1.00  0.00     0.118 C 
BRANCH  23  24
ATOM     24  N   UNL A   1      40.008  19.708  25.977  1.00  0.00    -0.352 N 
ATOM     25  C   UNL A   1      41.365  19.901  26.079  1.00  0.00     0.251 C 
ATOM     26  H   UNL A   1      39.728  18.775  25.834  1.00  0.00     0.163 HD
ATOM     27  O   UNL A   1      42.115  18.965  25.813  1.00  0.00    -0.269 OA
BRANCH  25  28
ATOM     28  C   UNL A   1      41.935  21.212  26.478  1.00  0.00     0.039 A 
ATOM     29  C   UNL A   1      42.160  22.162  25.478  1.00  0.00     0.014 A 
ATOM     30  C   UNL A   1      42.310  21.496  27.796  1.00  0.00     0.014 A 
ATOM     31  C   UNL A   1      42.721  23.401  25.800  1.00  0.00     0.010 A 
ATOM     32  C   UNL A   1      42.820  22.757  28.126  1.00  0.00     0.010 A 
ATOM     33  C   UNL A   1      43.041  23.720  27.131  1.00  0.00    -0.014 A 
BRANCH  33  34
ATOM     34  C   UNL A   1      43.599  25.059  27.464  1.00  0.00     0.031 A 
ATOM     35  C   UNL A   1      45.046  25.382  27.206  1.00  0.00     0.074 A 
ATOM     36  C   UNL A   1      42.793  25.995  28.004  1.00  0.00     0.049 A 
ATOM     37  N   UNL A   1      45.682  26.514  27.379  1.00  0.00    -0.248 NA
ATOM     38  C   UNL A   1      45.895  24.290  26.706  1.00  0.00     0.031 C 
ATOM     39  C   UNL A   1      41.385  25.796  28.358  1.00  0.00     0.029 A 
ATOM     40  N   UNL A   1      43.037  27.303  28.344  1.00  0.00    -0.354 N 
ATOM     41  C   UNL A   1      47.001  26.273  27.010  1.00  0.00     0.074 A 
ATOM     42  C   UNL A   1      47.085  24.873  26.653  1.00  0.00     0.031 C 
ATOM     43  C   UNL A   1      40.884  26.946  28.835  1.00  0.00     0.029 A 
ATOM     44  C   UNL A   1      41.936  27.960  28.840  1.00  0.00     0.049 A 
ATOM     45  H   UNL A   1      43.918  27.730  28.243  1.00  0.00     0.167 HD
ATOM     46  C   UNL A   1      48.040  27.141  26.950  1.00  0.00     0.037 A 
ATOM     47  C   UNL A   1      41.782  29.236  29.243  1.00  0.00     0.037 A 
ATOM     48  C   UNL A   1      47.955  28.539  27.290  1.00  0.00     0.049 A 
ATOM     49  C   UNL A   1      42.943  30.187  29.142  1.00  0.00     0.074 A 
ATOM     50  C   UNL A   1      48.941  29.508  27.209  1.00  0.00     0.029 A 
ATOM     51  N   UNL A   1      46.819  29.169  27.776  1.00  0.00    -0.354 N 
ATOM     52  N   UNL A   1      44.163  29.956  28.723  1.00  0.00    -0.248 NA
ATOM     53  C   UNL A   1      42.699  31.576  29.556  1.00  0.00     0.031 C 
ATOM     54  C   UNL A   1      48.410  30.716  27.678  1.00  0.00     0.029 A 
ATOM     55  C   UNL A   1      47.083  30.509  28.015  1.00  0.00     0.049 A 
ATOM     56  H   UNL A   1      45.952  28.729  27.929  1.00  0.00     0.167 HD
ATOM     57  C   UNL A   1      44.831  31.172  28.812  1.00  0.00     0.074 A 
ATOM     58  C   UNL A   1      43.872  32.141  29.301  1.00  0.00     0.031 C 
ATOM     59  C   UNL A   1      46.123  31.461  28.515  1.00  0.00     0.037 A 
BRANCH  46  60
ATOM     60  C   UNL A   1      49.368  26.604  26.488  1.00  0.00     0.058 A 
ATOM     61  C   UNL A   1      49.804  26.770  25.164  1.00  0.00     0.135 A 
ATOM     62  C   UNL A   1      50.228  25.948  27.382  1.00  0.00     0.135 A 
ATOM     63  F   UNL A   1      49.015  27.378  24.264  1.00  0.00    -0.206 F 
ATOM     64  C   UNL A   1      51.032  26.279  24.735  1.00  0.00     0.059 A 
ATOM     65  C   UNL A   1      51.473  25.470  26.982  1.00  0.00     0.059 A 
ATOM     66  F   UNL A   1      49.863  25.764  28.661  1.00  0.00    -0.206 F 
ATOM     67  C   UNL A   1      51.860  25.626  25.652  1.00  0.00     0.060 A 
BRANCH  67  68
ATOM     68  S   UNL A   1      53.451  24.994  25.081  1.00  0.00     0.124 S 
ATOM     69  O   UNL A   1      54.372  25.646  26.008  1.00  0.00    -0.237 OA
ATOM     70  O   UNL A   1      53.297  23.553  25.251  1.00  0.00    -0.237 OA
ATOM     71  O   UNL A   1      53.523  25.454  23.697  1.00  0.00    -0.744 OA
ENDBRANCH  67  68
ENDBRANCH  46  60
BRANCH  47  72
ATOM     72  C   UNL A   1      40.463  29.697  29.745  1.00  0.00     0.058 A 
ATOM     73  C   UNL A   1      40.240  29.890  31.118  1.00  0.00     0.135 A 
ATOM     74  C   UNL A   1      39.407  29.973  28.864  1.00  0.00     0.135 A 
ATOM     75  F   UNL A   1      41.218  29.632  31.997  1.00  0.00    -0.206 F 
ATOM     76  C   UNL A   1      39.012  30.330  31.600  1.00  0.00     0.059 A 
ATOM     77  C   UNL A   1      38.176  30.435  29.321  1.00  0.00     0.059 A 
ATOM     78  F   UNL A   1      39.577  29.821  27.542  1.00  0.00    -0.206 F 
ATOM     79  C   UNL A   1      37.987  30.603  30.693  1.00  0.00     0.060 A 
BRANCH  79  80
ATOM     80  S   UNL A   1      36.416  31.237  31.321  1.00  0.00     0.124 S 
ATOM     81  O   UNL A   1      35.993  30.153  32.200  1.00  0.00    -0.237 OA
ATOM     82  O   UNL A   1      36.822  32.473  31.979  1.00  0.00    -0.237 OA
ATOM     83  O   UNL A   1      35.622  31.415  30.108  1.00  0.00    -0.744 OA
ENDBRANCH  79  80
ENDBRANCH  47  72
BRANCH  59  84
ATOM     84  C   UNL A   1      46.566  32.884  28.709  1.00  0.00     0.058 A 
ATOM     85  C   UNL A   1      46.500  33.822  27.666  1.00  0.00     0.135 A 
ATOM     86  C   UNL A   1      47.053  33.319  29.952  1.00  0.00     0.135 A 
ATOM     87  F   UNL A   1      46.046  33.455  26.456  1.00  0.00    -0.206 F 
ATOM     88  C   UNL A   1      46.936  35.131  27.837  1.00  0.00     0.059 A 
ATOM     89  C   UNL A   1      47.472  34.631  30.152  1.00  0.00     0.059 A 
ATOM     90  F   UNL A   1      47.127  32.466  30.986  1.00  0.00    -0.206 F 
ATOM     91  C   UNL A   1      47.428  35.525  29.082  1.00  0.00     0.060 A 
BRANCH  91  92
ATOM     92  S   UNL A   1      47.994  37.227  29.295  1.00  0.00     0.124 S 
ATOM     93  O   UNL A   1      47.440  37.557  30.603  1.00  0.00    -0.237 OA
ATOM     94  O   UNL A   1      49.446  37.087  29.239  1.00  0.00    -0.237 OA
ATOM     95  O   UNL A   1      47.395  37.926  28.163  1.00  0.00    -0.744 OA
ENDBRANCH  91  92
ENDBRANCH  59  84
ENDBRANCH  33  34
ENDBRANCH  25  28
ENDBRANCH  23  24
ENDBRANCH   1  23
TORSDOF 17
ENDMDL
