MODEL 1
REMARK VINA RESULT:     -12.1      0.000      0.000
REMARK SMILES Cn1c(C(=O)NCCCNC(=O)c2ccc(-c3c4nc(c(-c5c(F)cc(S(=O)(=O)[O-])cc5F)c5ccc([nH]5)c(-c5c(F)cc(S(=O)(=O)[O-])cc5F)c5nc(c(-c6c(F)cc(S(=O)(=O)[O-])cc6F)c6ccc3[nH]6)C=C5)C=C4)cc2)cc2cc(OCc3ccccc3)ccc21
REMARK SMILES IDX 8 1 7 2 6 3 4 4 5 5 3 7 1 8 2 9 93 10 79 11 80 12 92 13
REMARK SMILES IDX 81 14 91 15 82 16 83 17 84 18 85 19 86 20 90 21 87 22 89 23
REMARK SMILES IDX 88 24 9 25 10 26 11 27 12 29 13 30 14 31 78 32 15 33 77 34
REMARK SMILES IDX 16 35 17 36 18 37 71 38 19 39 76 40 70 41 72 42 20 43 75 44
REMARK SMILES IDX 69 45 68 46 21 48 55 49 34 50 54 51 35 52 38 53 53 54 73 55
REMARK SMILES IDX 36 56 37 57 52 59 74 60 39 61 22 62 23 63 32 64 24 65 25 66
REMARK SMILES IDX 31 67 33 68 26 69 27 70 28 71 29 72 30 73 56 74 57 75 66 76
REMARK SMILES IDX 58 77 59 78 65 79 67 80 60 81 61 82 62 83 63 84 64 85 40 86
REMARK SMILES IDX 41 87 50 88 42 89 43 90 49 91 51 92 44 93 45 94 46 95 47 96
REMARK SMILES IDX 48 97
REMARK H PARENT 6 6 10 28 72 47 38 58
REMARK Flexibility Score: inf
ROOT
ATOM      1  C   UNL A   1      35.829  33.397  29.172  1.00  0.00     0.042 C 
ENDROOT
BRANCH   1   2
ATOM      2  C   UNL A   1      36.879  33.950  30.107  1.00  0.00     0.118 C 
BRANCH   2   3
ATOM      3  N   UNL A   1      36.392  34.618  31.292  1.00  0.00    -0.351 N 
ATOM      4  C   UNL A   1      36.763  34.459  32.607  1.00  0.00     0.267 C 
ATOM      5  O   UNL A   1      36.180  35.171  33.424  1.00  0.00    -0.268 OA
ATOM      6  H   UNL A   1      35.690  35.289  31.133  1.00  0.00     0.163 HD
BRANCH   4   7
ATOM      7  C   UNL A   1      37.730  33.451  33.017  1.00  0.00     0.107 A 
ATOM      8  C   UNL A   1      39.525  34.717  34.316  1.00  0.00     0.150 C 
ATOM      9  N   UNL A   1      38.964  33.573  33.626  1.00  0.00    -0.340 N 
ATOM     10  C   UNL A   1      39.614  32.355  33.646  1.00  0.00     0.049 A 
ATOM     11  C   UNL A   1      37.507  32.075  32.931  1.00  0.00     0.042 A 
ATOM     12  C   UNL A   1      38.685  31.381  33.309  1.00  0.00     0.004 A 
ATOM     13  C   UNL A   1      40.928  32.050  33.999  1.00  0.00     0.031 A 
ATOM     14  C   UNL A   1      39.066  30.024  33.389  1.00  0.00     0.056 A 
ATOM     15  C   UNL A   1      41.277  30.706  34.085  1.00  0.00     0.048 A 
ATOM     16  C   UNL A   1      40.370  29.691  33.790  1.00  0.00     0.120 A 
BRANCH  16  17
ATOM     17  O   UNL A   1      40.648  28.348  33.836  1.00  0.00    -0.489 OA
BRANCH  17  18
ATOM     18  C   UNL A   1      41.512  27.873  34.880  1.00  0.00     0.265 C 
BRANCH  18  19
ATOM     19  C   UNL A   1      42.376  26.707  34.447  1.00  0.00    -0.011 A 
ATOM     20  C   UNL A   1      43.256  26.842  33.367  1.00  0.00     0.007 A 
ATOM     21  C   UNL A   1      42.350  25.492  35.154  1.00  0.00     0.007 A 
ATOM     22  C   UNL A   1      44.127  25.805  33.032  1.00  0.00     0.000 A 
ATOM     23  C   UNL A   1      43.241  24.467  34.834  1.00  0.00     0.000 A 
ATOM     24  C   UNL A   1      44.130  24.625  33.775  1.00  0.00     0.000 A 
ENDBRANCH  18  19
ENDBRANCH  17  18
ENDBRANCH  16  17
ENDBRANCH   4   7
ENDBRANCH   2   3
ENDBRANCH   1   2
BRANCH   1  25
ATOM     25  C   UNL A   1      34.789  32.505  29.822  1.00  0.00     0.118 C 
BRANCH  25  26
ATOM     26  N   UNL A   1      34.122  31.590  28.902  1.00  0.00    -0.352 N 
ATOM     27  C   UNL A   1      34.584  30.491  28.209  1.00  0.00     0.251 C 
ATOM     28  H   UNL A   1      33.172  31.793  28.748  1.00  0.00     0.163 HD
ATOM     29  O   UNL A   1      33.842  29.945  27.395  1.00  0.00    -0.269 OA
BRANCH  27  30
ATOM     30  C   UNL A   1      35.965  29.990  28.400  1.00  0.00     0.039 A 
ATOM     31  C   UNL A   1      36.877  30.062  27.342  1.00  0.00     0.014 A 
ATOM     32  C   UNL A   1      36.376  29.450  29.617  1.00  0.00     0.014 A 
ATOM     33  C   UNL A   1      38.207  29.679  27.542  1.00  0.00     0.010 A 
ATOM     34  C   UNL A   1      37.724  29.227  29.860  1.00  0.00     0.010 A 
ATOM     35  C   UNL A   1      38.656  29.305  28.819  1.00  0.00    -0.014 A 
BRANCH  35  36
ATOM     36  C   UNL A   1      40.072  28.940  29.085  1.00  0.00     0.031 A 
ATOM     37  C   UNL A   1      41.006  29.952  29.705  1.00  0.00     0.074 A 
ATOM     38  C   UNL A   1      40.536  27.730  28.713  1.00  0.00     0.049 A 
ATOM     39  N   UNL A   1      42.286  29.854  29.953  1.00  0.00    -0.248 NA
ATOM     40  C   UNL A   1      40.435  31.266  30.052  1.00  0.00     0.031 C 
ATOM     41  C   UNL A   1      39.754  26.690  28.041  1.00  0.00     0.029 A 
ATOM     42  N   UNL A   1      41.783  27.170  28.843  1.00  0.00    -0.354 N 
ATOM     43  C   UNL A   1      42.670  31.091  30.461  1.00  0.00     0.074 A 
ATOM     44  C   UNL A   1      41.510  31.949  30.409  1.00  0.00     0.031 C 
ATOM     45  C   UNL A   1      40.525  25.605  27.858  1.00  0.00     0.029 A 
ATOM     46  C   UNL A   1      41.867  25.886  28.358  1.00  0.00     0.049 A 
ATOM     47  H   UNL A   1      42.546  27.643  29.247  1.00  0.00     0.167 HD
ATOM     48  C   UNL A   1      43.870  31.470  30.963  1.00  0.00     0.037 A 
ATOM     49  C   UNL A   1      42.907  25.030  28.322  1.00  0.00     0.037 A 
ATOM     50  C   UNL A   1      45.009  30.597  31.049  1.00  0.00     0.049 A 
ATOM     51  C   UNL A   1      44.225  25.464  28.905  1.00  0.00     0.074 A 
ATOM     52  C   UNL A   1      46.253  30.855  31.597  1.00  0.00     0.029 A 
ATOM     53  N   UNL A   1      45.042  29.292  30.579  1.00  0.00    -0.354 N 
ATOM     54  N   UNL A   1      44.550  26.616  29.445  1.00  0.00    -0.248 NA
ATOM     55  C   UNL A   1      45.314  24.479  28.890  1.00  0.00     0.031 C 
ATOM     56  C   UNL A   1      47.054  29.724  31.414  1.00  0.00     0.029 A 
ATOM     57  C   UNL A   1      46.290  28.738  30.809  1.00  0.00     0.049 A 
ATOM     58  H   UNL A   1      44.290  28.828  30.147  1.00  0.00     0.167 HD
ATOM     59  C   UNL A   1      45.870  26.481  29.863  1.00  0.00     0.074 A 
ATOM     60  C   UNL A   1      46.275  25.131  29.527  1.00  0.00     0.031 C 
ATOM     61  C   UNL A   1      46.672  27.389  30.474  1.00  0.00     0.037 A 
BRANCH  48  62
ATOM     62  C   UNL A   1      44.001  32.882  31.470  1.00  0.00     0.058 A 
ATOM     63  C   UNL A   1      44.016  33.984  30.598  1.00  0.00     0.135 A 
ATOM     64  C   UNL A   1      44.089  33.141  32.848  1.00  0.00     0.135 A 
ATOM     65  F   UNL A   1      43.956  33.796  29.269  1.00  0.00    -0.206 F 
ATOM     66  C   UNL A   1      44.147  35.286  31.069  1.00  0.00     0.059 A 
ATOM     67  C   UNL A   1      44.185  34.439  33.344  1.00  0.00     0.059 A 
ATOM     68  F   UNL A   1      44.082  32.129  33.729  1.00  0.00    -0.206 F 
ATOM     69  C   UNL A   1      44.229  35.503  32.445  1.00  0.00     0.060 A 
BRANCH  69  70
ATOM     70  S   UNL A   1      44.387  37.200  33.038  1.00  0.00     0.124 S 
ATOM     71  O   UNL A   1      45.390  37.050  34.088  1.00  0.00    -0.237 OA
ATOM     72  O   UNL A   1      44.825  37.909  31.840  1.00  0.00    -0.237 OA
ATOM     73  O   UNL A   1      43.041  37.526  33.500  1.00  0.00    -0.744 OA
ENDBRANCH  69  70
ENDBRANCH  48  62
BRANCH  49  74
ATOM     74  C   UNL A   1      42.734  23.667  27.748  1.00  0.00     0.058 A 
ATOM     75  C   UNL A   1      42.531  22.554  28.577  1.00  0.00     0.135 A 
ATOM     76  C   UNL A   1      42.758  23.450  26.361  1.00  0.00     0.135 A 
ATOM     77  F   UNL A   1      42.503  22.707  29.910  1.00  0.00    -0.206 F 
ATOM     78  C   UNL A   1      42.380  21.272  28.057  1.00  0.00     0.059 A 
ATOM     79  C   UNL A   1      42.580  22.183  25.816  1.00  0.00     0.059 A 
ATOM     80  F   UNL A   1      42.930  24.483  25.521  1.00  0.00    -0.206 F 
ATOM     81  C   UNL A   1      42.403  21.098  26.673  1.00  0.00     0.060 A 
BRANCH  81  82
ATOM     82  S   UNL A   1      42.161  19.436  26.006  1.00  0.00     0.124 S 
ATOM     83  O   UNL A   1      40.725  19.427  25.754  1.00  0.00    -0.237 OA
ATOM     84  O   UNL A   1      43.017  19.454  24.824  1.00  0.00    -0.237 OA
ATOM     85  O   UNL A   1      42.618  18.570  27.089  1.00  0.00    -0.744 OA
ENDBRANCH  81  82
ENDBRANCH  49  74
BRANCH  61  86
ATOM     86  C   UNL A   1      48.054  26.937  30.863  1.00  0.00     0.058 A 
ATOM     87  C   UNL A   1      48.320  26.339  32.104  1.00  0.00     0.135 A 
ATOM     88  C   UNL A   1      49.121  27.076  29.960  1.00  0.00     0.135 A 
ATOM     89  F   UNL A   1      47.336  26.183  33.003  1.00  0.00    -0.206 F 
ATOM     90  C   UNL A   1      49.604  25.933  32.453  1.00  0.00     0.059 A 
ATOM     91  C   UNL A   1      50.406  26.647  30.274  1.00  0.00     0.059 A 
ATOM     92  F   UNL A   1      48.919  27.627  28.752  1.00  0.00    -0.206 F 
ATOM     93  C   UNL A   1      50.640  26.094  31.532  1.00  0.00     0.060 A 
BRANCH  93  94
ATOM     94  S   UNL A   1      52.300  25.558  31.995  1.00  0.00     0.124 S 
ATOM     95  O   UNL A   1      52.094  24.131  32.223  1.00  0.00    -0.237 OA
ATOM     96  O   UNL A   1      53.082  25.905  30.813  1.00  0.00    -0.237 OA
ATOM     97  O   UNL A   1      52.592  26.348  33.188  1.00  0.00    -0.744 OA
ENDBRANCH  93  94
ENDBRANCH  61  86
ENDBRANCH  35  36
ENDBRANCH  27  30
ENDBRANCH  25  26
ENDBRANCH   1  25
TORSDOF 16
ENDMDL
MODEL 2
REMARK VINA RESULT:     -12.1      4.282      7.382
REMARK SMILES Cn1c(C(=O)NCCCNC(=O)c2ccc(-c3c4nc(c(-c5c(F)cc(S(=O)(=O)[O-])cc5F)c5ccc([nH]5)c(-c5c(F)cc(S(=O)(=O)[O-])cc5F)c5nc(c(-c6c(F)cc(S(=O)(=O)[O-])cc6F)c6ccc3[nH]6)C=C5)C=C4)cc2)cc2cc(OCc3ccccc3)ccc21
REMARK SMILES IDX 8 1 7 2 6 3 4 4 5 5 3 7 1 8 2 9 93 10 79 11 80 12 92 13
REMARK SMILES IDX 81 14 91 15 82 16 83 17 84 18 85 19 86 20 90 21 87 22 89 23
REMARK SMILES IDX 88 24 9 25 10 26 11 27 12 29 13 30 14 31 78 32 15 33 77 34
REMARK SMILES IDX 16 35 17 36 18 37 71 38 19 39 76 40 70 41 72 42 20 43 75 44
REMARK SMILES IDX 69 45 68 46 21 48 55 49 34 50 54 51 35 52 38 53 53 54 73 55
REMARK SMILES IDX 36 56 37 57 52 59 74 60 39 61 22 62 23 63 32 64 24 65 25 66
REMARK SMILES IDX 31 67 33 68 26 69 27 70 28 71 29 72 30 73 56 74 57 75 66 76
REMARK SMILES IDX 58 77 59 78 65 79 67 80 60 81 61 82 62 83 63 84 64 85 40 86
REMARK SMILES IDX 41 87 50 88 42 89 43 90 49 91 51 92 44 93 45 94 46 95 47 96
REMARK SMILES IDX 48 97
REMARK H PARENT 6 6 10 28 72 47 38 58
REMARK Flexibility Score: inf
ROOT
ATOM      1  C   UNL A   1      32.983  28.180  25.722  1.00  0.00     0.042 C 
ENDROOT
BRANCH   1   2
ATOM      2  C   UNL A   1      31.488  28.392  25.663  1.00  0.00     0.118 C 
BRANCH   2   3
ATOM      3  N   UNL A   1      30.916  28.552  24.347  1.00  0.00    -0.351 N 
ATOM      4  C   UNL A   1      30.744  27.626  23.343  1.00  0.00     0.267 C 
ATOM      5  O   UNL A   1      30.218  28.039  22.310  1.00  0.00    -0.268 OA
ATOM      6  H   UNL A   1      30.600  29.460  24.137  1.00  0.00     0.163 HD
BRANCH   4   7
ATOM      7  C   UNL A   1      31.231  26.260  23.465  1.00  0.00     0.107 A 
ATOM      8  C   UNL A   1      33.276  26.126  21.946  1.00  0.00     0.150 C 
ATOM      9  N   UNL A   1      32.221  25.585  22.778  1.00  0.00    -0.340 N 
ATOM     10  C   UNL A   1      32.201  24.242  23.099  1.00  0.00     0.049 A 
ATOM     11  C   UNL A   1      30.795  25.361  24.441  1.00  0.00     0.042 A 
ATOM     12  C   UNL A   1      31.386  24.091  24.212  1.00  0.00     0.004 A 
ATOM     13  C   UNL A   1      32.894  23.177  22.525  1.00  0.00     0.031 A 
ATOM     14  C   UNL A   1      31.305  22.823  24.827  1.00  0.00     0.056 A 
ATOM     15  C   UNL A   1      32.810  21.939  23.156  1.00  0.00     0.048 A 
ATOM     16  C   UNL A   1      32.033  21.746  24.295  1.00  0.00     0.120 A 
BRANCH  16  17
ATOM     17  O   UNL A   1      31.890  20.553  24.958  1.00  0.00    -0.489 OA
BRANCH  17  18
ATOM     18  C   UNL A   1      33.064  19.950  25.524  1.00  0.00     0.265 C 
BRANCH  18  19
ATOM     19  C   UNL A   1      33.223  18.493  25.143  1.00  0.00    -0.011 A 
ATOM     20  C   UNL A   1      34.197  18.109  24.213  1.00  0.00     0.007 A 
ATOM     21  C   UNL A   1      32.438  17.501  25.754  1.00  0.00     0.007 A 
ATOM     22  C   UNL A   1      34.416  16.759  23.938  1.00  0.00     0.000 A 
ATOM     23  C   UNL A   1      32.677  16.150  25.497  1.00  0.00     0.000 A 
ATOM     24  C   UNL A   1      33.668  15.781  24.591  1.00  0.00     0.000 A 
ENDBRANCH  18  19
ENDBRANCH  17  18
ENDBRANCH  16  17
ENDBRANCH   4   7
ENDBRANCH   2   3
ENDBRANCH   1   2
BRANCH   1  25
ATOM     25  C   UNL A   1      33.613  28.390  27.085  1.00  0.00     0.118 C 
BRANCH  25  26
ATOM     26  N   UNL A   1      33.593  29.774  27.549  1.00  0.00    -0.352 N 
ATOM     27  C   UNL A   1      34.563  30.554  28.140  1.00  0.00     0.251 C 
ATOM     28  H   UNL A   1      32.732  30.232  27.417  1.00  0.00     0.163 HD
ATOM     29  O   UNL A   1      34.259  31.673  28.549  1.00  0.00    -0.269 OA
BRANCH  27  30
ATOM     30  C   UNL A   1      35.944  30.051  28.325  1.00  0.00     0.039 A 
ATOM     31  C   UNL A   1      36.855  30.133  27.267  1.00  0.00     0.014 A 
ATOM     32  C   UNL A   1      36.356  29.498  29.535  1.00  0.00     0.014 A 
ATOM     33  C   UNL A   1      38.185  29.748  27.461  1.00  0.00     0.010 A 
ATOM     34  C   UNL A   1      37.704  29.272  29.775  1.00  0.00     0.010 A 
ATOM     35  C   UNL A   1      38.634  29.361  28.734  1.00  0.00    -0.014 A 
BRANCH  35  36
ATOM     36  C   UNL A   1      40.051  28.992  28.994  1.00  0.00     0.031 A 
ATOM     37  C   UNL A   1      40.994  30.007  29.595  1.00  0.00     0.074 A 
ATOM     38  C   UNL A   1      40.507  27.775  28.634  1.00  0.00     0.049 A 
ATOM     39  N   UNL A   1      42.276  29.906  29.834  1.00  0.00    -0.248 NA
ATOM     40  C   UNL A   1      40.432  31.327  29.929  1.00  0.00     0.031 C 
ATOM     41  C   UNL A   1      39.714  26.730  27.980  1.00  0.00     0.029 A 
ATOM     42  N   UNL A   1      41.752  27.210  28.762  1.00  0.00    -0.354 N 
ATOM     43  C   UNL A   1      42.669  31.147  30.324  1.00  0.00     0.074 A 
ATOM     44  C   UNL A   1      41.512  32.010  30.270  1.00  0.00     0.031 C 
ATOM     45  C   UNL A   1      40.479  25.640  27.806  1.00  0.00     0.029 A 
ATOM     46  C   UNL A   1      41.826  25.920  28.293  1.00  0.00     0.049 A 
ATOM     47  H   UNL A   1      42.520  27.685  29.155  1.00  0.00     0.167 HD
ATOM     48  C   UNL A   1      43.874  31.527  30.813  1.00  0.00     0.037 A 
ATOM     49  C   UNL A   1      42.862  25.059  28.260  1.00  0.00     0.037 A 
ATOM     50  C   UNL A   1      45.010  30.649  30.902  1.00  0.00     0.049 A 
ATOM     51  C   UNL A   1      44.187  25.494  28.828  1.00  0.00     0.074 A 
ATOM     52  C   UNL A   1      46.258  30.909  31.438  1.00  0.00     0.029 A 
ATOM     53  N   UNL A   1      45.033  29.338  30.448  1.00  0.00    -0.354 N 
ATOM     54  N   UNL A   1      44.521  26.651  29.351  1.00  0.00    -0.248 NA
ATOM     55  C   UNL A   1      45.270  24.503  28.818  1.00  0.00     0.031 C 
ATOM     56  C   UNL A   1      47.053  29.772  31.263  1.00  0.00     0.029 A 
ATOM     57  C   UNL A   1      46.280  28.782  30.676  1.00  0.00     0.049 A 
ATOM     58  H   UNL A   1      44.275  28.873  30.028  1.00  0.00     0.167 HD
ATOM     59  C   UNL A   1      45.842  26.515  29.762  1.00  0.00     0.074 A 
ATOM     60  C   UNL A   1      46.239  25.159  29.440  1.00  0.00     0.031 C 
ATOM     61  C   UNL A   1      46.654  27.427  30.356  1.00  0.00     0.037 A 
BRANCH  48  62
ATOM     62  C   UNL A   1      44.015  32.944  31.301  1.00  0.00     0.058 A 
ATOM     63  C   UNL A   1      43.727  33.303  32.630  1.00  0.00     0.135 A 
ATOM     64  C   UNL A   1      44.468  33.955  30.438  1.00  0.00     0.135 A 
ATOM     65  F   UNL A   1      43.271  32.383  33.495  1.00  0.00    -0.206 F 
ATOM     66  C   UNL A   1      43.850  34.615  33.075  1.00  0.00     0.059 A 
ATOM     67  C   UNL A   1      44.632  35.269  30.872  1.00  0.00     0.059 A 
ATOM     68  F   UNL A   1      44.756  33.673  29.158  1.00  0.00    -0.206 F 
ATOM     69  C   UNL A   1      44.306  35.591  32.188  1.00  0.00     0.060 A 
BRANCH  69  70
ATOM     70  S   UNL A   1      44.469  37.286  32.786  1.00  0.00     0.124 S 
ATOM     71  O   UNL A   1      43.747  37.218  34.053  1.00  0.00    -0.237 OA
ATOM     72  O   UNL A   1      45.917  37.441  32.889  1.00  0.00    -0.237 OA
ATOM     73  O   UNL A   1      43.828  38.079  31.742  1.00  0.00    -0.744 OA
ENDBRANCH  69  70
ENDBRANCH  48  62
BRANCH  49  74
ATOM     74  C   UNL A   1      42.679  23.690  27.705  1.00  0.00     0.058 A 
ATOM     75  C   UNL A   1      42.792  23.447  26.328  1.00  0.00     0.135 A 
ATOM     76  C   UNL A   1      42.397  22.595  28.538  1.00  0.00     0.135 A 
ATOM     77  F   UNL A   1      43.057  24.459  25.488  1.00  0.00    -0.206 F 
ATOM     78  C   UNL A   1      42.611  22.175  25.792  1.00  0.00     0.059 A 
ATOM     79  C   UNL A   1      42.241  21.310  28.030  1.00  0.00     0.059 A 
ATOM     80  F   UNL A   1      42.297  22.768  29.865  1.00  0.00    -0.206 F 
ATOM     81  C   UNL A   1      42.338  21.112  26.653  1.00  0.00     0.060 A 
BRANCH  81  82
ATOM     82  S   UNL A   1      42.150  19.457  25.952  1.00  0.00     0.124 S 
ATOM     83  O   UNL A   1      40.710  19.393  25.731  1.00  0.00    -0.237 OA
ATOM     84  O   UNL A   1      42.979  19.537  24.753  1.00  0.00    -0.237 OA
ATOM     85  O   UNL A   1      42.667  18.587  27.005  1.00  0.00    -0.744 OA
ENDBRANCH  81  82
ENDBRANCH  49  74
BRANCH  61  86
ATOM     86  C   UNL A   1      48.036  26.973  30.740  1.00  0.00     0.058 A 
ATOM     87  C   UNL A   1      49.140  27.146  29.892  1.00  0.00     0.135 A 
ATOM     88  C   UNL A   1      48.260  26.384  31.996  1.00  0.00     0.135 A 
ATOM     89  F   UNL A   1      48.980  27.703  28.681  1.00  0.00    -0.206 F 
ATOM     90  C   UNL A   1      50.410  26.714  30.256  1.00  0.00     0.059 A 
ATOM     91  C   UNL A   1      49.528  25.975  32.396  1.00  0.00     0.059 A 
ATOM     92  F   UNL A   1      47.242  26.208  32.854  1.00  0.00    -0.206 F 
ATOM     93  C   UNL A   1      50.593  26.127  31.510  1.00  0.00     0.060 A 
BRANCH  93  94
ATOM     94  S   UNL A   1      52.248  25.576  31.973  1.00  0.00     0.124 S 
ATOM     95  O   UNL A   1      53.000  25.851  30.754  1.00  0.00    -0.237 OA
ATOM     96  O   UNL A   1      52.554  26.433  33.115  1.00  0.00    -0.237 OA
ATOM     97  O   UNL A   1      52.060  24.163  32.290  1.00  0.00    -0.744 OA
ENDBRANCH  93  94
ENDBRANCH  61  86
ENDBRANCH  35  36
ENDBRANCH  27  30
ENDBRANCH  25  26
ENDBRANCH   1  25
TORSDOF 16
ENDMDL
MODEL 3
REMARK VINA RESULT:     -12.1      1.497      2.823
REMARK SMILES Cn1c(C(=O)NCCCNC(=O)c2ccc(-c3c4nc(c(-c5c(F)cc(S(=O)(=O)[O-])cc5F)c5ccc([nH]5)c(-c5c(F)cc(S(=O)(=O)[O-])cc5F)c5nc(c(-c6c(F)cc(S(=O)(=O)[O-])cc6F)c6ccc3[nH]6)C=C5)C=C4)cc2)cc2cc(OCc3ccccc3)ccc21
REMARK SMILES IDX 8 1 7 2 6 3 4 4 5 5 3 7 1 8 2 9 93 10 79 11 80 12 92 13
REMARK SMILES IDX 81 14 91 15 82 16 83 17 84 18 85 19 86 20 90 21 87 22 89 23
REMARK SMILES IDX 88 24 9 25 10 26 11 27 12 29 13 30 14 31 78 32 15 33 77 34
REMARK SMILES IDX 16 35 17 36 18 37 71 38 19 39 76 40 70 41 72 42 20 43 75 44
REMARK SMILES IDX 69 45 68 46 21 48 55 49 34 50 54 51 35 52 38 53 53 54 73 55
REMARK SMILES IDX 36 56 37 57 52 59 74 60 39 61 22 62 23 63 32 64 24 65 25 66
REMARK SMILES IDX 31 67 33 68 26 69 27 70 28 71 29 72 30 73 56 74 57 75 66 76
REMARK SMILES IDX 58 77 59 78 65 79 67 80 60 81 61 82 62 83 63 84 64 85 40 86
REMARK SMILES IDX 41 87 50 88 42 89 43 90 49 91 51 92 44 93 45 94 46 95 47 96
REMARK SMILES IDX 48 97
REMARK H PARENT 6 6 10 28 72 47 38 58
REMARK Flexibility Score: inf
ROOT
ATOM      1  C   UNL A   1      34.406  34.371  27.610  1.00  0.00     0.042 C 
ENDROOT
BRANCH   1   2
ATOM      2  C   UNL A   1      34.508  35.559  28.538  1.00  0.00     0.118 C 
BRANCH   2   3
ATOM      3  N   UNL A   1      33.296  35.941  29.224  1.00  0.00    -0.351 N 
ATOM      4  C   UNL A   1      32.957  35.811  30.551  1.00  0.00     0.267 C 
ATOM      5  O   UNL A   1      31.846  36.231  30.870  1.00  0.00    -0.268 OA
ATOM      6  H   UNL A   1      32.609  36.358  28.656  1.00  0.00     0.163 HD
BRANCH   4   7
ATOM      7  C   UNL A   1      33.830  35.143  31.506  1.00  0.00     0.107 A 
ATOM      8  C   UNL A   1      34.065  36.762  33.463  1.00  0.00     0.150 C 
ATOM      9  N   UNL A   1      34.406  35.593  32.677  1.00  0.00    -0.340 N 
ATOM     10  C   UNL A   1      35.319  34.673  33.151  1.00  0.00     0.049 A 
ATOM     11  C   UNL A   1      34.186  33.795  31.426  1.00  0.00     0.042 A 
ATOM     12  C   UNL A   1      35.129  33.494  32.444  1.00  0.00     0.004 A 
ATOM     13  C   UNL A   1      36.243  34.785  34.190  1.00  0.00     0.031 A 
ATOM     14  C   UNL A   1      35.851  32.346  32.832  1.00  0.00     0.056 A 
ATOM     15  C   UNL A   1      36.934  33.636  34.563  1.00  0.00     0.048 A 
ATOM     16  C   UNL A   1      36.752  32.422  33.907  1.00  0.00     0.120 A 
BRANCH  16  17
ATOM     17  O   UNL A   1      37.410  31.256  34.209  1.00  0.00    -0.489 OA
BRANCH  17  18
ATOM     18  C   UNL A   1      37.658  30.326  33.143  1.00  0.00     0.265 C 
BRANCH  18  19
ATOM     19  C   UNL A   1      39.078  29.799  33.137  1.00  0.00    -0.011 A 
ATOM     20  C   UNL A   1      40.113  30.552  33.704  1.00  0.00     0.007 A 
ATOM     21  C   UNL A   1      39.370  28.527  32.616  1.00  0.00     0.007 A 
ATOM     22  C   UNL A   1      41.402  30.025  33.793  1.00  0.00     0.000 A 
ATOM     23  C   UNL A   1      40.654  27.992  32.730  1.00  0.00     0.000 A 
ATOM     24  C   UNL A   1      41.668  28.741  33.321  1.00  0.00     0.000 A 
ENDBRANCH  18  19
ENDBRANCH  17  18
ENDBRANCH  16  17
ENDBRANCH   4   7
ENDBRANCH   2   3
ENDBRANCH   1   2
BRANCH   1  25
ATOM     25  C   UNL A   1      34.989  33.079  28.148  1.00  0.00     0.118 C 
BRANCH  25  26
ATOM     26  N   UNL A   1      34.154  31.903  27.924  1.00  0.00    -0.352 N 
ATOM     27  C   UNL A   1      34.462  30.561  27.858  1.00  0.00     0.251 C 
ATOM     28  H   UNL A   1      33.199  32.104  27.798  1.00  0.00     0.163 HD
ATOM     29  O   UNL A   1      33.582  29.764  27.541  1.00  0.00    -0.269 OA
BRANCH  27  30
ATOM     30  C   UNL A   1      35.837  30.077  28.121  1.00  0.00     0.039 A 
ATOM     31  C   UNL A   1      36.794  30.134  27.103  1.00  0.00     0.014 A 
ATOM     32  C   UNL A   1      36.198  29.568  29.366  1.00  0.00     0.014 A 
ATOM     33  C   UNL A   1      38.117  29.768  27.370  1.00  0.00     0.010 A 
ATOM     34  C   UNL A   1      37.536  29.362  29.674  1.00  0.00     0.010 A 
ATOM     35  C   UNL A   1      38.512  29.426  28.674  1.00  0.00    -0.014 A 
BRANCH  35  36
ATOM     36  C   UNL A   1      39.918  29.080  29.010  1.00  0.00     0.031 A 
ATOM     37  C   UNL A   1      40.802  30.100  29.686  1.00  0.00     0.074 A 
ATOM     38  C   UNL A   1      40.419  27.880  28.652  1.00  0.00     0.049 A 
ATOM     39  N   UNL A   1      42.070  30.019  29.998  1.00  0.00    -0.248 NA
ATOM     40  C   UNL A   1      40.194  31.401  30.013  1.00  0.00     0.031 C 
ATOM     41  C   UNL A   1      39.689  26.834  27.932  1.00  0.00     0.029 A 
ATOM     42  N   UNL A   1      41.666  27.337  28.842  1.00  0.00    -0.354 N 
ATOM     43  C   UNL A   1      42.408  31.257  30.536  1.00  0.00     0.074 A 
ATOM     44  C   UNL A   1      41.239  32.098  30.431  1.00  0.00     0.031 C 
ATOM     45  C   UNL A   1      40.485  25.763  27.780  1.00  0.00     0.029 A 
ATOM     46  C   UNL A   1      41.795  26.059  28.352  1.00  0.00     0.049 A 
ATOM     47  H   UNL A   1      42.400  27.818  29.290  1.00  0.00     0.167 HD
ATOM     48  C   UNL A   1      43.574  31.649  31.103  1.00  0.00     0.037 A 
ATOM     49  C   UNL A   1      42.849  25.220  28.363  1.00  0.00     0.037 A 
ATOM     50  C   UNL A   1      44.720  30.792  31.241  1.00  0.00     0.049 A 
ATOM     51  C   UNL A   1      44.128  25.668  29.017  1.00  0.00     0.074 A 
ATOM     52  C   UNL A   1      45.930  31.064  31.855  1.00  0.00     0.029 A 
ATOM     53  N   UNL A   1      44.798  29.492  30.763  1.00  0.00    -0.354 N 
ATOM     54  N   UNL A   1      44.406  26.819  29.582  1.00  0.00    -0.248 NA
ATOM     55  C   UNL A   1      45.231  24.699  29.051  1.00  0.00     0.031 C 
ATOM     56  C   UNL A   1      46.756  29.947  31.705  1.00  0.00     0.029 A 
ATOM     57  C   UNL A   1      46.041  28.955  31.052  1.00  0.00     0.049 A 
ATOM     58  H   UNL A   1      44.076  29.021  30.288  1.00  0.00     0.167 HD
ATOM     59  C   UNL A   1      45.704  26.701  30.068  1.00  0.00     0.074 A 
ATOM     60  C   UNL A   1      46.148  25.360  29.742  1.00  0.00     0.031 C 
ATOM     61  C   UNL A   1      46.460  27.615  30.727  1.00  0.00     0.037 A 
BRANCH  48  62
ATOM     62  C   UNL A   1      43.657  33.058  31.628  1.00  0.00     0.058 A 
ATOM     63  C   UNL A   1      43.522  33.348  32.997  1.00  0.00     0.135 A 
ATOM     64  C   UNL A   1      43.898  34.132  30.756  1.00  0.00     0.135 A 
ATOM     65  F   UNL A   1      43.270  32.364  33.875  1.00  0.00    -0.206 F 
ATOM     66  C   UNL A   1      43.590  34.652  33.477  1.00  0.00     0.059 A 
ATOM     67  C   UNL A   1      44.005  35.441  31.219  1.00  0.00     0.059 A 
ATOM     68  F   UNL A   1      44.032  33.917  29.438  1.00  0.00    -0.206 F 
ATOM     69  C   UNL A   1      43.834  35.692  32.579  1.00  0.00     0.060 A 
BRANCH  69  70
ATOM     70  S   UNL A   1      43.930  37.376  33.222  1.00  0.00     0.124 S 
ATOM     71  O   UNL A   1      43.933  38.158  31.989  1.00  0.00    -0.237 OA
ATOM     72  O   UNL A   1      42.718  37.470  34.029  1.00  0.00    -0.237 OA
ATOM     73  O   UNL A   1      45.182  37.383  33.971  1.00  0.00    -0.744 OA
ENDBRANCH  69  70
ENDBRANCH  48  62
BRANCH  49  74
ATOM     74  C   UNL A   1      42.727  23.859  27.770  1.00  0.00     0.058 A 
ATOM     75  C   UNL A   1      42.857  23.659  26.387  1.00  0.00     0.135 A 
ATOM     76  C   UNL A   1      42.488  22.731  28.572  1.00  0.00     0.135 A 
ATOM     77  F   UNL A   1      43.081  24.704  25.576  1.00  0.00    -0.206 F 
ATOM     78  C   UNL A   1      42.732  22.396  25.816  1.00  0.00     0.059 A 
ATOM     79  C   UNL A   1      42.390  21.455  28.028  1.00  0.00     0.059 A 
ATOM     80  F   UNL A   1      42.375  22.864  29.902  1.00  0.00    -0.206 F 
ATOM     81  C   UNL A   1      42.502  21.299  26.647  1.00  0.00     0.060 A 
BRANCH  81  82
ATOM     82  S   UNL A   1      42.388  19.657  25.901  1.00  0.00     0.124 S 
ATOM     83  O   UNL A   1      40.994  19.623  25.475  1.00  0.00    -0.237 OA
ATOM     84  O   UNL A   1      43.381  19.737  24.834  1.00  0.00    -0.237 OA
ATOM     85  O   UNL A   1      42.734  18.764  27.002  1.00  0.00    -0.744 OA
ENDBRANCH  81  82
ENDBRANCH  49  74
BRANCH  61  86
ATOM     86  C   UNL A   1      47.827  27.180  31.183  1.00  0.00     0.058 A 
ATOM     87  C   UNL A   1      48.981  27.436  30.428  1.00  0.00     0.135 A 
ATOM     88  C   UNL A   1      47.982  26.524  32.416  1.00  0.00     0.135 A 
ATOM     89  F   UNL A   1      48.888  28.059  29.242  1.00  0.00    -0.206 F 
ATOM     90  C   UNL A   1      50.237  27.020  30.857  1.00  0.00     0.059 A 
ATOM     91  C   UNL A   1      49.232  26.130  32.882  1.00  0.00     0.059 A 
ATOM     92  F   UNL A   1      46.913  26.267  33.187  1.00  0.00    -0.206 F 
ATOM     93  C   UNL A   1      50.351  26.366  32.085  1.00  0.00     0.060 A 
BRANCH  93  94
ATOM     94  S   UNL A   1      51.987  25.837  32.634  1.00  0.00     0.124 S 
ATOM     95  O   UNL A   1      51.649  24.789  33.591  1.00  0.00    -0.237 OA
ATOM     96  O   UNL A   1      52.603  25.386  31.390  1.00  0.00    -0.237 OA
ATOM     97  O   UNL A   1      52.562  27.051  33.208  1.00  0.00    -0.744 OA
ENDBRANCH  93  94
ENDBRANCH  61  86
ENDBRANCH  35  36
ENDBRANCH  27  30
ENDBRANCH  25  26
ENDBRANCH   1  25
TORSDOF 16
ENDMDL
