MODEL 1
REMARK VINA RESULT:     -11.3      0.000      0.000
REMARK SMILES Cc1nc(C[N@H+](C)[C@H](C)c2ccc(C(=O)NCCCNC(=O)c3ccc(-c4c5nc(c(-c6c(F)cc(S(=O)(=O)[O-])cc6F)c6ccc([nH]6)c(-c6c(F)cc(S(=O)(=O)[O-])cc6F)c6nc(c(-c7c(F)cc(S(=O)(=O)[O-])cc7F)c7ccc4[nH]7)C=C6)C=C5)cc3)o2)cs1
REMARK SMILES IDX 17 1 16 2 14 3 15 4 13 6 10 7 11 8 89 9 12 10 8 11 9 12 6 13
REMARK SMILES IDX 7 14 5 16 4 17 1 18 2 19 3 20 91 21 90 22 18 23 19 24 20 25
REMARK SMILES IDX 21 26 22 28 23 29 24 30 88 31 25 32 87 33 26 34 27 35 28 36
REMARK SMILES IDX 81 37 29 38 86 39 80 40 82 41 30 42 85 43 79 44 78 45 31 47
REMARK SMILES IDX 65 48 44 49 64 50 45 51 48 52 63 53 83 54 46 55 47 56 62 58
REMARK SMILES IDX 84 59 49 60 32 61 33 62 42 63 34 64 35 65 41 66 43 67 36 68
REMARK SMILES IDX 37 69 38 70 39 71 40 72 66 73 67 74 76 75 68 76 69 77 75 78
REMARK SMILES IDX 77 79 70 80 71 81 72 82 73 83 74 84 50 85 51 86 60 87 52 88
REMARK SMILES IDX 53 89 59 90 61 91 54 92 55 93 56 94 57 95 58 96
REMARK H PARENT 16 5 6 15 20 27 82 46 48 57
REMARK Flexibility Score: inf
ROOT
ATOM      1  C   UNL A   1      34.053  31.570  27.853  1.00  0.00     0.118 C 
ENDROOT
BRANCH   1   2
ATOM      2  N   UNL A   1      32.778  31.951  27.269  1.00  0.00    -0.349 N 
ATOM      3  C   UNL A   1      31.882  31.189  26.552  1.00  0.00     0.287 C 
ATOM      4  O   UNL A   1      30.952  31.787  26.007  1.00  0.00    -0.266 OA
ATOM      5  H   UNL A   1      32.518  32.891  27.406  1.00  0.00     0.163 HD
BRANCH   3   6
ATOM      6  C   UNL A   1      32.061  29.756  26.479  1.00  0.00     0.191 A 
ATOM      7  C   UNL A   1      32.714  27.884  25.512  1.00  0.00     0.161 A 
ATOM      8  C   UNL A   1      32.221  27.535  26.754  1.00  0.00     0.053 A 
ATOM      9  O   UNL A   1      32.585  29.230  25.326  1.00  0.00    -0.450 OA
ATOM     10  C   UNL A   1      31.785  28.728  27.363  1.00  0.00     0.057 A 
BRANCH   7  11
ATOM     11  C   UNL A   1      33.306  27.056  24.405  1.00  0.00     0.248 C 
ATOM     12  C   UNL A   1      33.570  25.591  24.778  1.00  0.00     0.084 C 
BRANCH  11  13
ATOM     13  N   UNL A   1      32.566  27.271  23.139  1.00  0.00    -0.324 N 
ATOM     14  C   UNL A   1      33.373  26.862  21.988  1.00  0.00     0.333 C 
ATOM     15  H   UNL A   1      32.394  28.277  23.142  1.00  0.00     0.348 HD
BRANCH  13  16
ATOM     16  C   UNL A   1      31.223  26.658  23.032  1.00  0.00     0.320 C 
BRANCH  16  17
ATOM     17  C   UNL A   1      30.078  27.629  22.909  1.00  0.00     0.106 A 
ATOM     18  C   UNL A   1      28.845  30.688  21.316  1.00  0.00     0.079 C 
ATOM     19  C   UNL A   1      29.071  29.428  22.076  1.00  0.00     0.090 A 
ATOM     20  N   UNL A   1      30.202  28.754  22.094  1.00  0.00    -0.241 NA
ATOM     21  S   UNL A   1      27.799  28.768  23.020  1.00  0.00    -0.127 S 
ATOM     22  C   UNL A   1      28.824  27.480  23.475  1.00  0.00     0.096 A 
ENDBRANCH  16  17
ENDBRANCH  13  16
ENDBRANCH  11  13
ENDBRANCH   7  11
ENDBRANCH   3   6
ENDBRANCH   1   2
BRANCH   1  23
ATOM     23  C   UNL A   1      34.994  32.755  28.030  1.00  0.00     0.042 C 
BRANCH  23  24
ATOM     24  C   UNL A   1      36.217  32.475  28.890  1.00  0.00     0.118 C 
BRANCH  24  25
ATOM     25  N   UNL A   1      35.891  31.801  30.138  1.00  0.00    -0.352 N 
ATOM     26  C   UNL A   1      36.517  30.759  30.783  1.00  0.00     0.251 C 
ATOM     27  H   UNL A   1      35.092  32.146  30.596  1.00  0.00     0.163 HD
ATOM     28  O   UNL A   1      35.961  30.239  31.747  1.00  0.00    -0.269 OA
BRANCH  26  29
ATOM     29  C   UNL A   1      37.826  30.245  30.319  1.00  0.00     0.039 A 
ATOM     30  C   UNL A   1      38.049  30.116  28.944  1.00  0.00     0.014 A 
ATOM     31  C   UNL A   1      38.825  29.861  31.218  1.00  0.00     0.014 A 
ATOM     32  C   UNL A   1      39.291  29.674  28.476  1.00  0.00     0.010 A 
ATOM     33  C   UNL A   1      40.091  29.513  30.750  1.00  0.00     0.010 A 
ATOM     34  C   UNL A   1      40.338  29.408  29.373  1.00  0.00    -0.014 A 
BRANCH  34  35
ATOM     35  C   UNL A   1      41.689  29.017  28.891  1.00  0.00     0.031 A 
ATOM     36  C   UNL A   1      42.788  30.043  28.785  1.00  0.00     0.074 A 
ATOM     37  C   UNL A   1      41.913  27.748  28.494  1.00  0.00     0.049 A 
ATOM     38  N   UNL A   1      44.009  29.902  28.335  1.00  0.00    -0.248 NA
ATOM     39  C   UNL A   1      42.463  31.413  29.213  1.00  0.00     0.031 C 
ATOM     40  C   UNL A   1      40.919  26.673  28.494  1.00  0.00     0.029 A 
ATOM     41  N   UNL A   1      43.047  27.147  28.005  1.00  0.00    -0.354 N 
ATOM     42  C   UNL A   1      44.591  31.163  28.412  1.00  0.00     0.074 A 
ATOM     43  C   UNL A   1      43.570  32.068  28.896  1.00  0.00     0.031 C 
ATOM     44  C   UNL A   1      41.493  25.540  28.058  1.00  0.00     0.029 A 
ATOM     45  C   UNL A   1      42.883  25.814  27.709  1.00  0.00     0.049 A 
ATOM     46  H   UNL A   1      43.897  27.626  27.878  1.00  0.00     0.167 HD
ATOM     47  C   UNL A   1      45.864  31.530  28.131  1.00  0.00     0.037 A 
ATOM     48  C   UNL A   1      43.752  24.913  27.210  1.00  0.00     0.037 A 
ATOM     49  C   UNL A   1      46.884  30.620  27.676  1.00  0.00     0.049 A 
ATOM     50  C   UNL A   1      45.164  25.342  26.914  1.00  0.00     0.074 A 
ATOM     51  C   UNL A   1      48.219  30.883  27.419  1.00  0.00     0.029 A 
ATOM     52  N   UNL A   1      46.683  29.274  27.411  1.00  0.00    -0.354 N 
ATOM     53  N   UNL A   1      45.712  26.525  27.052  1.00  0.00    -0.248 NA
ATOM     54  C   UNL A   1      46.078  24.310  26.403  1.00  0.00     0.031 C 
ATOM     55  C   UNL A   1      48.815  29.704  26.957  1.00  0.00     0.029 A 
ATOM     56  C   UNL A   1      47.866  28.695  26.977  1.00  0.00     0.049 A 
ATOM     57  H   UNL A   1      45.828  28.799  27.516  1.00  0.00     0.167 HD
ATOM     58  C   UNL A   1      47.041  26.376  26.671  1.00  0.00     0.074 A 
ATOM     59  C   UNL A   1      47.217  24.984  26.311  1.00  0.00     0.031 C 
ATOM     60  C   UNL A   1      48.026  27.306  26.625  1.00  0.00     0.037 A 
BRANCH  47  61
ATOM     61  C   UNL A   1      46.230  32.978  28.318  1.00  0.00     0.058 A 
ATOM     62  C   UNL A   1      46.720  33.462  29.543  1.00  0.00     0.135 A 
ATOM     63  C   UNL A   1      46.122  33.888  27.255  1.00  0.00     0.135 A 
ATOM     64  F   UNL A   1      46.831  32.641  30.599  1.00  0.00    -0.206 F 
ATOM     65  C   UNL A   1      47.057  34.801  29.715  1.00  0.00     0.059 A 
ATOM     66  C   UNL A   1      46.481  35.226  27.396  1.00  0.00     0.059 A 
ATOM     67  F   UNL A   1      45.661  33.482  26.061  1.00  0.00    -0.206 F 
ATOM     68  C   UNL A   1      46.934  35.676  28.636  1.00  0.00     0.060 A 
BRANCH  68  69
ATOM     69  S   UNL A   1      47.378  37.409  28.876  1.00  0.00     0.124 S 
ATOM     70  O   UNL A   1      48.313  37.623  27.776  1.00  0.00    -0.237 OA
ATOM     71  O   UNL A   1      46.089  38.081  28.752  1.00  0.00    -0.237 OA
ATOM     72  O   UNL A   1      47.967  37.428  30.212  1.00  0.00    -0.744 OA
ENDBRANCH  68  69
ENDBRANCH  47  61
BRANCH  48  73
ATOM     73  C   UNL A   1      43.319  23.507  26.987  1.00  0.00     0.058 A 
ATOM     74  C   UNL A   1      43.091  23.021  25.691  1.00  0.00     0.135 A 
ATOM     75  C   UNL A   1      43.141  22.619  28.058  1.00  0.00     0.135 A 
ATOM     76  F   UNL A   1      43.243  23.833  24.634  1.00  0.00    -0.206 F 
ATOM     77  C   UNL A   1      42.686  21.710  25.465  1.00  0.00     0.059 A 
ATOM     78  C   UNL A   1      42.761  21.295  27.856  1.00  0.00     0.059 A 
ATOM     79  F   UNL A   1      43.364  23.029  29.317  1.00  0.00    -0.206 F 
ATOM     80  C   UNL A   1      42.526  20.853  26.555  1.00  0.00     0.060 A 
BRANCH  80  81
ATOM     81  S   UNL A   1      42.049  19.139  26.247  1.00  0.00     0.124 S 
ATOM     82  O   UNL A   1      42.309  18.523  27.543  1.00  0.00    -0.237 OA
ATOM     83  O   UNL A   1      40.644  19.274  25.873  1.00  0.00    -0.237 OA
ATOM     84  O   UNL A   1      42.940  18.733  25.164  1.00  0.00    -0.744 OA
ENDBRANCH  80  81
ENDBRANCH  48  73
BRANCH  60  85
ATOM     85  C   UNL A   1      49.394  26.843  26.201  1.00  0.00     0.058 A 
ATOM     86  C   UNL A   1      49.845  26.982  24.880  1.00  0.00     0.135 A 
ATOM     87  C   UNL A   1      50.276  26.285  27.141  1.00  0.00     0.135 A 
ATOM     88  F   UNL A   1      49.039  27.504  23.942  1.00  0.00    -0.206 F 
ATOM     89  C   UNL A   1      51.114  26.559  24.498  1.00  0.00     0.059 A 
ATOM     90  C   UNL A   1      51.559  25.881  26.788  1.00  0.00     0.059 A 
ATOM     91  F   UNL A   1      49.899  26.139  28.421  1.00  0.00    -0.206 F 
ATOM     92  C   UNL A   1      51.964  26.008  25.460  1.00  0.00     0.060 A 
BRANCH  92  93
ATOM     93  S   UNL A   1      53.616  25.481  24.955  1.00  0.00     0.124 S 
ATOM     94  O   UNL A   1      53.584  25.751  23.521  1.00  0.00    -0.237 OA
ATOM     95  O   UNL A   1      54.478  26.353  25.745  1.00  0.00    -0.237 OA
ATOM     96  O   UNL A   1      53.650  24.069  25.328  1.00  0.00    -0.744 OA
ENDBRANCH  92  93
ENDBRANCH  60  85
ENDBRANCH  34  35
ENDBRANCH  26  29
ENDBRANCH  24  25
ENDBRANCH  23  24
ENDBRANCH   1  23
TORSDOF 17
ENDMDL
MODEL 2
REMARK VINA RESULT:     -11.2      6.791     12.788
REMARK SMILES Cc1nc(C[N@H+](C)[C@H](C)c2ccc(C(=O)NCCCNC(=O)c3ccc(-c4c5nc(c(-c6c(F)cc(S(=O)(=O)[O-])cc6F)c6ccc([nH]6)c(-c6c(F)cc(S(=O)(=O)[O-])cc6F)c6nc(c(-c7c(F)cc(S(=O)(=O)[O-])cc7F)c7ccc4[nH]7)C=C6)C=C5)cc3)o2)cs1
REMARK SMILES IDX 17 1 16 2 14 3 15 4 13 6 10 7 11 8 89 9 12 10 8 11 9 12 6 13
REMARK SMILES IDX 7 14 5 16 4 17 1 18 2 19 3 20 91 21 90 22 18 23 19 24 20 25
REMARK SMILES IDX 21 26 22 28 23 29 24 30 88 31 25 32 87 33 26 34 27 35 28 36
REMARK SMILES IDX 81 37 29 38 86 39 80 40 82 41 30 42 85 43 79 44 78 45 31 47
REMARK SMILES IDX 65 48 44 49 64 50 45 51 48 52 63 53 83 54 46 55 47 56 62 58
REMARK SMILES IDX 84 59 49 60 32 61 33 62 42 63 34 64 35 65 41 66 43 67 36 68
REMARK SMILES IDX 37 69 38 70 39 71 40 72 66 73 67 74 76 75 68 76 69 77 75 78
REMARK SMILES IDX 77 79 70 80 71 81 72 82 73 83 74 84 50 85 51 86 60 87 52 88
REMARK SMILES IDX 53 89 59 90 61 91 54 92 55 93 56 94 57 95 58 96
REMARK H PARENT 16 5 6 15 20 27 82 46 48 57
REMARK Flexibility Score: inf
ROOT
ATOM      1  C   UNL A   1      41.549  21.916  27.894  1.00  0.00     0.118 C 
ENDROOT
BRANCH   1   2
ATOM      2  N   UNL A   1      41.159  20.822  27.021  1.00  0.00    -0.349 N 
ATOM      3  C   UNL A   1      40.016  20.669  26.266  1.00  0.00     0.287 C 
ATOM      4  O   UNL A   1      39.835  19.568  25.745  1.00  0.00    -0.266 OA
ATOM      5  H   UNL A   1      41.806  20.082  26.959  1.00  0.00     0.163 HD
BRANCH   3   6
ATOM      6  C   UNL A   1      39.107  21.784  26.115  1.00  0.00     0.191 A 
ATOM      7  C   UNL A   1      37.217  22.731  25.485  1.00  0.00     0.161 A 
ATOM      8  C   UNL A   1      37.960  23.713  26.112  1.00  0.00     0.053 A 
ATOM      9  O   UNL A   1      37.926  21.566  25.452  1.00  0.00    -0.450 OA
ATOM     10  C   UNL A   1      39.176  23.112  26.496  1.00  0.00     0.057 A 
BRANCH   7  11
ATOM     11  C   UNL A   1      35.851  22.765  24.857  1.00  0.00     0.248 C 
ATOM     12  C   UNL A   1      35.855  22.958  23.335  1.00  0.00     0.084 C 
BRANCH  11  13
ATOM     13  N   UNL A   1      35.019  21.645  25.359  1.00  0.00    -0.324 N 
ATOM     14  C   UNL A   1      34.704  21.826  26.779  1.00  0.00     0.333 C 
ATOM     15  H   UNL A   1      35.613  20.831  25.204  1.00  0.00     0.348 HD
BRANCH  13  16
ATOM     16  C   UNL A   1      33.770  21.352  24.620  1.00  0.00     0.320 C 
BRANCH  16  17
ATOM     17  C   UNL A   1      33.564  19.906  24.250  1.00  0.00     0.106 A 
ATOM     18  C   UNL A   1      34.786  16.472  24.612  1.00  0.00     0.079 C 
ATOM     19  C   UNL A   1      34.064  17.740  24.318  1.00  0.00     0.090 A 
ATOM     20  N   UNL A   1      34.464  18.937  24.694  1.00  0.00    -0.241 NA
ATOM     21  S   UNL A   1      32.603  17.695  23.419  1.00  0.00    -0.127 S 
ATOM     22  C   UNL A   1      32.484  19.393  23.553  1.00  0.00     0.096 A 
ENDBRANCH  16  17
ENDBRANCH  13  16
ENDBRANCH  11  13
ENDBRANCH   7  11
ENDBRANCH   3   6
ENDBRANCH   1   2
BRANCH   1  23
ATOM     23  C   UNL A   1      43.050  22.176  27.872  1.00  0.00     0.042 C 
BRANCH  23  24
ATOM     24  C   UNL A   1      43.441  23.624  27.620  1.00  0.00     0.118 C 
BRANCH  24  25
ATOM     25  N   UNL A   1      42.898  24.151  26.377  1.00  0.00    -0.352 N 
ATOM     26  C   UNL A   1      42.099  25.247  26.142  1.00  0.00     0.251 C 
ATOM     27  H   UNL A   1      43.141  23.641  25.572  1.00  0.00     0.163 HD
ATOM     28  O   UNL A   1      41.620  25.402  25.021  1.00  0.00    -0.269 OA
BRANCH  26  29
ATOM     29  C   UNL A   1      41.790  26.216  27.218  1.00  0.00     0.039 A 
ATOM     30  C   UNL A   1      40.761  25.918  28.117  1.00  0.00     0.014 A 
ATOM     31  C   UNL A   1      42.479  27.426  27.337  1.00  0.00     0.014 A 
ATOM     32  C   UNL A   1      40.475  26.794  29.168  1.00  0.00     0.010 A 
ATOM     33  C   UNL A   1      42.259  28.251  28.439  1.00  0.00     0.010 A 
ATOM     34  C   UNL A   1      41.250  27.949  29.365  1.00  0.00    -0.014 A 
BRANCH  34  35
ATOM     35  C   UNL A   1      41.016  28.850  30.525  1.00  0.00     0.031 A 
ATOM     36  C   UNL A   1      41.834  28.704  31.781  1.00  0.00     0.074 A 
ATOM     37  C   UNL A   1      40.026  29.764  30.469  1.00  0.00     0.049 A 
ATOM     38  N   UNL A   1      41.737  29.358  32.911  1.00  0.00    -0.248 NA
ATOM     39  C   UNL A   1      42.880  27.668  31.779  1.00  0.00     0.031 C 
ATOM     40  C   UNL A   1      39.126  29.969  29.332  1.00  0.00     0.029 A 
ATOM     41  N   UNL A   1      39.605  30.689  31.392  1.00  0.00    -0.354 N 
ATOM     42  C   UNL A   1      42.694  28.804  33.755  1.00  0.00     0.074 A 
ATOM     43  C   UNL A   1      43.321  27.723  33.026  1.00  0.00     0.031 C 
ATOM     44  C   UNL A   1      38.281  30.974  29.613  1.00  0.00     0.029 A 
ATOM     45  C   UNL A   1      38.550  31.461  30.962  1.00  0.00     0.049 A 
ATOM     46  H   UNL A   1      40.018  30.790  32.279  1.00  0.00     0.167 HD
ATOM     47  C   UNL A   1      43.039  29.179  35.010  1.00  0.00     0.037 A 
ATOM     48  C   UNL A   1      37.873  32.446  31.583  1.00  0.00     0.037 A 
ATOM     49  C   UNL A   1      42.430  30.275  35.721  1.00  0.00     0.049 A 
ATOM     50  C   UNL A   1      38.280  32.850  32.975  1.00  0.00     0.074 A 
ATOM     51  C   UNL A   1      42.748  30.770  36.974  1.00  0.00     0.029 A 
ATOM     52  N   UNL A   1      41.382  31.045  35.241  1.00  0.00    -0.354 N 
ATOM     53  N   UNL A   1      39.229  32.355  33.733  1.00  0.00    -0.248 NA
ATOM     54  C   UNL A   1      37.529  33.953  33.592  1.00  0.00     0.031 C 
ATOM     55  C   UNL A   1      41.863  31.812  37.270  1.00  0.00     0.029 A 
ATOM     56  C   UNL A   1      41.028  32.001  36.180  1.00  0.00     0.049 A 
ATOM     57  H   UNL A   1      40.952  30.931  34.363  1.00  0.00     0.167 HD
ATOM     58  C   UNL A   1      39.208  33.103  34.905  1.00  0.00     0.074 A 
ATOM     59  C   UNL A   1      38.162  34.092  34.749  1.00  0.00     0.031 C 
ATOM     60  C   UNL A   1      39.986  32.983  36.009  1.00  0.00     0.037 A 
BRANCH  47  61
ATOM     61  C   UNL A   1      44.132  28.403  35.694  1.00  0.00     0.058 A 
ATOM     62  C   UNL A   1      43.849  27.295  36.511  1.00  0.00     0.135 A 
ATOM     63  C   UNL A   1      45.480  28.746  35.507  1.00  0.00     0.135 A 
ATOM     64  F   UNL A   1      42.578  26.929  36.738  1.00  0.00    -0.206 F 
ATOM     65  C   UNL A   1      44.860  26.579  37.143  1.00  0.00     0.059 A 
ATOM     66  C   UNL A   1      46.510  28.026  36.106  1.00  0.00     0.059 A 
ATOM     67  F   UNL A   1      45.810  29.795  34.736  1.00  0.00    -0.206 F 
ATOM     68  C   UNL A   1      46.188  26.952  36.936  1.00  0.00     0.060 A 
BRANCH  68  69
ATOM     69  S   UNL A   1      47.488  26.010  37.762  1.00  0.00     0.124 S 
ATOM     70  O   UNL A   1      48.406  25.753  36.657  1.00  0.00    -0.237 OA
ATOM     71  O   UNL A   1      47.960  26.950  38.772  1.00  0.00    -0.237 OA
ATOM     72  O   UNL A   1      46.785  24.840  38.278  1.00  0.00    -0.744 OA
ENDBRANCH  68  69
ENDBRANCH  47  61
BRANCH  48  73
ATOM     73  C   UNL A   1      36.759  33.139  30.882  1.00  0.00     0.058 A 
ATOM     74  C   UNL A   1      35.422  32.864  31.206  1.00  0.00     0.135 A 
ATOM     75  C   UNL A   1      37.006  34.099  29.889  1.00  0.00     0.135 A 
ATOM     76  F   UNL A   1      35.135  31.949  32.145  1.00  0.00    -0.206 F 
ATOM     77  C   UNL A   1      34.369  33.503  30.560  1.00  0.00     0.059 A 
ATOM     78  C   UNL A   1      35.970  34.771  29.247  1.00  0.00     0.059 A 
ATOM     79  F   UNL A   1      38.268  34.413  29.555  1.00  0.00    -0.206 F 
ATOM     80  C   UNL A   1      34.654  34.458  29.583  1.00  0.00     0.060 A 
BRANCH  80  81
ATOM     81  S   UNL A   1      33.280  35.318  28.787  1.00  0.00     0.124 S 
ATOM     82  O   UNL A   1      32.528  35.802  29.939  1.00  0.00    -0.237 OA
ATOM     83  O   UNL A   1      33.971  36.337  28.001  1.00  0.00    -0.237 OA
ATOM     84  O   UNL A   1      32.635  34.268  28.005  1.00  0.00    -0.744 OA
ENDBRANCH  80  81
ENDBRANCH  48  73
BRANCH  60  85
ATOM     85  C   UNL A   1      39.758  33.966  37.125  1.00  0.00     0.058 A 
ATOM     86  C   UNL A   1      40.341  35.242  37.116  1.00  0.00     0.135 A 
ATOM     87  C   UNL A   1      38.914  33.638  38.199  1.00  0.00     0.135 A 
ATOM     88  F   UNL A   1      41.160  35.605  36.116  1.00  0.00    -0.206 F 
ATOM     89  C   UNL A   1      40.120  36.149  38.149  1.00  0.00     0.059 A 
ATOM     90  C   UNL A   1      38.656  34.538  39.227  1.00  0.00     0.059 A 
ATOM     91  F   UNL A   1      38.322  32.434  38.251  1.00  0.00    -0.206 F 
ATOM     92  C   UNL A   1      39.276  35.787  39.201  1.00  0.00     0.060 A 
BRANCH  92  93
ATOM     93  S   UNL A   1      38.980  36.979  40.523  1.00  0.00     0.124 S 
ATOM     94  O   UNL A   1      38.299  36.154  41.515  1.00  0.00    -0.237 OA
ATOM     95  O   UNL A   1      40.332  37.402  40.872  1.00  0.00    -0.237 OA
ATOM     96  O   UNL A   1      38.156  38.000  39.882  1.00  0.00    -0.744 OA
ENDBRANCH  92  93
ENDBRANCH  60  85
ENDBRANCH  34  35
ENDBRANCH  26  29
ENDBRANCH  24  25
ENDBRANCH  23  24
ENDBRANCH   1  23
TORSDOF 17
ENDMDL
MODEL 3
REMARK VINA RESULT:     -11.2      0.968      2.042
REMARK SMILES Cc1nc(C[N@H+](C)[C@H](C)c2ccc(C(=O)NCCCNC(=O)c3ccc(-c4c5nc(c(-c6c(F)cc(S(=O)(=O)[O-])cc6F)c6ccc([nH]6)c(-c6c(F)cc(S(=O)(=O)[O-])cc6F)c6nc(c(-c7c(F)cc(S(=O)(=O)[O-])cc7F)c7ccc4[nH]7)C=C6)C=C5)cc3)o2)cs1
REMARK SMILES IDX 17 1 16 2 14 3 15 4 13 6 10 7 11 8 89 9 12 10 8 11 9 12 6 13
REMARK SMILES IDX 7 14 5 16 4 17 1 18 2 19 3 20 91 21 90 22 18 23 19 24 20 25
REMARK SMILES IDX 21 26 22 28 23 29 24 30 88 31 25 32 87 33 26 34 27 35 28 36
REMARK SMILES IDX 81 37 29 38 86 39 80 40 82 41 30 42 85 43 79 44 78 45 31 47
REMARK SMILES IDX 65 48 44 49 64 50 45 51 48 52 63 53 83 54 46 55 47 56 62 58
REMARK SMILES IDX 84 59 49 60 32 61 33 62 42 63 34 64 35 65 41 66 43 67 36 68
REMARK SMILES IDX 37 69 38 70 39 71 40 72 66 73 67 74 76 75 68 76 69 77 75 78
REMARK SMILES IDX 77 79 70 80 71 81 72 82 73 83 74 84 50 85 51 86 60 87 52 88
REMARK SMILES IDX 53 89 59 90 61 91 54 92 55 93 56 94 57 95 58 96
REMARK H PARENT 16 5 6 15 20 27 82 46 48 57
REMARK Flexibility Score: inf
ROOT
ATOM      1  C   UNL A   1      33.624  30.274  26.874  1.00  0.00     0.118 C 
ENDROOT
BRANCH   1   2
ATOM      2  N   UNL A   1      32.751  29.467  27.709  1.00  0.00    -0.349 N 
ATOM      3  C   UNL A   1      32.147  28.260  27.432  1.00  0.00     0.287 C 
ATOM      4  O   UNL A   1      31.305  27.860  28.239  1.00  0.00    -0.266 OA
ATOM      5  H   UNL A   1      32.564  29.837  28.602  1.00  0.00     0.163 HD
BRANCH   3   6
ATOM      6  C   UNL A   1      32.524  27.529  26.243  1.00  0.00     0.191 A 
ATOM      7  C   UNL A   1      32.122  26.516  24.325  1.00  0.00     0.161 A 
ATOM      8  C   UNL A   1      33.489  26.470  24.516  1.00  0.00     0.053 A 
ATOM      9  O   UNL A   1      31.528  27.127  25.391  1.00  0.00    -0.450 OA
ATOM     10  C   UNL A   1      33.744  27.099  25.752  1.00  0.00     0.057 A 
BRANCH   7  11
ATOM     11  C   UNL A   1      31.254  26.006  23.209  1.00  0.00     0.248 C 
ATOM     12  C   UNL A   1      30.543  24.680  23.510  1.00  0.00     0.084 C 
BRANCH  11  13
ATOM     13  N   UNL A   1      30.391  27.090  22.681  1.00  0.00    -0.324 N 
ATOM     14  C   UNL A   1      29.209  27.274  23.526  1.00  0.00     0.333 C 
ATOM     15  H   UNL A   1      30.142  26.752  21.751  1.00  0.00     0.348 HD
BRANCH  13  16
ATOM     16  C   UNL A   1      31.030  28.405  22.449  1.00  0.00     0.320 C 
BRANCH  16  17
ATOM     17  C   UNL A   1      30.107  29.593  22.523  1.00  0.00     0.106 A 
ATOM     18  C   UNL A   1      27.987  31.918  20.648  1.00  0.00     0.079 C 
ATOM     19  C   UNL A   1      28.739  31.113  21.649  1.00  0.00     0.090 A 
ATOM     20  N   UNL A   1      29.565  30.130  21.356  1.00  0.00    -0.241 NA
ATOM     21  S   UNL A   1      28.556  31.454  23.321  1.00  0.00    -0.127 S 
ATOM     22  C   UNL A   1      29.646  30.190  23.684  1.00  0.00     0.096 A 
ENDBRANCH  16  17
ENDBRANCH  13  16
ENDBRANCH  11  13
ENDBRANCH   7  11
ENDBRANCH   3   6
ENDBRANCH   1   2
BRANCH   1  23
ATOM     23  C   UNL A   1      35.087  30.173  27.288  1.00  0.00     0.042 C 
BRANCH  23  24
ATOM     24  C   UNL A   1      35.595  31.337  28.124  1.00  0.00     0.118 C 
BRANCH  24  25
ATOM     25  N   UNL A   1      35.521  31.082  29.555  1.00  0.00    -0.352 N 
ATOM     26  C   UNL A   1      36.438  30.522  30.413  1.00  0.00     0.251 C 
ATOM     27  H   UNL A   1      34.676  31.356  29.979  1.00  0.00     0.163 HD
ATOM     28  O   UNL A   1      36.089  30.250  31.560  1.00  0.00    -0.269 OA
BRANCH  26  29
ATOM     29  C   UNL A   1      37.819  30.220  29.971  1.00  0.00     0.039 A 
ATOM     30  C   UNL A   1      38.842  30.203  30.924  1.00  0.00     0.014 A 
ATOM     31  C   UNL A   1      38.125  29.981  28.628  1.00  0.00     0.014 A 
ATOM     32  C   UNL A   1      40.148  29.879  30.542  1.00  0.00     0.010 A 
ATOM     33  C   UNL A   1      39.404  29.565  28.265  1.00  0.00     0.010 A 
ATOM     34  C   UNL A   1      40.434  29.516  29.216  1.00  0.00    -0.014 A 
BRANCH  34  35
ATOM     35  C   UNL A   1      41.799  29.088  28.808  1.00  0.00     0.031 A 
ATOM     36  C   UNL A   1      42.930  30.082  28.770  1.00  0.00     0.074 A 
ATOM     37  C   UNL A   1      42.008  27.815  28.415  1.00  0.00     0.049 A 
ATOM     38  N   UNL A   1      44.170  29.908  28.388  1.00  0.00    -0.248 NA
ATOM     39  C   UNL A   1      42.621  31.459  29.188  1.00  0.00     0.031 C 
ATOM     40  C   UNL A   1      40.985  26.769  28.353  1.00  0.00     0.029 A 
ATOM     41  N   UNL A   1      43.150  27.184  27.987  1.00  0.00    -0.354 N 
ATOM     42  C   UNL A   1      44.782  31.152  28.505  1.00  0.00     0.074 A 
ATOM     43  C   UNL A   1      43.763  32.083  28.938  1.00  0.00     0.031 C 
ATOM     44  C   UNL A   1      41.550  25.622  27.942  1.00  0.00     0.029 A 
ATOM     45  C   UNL A   1      42.965  25.857  27.674  1.00  0.00     0.049 A 
ATOM     46  H   UNL A   1      44.019  27.638  27.911  1.00  0.00     0.167 HD
ATOM     47  C   UNL A   1      46.079  31.483  28.299  1.00  0.00     0.037 A 
ATOM     48  C   UNL A   1      43.834  24.934  27.218  1.00  0.00     0.037 A 
ATOM     49  C   UNL A   1      47.097  30.546  27.896  1.00  0.00     0.049 A 
ATOM     50  C   UNL A   1      45.272  25.323  27.004  1.00  0.00     0.074 A 
ATOM     51  C   UNL A   1      48.451  30.771  27.716  1.00  0.00     0.029 A 
ATOM     52  N   UNL A   1      46.873  29.208  27.611  1.00  0.00    -0.354 N 
ATOM     53  N   UNL A   1      45.845  26.490  27.180  1.00  0.00    -0.248 NA
ATOM     54  C   UNL A   1      46.183  24.269  26.539  1.00  0.00     0.031 C 
ATOM     55  C   UNL A   1      49.038  29.578  27.280  1.00  0.00     0.029 A 
ATOM     56  C   UNL A   1      48.061  28.597  27.240  1.00  0.00     0.049 A 
ATOM     57  H   UNL A   1      46.000  28.757  27.665  1.00  0.00     0.167 HD
ATOM     58  C   UNL A   1      47.188  26.304  26.874  1.00  0.00     0.074 A 
ATOM     59  C   UNL A   1      47.344  24.909  26.515  1.00  0.00     0.031 C 
ATOM     60  C   UNL A   1      48.201  27.205  26.889  1.00  0.00     0.037 A 
BRANCH  47  61
ATOM     61  C   UNL A   1      46.475  32.919  28.516  1.00  0.00     0.058 A 
ATOM     62  C   UNL A   1      46.411  33.865  27.479  1.00  0.00     0.135 A 
ATOM     63  C   UNL A   1      46.892  33.365  29.780  1.00  0.00     0.135 A 
ATOM     64  F   UNL A   1      46.033  33.493  26.246  1.00  0.00    -0.206 F 
ATOM     65  C   UNL A   1      46.778  35.192  27.680  1.00  0.00     0.059 A 
ATOM     66  C   UNL A   1      47.236  34.694  30.011  1.00  0.00     0.059 A 
ATOM     67  F   UNL A   1      46.972  32.505  30.808  1.00  0.00    -0.206 F 
ATOM     68  C   UNL A   1      47.190  35.597  28.949  1.00  0.00     0.060 A 
BRANCH  68  69
ATOM     69  S   UNL A   1      47.660  37.323  29.193  1.00  0.00     0.124 S 
ATOM     70  O   UNL A   1      46.410  37.898  29.681  1.00  0.00    -0.237 OA
ATOM     71  O   UNL A   1      48.734  37.218  30.175  1.00  0.00    -0.237 OA
ATOM     72  O   UNL A   1      48.072  37.755  27.861  1.00  0.00    -0.744 OA
ENDBRANCH  68  69
ENDBRANCH  47  61
BRANCH  48  73
ATOM     73  C   UNL A   1      43.374  23.542  26.962  1.00  0.00     0.058 A 
ATOM     74  C   UNL A   1      43.143  23.090  25.654  1.00  0.00     0.135 A 
ATOM     75  C   UNL A   1      43.173  22.635  28.013  1.00  0.00     0.135 A 
ATOM     76  F   UNL A   1      43.316  23.922  24.616  1.00  0.00    -0.206 F 
ATOM     77  C   UNL A   1      42.713  21.792  25.398  1.00  0.00     0.059 A 
ATOM     78  C   UNL A   1      42.768  21.324  27.780  1.00  0.00     0.059 A 
ATOM     79  F   UNL A   1      43.398  23.013  29.281  1.00  0.00    -0.206 F 
ATOM     80  C   UNL A   1      42.531  20.915  26.468  1.00  0.00     0.060 A 
BRANCH  80  81
ATOM     81  S   UNL A   1      42.022  19.218  26.120  1.00  0.00     0.124 S 
ATOM     82  O   UNL A   1      42.822  18.906  24.942  1.00  0.00    -0.237 OA
ATOM     83  O   UNL A   1      42.398  18.526  27.350  1.00  0.00    -0.237 OA
ATOM     84  O   UNL A   1      40.585  19.339  25.894  1.00  0.00    -0.744 OA
ENDBRANCH  80  81
ENDBRANCH  48  73
BRANCH  60  85
ATOM     85  C   UNL A   1      49.576  26.705  26.539  1.00  0.00     0.058 A 
ATOM     86  C   UNL A   1      50.432  26.157  27.506  1.00  0.00     0.135 A 
ATOM     87  C   UNL A   1      50.028  26.744  25.209  1.00  0.00     0.135 A 
ATOM     88  F   UNL A   1      50.051  26.101  28.792  1.00  0.00    -0.206 F 
ATOM     89  C   UNL A   1      51.700  25.689  27.173  1.00  0.00     0.059 A 
ATOM     90  C   UNL A   1      51.280  26.256  24.849  1.00  0.00     0.059 A 
ATOM     91  F   UNL A   1      49.245  27.248  24.243  1.00  0.00    -0.206 F 
ATOM     92  C   UNL A   1      52.115  25.745  25.841  1.00  0.00     0.060 A 
BRANCH  92  93
ATOM     93  S   UNL A   1      53.754  25.117  25.419  1.00  0.00     0.124 S 
ATOM     94  O   UNL A   1      53.510  23.679  25.357  1.00  0.00    -0.237 OA
ATOM     95  O   UNL A   1      54.021  25.770  24.142  1.00  0.00    -0.237 OA
ATOM     96  O   UNL A   1      54.586  25.564  26.533  1.00  0.00    -0.744 OA
ENDBRANCH  92  93
ENDBRANCH  60  85
ENDBRANCH  34  35
ENDBRANCH  26  29
ENDBRANCH  24  25
ENDBRANCH  23  24
ENDBRANCH   1  23
TORSDOF 17
ENDMDL
