MODEL 1
REMARK VINA RESULT:      -9.8      0.000      0.000
REMARK SMILES Cc1nc([C@]2(C)CCCO2)nc(C)c1C(=O)NCCCNC(=O)c1ccc(-c2c3nc(c(-c4c(F)cc(S(=O)(=O)[O-])cc4F)c4ccc([nH]4)c(-c4c(F)cc(S(=O)(=O)[O-])cc4F)c4nc(c(-c5c(F)cc(S(=O)(=O)[O-])cc5F)c5ccc2[nH]5)C=C4)C=C3)cc1
REMARK SMILES IDX 20 1 19 2 18 3 17 4 15 5 16 6 14 8 1 9 2 10 3 11 4 12 12 13
REMARK SMILES IDX 11 14 13 15 5 16 7 17 10 18 6 19 8 20 9 21 21 22 22 23 23 25
REMARK SMILES IDX 24 26 25 27 89 28 26 29 88 30 27 31 28 32 29 33 82 34 30 35
REMARK SMILES IDX 87 36 81 37 83 38 31 39 86 40 80 41 79 42 32 44 66 45 45 46
REMARK SMILES IDX 65 47 46 48 49 49 64 50 84 51 47 52 48 53 63 55 85 56 50 57
REMARK SMILES IDX 33 58 34 59 43 60 35 61 36 62 42 63 44 64 37 65 38 66 39 67
REMARK SMILES IDX 40 68 41 69 67 70 68 71 77 72 69 73 70 74 76 75 78 76 71 77
REMARK SMILES IDX 72 78 73 79 74 80 75 81 51 82 52 83 61 84 53 85 54 86 60 87
REMARK SMILES IDX 62 88 55 89 56 90 57 91 58 92 59 93
REMARK H PARENT 17 7 21 24 83 43 49 54
REMARK Flexibility Score: inf
ROOT
ATOM      1  C   UNL A   1      34.698  32.631  28.250  1.00  0.00     0.118 C 
ENDROOT
BRANCH   1   2
ATOM      2  C   UNL A   1      35.204  32.874  29.662  1.00  0.00     0.042 C 
BRANCH   2   3
ATOM      3  C   UNL A   1      36.646  33.380  29.706  1.00  0.00     0.118 C 
BRANCH   3   4
ATOM      4  N   UNL A   1      36.849  34.182  30.886  1.00  0.00    -0.352 N 
ATOM      5  C   UNL A   1      37.444  34.022  32.105  1.00  0.00     0.254 C 
ATOM      6  O   UNL A   1      37.240  34.989  32.846  1.00  0.00    -0.269 OA
ATOM      7  H   UNL A   1      36.457  35.079  30.788  1.00  0.00     0.163 HD
BRANCH   5   8
ATOM      8  C   UNL A   1      38.305  32.891  32.591  1.00  0.00     0.082 A 
ATOM      9  C   UNL A   1      36.624  30.916  32.837  1.00  0.00     0.068 C 
ATOM     10  C   UNL A   1      37.960  31.570  32.870  1.00  0.00     0.054 A 
ATOM     11  N   UNL A   1      38.854  30.666  33.341  1.00  0.00    -0.234 NA
ATOM     12  C   UNL A   1      40.084  31.052  33.681  1.00  0.00     0.160 A 
ATOM     13  C   UNL A   1      39.649  33.189  32.919  1.00  0.00     0.054 A 
ATOM     14  N   UNL A   1      40.525  32.288  33.451  1.00  0.00    -0.234 NA
ATOM     15  C   UNL A   1      40.274  34.553  32.775  1.00  0.00     0.068 C 
BRANCH  12  16
ATOM     16  C   UNL A   1      40.935  30.041  34.458  1.00  0.00     0.125 C 
ATOM     17  C   UNL A   1      42.268  29.756  33.767  1.00  0.00     0.046 C 
ATOM     18  O   UNL A   1      40.275  28.747  34.475  1.00  0.00    -0.367 OA
ATOM     19  C   UNL A   1      41.130  30.467  35.914  1.00  0.00     0.051 C 
ATOM     20  C   UNL A   1      41.925  28.692  32.744  1.00  0.00     0.032 C 
ATOM     21  C   UNL A   1      40.704  28.001  33.324  1.00  0.00     0.161 C 
ENDBRANCH  12  16
ENDBRANCH   5   8
ENDBRANCH   3   4
ENDBRANCH   2   3
ENDBRANCH   1   2
BRANCH   1  22
ATOM     22  N   UNL A   1      33.994  31.360  28.160  1.00  0.00    -0.352 N 
ATOM     23  C   UNL A   1      34.504  30.096  28.017  1.00  0.00     0.251 C 
ATOM     24  H   UNL A   1      33.012  31.416  28.208  1.00  0.00     0.163 HD
ATOM     25  O   UNL A   1      33.759  29.181  27.663  1.00  0.00    -0.269 OA
BRANCH  23  26
ATOM     26  C   UNL A   1      35.934  29.840  28.280  1.00  0.00     0.039 A 
ATOM     27  C   UNL A   1      36.328  29.404  29.548  1.00  0.00     0.014 A 
ATOM     28  C   UNL A   1      36.890  30.051  27.281  1.00  0.00     0.014 A 
ATOM     29  C   UNL A   1      37.673  29.135  29.797  1.00  0.00     0.010 A 
ATOM     30  C   UNL A   1      38.211  29.687  27.501  1.00  0.00     0.010 A 
ATOM     31  C   UNL A   1      38.620  29.245  28.766  1.00  0.00    -0.014 A 
BRANCH  31  32
ATOM     32  C   UNL A   1      40.051  28.928  28.989  1.00  0.00     0.031 A 
ATOM     33  C   UNL A   1      40.981  29.996  29.497  1.00  0.00     0.074 A 
ATOM     34  C   UNL A   1      40.521  27.708  28.662  1.00  0.00     0.049 A 
ATOM     35  N   UNL A   1      42.277  29.952  29.663  1.00  0.00    -0.248 NA
ATOM     36  C   UNL A   1      40.380  31.299  29.830  1.00  0.00     0.031 C 
ATOM     37  C   UNL A   1      39.717  26.613  28.111  1.00  0.00     0.029 A 
ATOM     38  N   UNL A   1      41.787  27.187  28.731  1.00  0.00    -0.354 N 
ATOM     39  C   UNL A   1      42.646  31.220  30.097  1.00  0.00     0.074 A 
ATOM     40  C   UNL A   1      41.449  32.029  30.112  1.00  0.00     0.031 C 
ATOM     41  C   UNL A   1      40.506  25.544  27.913  1.00  0.00     0.029 A 
ATOM     42  C   UNL A   1      41.876  25.891  28.278  1.00  0.00     0.049 A 
ATOM     43  H   UNL A   1      42.559  27.693  29.071  1.00  0.00     0.167 HD
ATOM     44  C   UNL A   1      43.869  31.662  30.474  1.00  0.00     0.037 A 
ATOM     45  C   UNL A   1      42.944  25.079  28.160  1.00  0.00     0.037 A 
ATOM     46  C   UNL A   1      45.046  30.834  30.484  1.00  0.00     0.049 A 
ATOM     47  C   UNL A   1      44.293  25.590  28.590  1.00  0.00     0.074 A 
ATOM     48  C   UNL A   1      46.321  31.158  30.907  1.00  0.00     0.029 A 
ATOM     49  N   UNL A   1      45.090  29.516  30.048  1.00  0.00    -0.354 N 
ATOM     50  N   UNL A   1      44.613  26.772  29.062  1.00  0.00    -0.248 NA
ATOM     51  C   UNL A   1      45.424  24.660  28.478  1.00  0.00     0.031 C 
ATOM     52  C   UNL A   1      47.149  30.054  30.681  1.00  0.00     0.029 A 
ATOM     53  C   UNL A   1      46.376  29.021  30.172  1.00  0.00     0.049 A 
ATOM     54  H   UNL A   1      44.321  29.009  29.702  1.00  0.00     0.167 HD
ATOM     55  C   UNL A   1      45.976  26.718  29.330  1.00  0.00     0.074 A 
ATOM     56  C   UNL A   1      46.416  25.383  28.978  1.00  0.00     0.031 C 
ATOM     57  C   UNL A   1      46.790  27.683  29.825  1.00  0.00     0.037 A 
BRANCH  44  58
ATOM     58  C   UNL A   1      43.995  33.096  30.911  1.00  0.00     0.058 A 
ATOM     59  C   UNL A   1      43.931  33.464  32.265  1.00  0.00     0.135 A 
ATOM     60  C   UNL A   1      44.219  34.113  29.968  1.00  0.00     0.135 A 
ATOM     61  F   UNL A   1      43.701  32.537  33.209  1.00  0.00    -0.206 F 
ATOM     62  C   UNL A   1      44.058  34.790  32.666  1.00  0.00     0.059 A 
ATOM     63  C   UNL A   1      44.380  35.442  30.349  1.00  0.00     0.059 A 
ATOM     64  F   UNL A   1      44.285  33.819  28.660  1.00  0.00    -0.206 F 
ATOM     65  C   UNL A   1      44.285  35.772  31.700  1.00  0.00     0.060 A 
BRANCH  65  66
ATOM     66  S   UNL A   1      44.461  37.485  32.241  1.00  0.00     0.124 S 
ATOM     67  O   UNL A   1      44.189  38.211  31.004  1.00  0.00    -0.237 OA
ATOM     68  O   UNL A   1      43.438  37.591  33.276  1.00  0.00    -0.237 OA
ATOM     69  O   UNL A   1      45.840  37.552  32.717  1.00  0.00    -0.744 OA
ENDBRANCH  65  66
ENDBRANCH  44  58
BRANCH  45  70
ATOM     70  C   UNL A   1      42.774  23.700  27.631  1.00  0.00     0.058 A 
ATOM     71  C   UNL A   1      42.564  22.616  28.495  1.00  0.00     0.135 A 
ATOM     72  C   UNL A   1      42.796  23.440  26.251  1.00  0.00     0.135 A 
ATOM     73  F   UNL A   1      42.537  22.811  29.822  1.00  0.00    -0.206 F 
ATOM     74  C   UNL A   1      42.397  21.320  28.013  1.00  0.00     0.059 A 
ATOM     75  C   UNL A   1      42.604  22.158  25.744  1.00  0.00     0.059 A 
ATOM     76  F   UNL A   1      42.973  24.445  25.380  1.00  0.00    -0.206 F 
ATOM     77  C   UNL A   1      42.416  21.102  26.635  1.00  0.00     0.060 A 
BRANCH  77  78
ATOM     78  S   UNL A   1      42.151  19.425  26.020  1.00  0.00     0.124 S 
ATOM     79  O   UNL A   1      40.710  19.417  25.799  1.00  0.00    -0.237 OA
ATOM     80  O   UNL A   1      42.982  19.405  24.821  1.00  0.00    -0.237 OA
ATOM     81  O   UNL A   1      42.627  18.588  27.117  1.00  0.00    -0.744 OA
ENDBRANCH  77  78
ENDBRANCH  45  70
BRANCH  57  82
ATOM     82  C   UNL A   1      48.232  27.326  30.052  1.00  0.00     0.058 A 
ATOM     83  C   UNL A   1      49.191  27.437  29.034  1.00  0.00     0.135 A 
ATOM     84  C   UNL A   1      48.670  26.935  31.329  1.00  0.00     0.135 A 
ATOM     85  F   UNL A   1      48.823  27.798  27.795  1.00  0.00    -0.206 F 
ATOM     86  C   UNL A   1      50.533  27.155  29.269  1.00  0.00     0.059 A 
ATOM     87  C   UNL A   1      50.011  26.680  31.594  1.00  0.00     0.059 A 
ATOM     88  F   UNL A   1      47.794  26.824  32.340  1.00  0.00    -0.206 F 
ATOM     89  C   UNL A   1      50.934  26.784  30.554  1.00  0.00     0.060 A 
BRANCH  89  90
ATOM     90  S   UNL A   1      52.686  26.471  30.855  1.00  0.00     0.124 S 
ATOM     91  O   UNL A   1      52.639  25.199  31.569  1.00  0.00    -0.237 OA
ATOM     92  O   UNL A   1      53.229  26.418  29.502  1.00  0.00    -0.237 OA
ATOM     93  O   UNL A   1      53.106  27.622  31.649  1.00  0.00    -0.744 OA
ENDBRANCH  89  90
ENDBRANCH  57  82
ENDBRANCH  31  32
ENDBRANCH  23  26
ENDBRANCH   1  22
TORSDOF 14
ENDMDL
MODEL 2
REMARK VINA RESULT:      -9.7      5.220     12.077
REMARK SMILES Cc1nc([C@]2(C)CCCO2)nc(C)c1C(=O)NCCCNC(=O)c1ccc(-c2c3nc(c(-c4c(F)cc(S(=O)(=O)[O-])cc4F)c4ccc([nH]4)c(-c4c(F)cc(S(=O)(=O)[O-])cc4F)c4nc(c(-c5c(F)cc(S(=O)(=O)[O-])cc5F)c5ccc2[nH]5)C=C4)C=C3)cc1
REMARK SMILES IDX 20 1 19 2 18 3 17 4 15 5 16 6 14 8 1 9 2 10 3 11 4 12 12 13
REMARK SMILES IDX 11 14 13 15 5 16 7 17 10 18 6 19 8 20 9 21 21 22 22 23 23 25
REMARK SMILES IDX 24 26 25 27 89 28 26 29 88 30 27 31 28 32 29 33 82 34 30 35
REMARK SMILES IDX 87 36 81 37 83 38 31 39 86 40 80 41 79 42 32 44 66 45 45 46
REMARK SMILES IDX 65 47 46 48 49 49 64 50 84 51 47 52 48 53 63 55 85 56 50 57
REMARK SMILES IDX 33 58 34 59 43 60 35 61 36 62 42 63 44 64 37 65 38 66 39 67
REMARK SMILES IDX 40 68 41 69 67 70 68 71 77 72 69 73 70 74 76 75 78 76 71 77
REMARK SMILES IDX 72 78 73 79 74 80 75 81 51 82 52 83 61 84 53 85 54 86 60 87
REMARK SMILES IDX 62 88 55 89 56 90 57 91 58 92 59 93
REMARK H PARENT 17 7 21 24 83 43 49 54
REMARK Flexibility Score: inf
ROOT
ATOM      1  C   UNL A   1      38.330  24.409  26.272  1.00  0.00     0.118 C 
ENDROOT
BRANCH   1   2
ATOM      2  C   UNL A   1      37.482  23.153  26.168  1.00  0.00     0.042 C 
BRANCH   2   3
ATOM      3  C   UNL A   1      37.137  22.777  24.727  1.00  0.00     0.118 C 
BRANCH   3   4
ATOM      4  N   UNL A   1      36.189  21.691  24.716  1.00  0.00    -0.352 N 
ATOM      5  C   UNL A   1      34.843  21.547  24.893  1.00  0.00     0.254 C 
ATOM      6  O   UNL A   1      34.507  20.358  24.911  1.00  0.00    -0.269 OA
ATOM      7  H   UNL A   1      36.626  20.829  24.532  1.00  0.00     0.163 HD
BRANCH   5   8
ATOM      8  C   UNL A   1      33.789  22.610  25.013  1.00  0.00     0.082 A 
ATOM      9  C   UNL A   1      33.546  23.495  22.575  1.00  0.00     0.068 C 
ATOM     10  C   UNL A   1      33.221  23.411  24.024  1.00  0.00     0.054 A 
ATOM     11  N   UNL A   1      32.294  24.362  24.298  1.00  0.00    -0.234 NA
ATOM     12  C   UNL A   1      31.985  24.655  25.562  1.00  0.00     0.160 A 
ATOM     13  C   UNL A   1      33.349  22.948  26.314  1.00  0.00     0.054 A 
ATOM     14  N   UNL A   1      32.461  23.949  26.587  1.00  0.00    -0.234 NA
ATOM     15  C   UNL A   1      33.841  22.285  27.575  1.00  0.00     0.068 C 
BRANCH  12  16
ATOM     16  C   UNL A   1      31.148  25.918  25.793  1.00  0.00     0.125 C 
ATOM     17  C   UNL A   1      31.391  26.977  24.718  1.00  0.00     0.046 C 
ATOM     18  O   UNL A   1      31.567  26.573  27.020  1.00  0.00    -0.367 OA
ATOM     19  C   UNL A   1      29.661  25.591  25.941  1.00  0.00     0.051 C 
ATOM     20  C   UNL A   1      32.631  27.702  25.199  1.00  0.00     0.032 C 
ATOM     21  C   UNL A   1      32.615  27.504  26.704  1.00  0.00     0.161 C 
ENDBRANCH  12  16
ENDBRANCH   5   8
ENDBRANCH   3   4
ENDBRANCH   2   3
ENDBRANCH   1   2
BRANCH   1  22
ATOM     22  N   UNL A   1      39.742  24.100  26.102  1.00  0.00    -0.352 N 
ATOM     23  C   UNL A   1      40.839  24.790  26.549  1.00  0.00     0.251 C 
ATOM     24  H   UNL A   1      39.938  23.279  25.595  1.00  0.00     0.163 HD
ATOM     25  O   UNL A   1      41.945  24.545  26.063  1.00  0.00    -0.269 OA
BRANCH  23  26
ATOM     26  C   UNL A   1      40.692  25.820  27.596  1.00  0.00     0.039 A 
ATOM     27  C   UNL A   1      39.751  25.630  28.612  1.00  0.00     0.014 A 
ATOM     28  C   UNL A   1      41.465  26.984  27.563  1.00  0.00     0.014 A 
ATOM     29  C   UNL A   1      39.623  26.586  29.620  1.00  0.00     0.010 A 
ATOM     30  C   UNL A   1      41.407  27.883  28.619  1.00  0.00     0.010 A 
ATOM     31  C   UNL A   1      40.472  27.704  29.647  1.00  0.00    -0.014 A 
BRANCH  31  32
ATOM     32  C   UNL A   1      40.387  28.717  30.727  1.00  0.00     0.031 A 
ATOM     33  C   UNL A   1      41.263  28.585  31.943  1.00  0.00     0.074 A 
ATOM     34  C   UNL A   1      39.473  29.703  30.643  1.00  0.00     0.049 A 
ATOM     35  N   UNL A   1      41.272  29.302  33.036  1.00  0.00    -0.248 NA
ATOM     36  C   UNL A   1      42.235  27.477  31.947  1.00  0.00     0.031 C 
ATOM     37  C   UNL A   1      38.535  29.894  29.533  1.00  0.00     0.029 A 
ATOM     38  N   UNL A   1      39.170  30.720  31.511  1.00  0.00    -0.354 N 
ATOM     39  C   UNL A   1      42.229  28.723  33.861  1.00  0.00     0.074 A 
ATOM     40  C   UNL A   1      42.738  27.560  33.169  1.00  0.00     0.031 C 
ATOM     41  C   UNL A   1      37.778  30.976  29.778  1.00  0.00     0.029 A 
ATOM     42  C   UNL A   1      38.143  31.527  31.079  1.00  0.00     0.049 A 
ATOM     43  H   UNL A   1      39.643  30.860  32.362  1.00  0.00     0.167 HD
ATOM     44  C   UNL A   1      42.663  29.139  35.073  1.00  0.00     0.037 A 
ATOM     45  C   UNL A   1      37.554  32.583  31.671  1.00  0.00     0.037 A 
ATOM     46  C   UNL A   1      42.169  30.318  35.734  1.00  0.00     0.049 A 
ATOM     47  C   UNL A   1      38.057  33.031  33.018  1.00  0.00     0.074 A 
ATOM     48  C   UNL A   1      42.582  30.868  36.933  1.00  0.00     0.029 A 
ATOM     49  N   UNL A   1      41.150  31.127  35.250  1.00  0.00    -0.354 N 
ATOM     50  N   UNL A   1      39.009  32.511  33.755  1.00  0.00    -0.248 NA
ATOM     51  C   UNL A   1      37.411  34.208  33.611  1.00  0.00     0.031 C 
ATOM     52  C   UNL A   1      41.780  31.982  37.201  1.00  0.00     0.029 A 
ATOM     53  C   UNL A   1      40.906  32.160  36.139  1.00  0.00     0.049 A 
ATOM     54  H   UNL A   1      40.672  30.988  34.401  1.00  0.00     0.167 HD
ATOM     55  C   UNL A   1      39.097  33.314  34.885  1.00  0.00     0.074 A 
ATOM     56  C   UNL A   1      38.109  34.362  34.729  1.00  0.00     0.031 C 
ATOM     57  C   UNL A   1      39.922  33.200  35.956  1.00  0.00     0.037 A 
BRANCH  44  58
ATOM     58  C   UNL A   1      43.725  28.322  35.759  1.00  0.00     0.058 A 
ATOM     59  C   UNL A   1      43.400  27.300  36.667  1.00  0.00     0.135 A 
ATOM     60  C   UNL A   1      45.084  28.538  35.479  1.00  0.00     0.135 A 
ATOM     61  F   UNL A   1      42.118  27.061  36.987  1.00  0.00    -0.206 F 
ATOM     62  C   UNL A   1      44.384  26.541  37.292  1.00  0.00     0.059 A 
ATOM     63  C   UNL A   1      46.084  27.770  36.069  1.00  0.00     0.059 A 
ATOM     64  F   UNL A   1      45.452  29.503  34.622  1.00  0.00    -0.206 F 
ATOM     65  C   UNL A   1      45.724  26.782  36.984  1.00  0.00     0.060 A 
BRANCH  65  66
ATOM     66  S   UNL A   1      46.986  25.777  37.795  1.00  0.00     0.124 S 
ATOM     67  O   UNL A   1      47.505  25.001  36.672  1.00  0.00    -0.237 OA
ATOM     68  O   UNL A   1      47.887  26.788  38.338  1.00  0.00    -0.237 OA
ATOM     69  O   UNL A   1      46.231  25.016  38.786  1.00  0.00    -0.744 OA
ENDBRANCH  65  66
ENDBRANCH  44  58
BRANCH  45  70
ATOM     70  C   UNL A   1      36.443  33.296  30.987  1.00  0.00     0.058 A 
ATOM     71  C   UNL A   1      35.123  33.187  31.446  1.00  0.00     0.135 A 
ATOM     72  C   UNL A   1      36.681  34.117  29.872  1.00  0.00     0.135 A 
ATOM     73  F   UNL A   1      34.843  32.413  32.506  1.00  0.00    -0.206 F 
ATOM     74  C   UNL A   1      34.074  33.854  30.818  1.00  0.00     0.059 A 
ATOM     75  C   UNL A   1      35.653  34.815  29.244  1.00  0.00     0.059 A 
ATOM     76  F   UNL A   1      37.929  34.271  29.404  1.00  0.00    -0.206 F 
ATOM     77  C   UNL A   1      34.351  34.668  29.720  1.00  0.00     0.060 A 
BRANCH  77  78
ATOM     78  S   UNL A   1      32.989  35.565  28.943  1.00  0.00     0.124 S 
ATOM     79  O   UNL A   1      32.415  34.538  28.082  1.00  0.00    -0.237 OA
ATOM     80  O   UNL A   1      32.184  35.955  30.096  1.00  0.00    -0.237 OA
ATOM     81  O   UNL A   1      33.660  36.663  28.255  1.00  0.00    -0.744 OA
ENDBRANCH  77  78
ENDBRANCH  45  70
BRANCH  57  82
ATOM     82  C   UNL A   1      39.821  34.250  37.027  1.00  0.00     0.058 A 
ATOM     83  C   UNL A   1      40.440  35.502  36.895  1.00  0.00     0.135 A 
ATOM     84  C   UNL A   1      39.033  34.022  38.167  1.00  0.00     0.135 A 
ATOM     85  F   UNL A   1      41.210  35.767  35.829  1.00  0.00    -0.206 F 
ATOM     86  C   UNL A   1      40.296  36.487  37.867  1.00  0.00     0.059 A 
ATOM     87  C   UNL A   1      38.850  35.003  39.136  1.00  0.00     0.059 A 
ATOM     88  F   UNL A   1      38.411  32.845  38.335  1.00  0.00    -0.206 F 
ATOM     89  C   UNL A   1      39.494  36.230  38.980  1.00  0.00     0.060 A 
BRANCH  89  90
ATOM     90  S   UNL A   1      39.276  37.535  40.208  1.00  0.00     0.124 S 
ATOM     91  O   UNL A   1      38.287  38.389  39.558  1.00  0.00    -0.237 OA
ATOM     92  O   UNL A   1      38.805  36.792  41.372  1.00  0.00    -0.237 OA
ATOM     93  O   UNL A   1      40.614  38.108  40.336  1.00  0.00    -0.744 OA
ENDBRANCH  89  90
ENDBRANCH  57  82
ENDBRANCH  31  32
ENDBRANCH  23  26
ENDBRANCH   1  22
TORSDOF 14
ENDMDL
MODEL 3
REMARK VINA RESULT:      -9.7      3.655      6.445
REMARK SMILES Cc1nc([C@]2(C)CCCO2)nc(C)c1C(=O)NCCCNC(=O)c1ccc(-c2c3nc(c(-c4c(F)cc(S(=O)(=O)[O-])cc4F)c4ccc([nH]4)c(-c4c(F)cc(S(=O)(=O)[O-])cc4F)c4nc(c(-c5c(F)cc(S(=O)(=O)[O-])cc5F)c5ccc2[nH]5)C=C4)C=C3)cc1
REMARK SMILES IDX 20 1 19 2 18 3 17 4 15 5 16 6 14 8 1 9 2 10 3 11 4 12 12 13
REMARK SMILES IDX 11 14 13 15 5 16 7 17 10 18 6 19 8 20 9 21 21 22 22 23 23 25
REMARK SMILES IDX 24 26 25 27 89 28 26 29 88 30 27 31 28 32 29 33 82 34 30 35
REMARK SMILES IDX 87 36 81 37 83 38 31 39 86 40 80 41 79 42 32 44 66 45 45 46
REMARK SMILES IDX 65 47 46 48 49 49 64 50 84 51 47 52 48 53 63 55 85 56 50 57
REMARK SMILES IDX 33 58 34 59 43 60 35 61 36 62 42 63 44 64 37 65 38 66 39 67
REMARK SMILES IDX 40 68 41 69 67 70 68 71 77 72 69 73 70 74 76 75 78 76 71 77
REMARK SMILES IDX 72 78 73 79 74 80 75 81 51 82 52 83 61 84 53 85 54 86 60 87
REMARK SMILES IDX 62 88 55 89 56 90 57 91 58 92 59 93
REMARK H PARENT 17 7 21 24 83 43 49 54
REMARK Flexibility Score: inf
ROOT
ATOM      1  C   UNL A   1      35.161  29.264  27.781  1.00  0.00     0.118 C 
ENDROOT
BRANCH   1   2
ATOM      2  C   UNL A   1      34.115  29.688  26.766  1.00  0.00     0.042 C 
BRANCH   2   3
ATOM      3  C   UNL A   1      32.684  29.386  27.212  1.00  0.00     0.118 C 
BRANCH   3   4
ATOM      4  N   UNL A   1      31.773  29.596  26.115  1.00  0.00    -0.352 N 
ATOM      5  C   UNL A   1      31.444  28.948  24.959  1.00  0.00     0.254 C 
ATOM      6  O   UNL A   1      30.666  29.612  24.266  1.00  0.00    -0.269 OA
ATOM      7  H   UNL A   1      31.252  30.423  26.229  1.00  0.00     0.163 HD
BRANCH   5   8
ATOM      8  C   UNL A   1      31.860  27.581  24.495  1.00  0.00     0.082 A 
ATOM      9  C   UNL A   1      30.337  25.984  25.879  1.00  0.00     0.068 C 
ATOM     10  C   UNL A   1      31.368  26.331  24.864  1.00  0.00     0.054 A 
ATOM     11  N   UNL A   1      31.877  25.174  24.376  1.00  0.00    -0.234 NA
ATOM     12  C   UNL A   1      32.970  25.189  23.612  1.00  0.00     0.160 A 
ATOM     13  C   UNL A   1      32.975  27.500  23.628  1.00  0.00     0.054 A 
ATOM     14  N   UNL A   1      33.521  26.327  23.190  1.00  0.00    -0.234 NA
ATOM     15  C   UNL A   1      33.741  28.692  23.117  1.00  0.00     0.068 C 
BRANCH  12  16
ATOM     16  C   UNL A   1      33.639  23.838  23.335  1.00  0.00     0.125 C 
ATOM     17  C   UNL A   1      33.515  22.879  24.519  1.00  0.00     0.046 C 
ATOM     18  O   UNL A   1      35.073  24.015  23.187  1.00  0.00    -0.367 OA
ATOM     19  C   UNL A   1      33.126  23.208  22.039  1.00  0.00     0.051 C 
ATOM     20  C   UNL A   1      34.666  23.270  25.424  1.00  0.00     0.032 C 
ATOM     21  C   UNL A   1      35.684  23.886  24.481  1.00  0.00     0.161 C 
ENDBRANCH  12  16
ENDBRANCH   5   8
ENDBRANCH   3   4
ENDBRANCH   2   3
ENDBRANCH   1   2
BRANCH   1  22
ATOM     22  N   UNL A   1      35.235  30.212  28.883  1.00  0.00    -0.352 N 
ATOM     23  C   UNL A   1      36.274  30.466  29.739  1.00  0.00     0.251 C 
ATOM     24  H   UNL A   1      34.423  30.748  29.034  1.00  0.00     0.163 HD
ATOM     25  O   UNL A   1      36.058  31.081  30.785  1.00  0.00    -0.269 OA
BRANCH  23  26
ATOM     26  C   UNL A   1      37.636  29.999  29.412  1.00  0.00     0.039 A 
ATOM     27  C   UNL A   1      38.052  29.993  28.078  1.00  0.00     0.014 A 
ATOM     28  C   UNL A   1      38.493  29.546  30.418  1.00  0.00     0.014 A 
ATOM     29  C   UNL A   1      39.346  29.578  27.762  1.00  0.00     0.010 A 
ATOM     30  C   UNL A   1      39.810  29.229  30.114  1.00  0.00     0.010 A 
ATOM     31  C   UNL A   1      40.244  29.222  28.782  1.00  0.00    -0.014 A 
BRANCH  31  32
ATOM     32  C   UNL A   1      41.637  28.814  28.481  1.00  0.00     0.031 A 
ATOM     33  C   UNL A   1      42.726  29.852  28.444  1.00  0.00     0.074 A 
ATOM     34  C   UNL A   1      41.902  27.530  28.170  1.00  0.00     0.049 A 
ATOM     35  N   UNL A   1      43.982  29.720  28.105  1.00  0.00    -0.248 NA
ATOM     36  C   UNL A   1      42.345  31.230  28.800  1.00  0.00     0.031 C 
ATOM     37  C   UNL A   1      40.912  26.450  28.123  1.00  0.00     0.029 A 
ATOM     38  N   UNL A   1      43.077  26.917  27.820  1.00  0.00    -0.354 N 
ATOM     39  C   UNL A   1      44.532  30.994  28.187  1.00  0.00     0.074 A 
ATOM     40  C   UNL A   1      43.462  31.896  28.548  1.00  0.00     0.031 C 
ATOM     41  C   UNL A   1      41.526  25.304  27.787  1.00  0.00     0.029 A 
ATOM     42  C   UNL A   1      42.940  25.575  27.549  1.00  0.00     0.049 A 
ATOM     43  H   UNL A   1      43.937  27.392  27.766  1.00  0.00     0.167 HD
ATOM     44  C   UNL A   1      45.818  31.372  28.003  1.00  0.00     0.037 A 
ATOM     45  C   UNL A   1      43.850  24.669  27.143  1.00  0.00     0.037 A 
ATOM     46  C   UNL A   1      46.878  30.456  27.675  1.00  0.00     0.049 A 
ATOM     47  C   UNL A   1      45.276  25.112  26.950  1.00  0.00     0.074 A 
ATOM     48  C   UNL A   1      48.228  30.719  27.530  1.00  0.00     0.029 A 
ATOM     49  N   UNL A   1      46.706  29.098  27.440  1.00  0.00    -0.354 N 
ATOM     50  N   UNL A   1      45.793  26.308  27.098  1.00  0.00    -0.248 NA
ATOM     51  C   UNL A   1      46.243  24.084  26.543  1.00  0.00     0.031 C 
ATOM     52  C   UNL A   1      48.866  29.531  27.158  1.00  0.00     0.029 A 
ATOM     53  C   UNL A   1      47.922  28.515  27.129  1.00  0.00     0.049 A 
ATOM     54  H   UNL A   1      45.847  28.620  27.488  1.00  0.00     0.167 HD
ATOM     55  C   UNL A   1      47.150  26.172  26.829  1.00  0.00     0.074 A 
ATOM     56  C   UNL A   1      47.374  24.775  26.522  1.00  0.00     0.031 C 
ATOM     57  C   UNL A   1      48.123  27.116  26.837  1.00  0.00     0.037 A 
BRANCH  44  58
ATOM     58  C   UNL A   1      46.152  32.831  28.158  1.00  0.00     0.058 A 
ATOM     59  C   UNL A   1      46.057  33.730  27.082  1.00  0.00     0.135 A 
ATOM     60  C   UNL A   1      46.537  33.347  29.406  1.00  0.00     0.135 A 
ATOM     61  F   UNL A   1      45.711  33.290  25.861  1.00  0.00    -0.206 F 
ATOM     62  C   UNL A   1      46.357  35.079  27.232  1.00  0.00     0.059 A 
ATOM     63  C   UNL A   1      46.811  34.699  29.587  1.00  0.00     0.059 A 
ATOM     64  F   UNL A   1      46.647  32.534  30.469  1.00  0.00    -0.206 F 
ATOM     65  C   UNL A   1      46.731  35.556  28.489  1.00  0.00     0.060 A 
BRANCH  65  66
ATOM     66  S   UNL A   1      47.103  37.313  28.667  1.00  0.00     0.124 S 
ATOM     67  O   UNL A   1      46.521  37.603  29.974  1.00  0.00    -0.237 OA
ATOM     68  O   UNL A   1      48.560  37.330  28.604  1.00  0.00    -0.237 OA
ATOM     69  O   UNL A   1      46.422  37.922  27.528  1.00  0.00    -0.744 OA
ENDBRANCH  65  66
ENDBRANCH  44  58
BRANCH  45  70
ATOM     70  C   UNL A   1      43.443  23.258  26.914  1.00  0.00     0.058 A 
ATOM     71  C   UNL A   1      43.196  22.393  27.990  1.00  0.00     0.135 A 
ATOM     72  C   UNL A   1      43.270  22.750  25.616  1.00  0.00     0.135 A 
ATOM     73  F   UNL A   1      43.350  22.828  29.249  1.00  0.00    -0.206 F 
ATOM     74  C   UNL A   1      42.808  21.071  27.790  1.00  0.00     0.059 A 
ATOM     75  C   UNL A   1      42.856  21.441  25.391  1.00  0.00     0.059 A 
ATOM     76  F   UNL A   1      43.472  23.542  24.552  1.00  0.00    -0.206 F 
ATOM     77  C   UNL A   1      42.638  20.605  26.485  1.00  0.00     0.060 A 
BRANCH  77  78
ATOM     78  S   UNL A   1      42.088  18.903  26.239  1.00  0.00     0.124 S 
ATOM     79  O   UNL A   1      42.224  18.354  27.583  1.00  0.00    -0.237 OA
ATOM     80  O   UNL A   1      40.723  19.089  25.759  1.00  0.00    -0.237 OA
ATOM     81  O   UNL A   1      43.028  18.387  25.249  1.00  0.00    -0.744 OA
ENDBRANCH  77  78
ENDBRANCH  45  70
BRANCH  57  82
ATOM     82  C   UNL A   1      49.528  26.669  26.542  1.00  0.00     0.058 A 
ATOM     83  C   UNL A   1      50.342  26.092  27.528  1.00  0.00     0.135 A 
ATOM     84  C   UNL A   1      50.036  26.755  25.235  1.00  0.00     0.135 A 
ATOM     85  F   UNL A   1      49.907  25.993  28.793  1.00  0.00    -0.206 F 
ATOM     86  C   UNL A   1      51.622  25.631  27.232  1.00  0.00     0.059 A 
ATOM     87  C   UNL A   1      51.300  26.272  24.910  1.00  0.00     0.059 A 
ATOM     88  F   UNL A   1      49.293  27.289  24.253  1.00  0.00    -0.206 F 
ATOM     89  C   UNL A   1      52.088  25.720  25.919  1.00  0.00     0.060 A 
BRANCH  89  90
ATOM     90  S   UNL A   1      53.730  25.073  25.540  1.00  0.00     0.124 S 
ATOM     91  O   UNL A   1      54.467  25.412  26.754  1.00  0.00    -0.237 OA
ATOM     92  O   UNL A   1      53.465  23.653  25.336  1.00  0.00    -0.237 OA
ATOM     93  O   UNL A   1      54.120  25.811  24.342  1.00  0.00    -0.744 OA
ENDBRANCH  89  90
ENDBRANCH  57  82
ENDBRANCH  31  32
ENDBRANCH  23  26
ENDBRANCH   1  22
TORSDOF 14
ENDMDL
