MODEL 1
REMARK VINA RESULT:     -12.8      0.000      0.000
REMARK SMILES O=C(NCCCNC(=O)[C@@H]1[C@@H](C(=O)Nc2ccc(F)c(F)c2)[C@H]2CC[C@@H]1O2)c1ccc(-c2c3nc(c(-c4c(F)cc(S(=O)(=O)[O-])cc4F)c4ccc([nH]4)c(-c4c(F)cc(S(=O)(=O)[O-])cc4F)c4nc(c(-c5c(F)cc(S(=O)(=O)[O-])cc5F)c5ccc2[nH]5)C=C4)C=C3)cc1
REMARK SMILES IDX 4 1 3 2 1 3 2 4 28 6 29 7 93 8 30 9 92 10 31 11 32 12 33 13
REMARK SMILES IDX 86 14 34 15 91 16 85 17 87 18 35 19 90 20 84 21 83 22 36 24
REMARK SMILES IDX 70 25 49 26 69 27 50 28 53 29 68 30 88 31 51 32 52 33 67 35
REMARK SMILES IDX 89 36 54 37 37 38 38 39 47 40 39 41 40 42 46 43 48 44 41 45
REMARK SMILES IDX 42 46 43 47 44 48 45 49 71 50 72 51 81 52 73 53 74 54 80 55
REMARK SMILES IDX 82 56 75 57 76 58 77 59 78 60 79 61 55 62 56 63 65 64 57 65
REMARK SMILES IDX 58 66 64 67 66 68 59 69 60 70 61 71 62 72 63 73 5 74 6 75
REMARK SMILES IDX 7 76 8 77 9 79 10 80 11 81 26 82 23 83 25 84 27 85 24 86
REMARK SMILES IDX 12 87 13 88 14 89 15 91 16 92 22 93 17 94 20 95 18 96 21 97
REMARK SMILES IDX 19 98
REMARK H PARENT 3 5 87 23 53 34 7 78 14 90
REMARK Flexibility Score: inf
ROOT
ATOM      1  C   UNL A   1      35.174  29.292  27.519  1.00  0.00     0.118 C 
ENDROOT
BRANCH   1   2
ATOM      2  N   UNL A   1      35.188  29.982  28.806  1.00  0.00    -0.352 N 
ATOM      3  O   UNL A   1      35.933  30.527  30.859  1.00  0.00    -0.269 OA
ATOM      4  C   UNL A   1      36.197  30.118  29.731  1.00  0.00     0.251 C 
ATOM      5  H   UNL A   1      34.341  30.419  29.051  1.00  0.00     0.163 HD
BRANCH   4   6
ATOM      6  C   UNL A   1      37.583  29.751  29.377  1.00  0.00     0.039 A 
ATOM      7  C   UNL A   1      38.460  29.287  30.358  1.00  0.00     0.014 A 
ATOM      8  C   UNL A   1      38.012  29.846  28.051  1.00  0.00     0.014 A 
ATOM      9  C   UNL A   1      39.802  29.121  30.064  1.00  0.00     0.010 A 
ATOM     10  C   UNL A   1      39.336  29.537  27.727  1.00  0.00     0.010 A 
ATOM     11  C   UNL A   1      40.249  29.202  28.739  1.00  0.00    -0.014 A 
BRANCH  11  12
ATOM     12  C   UNL A   1      41.653  28.836  28.435  1.00  0.00     0.031 A 
ATOM     13  C   UNL A   1      42.749  29.861  28.457  1.00  0.00     0.074 A 
ATOM     14  C   UNL A   1      41.925  27.548  28.142  1.00  0.00     0.049 A 
ATOM     15  N   UNL A   1      44.017  29.713  28.174  1.00  0.00    -0.248 NA
ATOM     16  C   UNL A   1      42.373  31.233  28.832  1.00  0.00     0.031 C 
ATOM     17  C   UNL A   1      40.930  26.472  28.080  1.00  0.00     0.029 A 
ATOM     18  N   UNL A   1      43.107  26.920  27.848  1.00  0.00    -0.354 N 
ATOM     19  C   UNL A   1      44.586  30.974  28.305  1.00  0.00     0.074 A 
ATOM     20  C   UNL A   1      43.519  31.880  28.674  1.00  0.00     0.031 C 
ATOM     21  C   UNL A   1      41.545  25.316  27.802  1.00  0.00     0.029 A 
ATOM     22  C   UNL A   1      42.960  25.580  27.580  1.00  0.00     0.049 A 
ATOM     23  H   UNL A   1      43.975  27.384  27.831  1.00  0.00     0.167 HD
ATOM     24  C   UNL A   1      45.881  31.334  28.129  1.00  0.00     0.037 A 
ATOM     25  C   UNL A   1      43.853  24.667  27.157  1.00  0.00     0.037 A 
ATOM     26  C   UNL A   1      46.928  30.411  27.771  1.00  0.00     0.049 A 
ATOM     27  C   UNL A   1      45.275  25.092  26.954  1.00  0.00     0.074 A 
ATOM     28  C   UNL A   1      48.280  30.662  27.613  1.00  0.00     0.029 A 
ATOM     29  N   UNL A   1      46.739  29.061  27.502  1.00  0.00    -0.354 N 
ATOM     30  N   UNL A   1      45.805  26.280  27.116  1.00  0.00    -0.248 NA
ATOM     31  C   UNL A   1      46.219  24.061  26.509  1.00  0.00     0.031 C 
ATOM     32  C   UNL A   1      48.898  29.478  27.199  1.00  0.00     0.029 A 
ATOM     33  C   UNL A   1      47.943  28.473  27.153  1.00  0.00     0.049 A 
ATOM     34  H   UNL A   1      45.875  28.591  27.554  1.00  0.00     0.167 HD
ATOM     35  C   UNL A   1      47.149  26.142  26.804  1.00  0.00     0.074 A 
ATOM     36  C   UNL A   1      47.354  24.749  26.455  1.00  0.00     0.031 C 
ATOM     37  C   UNL A   1      48.125  27.083  26.807  1.00  0.00     0.037 A 
BRANCH  24  38
ATOM     38  C   UNL A   1      46.224  32.793  28.280  1.00  0.00     0.058 A 
ATOM     39  C   UNL A   1      46.645  33.339  29.503  1.00  0.00     0.135 A 
ATOM     40  C   UNL A   1      46.135  33.659  27.176  1.00  0.00     0.135 A 
ATOM     41  F   UNL A   1      46.740  32.561  30.594  1.00  0.00    -0.206 F 
ATOM     42  C   UNL A   1      46.921  34.697  29.638  1.00  0.00     0.059 A 
ATOM     43  C   UNL A   1      46.433  35.015  27.282  1.00  0.00     0.059 A 
ATOM     44  F   UNL A   1      45.743  33.193  25.980  1.00  0.00    -0.206 F 
ATOM     45  C   UNL A   1      46.803  35.529  28.525  1.00  0.00     0.060 A 
BRANCH  45  46
ATOM     46  S   UNL A   1      47.124  37.294  28.724  1.00  0.00     0.124 S 
ATOM     47  O   UNL A   1      48.346  37.456  27.942  1.00  0.00    -0.237 OA
ATOM     48  O   UNL A   1      45.924  37.898  28.154  1.00  0.00    -0.237 OA
ATOM     49  O   UNL A   1      47.277  37.453  30.166  1.00  0.00    -0.744 OA
ENDBRANCH  45  46
ENDBRANCH  24  38
BRANCH  25  50
ATOM     50  C   UNL A   1      43.389  23.283  26.879  1.00  0.00     0.058 A 
ATOM     51  C   UNL A   1      43.309  22.793  25.569  1.00  0.00     0.135 A 
ATOM     52  C   UNL A   1      43.113  22.394  27.931  1.00  0.00     0.135 A 
ATOM     53  F   UNL A   1      43.563  23.605  24.532  1.00  0.00    -0.206 F 
ATOM     54  C   UNL A   1      42.980  21.466  25.310  1.00  0.00     0.059 A 
ATOM     55  C   UNL A   1      42.810  21.058  27.700  1.00  0.00     0.059 A 
ATOM     56  F   UNL A   1      43.202  22.812  29.205  1.00  0.00    -0.206 F 
ATOM     57  C   UNL A   1      42.743  20.604  26.384  1.00  0.00     0.060 A 
BRANCH  57  58
ATOM     58  S   UNL A   1      42.412  18.862  26.039  1.00  0.00     0.124 S 
ATOM     59  O   UNL A   1      42.667  18.252  27.338  1.00  0.00    -0.237 OA
ATOM     60  O   UNL A   1      41.017  18.895  25.610  1.00  0.00    -0.237 OA
ATOM     61  O   UNL A   1      43.375  18.539  24.989  1.00  0.00    -0.744 OA
ENDBRANCH  57  58
ENDBRANCH  25  50
BRANCH  37  62
ATOM     62  C   UNL A   1      49.513  26.636  26.444  1.00  0.00     0.058 A 
ATOM     63  C   UNL A   1      50.321  25.932  27.349  1.00  0.00     0.135 A 
ATOM     64  C   UNL A   1      50.006  26.850  25.148  1.00  0.00     0.135 A 
ATOM     65  F   UNL A   1      49.898  25.714  28.605  1.00  0.00    -0.206 F 
ATOM     66  C   UNL A   1      51.575  25.459  26.983  1.00  0.00     0.059 A 
ATOM     67  C   UNL A   1      51.248  26.363  24.752  1.00  0.00     0.059 A 
ATOM     68  F   UNL A   1      49.270  27.515  24.244  1.00  0.00    -0.206 F 
ATOM     69  C   UNL A   1      52.027  25.672  25.679  1.00  0.00     0.060 A 
BRANCH  69  70
ATOM     70  S   UNL A   1      53.628  24.994  25.196  1.00  0.00     0.124 S 
ATOM     71  O   UNL A   1      53.794  25.552  23.858  1.00  0.00    -0.237 OA
ATOM     72  O   UNL A   1      54.517  25.533  26.222  1.00  0.00    -0.237 OA
ATOM     73  O   UNL A   1      53.418  23.551  25.253  1.00  0.00    -0.744 OA
ENDBRANCH  69  70
ENDBRANCH  37  62
ENDBRANCH  11  12
ENDBRANCH   4   6
ENDBRANCH   1   2
BRANCH   1  74
ATOM     74  C   UNL A   1      33.844  28.621  27.238  1.00  0.00     0.042 C 
BRANCH  74  75
ATOM     75  C   UNL A   1      33.105  29.258  26.081  1.00  0.00     0.117 C 
BRANCH  75  76
ATOM     76  N   UNL A   1      33.868  29.239  24.839  1.00  0.00    -0.356 N 
ATOM     77  C   UNL A   1      33.858  28.421  23.761  1.00  0.00     0.226 C 
ATOM     78  H   UNL A   1      34.525  29.970  24.771  1.00  0.00     0.163 HD
ATOM     79  O   UNL A   1      34.568  28.765  22.808  1.00  0.00    -0.275 OA
BRANCH  77  80
ATOM     80  C   UNL A   1      33.062  27.133  23.653  1.00  0.00     0.122 C 
ATOM     81  C   UNL A   1      33.736  25.856  24.149  1.00  0.00     0.123 C 
ATOM     82  C   UNL A   1      32.781  26.822  22.181  1.00  0.00     0.132 C 
ATOM     83  C   UNL A   1      33.648  24.959  22.896  1.00  0.00     0.132 C 
ATOM     84  C   UNL A   1      31.607  25.851  22.059  1.00  0.00     0.035 C 
ATOM     85  O   UNL A   1      33.883  25.944  21.848  1.00  0.00    -0.373 OA
ATOM     86  C   UNL A   1      32.251  24.525  22.466  1.00  0.00     0.035 C 
BRANCH  81  87
ATOM     87  C   UNL A   1      33.135  25.249  25.406  1.00  0.00     0.231 C 
ATOM     88  O   UNL A   1      32.168  25.740  25.985  1.00  0.00    -0.274 OA
ATOM     89  N   UNL A   1      33.618  24.032  25.834  1.00  0.00    -0.326 N 
ATOM     90  H   UNL A   1      32.994  23.500  26.381  1.00  0.00     0.169 HD
BRANCH  89  91
ATOM     91  C   UNL A   1      34.870  23.439  25.603  1.00  0.00     0.044 A 
ATOM     92  C   UNL A   1      34.994  22.191  24.979  1.00  0.00     0.029 A 
ATOM     93  C   UNL A   1      36.022  24.145  25.951  1.00  0.00     0.068 A 
ATOM     94  C   UNL A   1      36.251  21.611  24.786  1.00  0.00     0.044 A 
ATOM     95  C   UNL A   1      37.273  23.557  25.766  1.00  0.00     0.160 A 
ATOM     96  C   UNL A   1      37.387  22.294  25.199  1.00  0.00     0.158 A 
ATOM     97  F   UNL A   1      38.370  24.225  26.149  1.00  0.00    -0.204 F 
ATOM     98  F   UNL A   1      38.590  21.733  25.024  1.00  0.00    -0.204 F 
ENDBRANCH  89  91
ENDBRANCH  81  87
ENDBRANCH  77  80
ENDBRANCH  75  76
ENDBRANCH  74  75
ENDBRANCH   1  74
TORSDOF 15
ENDMDL
MODEL 2
REMARK VINA RESULT:     -12.6      6.810     12.105
REMARK SMILES O=C(NCCCNC(=O)[C@@H]1[C@@H](C(=O)Nc2ccc(F)c(F)c2)[C@H]2CC[C@@H]1O2)c1ccc(-c2c3nc(c(-c4c(F)cc(S(=O)(=O)[O-])cc4F)c4ccc([nH]4)c(-c4c(F)cc(S(=O)(=O)[O-])cc4F)c4nc(c(-c5c(F)cc(S(=O)(=O)[O-])cc5F)c5ccc2[nH]5)C=C4)C=C3)cc1
REMARK SMILES IDX 4 1 3 2 1 3 2 4 28 6 29 7 93 8 30 9 92 10 31 11 32 12 33 13
REMARK SMILES IDX 86 14 34 15 91 16 85 17 87 18 35 19 90 20 84 21 83 22 36 24
REMARK SMILES IDX 70 25 49 26 69 27 50 28 53 29 68 30 88 31 51 32 52 33 67 35
REMARK SMILES IDX 89 36 54 37 37 38 38 39 47 40 39 41 40 42 46 43 48 44 41 45
REMARK SMILES IDX 42 46 43 47 44 48 45 49 71 50 72 51 81 52 73 53 74 54 80 55
REMARK SMILES IDX 82 56 75 57 76 58 77 59 78 60 79 61 55 62 56 63 65 64 57 65
REMARK SMILES IDX 58 66 64 67 66 68 59 69 60 70 61 71 62 72 63 73 5 74 6 75
REMARK SMILES IDX 7 76 8 77 9 79 10 80 11 81 26 82 23 83 25 84 27 85 24 86
REMARK SMILES IDX 12 87 13 88 14 89 15 91 16 92 22 93 17 94 20 95 18 96 21 97
REMARK SMILES IDX 19 98
REMARK H PARENT 3 5 87 23 53 34 7 78 14 90
REMARK Flexibility Score: inf
ROOT
ATOM      1  C   UNL A   1      38.278  24.187  26.461  1.00  0.00     0.118 C 
ENDROOT
BRANCH   1   2
ATOM      2  N   UNL A   1      39.691  24.038  26.123  1.00  0.00    -0.352 N 
ATOM      3  O   UNL A   1      41.846  24.648  25.909  1.00  0.00    -0.269 OA
ATOM      4  C   UNL A   1      40.777  24.794  26.497  1.00  0.00     0.251 C 
ATOM      5  H   UNL A   1      39.899  23.277  25.536  1.00  0.00     0.163 HD
BRANCH   4   6
ATOM      6  C   UNL A   1      40.653  25.790  27.579  1.00  0.00     0.039 A 
ATOM      7  C   UNL A   1      41.498  26.898  27.616  1.00  0.00     0.014 A 
ATOM      8  C   UNL A   1      39.668  25.635  28.559  1.00  0.00     0.014 A 
ATOM      9  C   UNL A   1      41.506  27.728  28.724  1.00  0.00     0.010 A 
ATOM     10  C   UNL A   1      39.581  26.557  29.605  1.00  0.00     0.010 A 
ATOM     11  C   UNL A   1      40.521  27.594  29.711  1.00  0.00    -0.014 A 
BRANCH  11  12
ATOM     12  C   UNL A   1      40.443  28.613  30.786  1.00  0.00     0.031 A 
ATOM     13  C   UNL A   1      41.334  28.544  31.991  1.00  0.00     0.074 A 
ATOM     14  C   UNL A   1      39.550  29.614  30.649  1.00  0.00     0.049 A 
ATOM     15  N   UNL A   1      41.363  29.329  33.037  1.00  0.00    -0.248 NA
ATOM     16  C   UNL A   1      42.311  27.445  32.038  1.00  0.00     0.031 C 
ATOM     17  C   UNL A   1      38.626  29.768  29.521  1.00  0.00     0.029 A 
ATOM     18  N   UNL A   1      39.273  30.691  31.451  1.00  0.00    -0.354 N 
ATOM     19  C   UNL A   1      42.334  28.804  33.880  1.00  0.00     0.074 A 
ATOM     20  C   UNL A   1      42.860  27.622  33.232  1.00  0.00     0.031 C 
ATOM     21  C   UNL A   1      37.910  30.887  29.685  1.00  0.00     0.029 A 
ATOM     22  C   UNL A   1      38.260  31.483  30.967  1.00  0.00     0.049 A 
ATOM     23  H   UNL A   1      39.753  30.877  32.290  1.00  0.00     0.167 HD
ATOM     24  C   UNL A   1      42.743  29.272  35.085  1.00  0.00     0.037 A 
ATOM     25  C   UNL A   1      37.643  32.548  31.511  1.00  0.00     0.037 A 
ATOM     26  C   UNL A   1      42.211  30.460  35.706  1.00  0.00     0.049 A 
ATOM     27  C   UNL A   1      38.101  33.038  32.851  1.00  0.00     0.074 A 
ATOM     28  C   UNL A   1      42.587  31.047  36.901  1.00  0.00     0.029 A 
ATOM     29  N   UNL A   1      41.182  31.234  35.187  1.00  0.00    -0.354 N 
ATOM     30  N   UNL A   1      39.046  32.553  33.620  1.00  0.00    -0.248 NA
ATOM     31  C   UNL A   1      37.414  34.212  33.400  1.00  0.00     0.031 C 
ATOM     32  C   UNL A   1      41.750  32.145  37.130  1.00  0.00     0.029 A 
ATOM     33  C   UNL A   1      40.889  32.277  36.050  1.00  0.00     0.049 A 
ATOM     34  H   UNL A   1      40.726  31.067  34.330  1.00  0.00     0.167 HD
ATOM     35  C   UNL A   1      39.077  33.368  34.742  1.00  0.00     0.074 A 
ATOM     36  C   UNL A   1      38.063  34.386  34.545  1.00  0.00     0.031 C 
ATOM     37  C   UNL A   1      39.873  33.280  35.835  1.00  0.00     0.037 A 
BRANCH  24  38
ATOM     38  C   UNL A   1      43.785  28.475  35.825  1.00  0.00     0.058 A 
ATOM     39  C   UNL A   1      45.159  28.715  35.671  1.00  0.00     0.135 A 
ATOM     40  C   UNL A   1      43.397  27.454  36.710  1.00  0.00     0.135 A 
ATOM     41  F   UNL A   1      45.588  29.673  34.832  1.00  0.00    -0.206 F 
ATOM     42  C   UNL A   1      46.112  27.944  36.330  1.00  0.00     0.059 A 
ATOM     43  C   UNL A   1      44.333  26.688  37.401  1.00  0.00     0.059 A 
ATOM     44  F   UNL A   1      42.097  27.182  36.901  1.00  0.00    -0.206 F 
ATOM     45  C   UNL A   1      45.690  26.926  37.186  1.00  0.00     0.060 A 
BRANCH  45  46
ATOM     46  S   UNL A   1      46.937  25.908  38.003  1.00  0.00     0.124 S 
ATOM     47  O   UNL A   1      46.115  24.838  38.561  1.00  0.00    -0.237 OA
ATOM     48  O   UNL A   1      47.805  25.525  36.894  1.00  0.00    -0.237 OA
ATOM     49  O   UNL A   1      47.533  26.814  38.978  1.00  0.00    -0.744 OA
ENDBRANCH  45  46
ENDBRANCH  24  38
BRANCH  25  50
ATOM     50  C   UNL A   1      36.514  33.177  30.778  1.00  0.00     0.058 A 
ATOM     51  C   UNL A   1      35.189  33.009  31.201  1.00  0.00     0.135 A 
ATOM     52  C   UNL A   1      36.754  34.042  29.697  1.00  0.00     0.135 A 
ATOM     53  F   UNL A   1      34.912  32.192  32.229  1.00  0.00    -0.206 F 
ATOM     54  C   UNL A   1      34.140  33.682  30.584  1.00  0.00     0.059 A 
ATOM     55  C   UNL A   1      35.726  34.747  29.082  1.00  0.00     0.059 A 
ATOM     56  F   UNL A   1      38.010  34.254  29.272  1.00  0.00    -0.206 F 
ATOM     57  C   UNL A   1      34.421  34.558  29.532  1.00  0.00     0.060 A 
BRANCH  57  58
ATOM     58  S   UNL A   1      33.063  35.500  28.803  1.00  0.00     0.124 S 
ATOM     59  O   UNL A   1      32.368  35.980  29.991  1.00  0.00    -0.237 OA
ATOM     60  O   UNL A   1      33.773  36.510  28.025  1.00  0.00    -0.237 OA
ATOM     61  O   UNL A   1      32.348  34.500  28.013  1.00  0.00    -0.744 OA
ENDBRANCH  57  58
ENDBRANCH  25  50
BRANCH  37  62
ATOM     62  C   UNL A   1      39.699  34.328  36.898  1.00  0.00     0.058 A 
ATOM     63  C   UNL A   1      38.933  34.090  38.049  1.00  0.00     0.135 A 
ATOM     64  C   UNL A   1      40.372  35.556  36.796  1.00  0.00     0.135 A 
ATOM     65  F   UNL A   1      38.260  32.936  38.186  1.00  0.00    -0.206 F 
ATOM     66  C   UNL A   1      38.835  35.037  39.062  1.00  0.00     0.059 A 
ATOM     67  C   UNL A   1      40.308  36.506  37.809  1.00  0.00     0.059 A 
ATOM     68  F   UNL A   1      41.121  35.830  35.717  1.00  0.00    -0.206 F 
ATOM     69  C   UNL A   1      39.533  36.239  38.936  1.00  0.00     0.060 A 
BRANCH  69  70
ATOM     70  S   UNL A   1      39.452  37.432  40.289  1.00  0.00     0.124 S 
ATOM     71  O   UNL A   1      40.862  37.748  40.488  1.00  0.00    -0.237 OA
ATOM     72  O   UNL A   1      38.638  38.500  39.714  1.00  0.00    -0.237 OA
ATOM     73  O   UNL A   1      38.818  36.680  41.368  1.00  0.00    -0.744 OA
ENDBRANCH  69  70
ENDBRANCH  37  62
ENDBRANCH  11  12
ENDBRANCH   4   6
ENDBRANCH   1   2
BRANCH   1  74
ATOM     74  C   UNL A   1      37.367  23.549  25.429  1.00  0.00     0.042 C 
BRANCH  74  75
ATOM     75  C   UNL A   1      37.161  22.069  25.671  1.00  0.00     0.117 C 
BRANCH  75  76
ATOM     76  N   UNL A   1      36.004  21.787  26.512  1.00  0.00    -0.356 N 
ATOM     77  C   UNL A   1      34.695  21.575  26.242  1.00  0.00     0.226 C 
ATOM     78  H   UNL A   1      36.219  21.741  27.473  1.00  0.00     0.163 HD
ATOM     79  O   UNL A   1      33.987  21.239  27.200  1.00  0.00    -0.275 OA
BRANCH  77  80
ATOM     80  C   UNL A   1      34.051  21.733  24.876  1.00  0.00     0.122 C 
ATOM     81  C   UNL A   1      33.464  23.102  24.539  1.00  0.00     0.123 C 
ATOM     82  C   UNL A   1      32.840  20.805  24.767  1.00  0.00     0.132 C 
ATOM     83  C   UNL A   1      32.009  22.729  24.185  1.00  0.00     0.132 C 
ATOM     84  C   UNL A   1      32.481  20.572  23.299  1.00  0.00     0.035 C 
ATOM     85  O   UNL A   1      31.758  21.680  25.165  1.00  0.00    -0.373 OA
ATOM     86  C   UNL A   1      31.806  21.893  22.927  1.00  0.00     0.035 C 
BRANCH  81  87
ATOM     87  C   UNL A   1      34.200  23.877  23.458  1.00  0.00     0.231 C 
ATOM     88  O   UNL A   1      34.992  23.347  22.682  1.00  0.00    -0.274 OA
ATOM     89  N   UNL A   1      33.864  25.199  23.265  1.00  0.00    -0.326 N 
ATOM     90  H   UNL A   1      34.052  25.554  22.365  1.00  0.00     0.169 HD
BRANCH  89  91
ATOM     91  C   UNL A   1      33.294  26.114  24.165  1.00  0.00     0.044 A 
ATOM     92  C   UNL A   1      33.942  26.490  25.348  1.00  0.00     0.029 A 
ATOM     93  C   UNL A   1      32.076  26.709  23.835  1.00  0.00     0.068 A 
ATOM     94  C   UNL A   1      33.339  27.382  26.240  1.00  0.00     0.044 A 
ATOM     95  C   UNL A   1      31.473  27.590  24.734  1.00  0.00     0.160 A 
ATOM     96  C   UNL A   1      32.095  27.916  25.932  1.00  0.00     0.158 A 
ATOM     97  F   UNL A   1      30.281  28.119  24.428  1.00  0.00    -0.204 F 
ATOM     98  F   UNL A   1      31.513  28.762  26.793  1.00  0.00    -0.204 F 
ENDBRANCH  89  91
ENDBRANCH  81  87
ENDBRANCH  77  80
ENDBRANCH  75  76
ENDBRANCH  74  75
ENDBRANCH   1  74
TORSDOF 15
ENDMDL
MODEL 3
REMARK VINA RESULT:     -12.6      1.341      1.749
REMARK SMILES O=C(NCCCNC(=O)[C@@H]1[C@@H](C(=O)Nc2ccc(F)c(F)c2)[C@H]2CC[C@@H]1O2)c1ccc(-c2c3nc(c(-c4c(F)cc(S(=O)(=O)[O-])cc4F)c4ccc([nH]4)c(-c4c(F)cc(S(=O)(=O)[O-])cc4F)c4nc(c(-c5c(F)cc(S(=O)(=O)[O-])cc5F)c5ccc2[nH]5)C=C4)C=C3)cc1
REMARK SMILES IDX 4 1 3 2 1 3 2 4 28 6 29 7 93 8 30 9 92 10 31 11 32 12 33 13
REMARK SMILES IDX 86 14 34 15 91 16 85 17 87 18 35 19 90 20 84 21 83 22 36 24
REMARK SMILES IDX 70 25 49 26 69 27 50 28 53 29 68 30 88 31 51 32 52 33 67 35
REMARK SMILES IDX 89 36 54 37 37 38 38 39 47 40 39 41 40 42 46 43 48 44 41 45
REMARK SMILES IDX 42 46 43 47 44 48 45 49 71 50 72 51 81 52 73 53 74 54 80 55
REMARK SMILES IDX 82 56 75 57 76 58 77 59 78 60 79 61 55 62 56 63 65 64 57 65
REMARK SMILES IDX 58 66 64 67 66 68 59 69 60 70 61 71 62 72 63 73 5 74 6 75
REMARK SMILES IDX 7 76 8 77 9 79 10 80 11 81 26 82 23 83 25 84 27 85 24 86
REMARK SMILES IDX 12 87 13 88 14 89 15 91 16 92 22 93 17 94 20 95 18 96 21 97
REMARK SMILES IDX 19 98
REMARK H PARENT 3 5 87 23 53 34 7 78 14 90
REMARK Flexibility Score: inf
ROOT
ATOM      1  C   UNL A   1      35.211  29.385  27.545  1.00  0.00     0.118 C 
ENDROOT
BRANCH   1   2
ATOM      2  N   UNL A   1      35.225  30.089  28.823  1.00  0.00    -0.352 N 
ATOM      3  O   UNL A   1      35.964  30.649  30.874  1.00  0.00    -0.269 OA
ATOM      4  C   UNL A   1      36.230  30.223  29.753  1.00  0.00     0.251 C 
ATOM      5  H   UNL A   1      34.382  30.540  29.058  1.00  0.00     0.163 HD
BRANCH   4   6
ATOM      6  C   UNL A   1      37.613  29.835  29.413  1.00  0.00     0.039 A 
ATOM      7  C   UNL A   1      38.489  29.406  30.409  1.00  0.00     0.014 A 
ATOM      8  C   UNL A   1      38.041  29.877  28.083  1.00  0.00     0.014 A 
ATOM      9  C   UNL A   1      39.830  29.221  30.121  1.00  0.00     0.010 A 
ATOM     10  C   UNL A   1      39.363  29.549  27.771  1.00  0.00     0.010 A 
ATOM     11  C   UNL A   1      40.276  29.249  28.794  1.00  0.00    -0.014 A 
BRANCH  11  12
ATOM     12  C   UNL A   1      41.677  28.863  28.502  1.00  0.00     0.031 A 
ATOM     13  C   UNL A   1      42.787  29.873  28.539  1.00  0.00     0.074 A 
ATOM     14  C   UNL A   1      41.934  27.572  28.209  1.00  0.00     0.049 A 
ATOM     15  N   UNL A   1      44.056  29.708  28.269  1.00  0.00    -0.248 NA
ATOM     16  C   UNL A   1      42.427  31.249  28.914  1.00  0.00     0.031 C 
ATOM     17  C   UNL A   1      40.925  26.510  28.134  1.00  0.00     0.029 A 
ATOM     18  N   UNL A   1      43.110  26.928  27.925  1.00  0.00    -0.354 N 
ATOM     19  C   UNL A   1      44.641  30.960  28.408  1.00  0.00     0.074 A 
ATOM     20  C   UNL A   1      43.584  31.880  28.770  1.00  0.00     0.031 C 
ATOM     21  C   UNL A   1      41.526  25.347  27.858  1.00  0.00     0.029 A 
ATOM     22  C   UNL A   1      42.947  25.592  27.652  1.00  0.00     0.049 A 
ATOM     23  H   UNL A   1      43.985  27.380  27.918  1.00  0.00     0.167 HD
ATOM     24  C   UNL A   1      45.943  31.302  28.246  1.00  0.00     0.037 A 
ATOM     25  C   UNL A   1      43.831  24.666  27.236  1.00  0.00     0.037 A 
ATOM     26  C   UNL A   1      46.981  30.365  27.896  1.00  0.00     0.049 A 
ATOM     27  C   UNL A   1      45.261  25.072  27.048  1.00  0.00     0.074 A 
ATOM     28  C   UNL A   1      48.337  30.597  27.753  1.00  0.00     0.029 A 
ATOM     29  N   UNL A   1      46.775  29.019  27.622  1.00  0.00    -0.354 N 
ATOM     30  N   UNL A   1      45.806  26.252  27.219  1.00  0.00    -0.248 NA
ATOM     31  C   UNL A   1      46.195  24.029  26.609  1.00  0.00     0.031 C 
ATOM     32  C   UNL A   1      48.943  29.406  27.342  1.00  0.00     0.029 A 
ATOM     33  C   UNL A   1      47.975  28.414  27.283  1.00  0.00     0.049 A 
ATOM     34  H   UNL A   1      45.905  28.561  27.664  1.00  0.00     0.167 HD
ATOM     35  C   UNL A   1      47.151  26.096  26.920  1.00  0.00     0.074 A 
ATOM     36  C   UNL A   1      47.340  24.701  26.569  1.00  0.00     0.031 C 
ATOM     37  C   UNL A   1      48.140  27.022  26.935  1.00  0.00     0.037 A 
BRANCH  24  38
ATOM     38  C   UNL A   1      46.306  32.755  28.405  1.00  0.00     0.058 A 
ATOM     39  C   UNL A   1      46.591  33.322  29.657  1.00  0.00     0.135 A 
ATOM     40  C   UNL A   1      46.374  33.595  27.279  1.00  0.00     0.135 A 
ATOM     41  F   UNL A   1      46.533  32.570  30.768  1.00  0.00    -0.206 F 
ATOM     42  C   UNL A   1      46.886  34.676  29.794  1.00  0.00     0.059 A 
ATOM     43  C   UNL A   1      46.693  34.946  27.389  1.00  0.00     0.059 A 
ATOM     44  F   UNL A   1      46.115  33.107  26.055  1.00  0.00    -0.206 F 
ATOM     45  C   UNL A   1      46.925  35.482  28.656  1.00  0.00     0.060 A 
BRANCH  45  46
ATOM     46  S   UNL A   1      47.268  37.243  28.853  1.00  0.00     0.124 S 
ATOM     47  O   UNL A   1      47.926  37.266  30.156  1.00  0.00    -0.237 OA
ATOM     48  O   UNL A   1      48.125  37.526  27.706  1.00  0.00    -0.237 OA
ATOM     49  O   UNL A   1      45.944  37.856  28.808  1.00  0.00    -0.744 OA
ENDBRANCH  45  46
ENDBRANCH  24  38
BRANCH  25  50
ATOM     50  C   UNL A   1      43.351  23.290  26.949  1.00  0.00     0.058 A 
ATOM     51  C   UNL A   1      43.273  22.806  25.637  1.00  0.00     0.135 A 
ATOM     52  C   UNL A   1      43.056  22.401  27.996  1.00  0.00     0.135 A 
ATOM     53  F   UNL A   1      43.545  23.619  24.604  1.00  0.00    -0.206 F 
ATOM     54  C   UNL A   1      42.928  21.485  25.370  1.00  0.00     0.059 A 
ATOM     55  C   UNL A   1      42.735  21.070  27.757  1.00  0.00     0.059 A 
ATOM     56  F   UNL A   1      43.141  22.812  29.271  1.00  0.00    -0.206 F 
ATOM     57  C   UNL A   1      42.672  20.622  26.439  1.00  0.00     0.060 A 
BRANCH  57  58
ATOM     58  S   UNL A   1      42.320  18.886  26.085  1.00  0.00     0.124 S 
ATOM     59  O   UNL A   1      42.667  18.252  27.351  1.00  0.00    -0.237 OA
ATOM     60  O   UNL A   1      40.898  18.923  25.756  1.00  0.00    -0.237 OA
ATOM     61  O   UNL A   1      43.206  18.586  24.964  1.00  0.00    -0.744 OA
ENDBRANCH  57  58
ENDBRANCH  25  50
BRANCH  37  62
ATOM     62  C   UNL A   1      49.525  26.557  26.585  1.00  0.00     0.058 A 
ATOM     63  C   UNL A   1      50.400  26.049  27.557  1.00  0.00     0.135 A 
ATOM     64  C   UNL A   1      49.950  26.549  25.247  1.00  0.00     0.135 A 
ATOM     65  F   UNL A   1      50.044  26.048  28.852  1.00  0.00    -0.206 F 
ATOM     66  C   UNL A   1      51.653  25.554  27.215  1.00  0.00     0.059 A 
ATOM     67  C   UNL A   1      51.188  26.035  24.880  1.00  0.00     0.059 A 
ATOM     68  F   UNL A   1      49.147  27.020  24.280  1.00  0.00    -0.206 F 
ATOM     69  C   UNL A   1      52.034  25.543  25.872  1.00  0.00     0.060 A 
BRANCH  69  70
ATOM     70  S   UNL A   1      53.636  24.835  25.434  1.00  0.00     0.124 S 
ATOM     71  O   UNL A   1      53.284  23.440  25.188  1.00  0.00    -0.237 OA
ATOM     72  O   UNL A   1      54.008  25.612  24.255  1.00  0.00    -0.237 OA
ATOM     73  O   UNL A   1      54.451  25.077  26.620  1.00  0.00    -0.744 OA
ENDBRANCH  69  70
ENDBRANCH  37  62
ENDBRANCH  11  12
ENDBRANCH   4   6
ENDBRANCH   1   2
BRANCH   1  74
ATOM     74  C   UNL A   1      33.813  28.970  27.128  1.00  0.00     0.042 C 
BRANCH  74  75
ATOM     75  C   UNL A   1      33.157  29.979  26.209  1.00  0.00     0.117 C 
BRANCH  75  76
ATOM     76  N   UNL A   1      33.305  29.642  24.799  1.00  0.00    -0.356 N 
ATOM     77  C   UNL A   1      32.531  28.953  23.928  1.00  0.00     0.226 C 
ATOM     78  H   UNL A   1      34.136  29.985  24.398  1.00  0.00     0.163 HD
ATOM     79  O   UNL A   1      32.903  28.955  22.747  1.00  0.00    -0.275 OA
BRANCH  77  80
ATOM     80  C   UNL A   1      31.274  28.186  24.297  1.00  0.00     0.122 C 
ATOM     81  C   UNL A   1      31.447  26.727  24.712  1.00  0.00     0.123 C 
ATOM     82  C   UNL A   1      30.352  28.089  23.080  1.00  0.00     0.132 C 
ATOM     83  C   UNL A   1      30.505  26.015  23.717  1.00  0.00     0.132 C 
ATOM     84  C   UNL A   1      28.921  27.780  23.522  1.00  0.00     0.035 C 
ATOM     85  O   UNL A   1      30.735  26.812  22.518  1.00  0.00    -0.373 OA
ATOM     86  C   UNL A   1      29.014  26.294  23.871  1.00  0.00     0.035 C 
BRANCH  81  87
ATOM     87  C   UNL A   1      31.165  26.428  26.175  1.00  0.00     0.231 C 
ATOM     88  O   UNL A   1      30.677  27.256  26.941  1.00  0.00    -0.274 OA
ATOM     89  N   UNL A   1      31.348  25.137  26.620  1.00  0.00    -0.326 N 
ATOM     90  H   UNL A   1      30.821  24.887  27.415  1.00  0.00     0.169 HD
BRANCH  89  91
ATOM     91  C   UNL A   1      32.176  24.126  26.106  1.00  0.00     0.044 A 
ATOM     92  C   UNL A   1      33.572  24.236  26.117  1.00  0.00     0.029 A 
ATOM     93  C   UNL A   1      31.588  22.953  25.631  1.00  0.00     0.068 A 
ATOM     94  C   UNL A   1      34.373  23.227  25.573  1.00  0.00     0.044 A 
ATOM     95  C   UNL A   1      32.391  21.954  25.080  1.00  0.00     0.160 A 
ATOM     96  C   UNL A   1      33.772  22.094  25.041  1.00  0.00     0.158 A 
ATOM     97  F   UNL A   1      31.811  20.853  24.583  1.00  0.00    -0.204 F 
ATOM     98  F   UNL A   1      34.539  21.133  24.511  1.00  0.00    -0.204 F 
ENDBRANCH  89  91
ENDBRANCH  81  87
ENDBRANCH  77  80
ENDBRANCH  75  76
ENDBRANCH  74  75
ENDBRANCH   1  74
TORSDOF 15
ENDMDL
