MODEL 1
REMARK VINA RESULT:     -13.1      0.000      0.000
REMARK SMILES COc1ccc2[nH]c(C(=O)c3cc(C)ccn3)c(CC(=O)NCCCNC(=O)c3ccc(-c4c5nc(c(-c6c(F)cc(S(=O)(=O)[O-])cc6F)c6ccc([nH]6)c(-c6c(F)cc(S(=O)(=O)[O-])cc6F)c6nc(c(-c7c(F)cc(S(=O)(=O)[O-])cc7F)c7ccc4[nH]7)C=C6)C=C5)cc3)c2c1
REMARK SMILES IDX 24 1 23 2 22 3 20 4 21 5 19 7 18 8 3 9 4 10 96 11 5 12 95 13
REMARK SMILES IDX 6 14 7 15 8 16 2 18 1 19 9 20 10 21 11 22 12 23 17 24 13 25
REMARK SMILES IDX 16 26 14 27 15 28 25 29 26 30 27 31 28 33 29 34 30 35 94 36
REMARK SMILES IDX 31 37 93 38 32 39 33 40 34 41 87 42 35 43 92 44 86 45 88 46
REMARK SMILES IDX 36 47 91 48 85 49 84 50 37 52 71 53 50 54 70 55 51 56 54 57
REMARK SMILES IDX 69 58 89 59 52 60 53 61 68 63 90 64 55 65 38 66 39 67 48 68
REMARK SMILES IDX 40 69 41 70 47 71 49 72 42 73 43 74 44 75 45 76 46 77 72 78
REMARK SMILES IDX 73 79 82 80 74 81 75 82 81 83 83 84 76 85 77 86 78 87 79 88
REMARK SMILES IDX 80 89 56 90 57 91 66 92 58 93 59 94 65 95 67 96 60 97 61 98
REMARK SMILES IDX 62 99 63 100 64 101
REMARK H PARENT 22 6 7 17 26 32 88 51 54 62
REMARK Flexibility Score: inf
ROOT
ATOM      1  C   UNL A   1      37.364  23.696  25.329  1.00  0.00     0.042 C 
ENDROOT
BRANCH   1   2
ATOM      2  C   UNL A   1      35.899  24.080  25.504  1.00  0.00     0.117 C 
BRANCH   2   3
ATOM      3  N   UNL A   1      35.164  24.105  24.255  1.00  0.00    -0.356 N 
ATOM      4  C   UNL A   1      34.098  24.873  23.883  1.00  0.00     0.224 C 
ATOM      5  O   UNL A   1      33.803  24.870  22.684  1.00  0.00    -0.275 OA
ATOM      6  H   UNL A   1      35.482  23.472  23.570  1.00  0.00     0.163 HD
BRANCH   4   7
ATOM      7  C   UNL A   1      33.395  25.793  24.874  1.00  0.00     0.138 C 
BRANCH   7   8
ATOM      8  C   UNL A   1      31.892  25.700  24.880  1.00  0.00    -0.002 A 
ATOM      9  C   UNL A   1      30.095  28.287  22.689  1.00  0.00     0.119 A 
ATOM     10  C   UNL A   1      28.805  27.922  23.066  1.00  0.00     0.048 A 
ATOM     11  C   UNL A   1      31.196  27.587  23.194  1.00  0.00     0.057 A 
ATOM     12  C   UNL A   1      28.586  26.872  23.967  1.00  0.00     0.030 A 
ATOM     13  C   UNL A   1      31.007  26.542  24.124  1.00  0.00     0.008 A 
ATOM     14  C   UNL A   1      29.706  26.206  24.479  1.00  0.00     0.046 A 
ATOM     15  N   UNL A   1      29.788  25.168  25.374  1.00  0.00    -0.352 N 
ATOM     16  C   UNL A   1      31.098  24.775  25.562  1.00  0.00     0.093 A 
ATOM     17  H   UNL A   1      29.014  24.757  25.822  1.00  0.00     0.167 HD
BRANCH   9  18
ATOM     18  O   UNL A   1      30.407  29.290  21.810  1.00  0.00    -0.497 OA
ATOM     19  C   UNL A   1      29.399  30.281  21.632  1.00  0.00     0.278 C 
ENDBRANCH   9  18
BRANCH  16  20
ATOM     20  C   UNL A   1      31.525  23.622  26.348  1.00  0.00     0.227 C 
ATOM     21  O   UNL A   1      31.393  23.552  27.570  1.00  0.00    -0.285 OA
BRANCH  20  22
ATOM     22  C   UNL A   1      32.225  22.500  25.671  1.00  0.00     0.113 A 
ATOM     23  C   UNL A   1      31.804  22.090  24.408  1.00  0.00     0.036 A 
ATOM     24  N   UNL A   1      33.268  21.950  26.339  1.00  0.00    -0.253 NA
ATOM     25  C   UNL A   1      32.493  21.045  23.788  1.00  0.00    -0.047 A 
ATOM     26  C   UNL A   1      33.931  20.960  25.707  1.00  0.00     0.112 A 
ATOM     27  C   UNL A   1      32.095  20.546  22.433  1.00  0.00     0.044 C 
ATOM     28  C   UNL A   1      33.584  20.479  24.452  1.00  0.00     0.023 A 
ENDBRANCH  20  22
ENDBRANCH  16  20
ENDBRANCH   7   8
ENDBRANCH   4   7
ENDBRANCH   2   3
ENDBRANCH   1   2
BRANCH   1  29
ATOM     29  C   UNL A   1      38.261  24.074  26.506  1.00  0.00     0.118 C 
BRANCH  29  30
ATOM     30  N   UNL A   1      39.677  23.876  26.224  1.00  0.00    -0.352 N 
ATOM     31  C   UNL A   1      40.774  24.602  26.615  1.00  0.00     0.251 C 
ATOM     32  H   UNL A   1      39.880  23.094  25.661  1.00  0.00     0.163 HD
ATOM     33  O   UNL A   1      41.868  24.352  26.112  1.00  0.00    -0.269 OA
BRANCH  31  34
ATOM     34  C   UNL A   1      40.657  25.687  27.615  1.00  0.00     0.039 A 
ATOM     35  C   UNL A   1      39.642  25.609  28.575  1.00  0.00     0.014 A 
ATOM     36  C   UNL A   1      41.506  26.797  27.590  1.00  0.00     0.014 A 
ATOM     37  C   UNL A   1      39.522  26.607  29.547  1.00  0.00     0.010 A 
ATOM     38  C   UNL A   1      41.427  27.757  28.599  1.00  0.00     0.010 A 
ATOM     39  C   UNL A   1      40.435  27.672  29.588  1.00  0.00    -0.014 A 
BRANCH  39  40
ATOM     40  C   UNL A   1      40.378  28.701  30.660  1.00  0.00     0.031 A 
ATOM     41  C   UNL A   1      41.263  28.583  31.871  1.00  0.00     0.074 A 
ATOM     42  C   UNL A   1      39.476  29.699  30.577  1.00  0.00     0.049 A 
ATOM     43  N   UNL A   1      41.280  29.315  32.955  1.00  0.00    -0.248 NA
ATOM     44  C   UNL A   1      42.238  27.481  31.875  1.00  0.00     0.031 C 
ATOM     45  C   UNL A   1      38.537  29.900  29.472  1.00  0.00     0.029 A 
ATOM     46  N   UNL A   1      39.190  30.723  31.446  1.00  0.00    -0.354 N 
ATOM     47  C   UNL A   1      42.251  28.753  33.777  1.00  0.00     0.074 A 
ATOM     48  C   UNL A   1      42.771  27.595  33.084  1.00  0.00     0.031 C 
ATOM     49  C   UNL A   1      37.787  30.985  29.725  1.00  0.00     0.029 A 
ATOM     50  C   UNL A   1      38.164  31.534  31.023  1.00  0.00     0.049 A 
ATOM     51  H   UNL A   1      39.674  30.862  32.291  1.00  0.00     0.167 HD
ATOM     52  C   UNL A   1      42.681  29.175  34.991  1.00  0.00     0.037 A 
ATOM     53  C   UNL A   1      37.581  32.593  31.620  1.00  0.00     0.037 A 
ATOM     54  C   UNL A   1      42.181  30.347  35.664  1.00  0.00     0.049 A 
ATOM     55  C   UNL A   1      38.080  33.046  32.965  1.00  0.00     0.074 A 
ATOM     56  C   UNL A   1      42.591  30.887  36.870  1.00  0.00     0.029 A 
ATOM     57  N   UNL A   1      41.163  31.160  35.188  1.00  0.00    -0.354 N 
ATOM     58  N   UNL A   1      39.031  32.530  33.706  1.00  0.00    -0.248 NA
ATOM     59  C   UNL A   1      37.430  34.226  33.553  1.00  0.00     0.031 C 
ATOM     60  C   UNL A   1      41.798  32.006  37.141  1.00  0.00     0.029 A 
ATOM     61  C   UNL A   1      40.922  32.189  36.083  1.00  0.00     0.049 A 
ATOM     62  H   UNL A   1      40.683  31.025  34.339  1.00  0.00     0.167 HD
ATOM     63  C   UNL A   1      39.112  33.338  34.836  1.00  0.00     0.074 A 
ATOM     64  C   UNL A   1      38.120  34.380  34.676  1.00  0.00     0.031 C 
ATOM     65  C   UNL A   1      39.937  33.226  35.906  1.00  0.00     0.037 A 
BRANCH  52  66
ATOM     66  C   UNL A   1      43.751  28.366  35.671  1.00  0.00     0.058 A 
ATOM     67  C   UNL A   1      45.114  28.608  35.439  1.00  0.00     0.135 A 
ATOM     68  C   UNL A   1      43.412  27.363  36.593  1.00  0.00     0.135 A 
ATOM     69  F   UNL A   1      45.494  29.546  34.557  1.00  0.00    -0.206 F 
ATOM     70  C   UNL A   1      46.103  27.866  36.076  1.00  0.00     0.059 A 
ATOM     71  C   UNL A   1      44.385  26.625  37.261  1.00  0.00     0.059 A 
ATOM     72  F   UNL A   1      42.123  27.091  36.852  1.00  0.00    -0.206 F 
ATOM     73  C   UNL A   1      45.728  26.874  36.983  1.00  0.00     0.060 A 
BRANCH  73  74
ATOM     74  S   UNL A   1      47.024  25.922  37.805  1.00  0.00     0.124 S 
ATOM     75  O   UNL A   1      46.711  26.162  39.211  1.00  0.00    -0.237 OA
ATOM     76  O   UNL A   1      46.772  24.568  37.323  1.00  0.00    -0.237 OA
ATOM     77  O   UNL A   1      48.256  26.537  37.322  1.00  0.00    -0.744 OA
ENDBRANCH  73  74
ENDBRANCH  52  66
BRANCH  53  78
ATOM     78  C   UNL A   1      36.468  33.307  30.940  1.00  0.00     0.058 A 
ATOM     79  C   UNL A   1      35.154  33.219  31.424  1.00  0.00     0.135 A 
ATOM     80  C   UNL A   1      36.698  34.102  29.808  1.00  0.00     0.135 A 
ATOM     81  F   UNL A   1      34.885  32.465  32.500  1.00  0.00    -0.206 F 
ATOM     82  C   UNL A   1      34.103  33.883  30.800  1.00  0.00     0.059 A 
ATOM     83  C   UNL A   1      35.667  34.794  29.180  1.00  0.00     0.059 A 
ATOM     84  F   UNL A   1      37.940  34.233  29.317  1.00  0.00    -0.206 F 
ATOM     85  C   UNL A   1      34.370  34.670  29.679  1.00  0.00     0.060 A 
BRANCH  85  86
ATOM     86  S   UNL A   1      33.010  35.573  28.906  1.00  0.00     0.124 S 
ATOM     87  O   UNL A   1      33.711  36.704  28.309  1.00  0.00    -0.237 OA
ATOM     88  O   UNL A   1      32.476  34.586  27.974  1.00  0.00    -0.237 OA
ATOM     89  O   UNL A   1      32.139  35.891  30.034  1.00  0.00    -0.744 OA
ENDBRANCH  85  86
ENDBRANCH  53  78
BRANCH  65  90
ATOM     90  C   UNL A   1      39.828  34.275  36.976  1.00  0.00     0.058 A 
ATOM     91  C   UNL A   1      40.467  35.518  36.856  1.00  0.00     0.135 A 
ATOM     92  C   UNL A   1      39.026  34.054  38.107  1.00  0.00     0.135 A 
ATOM     93  F   UNL A   1      41.251  35.776  35.798  1.00  0.00    -0.206 F 
ATOM     94  C   UNL A   1      40.326  36.502  37.829  1.00  0.00     0.059 A 
ATOM     95  C   UNL A   1      38.852  35.031  39.081  1.00  0.00     0.059 A 
ATOM     96  F   UNL A   1      38.388  32.883  38.265  1.00  0.00    -0.206 F 
ATOM     97  C   UNL A   1      39.514  36.251  38.937  1.00  0.00     0.060 A 
BRANCH  97  98
ATOM     98  S   UNL A   1      39.304  37.551  40.172  1.00  0.00     0.124 S 
ATOM     99  O   UNL A   1      38.875  36.784  41.336  1.00  0.00    -0.237 OA
ATOM    100  O   UNL A   1      40.644  38.126  40.251  1.00  0.00    -0.237 OA
ATOM    101  O   UNL A   1      38.290  38.419  39.582  1.00  0.00    -0.744 OA
ENDBRANCH  97  98
ENDBRANCH  65  90
ENDBRANCH  39  40
ENDBRANCH  31  34
ENDBRANCH  29  30
ENDBRANCH   1  29
TORSDOF 17
ENDMDL
MODEL 2
REMARK VINA RESULT:     -12.9      4.801     10.484
REMARK SMILES COc1ccc2[nH]c(C(=O)c3cc(C)ccn3)c(CC(=O)NCCCNC(=O)c3ccc(-c4c5nc(c(-c6c(F)cc(S(=O)(=O)[O-])cc6F)c6ccc([nH]6)c(-c6c(F)cc(S(=O)(=O)[O-])cc6F)c6nc(c(-c7c(F)cc(S(=O)(=O)[O-])cc7F)c7ccc4[nH]7)C=C6)C=C5)cc3)c2c1
REMARK SMILES IDX 24 1 23 2 22 3 20 4 21 5 19 7 18 8 3 9 4 10 96 11 5 12 95 13
REMARK SMILES IDX 6 14 7 15 8 16 2 18 1 19 9 20 10 21 11 22 12 23 17 24 13 25
REMARK SMILES IDX 16 26 14 27 15 28 25 29 26 30 27 31 28 33 29 34 30 35 94 36
REMARK SMILES IDX 31 37 93 38 32 39 33 40 34 41 87 42 35 43 92 44 86 45 88 46
REMARK SMILES IDX 36 47 91 48 85 49 84 50 37 52 71 53 50 54 70 55 51 56 54 57
REMARK SMILES IDX 69 58 89 59 52 60 53 61 68 63 90 64 55 65 38 66 39 67 48 68
REMARK SMILES IDX 40 69 41 70 47 71 49 72 42 73 43 74 44 75 45 76 46 77 72 78
REMARK SMILES IDX 73 79 82 80 74 81 75 82 81 83 83 84 76 85 77 86 78 87 79 88
REMARK SMILES IDX 80 89 56 90 57 91 66 92 58 93 59 94 65 95 67 96 60 97 61 98
REMARK SMILES IDX 62 99 63 100 64 101
REMARK H PARENT 22 6 7 17 26 32 88 51 54 62
REMARK Flexibility Score: inf
ROOT
ATOM      1  C   UNL A   1      33.944  27.966  25.896  1.00  0.00     0.042 C 
ENDROOT
BRANCH   1   2
ATOM      2  C   UNL A   1      33.231  26.770  25.274  1.00  0.00     0.117 C 
BRANCH   2   3
ATOM      3  N   UNL A   1      33.224  25.602  26.132  1.00  0.00    -0.356 N 
ATOM      4  C   UNL A   1      33.775  24.368  25.933  1.00  0.00     0.224 C 
ATOM      5  O   UNL A   1      33.832  23.622  26.914  1.00  0.00    -0.275 OA
ATOM      6  H   UNL A   1      32.750  25.715  26.987  1.00  0.00     0.163 HD
BRANCH   4   7
ATOM      7  C   UNL A   1      34.413  23.985  24.602  1.00  0.00     0.138 C 
BRANCH   7   8
ATOM      8  C   UNL A   1      33.526  23.204  23.669  1.00  0.00    -0.002 A 
ATOM      9  C   UNL A   1      33.150  19.481  24.521  1.00  0.00     0.119 A 
ATOM     10  C   UNL A   1      32.388  19.155  23.402  1.00  0.00     0.048 A 
ATOM     11  C   UNL A   1      33.547  20.806  24.736  1.00  0.00     0.057 A 
ATOM     12  C   UNL A   1      32.025  20.132  22.466  1.00  0.00     0.030 A 
ATOM     13  C   UNL A   1      33.217  21.807  23.796  1.00  0.00     0.008 A 
ATOM     14  C   UNL A   1      32.456  21.445  22.690  1.00  0.00     0.046 A 
ATOM     15  N   UNL A   1      32.263  22.582  21.945  1.00  0.00    -0.352 N 
ATOM     16  C   UNL A   1      32.818  23.684  22.564  1.00  0.00     0.093 A 
ATOM     17  H   UNL A   1      31.790  22.608  21.082  1.00  0.00     0.167 HD
BRANCH   9  18
ATOM     18  O   UNL A   1      33.546  18.600  25.491  1.00  0.00    -0.497 OA
ATOM     19  C   UNL A   1      32.805  17.384  25.550  1.00  0.00     0.278 C 
ENDBRANCH   9  18
BRANCH  16  20
ATOM     20  C   UNL A   1      32.683  25.062  22.105  1.00  0.00     0.227 C 
ATOM     21  O   UNL A   1      33.516  25.621  21.391  1.00  0.00    -0.285 OA
BRANCH  20  22
ATOM     22  C   UNL A   1      31.531  25.875  22.575  1.00  0.00     0.113 A 
ATOM     23  C   UNL A   1      31.405  27.196  22.154  1.00  0.00     0.036 A 
ATOM     24  N   UNL A   1      30.646  25.249  23.388  1.00  0.00    -0.253 NA
ATOM     25  C   UNL A   1      30.302  27.929  22.596  1.00  0.00    -0.047 A 
ATOM     26  C   UNL A   1      29.577  25.973  23.781  1.00  0.00     0.112 A 
ATOM     27  C   UNL A   1      30.102  29.358  22.190  1.00  0.00     0.044 C 
ATOM     28  C   UNL A   1      29.367  27.296  23.420  1.00  0.00     0.023 A 
ENDBRANCH  20  22
ENDBRANCH  16  20
ENDBRANCH   7   8
ENDBRANCH   4   7
ENDBRANCH   2   3
ENDBRANCH   1   2
BRANCH   1  29
ATOM     29  C   UNL A   1      33.503  28.294  27.320  1.00  0.00     0.118 C 
BRANCH  29  30
ATOM     30  N   UNL A   1      33.444  29.727  27.578  1.00  0.00    -0.352 N 
ATOM     31  C   UNL A   1      34.376  30.575  28.122  1.00  0.00     0.251 C 
ATOM     32  H   UNL A   1      32.596  30.157  27.321  1.00  0.00     0.163 HD
ATOM     33  O   UNL A   1      34.045  31.723  28.410  1.00  0.00    -0.269 OA
BRANCH  31  34
ATOM     34  C   UNL A   1      35.762  30.124  28.380  1.00  0.00     0.039 A 
ATOM     35  C   UNL A   1      36.677  30.125  27.321  1.00  0.00     0.014 A 
ATOM     36  C   UNL A   1      36.157  29.660  29.638  1.00  0.00     0.014 A 
ATOM     37  C   UNL A   1      37.999  29.727  27.539  1.00  0.00     0.010 A 
ATOM     38  C   UNL A   1      37.491  29.325  29.870  1.00  0.00     0.010 A 
ATOM     39  C   UNL A   1      38.426  29.357  28.824  1.00  0.00    -0.014 A 
BRANCH  39  40
ATOM     40  C   UNL A   1      39.845  29.008  29.099  1.00  0.00     0.031 A 
ATOM     41  C   UNL A   1      40.787  30.044  29.648  1.00  0.00     0.074 A 
ATOM     42  C   UNL A   1      40.302  27.781  28.782  1.00  0.00     0.049 A 
ATOM     43  N   UNL A   1      42.077  29.964  29.849  1.00  0.00    -0.248 NA
ATOM     44  C   UNL A   1      40.207  31.352  29.992  1.00  0.00     0.031 C 
ATOM     45  C   UNL A   1      39.497  26.700  28.208  1.00  0.00     0.029 A 
ATOM     46  N   UNL A   1      41.559  27.239  28.883  1.00  0.00    -0.354 N 
ATOM     47  C   UNL A   1      42.467  31.211  30.324  1.00  0.00     0.074 A 
ATOM     48  C   UNL A   1      41.284  32.044  30.341  1.00  0.00     0.031 C 
ATOM     49  C   UNL A   1      40.277  25.624  28.018  1.00  0.00     0.029 A 
ATOM     50  C   UNL A   1      41.642  25.947  28.419  1.00  0.00     0.049 A 
ATOM     51  H   UNL A   1      42.329  27.729  29.252  1.00  0.00     0.167 HD
ATOM     52  C   UNL A   1      43.695  31.620  30.725  1.00  0.00     0.037 A 
ATOM     53  C   UNL A   1      42.701  25.120  28.314  1.00  0.00     0.037 A 
ATOM     54  C   UNL A   1      44.864  30.778  30.733  1.00  0.00     0.049 A 
ATOM     55  C   UNL A   1      44.053  25.594  28.771  1.00  0.00     0.074 A 
ATOM     56  C   UNL A   1      46.141  31.084  31.173  1.00  0.00     0.029 A 
ATOM     57  N   UNL A   1      44.899  29.466  30.285  1.00  0.00    -0.354 N 
ATOM     58  N   UNL A   1      44.394  26.762  29.261  1.00  0.00    -0.248 NA
ATOM     59  C   UNL A   1      45.165  24.639  28.665  1.00  0.00     0.031 C 
ATOM     60  C   UNL A   1      46.956  29.969  30.958  1.00  0.00     0.029 A 
ATOM     61  C   UNL A   1      46.178  28.953  30.423  1.00  0.00     0.049 A 
ATOM     62  H   UNL A   1      44.129  28.973  29.922  1.00  0.00     0.167 HD
ATOM     63  C   UNL A   1      45.752  26.673  29.546  1.00  0.00     0.074 A 
ATOM     64  C   UNL A   1      46.169  25.336  29.181  1.00  0.00     0.031 C 
ATOM     65  C   UNL A   1      46.576  27.615  30.065  1.00  0.00     0.037 A 
BRANCH  52  66
ATOM     66  C   UNL A   1      43.838  33.042  31.192  1.00  0.00     0.058 A 
ATOM     67  C   UNL A   1      43.657  33.395  32.538  1.00  0.00     0.135 A 
ATOM     68  C   UNL A   1      44.197  34.058  30.291  1.00  0.00     0.135 A 
ATOM     69  F   UNL A   1      43.299  32.466  33.438  1.00  0.00    -0.206 F 
ATOM     70  C   UNL A   1      43.799  34.710  32.971  1.00  0.00     0.059 A 
ATOM     71  C   UNL A   1      44.370  35.375  30.707  1.00  0.00     0.059 A 
ATOM     72  F   UNL A   1      44.384  33.775  28.992  1.00  0.00    -0.206 F 
ATOM     73  C   UNL A   1      44.153  35.693  32.047  1.00  0.00     0.060 A 
BRANCH  73  74
ATOM     74  S   UNL A   1      44.338  37.394  32.624  1.00  0.00     0.124 S 
ATOM     75  O   UNL A   1      45.739  37.409  33.035  1.00  0.00    -0.237 OA
ATOM     76  O   UNL A   1      44.020  38.167  31.429  1.00  0.00    -0.237 OA
ATOM     77  O   UNL A   1      43.366  37.492  33.708  1.00  0.00    -0.744 OA
ENDBRANCH  73  74
ENDBRANCH  52  66
BRANCH  53  78
ATOM     78  C   UNL A   1      42.519  23.749  27.766  1.00  0.00     0.058 A 
ATOM     79  C   UNL A   1      42.453  23.531  26.381  1.00  0.00     0.135 A 
ATOM     80  C   UNL A   1      42.427  22.634  28.610  1.00  0.00     0.135 A 
ATOM     81  F   UNL A   1      42.529  24.569  25.535  1.00  0.00    -0.206 F 
ATOM     82  C   UNL A   1      42.285  22.256  25.853  1.00  0.00     0.059 A 
ATOM     83  C   UNL A   1      42.282  21.345  28.105  1.00  0.00     0.059 A 
ATOM     84  F   UNL A   1      42.503  22.788  29.941  1.00  0.00    -0.206 F 
ATOM     85  C   UNL A   1      42.203  21.168  26.724  1.00  0.00     0.060 A 
BRANCH  85  86
ATOM     86  S   UNL A   1      42.040  19.509  26.030  1.00  0.00     0.124 S 
ATOM     87  O   UNL A   1      42.891  19.600  24.850  1.00  0.00    -0.237 OA
ATOM     88  O   UNL A   1      42.539  18.670  27.115  1.00  0.00    -0.237 OA
ATOM     89  O   UNL A   1      40.608  19.395  25.771  1.00  0.00    -0.744 OA
ENDBRANCH  85  86
ENDBRANCH  53  78
BRANCH  65  90
ATOM     90  C   UNL A   1      48.008  27.226  30.305  1.00  0.00     0.058 A 
ATOM     91  C   UNL A   1      48.987  27.371  29.311  1.00  0.00     0.135 A 
ATOM     92  C   UNL A   1      48.415  26.758  31.565  1.00  0.00     0.135 A 
ATOM     93  F   UNL A   1      48.648  27.806  28.087  1.00  0.00    -0.206 F 
ATOM     94  C   UNL A   1      50.319  27.052  29.552  1.00  0.00     0.059 A 
ATOM     95  C   UNL A   1      49.745  26.455  31.837  1.00  0.00     0.059 A 
ATOM     96  F   UNL A   1      47.517  26.610  32.553  1.00  0.00    -0.206 F 
ATOM     97  C   UNL A   1      50.689  26.597  30.820  1.00  0.00     0.060 A 
BRANCH  97  98
ATOM     98  S   UNL A   1      52.428  26.227  31.136  1.00  0.00     0.124 S 
ATOM     99  O   UNL A   1      52.336  24.928  31.793  1.00  0.00    -0.237 OA
ATOM    100  O   UNL A   1      52.994  26.217  29.790  1.00  0.00    -0.237 OA
ATOM    101  O   UNL A   1      52.862  27.332  31.984  1.00  0.00    -0.744 OA
ENDBRANCH  97  98
ENDBRANCH  65  90
ENDBRANCH  39  40
ENDBRANCH  31  34
ENDBRANCH  29  30
ENDBRANCH   1  29
TORSDOF 17
ENDMDL
MODEL 3
REMARK VINA RESULT:     -12.8      6.548     11.639
REMARK SMILES COc1ccc2[nH]c(C(=O)c3cc(C)ccn3)c(CC(=O)NCCCNC(=O)c3ccc(-c4c5nc(c(-c6c(F)cc(S(=O)(=O)[O-])cc6F)c6ccc([nH]6)c(-c6c(F)cc(S(=O)(=O)[O-])cc6F)c6nc(c(-c7c(F)cc(S(=O)(=O)[O-])cc7F)c7ccc4[nH]7)C=C6)C=C5)cc3)c2c1
REMARK SMILES IDX 24 1 23 2 22 3 20 4 21 5 19 7 18 8 3 9 4 10 96 11 5 12 95 13
REMARK SMILES IDX 6 14 7 15 8 16 2 18 1 19 9 20 10 21 11 22 12 23 17 24 13 25
REMARK SMILES IDX 16 26 14 27 15 28 25 29 26 30 27 31 28 33 29 34 30 35 94 36
REMARK SMILES IDX 31 37 93 38 32 39 33 40 34 41 87 42 35 43 92 44 86 45 88 46
REMARK SMILES IDX 36 47 91 48 85 49 84 50 37 52 71 53 50 54 70 55 51 56 54 57
REMARK SMILES IDX 69 58 89 59 52 60 53 61 68 63 90 64 55 65 38 66 39 67 48 68
REMARK SMILES IDX 40 69 41 70 47 71 49 72 42 73 43 74 44 75 45 76 46 77 72 78
REMARK SMILES IDX 73 79 82 80 74 81 75 82 81 83 83 84 76 85 77 86 78 87 79 88
REMARK SMILES IDX 80 89 56 90 57 91 66 92 58 93 59 94 65 95 67 96 60 97 61 98
REMARK SMILES IDX 62 99 63 100 64 101
REMARK H PARENT 22 6 7 17 26 32 88 51 54 62
REMARK Flexibility Score: inf
ROOT
ATOM      1  C   UNL A   1      34.616  31.147  27.444  1.00  0.00     0.042 C 
ENDROOT
BRANCH   1   2
ATOM      2  C   UNL A   1      34.430  29.644  27.270  1.00  0.00     0.117 C 
BRANCH   2   3
ATOM      3  N   UNL A   1      33.189  29.155  27.835  1.00  0.00    -0.356 N 
ATOM      4  C   UNL A   1      32.378  28.138  27.417  1.00  0.00     0.224 C 
ATOM      5  O   UNL A   1      31.503  27.767  28.203  1.00  0.00    -0.275 OA
ATOM      6  H   UNL A   1      32.882  29.628  28.643  1.00  0.00     0.163 HD
BRANCH   4   7
ATOM      7  C   UNL A   1      32.631  27.407  26.103  1.00  0.00     0.138 C 
BRANCH   7   8
ATOM      8  C   UNL A   1      31.405  26.833  25.444  1.00  0.00    -0.002 A 
ATOM      9  C   UNL A   1      29.431  29.294  23.260  1.00  0.00     0.119 A 
ATOM     10  C   UNL A   1      28.389  28.418  22.965  1.00  0.00     0.048 A 
ATOM     11  C   UNL A   1      30.510  28.860  24.039  1.00  0.00     0.057 A 
ATOM     12  C   UNL A   1      28.388  27.106  23.455  1.00  0.00     0.030 A 
ATOM     13  C   UNL A   1      30.523  27.551  24.567  1.00  0.00     0.008 A 
ATOM     14  C   UNL A   1      29.466  26.705  24.253  1.00  0.00     0.046 A 
ATOM     15  N   UNL A   1      29.716  25.503  24.868  1.00  0.00    -0.352 N 
ATOM     16  C   UNL A   1      30.933  25.520  25.519  1.00  0.00     0.093 A 
ATOM     17  H   UNL A   1      29.105  24.731  24.849  1.00  0.00     0.167 HD
BRANCH   9  18
ATOM     18  O   UNL A   1      29.524  30.588  22.821  1.00  0.00    -0.497 OA
ATOM     19  C   UNL A   1      28.688  31.522  23.497  1.00  0.00     0.278 C 
ENDBRANCH   9  18
BRANCH  16  20
ATOM     20  C   UNL A   1      31.557  24.369  26.163  1.00  0.00     0.227 C 
ATOM     21  O   UNL A   1      31.466  24.140  27.369  1.00  0.00    -0.285 OA
BRANCH  20  22
ATOM     22  C   UNL A   1      32.413  23.461  25.357  1.00  0.00     0.113 A 
ATOM     23  C   UNL A   1      33.700  23.860  25.007  1.00  0.00     0.036 A 
ATOM     24  N   UNL A   1      31.873  22.263  25.025  1.00  0.00    -0.253 NA
ATOM     25  C   UNL A   1      34.488  22.978  24.264  1.00  0.00    -0.047 A 
ATOM     26  C   UNL A   1      32.664  21.420  24.329  1.00  0.00     0.112 A 
ATOM     27  C   UNL A   1      35.880  23.340  23.845  1.00  0.00     0.044 C 
ATOM     28  C   UNL A   1      33.956  21.730  23.929  1.00  0.00     0.023 A 
ENDBRANCH  20  22
ENDBRANCH  16  20
ENDBRANCH   7   8
ENDBRANCH   4   7
ENDBRANCH   2   3
ENDBRANCH   1   2
BRANCH   1  29
ATOM     29  C   UNL A   1      35.805  31.540  28.317  1.00  0.00     0.118 C 
BRANCH  29  30
ATOM     30  N   UNL A   1      35.655  31.114  29.702  1.00  0.00    -0.352 N 
ATOM     31  C   UNL A   1      36.497  30.391  30.509  1.00  0.00     0.251 C 
ATOM     32  H   UNL A   1      34.811  31.388  30.129  1.00  0.00     0.163 HD
ATOM     33  O   UNL A   1      36.088  29.993  31.598  1.00  0.00    -0.269 OA
BRANCH  31  34
ATOM     34  C   UNL A   1      37.878  30.070  30.082  1.00  0.00     0.039 A 
ATOM     35  C   UNL A   1      38.861  29.897  31.063  1.00  0.00     0.014 A 
ATOM     36  C   UNL A   1      38.222  29.983  28.730  1.00  0.00     0.014 A 
ATOM     37  C   UNL A   1      40.169  29.571  30.691  1.00  0.00     0.010 A 
ATOM     38  C   UNL A   1      39.511  29.594  28.364  1.00  0.00     0.010 A 
ATOM     39  C   UNL A   1      40.497  29.382  29.339  1.00  0.00    -0.014 A 
BRANCH  39  40
ATOM     40  C   UNL A   1      41.859  28.956  28.924  1.00  0.00     0.031 A 
ATOM     41  C   UNL A   1      42.977  29.960  28.848  1.00  0.00     0.074 A 
ATOM     42  C   UNL A   1      42.070  27.681  28.543  1.00  0.00     0.049 A 
ATOM     43  N   UNL A   1      44.198  29.804  28.407  1.00  0.00    -0.248 NA
ATOM     44  C   UNL A   1      42.673  31.325  29.306  1.00  0.00     0.031 C 
ATOM     45  C   UNL A   1      41.059  26.621  28.534  1.00  0.00     0.029 A 
ATOM     46  N   UNL A   1      43.202  27.061  28.072  1.00  0.00    -0.354 N 
ATOM     47  C   UNL A   1      44.803  31.052  28.514  1.00  0.00     0.074 A 
ATOM     48  C   UNL A   1      43.801  31.963  29.024  1.00  0.00     0.031 C 
ATOM     49  C   UNL A   1      41.618  25.483  28.092  1.00  0.00     0.029 A 
ATOM     50  C   UNL A   1      43.013  25.738  27.750  1.00  0.00     0.049 A 
ATOM     51  H   UNL A   1      44.066  27.521  27.975  1.00  0.00     0.167 HD
ATOM     52  C   UNL A   1      46.081  31.401  28.230  1.00  0.00     0.037 A 
ATOM     53  C   UNL A   1      43.864  24.835  27.224  1.00  0.00     0.037 A 
ATOM     54  C   UNL A   1      47.083  30.484  27.750  1.00  0.00     0.049 A 
ATOM     55  C   UNL A   1      45.279  25.244  26.922  1.00  0.00     0.074 A 
ATOM     56  C   UNL A   1      48.419  30.730  27.486  1.00  0.00     0.029 A 
ATOM     57  N   UNL A   1      46.860  29.145  27.467  1.00  0.00    -0.354 N 
ATOM     58  N   UNL A   1      45.846  26.417  27.074  1.00  0.00    -0.248 NA
ATOM     59  C   UNL A   1      46.171  24.210  26.381  1.00  0.00     0.031 C 
ATOM     60  C   UNL A   1      48.995  29.549  27.009  1.00  0.00     0.029 A 
ATOM     61  C   UNL A   1      48.029  28.555  27.016  1.00  0.00     0.049 A 
ATOM     62  H   UNL A   1      45.997  28.681  27.570  1.00  0.00     0.167 HD
ATOM     63  C   UNL A   1      47.168  26.255  26.673  1.00  0.00     0.074 A 
ATOM     64  C   UNL A   1      47.318  24.870  26.280  1.00  0.00     0.031 C 
ATOM     65  C   UNL A   1      48.166  27.171  26.638  1.00  0.00     0.037 A 
BRANCH  52  66
ATOM     66  C   UNL A   1      46.471  32.839  28.433  1.00  0.00     0.058 A 
ATOM     67  C   UNL A   1      46.979  33.296  29.660  1.00  0.00     0.135 A 
ATOM     68  C   UNL A   1      46.374  33.763  27.380  1.00  0.00     0.135 A 
ATOM     69  F   UNL A   1      47.080  32.458  30.704  1.00  0.00    -0.206 F 
ATOM     70  C   UNL A   1      47.349  34.624  29.844  1.00  0.00     0.059 A 
ATOM     71  C   UNL A   1      46.762  35.091  27.534  1.00  0.00     0.059 A 
ATOM     72  F   UNL A   1      45.896  33.378  26.186  1.00  0.00    -0.206 F 
ATOM     73  C   UNL A   1      47.235  35.515  28.776  1.00  0.00     0.060 A 
BRANCH  73  74
ATOM     74  S   UNL A   1      47.723  37.234  29.029  1.00  0.00     0.124 S 
ATOM     75  O   UNL A   1      47.100  37.885  27.880  1.00  0.00    -0.237 OA
ATOM     76  O   UNL A   1      47.132  37.540  30.328  1.00  0.00    -0.237 OA
ATOM     77  O   UNL A   1      49.182  37.180  29.005  1.00  0.00    -0.744 OA
ENDBRANCH  73  74
ENDBRANCH  52  66
BRANCH  53  78
ATOM     78  C   UNL A   1      43.401  23.445  26.963  1.00  0.00     0.058 A 
ATOM     79  C   UNL A   1      43.137  23.008  25.657  1.00  0.00     0.135 A 
ATOM     80  C   UNL A   1      43.230  22.527  28.009  1.00  0.00     0.135 A 
ATOM     81  F   UNL A   1      43.279  23.853  24.625  1.00  0.00    -0.206 F 
ATOM     82  C   UNL A   1      42.705  21.711  25.397  1.00  0.00     0.059 A 
ATOM     83  C   UNL A   1      42.822  21.218  27.772  1.00  0.00     0.059 A 
ATOM     84  F   UNL A   1      43.486  22.891  29.275  1.00  0.00    -0.206 F 
ATOM     85  C   UNL A   1      42.553  20.823  26.462  1.00  0.00     0.060 A 
BRANCH  85  86
ATOM     86  S   UNL A   1      42.045  19.125  26.112  1.00  0.00     0.124 S 
ATOM     87  O   UNL A   1      42.449  18.441  27.334  1.00  0.00    -0.237 OA
ATOM     88  O   UNL A   1      40.608  19.270  25.905  1.00  0.00    -0.237 OA
ATOM     89  O   UNL A   1      42.810  18.789  24.915  1.00  0.00    -0.744 OA
ENDBRANCH  85  86
ENDBRANCH  53  78
BRANCH  65  90
ATOM     90  C   UNL A   1      49.521  26.702  26.189  1.00  0.00     0.058 A 
ATOM     91  C   UNL A   1      49.961  26.874  24.869  1.00  0.00     0.135 A 
ATOM     92  C   UNL A   1      50.413  26.126  27.110  1.00  0.00     0.135 A 
ATOM     93  F   UNL A   1      49.144  27.411  23.949  1.00  0.00    -0.206 F 
ATOM     94  C   UNL A   1      51.233  26.478  24.470  1.00  0.00     0.059 A 
ATOM     95  C   UNL A   1      51.698  25.744  26.740  1.00  0.00     0.059 A 
ATOM     96  F   UNL A   1      50.042  25.947  28.388  1.00  0.00    -0.206 F 
ATOM     97  C   UNL A   1      52.096  25.917  25.414  1.00  0.00     0.060 A 
BRANCH  97  98
ATOM     98  S   UNL A   1      53.761  25.447  24.897  1.00  0.00     0.124 S 
ATOM     99  O   UNL A   1      54.566  25.953  26.003  1.00  0.00    -0.237 OA
ATOM    100  O   UNL A   1      53.660  23.994  24.800  1.00  0.00    -0.237 OA
ATOM    101  O   UNL A   1      53.931  26.144  23.625  1.00  0.00    -0.744 OA
ENDBRANCH  97  98
ENDBRANCH  65  90
ENDBRANCH  39  40
ENDBRANCH  31  34
ENDBRANCH  29  30
ENDBRANCH   1  29
TORSDOF 17
ENDMDL
