MODEL 1
REMARK VINA RESULT:     -11.7      0.000      0.000
REMARK SMILES Cc1ccsc1CNC(=O)N[C@@H]1CCCC[C@H]1C(=O)NCCCNC(=O)c1ccc(-c2c3nc(c(-c4c(F)cc(S(=O)(=O)[O-])cc4F)c4ccc([nH]4)c(-c4c(F)cc(S(=O)(=O)[O-])cc4F)c4nc(c(-c5c(F)cc(S(=O)(=O)[O-])cc5F)c5ccc2[nH]5)C=C4)C=C3)cc1
REMARK SMILES IDX 22 1 21 2 20 3 18 4 19 5 17 7 12 8 13 9 14 10 16 11 15 12
REMARK SMILES IDX 11 13 8 14 9 15 10 17 7 19 6 20 1 21 2 22 3 23 4 24 5 25
REMARK SMILES IDX 23 26 24 27 25 28 26 30 27 31 28 32 92 33 29 34 91 35 30 36
REMARK SMILES IDX 31 37 32 38 85 39 33 40 90 41 84 42 86 43 34 44 89 45 83 46
REMARK SMILES IDX 82 47 35 49 69 50 48 51 68 52 49 53 52 54 67 55 87 56 50 57
REMARK SMILES IDX 51 58 66 60 88 61 53 62 36 63 37 64 46 65 38 66 39 67 45 68
REMARK SMILES IDX 47 69 40 70 41 71 42 72 43 73 44 74 70 75 71 76 80 77 72 78
REMARK SMILES IDX 73 79 79 80 81 81 74 82 75 83 76 84 77 85 78 86 54 87 55 88
REMARK SMILES IDX 64 89 56 90 57 91 63 92 65 93 58 94 59 95 60 96 61 97 62 98
REMARK H PARENT 20 6 8 16 11 18 24 29 86 48 52 59
REMARK Flexibility Score: inf
ROOT
ATOM      1  C   UNL A   1      33.780  27.979  25.900  1.00  0.00     0.042 C 
ENDROOT
BRANCH   1   2
ATOM      2  C   UNL A   1      33.277  29.049  24.946  1.00  0.00     0.117 C 
BRANCH   2   3
ATOM      3  N   UNL A   1      33.841  28.879  23.621  1.00  0.00    -0.356 N 
ATOM      4  C   UNL A   1      33.413  28.160  22.556  1.00  0.00     0.225 C 
ATOM      5  O   UNL A   1      34.177  28.087  21.590  1.00  0.00    -0.275 OA
ATOM      6  H   UNL A   1      34.679  29.373  23.470  1.00  0.00     0.163 HD
BRANCH   4   7
ATOM      7  C   UNL A   1      32.035  27.514  22.529  1.00  0.00     0.101 C 
ATOM      8  C   UNL A   1      32.037  26.066  23.052  1.00  0.00     0.096 C 
ATOM      9  C   UNL A   1      30.723  25.531  23.635  1.00  0.00     0.026 C 
ATOM     10  C   UNL A   1      29.912  26.589  24.366  1.00  0.00     0.002 C 
ATOM     11  C   UNL A   1      30.976  28.473  23.091  1.00  0.00     0.015 C 
ATOM     12  C   UNL A   1      29.671  27.802  23.484  1.00  0.00     0.001 C 
BRANCH   8  13
ATOM     13  N   UNL A   1      32.620  25.091  22.114  1.00  0.00    -0.335 N 
ATOM     14  N   UNL A   1      34.033  23.529  23.226  1.00  0.00    -0.333 N 
ATOM     15  C   UNL A   1      33.387  23.999  22.158  1.00  0.00     0.315 C 
ATOM     16  H   UNL A   1      34.299  22.588  23.114  1.00  0.00     0.165 HD
ATOM     17  O   UNL A   1      33.504  23.357  21.109  1.00  0.00    -0.249 OA
ATOM     18  H   UNL A   1      32.371  25.306  21.185  1.00  0.00     0.165 HD
BRANCH  14  19
ATOM     19  C   UNL A   1      34.436  24.062  24.504  1.00  0.00     0.164 C 
BRANCH  19  20
ATOM     20  C   UNL A   1      34.006  23.228  25.690  1.00  0.00     0.027 A 
ATOM     21  C   UNL A   1      36.016  21.632  25.790  1.00  0.00     0.045 C 
ATOM     22  C   UNL A   1      34.738  22.213  26.301  1.00  0.00    -0.035 A 
ATOM     23  C   UNL A   1      34.132  21.803  27.535  1.00  0.00     0.015 A 
ATOM     24  C   UNL A   1      32.950  22.459  27.788  1.00  0.00     0.065 A 
ATOM     25  S   UNL A   1      32.507  23.478  26.498  1.00  0.00    -0.147 S 
ENDBRANCH  19  20
ENDBRANCH  14  19
ENDBRANCH   8  13
ENDBRANCH   4   7
ENDBRANCH   2   3
ENDBRANCH   1   2
BRANCH   1  26
ATOM     26  C   UNL A   1      33.540  28.319  27.362  1.00  0.00     0.118 C 
BRANCH  26  27
ATOM     27  N   UNL A   1      33.463  29.757  27.587  1.00  0.00    -0.352 N 
ATOM     28  C   UNL A   1      34.385  30.598  28.161  1.00  0.00     0.251 C 
ATOM     29  H   UNL A   1      32.632  30.187  27.285  1.00  0.00     0.163 HD
ATOM     30  O   UNL A   1      34.056  31.726  28.506  1.00  0.00    -0.269 OA
BRANCH  28  31
ATOM     31  C   UNL A   1      35.765  30.116  28.370  1.00  0.00     0.039 A 
ATOM     32  C   UNL A   1      36.675  30.169  27.314  1.00  0.00     0.014 A 
ATOM     33  C   UNL A   1      36.157  29.634  29.621  1.00  0.00     0.014 A 
ATOM     34  C   UNL A   1      38.003  29.799  27.537  1.00  0.00     0.010 A 
ATOM     35  C   UNL A   1      37.497  29.373  29.868  1.00  0.00     0.010 A 
ATOM     36  C   UNL A   1      38.431  29.438  28.826  1.00  0.00    -0.014 A 
BRANCH  36  37
ATOM     37  C   UNL A   1      39.848  29.099  29.104  1.00  0.00     0.031 A 
ATOM     38  C   UNL A   1      40.762  30.137  29.701  1.00  0.00     0.074 A 
ATOM     39  C   UNL A   1      40.325  27.886  28.758  1.00  0.00     0.049 A 
ATOM     40  N   UNL A   1      42.041  30.060  29.957  1.00  0.00    -0.248 NA
ATOM     41  C   UNL A   1      40.165  31.444  30.024  1.00  0.00     0.031 C 
ATOM     42  C   UNL A   1      39.546  26.821  28.121  1.00  0.00     0.029 A 
ATOM     43  N   UNL A   1      41.579  27.347  28.887  1.00  0.00    -0.354 N 
ATOM     44  C   UNL A   1      42.402  31.306  30.454  1.00  0.00     0.074 A 
ATOM     45  C   UNL A   1      41.224  32.143  30.402  1.00  0.00     0.031 C 
ATOM     46  C   UNL A   1      40.332  25.747  27.945  1.00  0.00     0.029 A 
ATOM     47  C   UNL A   1      41.678  26.061  28.412  1.00  0.00     0.049 A 
ATOM     48  H   UNL A   1      42.337  27.835  29.281  1.00  0.00     0.167 HD
ATOM     49  C   UNL A   1      43.599  31.709  30.941  1.00  0.00     0.037 A 
ATOM     50  C   UNL A   1      42.738  25.230  28.354  1.00  0.00     0.037 A 
ATOM     51  C   UNL A   1      44.760  30.860  31.009  1.00  0.00     0.049 A 
ATOM     52  C   UNL A   1      44.062  25.703  28.893  1.00  0.00     0.074 A 
ATOM     53  C   UNL A   1      46.006  31.149  31.536  1.00  0.00     0.029 A 
ATOM     54  N   UNL A   1      44.818  29.558  30.533  1.00  0.00    -0.354 N 
ATOM     55  N   UNL A   1      44.368  26.861  29.427  1.00  0.00    -0.248 NA
ATOM     56  C   UNL A   1      45.182  24.756  28.826  1.00  0.00     0.031 C 
ATOM     57  C   UNL A   1      46.833  30.041  31.331  1.00  0.00     0.029 A 
ATOM     58  C   UNL A   1      46.086  29.039  30.730  1.00  0.00     0.049 A 
ATOM     59  H   UNL A   1      44.068  29.075  30.116  1.00  0.00     0.167 HD
ATOM     60  C   UNL A   1      45.708  26.773  29.786  1.00  0.00     0.074 A 
ATOM     61  C   UNL A   1      46.149  25.442  29.421  1.00  0.00     0.031 C 
ATOM     62  C   UNL A   1      46.504  27.707  30.365  1.00  0.00     0.037 A 
BRANCH  49  63
ATOM     63  C   UNL A   1      43.711  33.125  31.440  1.00  0.00     0.058 A 
ATOM     64  C   UNL A   1      43.540  33.446  32.797  1.00  0.00     0.135 A 
ATOM     65  C   UNL A   1      44.023  34.172  30.557  1.00  0.00     0.135 A 
ATOM     66  F   UNL A   1      43.224  32.490  33.685  1.00  0.00    -0.206 F 
ATOM     67  C   UNL A   1      43.642  34.756  33.254  1.00  0.00     0.059 A 
ATOM     68  C   UNL A   1      44.162  35.485  30.998  1.00  0.00     0.059 A 
ATOM     69  F   UNL A   1      44.195  33.924  29.249  1.00  0.00    -0.206 F 
ATOM     70  C   UNL A   1      43.955  35.768  32.347  1.00  0.00     0.060 A 
BRANCH  70  71
ATOM     71  S   UNL A   1      44.093  37.459  32.961  1.00  0.00     0.124 S 
ATOM     72  O   UNL A   1      44.042  38.226  31.721  1.00  0.00    -0.237 OA
ATOM     73  O   UNL A   1      42.923  37.574  33.825  1.00  0.00    -0.237 OA
ATOM     74  O   UNL A   1      45.380  37.468  33.650  1.00  0.00    -0.744 OA
ENDBRANCH  70  71
ENDBRANCH  49  63
BRANCH  50  75
ATOM     75  C   UNL A   1      42.583  23.863  27.789  1.00  0.00     0.058 A 
ATOM     76  C   UNL A   1      42.458  22.744  28.626  1.00  0.00     0.135 A 
ATOM     77  C   UNL A   1      42.544  23.647  26.401  1.00  0.00     0.135 A 
ATOM     78  F   UNL A   1      42.494  22.897  29.958  1.00  0.00    -0.206 F 
ATOM     79  C   UNL A   1      42.316  21.459  28.110  1.00  0.00     0.059 A 
ATOM     80  C   UNL A   1      42.375  22.375  25.863  1.00  0.00     0.059 A 
ATOM     81  F   UNL A   1      42.640  24.685  25.556  1.00  0.00    -0.206 F 
ATOM     82  C   UNL A   1      42.273  21.286  26.727  1.00  0.00     0.060 A 
BRANCH  82  83
ATOM     83  S   UNL A   1      42.041  19.619  26.070  1.00  0.00     0.124 S 
ATOM     84  O   UNL A   1      42.946  19.625  24.927  1.00  0.00    -0.237 OA
ATOM     85  O   UNL A   1      42.443  18.788  27.200  1.00  0.00    -0.237 OA
ATOM     86  O   UNL A   1      40.618  19.580  25.748  1.00  0.00    -0.744 OA
ENDBRANCH  82  83
ENDBRANCH  50  75
BRANCH  62  87
ATOM     87  C   UNL A   1      47.922  27.313  30.674  1.00  0.00     0.058 A 
ATOM     88  C   UNL A   1      48.255  26.595  31.833  1.00  0.00     0.135 A 
ATOM     89  C   UNL A   1      48.953  27.612  29.768  1.00  0.00     0.135 A 
ATOM     90  F   UNL A   1      47.309  26.289  32.735  1.00  0.00    -0.206 F 
ATOM     91  C   UNL A   1      49.565  26.208  32.096  1.00  0.00     0.059 A 
ATOM     92  C   UNL A   1      50.265  27.207  29.996  1.00  0.00     0.059 A 
ATOM     93  F   UNL A   1      48.687  28.286  28.639  1.00  0.00    -0.206 F 
ATOM     94  C   UNL A   1      50.562  26.516  31.168  1.00  0.00     0.060 A 
BRANCH  94  95
ATOM     95  S   UNL A   1      52.252  25.978  31.506  1.00  0.00     0.124 S 
ATOM     96  O   UNL A   1      52.037  24.622  32.000  1.00  0.00    -0.237 OA
ATOM     97  O   UNL A   1      52.880  26.083  30.192  1.00  0.00    -0.237 OA
ATOM     98  O   UNL A   1      52.723  26.940  32.498  1.00  0.00    -0.744 OA
ENDBRANCH  94  95
ENDBRANCH  62  87
ENDBRANCH  36  37
ENDBRANCH  28  31
ENDBRANCH  26  27
ENDBRANCH   1  26
TORSDOF 16
ENDMDL
MODEL 2
REMARK VINA RESULT:     -11.6      4.749     10.385
REMARK SMILES Cc1ccsc1CNC(=O)N[C@@H]1CCCC[C@H]1C(=O)NCCCNC(=O)c1ccc(-c2c3nc(c(-c4c(F)cc(S(=O)(=O)[O-])cc4F)c4ccc([nH]4)c(-c4c(F)cc(S(=O)(=O)[O-])cc4F)c4nc(c(-c5c(F)cc(S(=O)(=O)[O-])cc5F)c5ccc2[nH]5)C=C4)C=C3)cc1
REMARK SMILES IDX 22 1 21 2 20 3 18 4 19 5 17 7 12 8 13 9 14 10 16 11 15 12
REMARK SMILES IDX 11 13 8 14 9 15 10 17 7 19 6 20 1 21 2 22 3 23 4 24 5 25
REMARK SMILES IDX 23 26 24 27 25 28 26 30 27 31 28 32 92 33 29 34 91 35 30 36
REMARK SMILES IDX 31 37 32 38 85 39 33 40 90 41 84 42 86 43 34 44 89 45 83 46
REMARK SMILES IDX 82 47 35 49 69 50 48 51 68 52 49 53 52 54 67 55 87 56 50 57
REMARK SMILES IDX 51 58 66 60 88 61 53 62 36 63 37 64 46 65 38 66 39 67 45 68
REMARK SMILES IDX 47 69 40 70 41 71 42 72 43 73 44 74 70 75 71 76 80 77 72 78
REMARK SMILES IDX 73 79 79 80 81 81 74 82 75 83 76 84 77 85 78 86 54 87 55 88
REMARK SMILES IDX 64 89 56 90 57 91 63 92 65 93 58 94 59 95 60 96 61 97 62 98
REMARK H PARENT 20 6 8 16 11 18 24 29 86 48 52 59
REMARK Flexibility Score: inf
ROOT
ATOM      1  C   UNL A   1      37.689  23.093  25.747  1.00  0.00     0.042 C 
ENDROOT
BRANCH   1   2
ATOM      2  C   UNL A   1      36.196  23.329  25.894  1.00  0.00     0.117 C 
BRANCH   2   3
ATOM      3  N   UNL A   1      35.656  24.018  24.738  1.00  0.00    -0.356 N 
ATOM      4  C   UNL A   1      34.439  24.569  24.516  1.00  0.00     0.225 C 
ATOM      5  O   UNL A   1      34.208  24.971  23.374  1.00  0.00    -0.275 OA
ATOM      6  H   UNL A   1      36.284  24.099  23.984  1.00  0.00     0.163 HD
BRANCH   4   7
ATOM      7  C   UNL A   1      33.421  24.734  25.636  1.00  0.00     0.101 C 
ATOM      8  C   UNL A   1      32.784  26.134  25.673  1.00  0.00     0.096 C 
ATOM      9  C   UNL A   1      31.388  26.253  26.298  1.00  0.00     0.026 C 
ATOM     10  C   UNL A   1      30.509  25.038  26.047  1.00  0.00     0.002 C 
ATOM     11  C   UNL A   1      32.479  23.522  25.694  1.00  0.00     0.015 C 
ATOM     12  C   UNL A   1      31.203  23.760  26.483  1.00  0.00     0.001 C 
BRANCH   8  13
ATOM     13  N   UNL A   1      33.675  27.184  26.197  1.00  0.00    -0.335 N 
ATOM     14  N   UNL A   1      33.781  29.064  24.739  1.00  0.00    -0.333 N 
ATOM     15  C   UNL A   1      34.054  28.424  25.875  1.00  0.00     0.315 C 
ATOM     16  H   UNL A   1      33.909  30.037  24.821  1.00  0.00     0.165 HD
ATOM     17  O   UNL A   1      34.718  29.039  26.716  1.00  0.00    -0.249 OA
ATOM     18  H   UNL A   1      34.118  26.887  27.024  1.00  0.00     0.165 HD
BRANCH  14  19
ATOM     19  C   UNL A   1      33.343  28.682  23.418  1.00  0.00     0.164 C 
BRANCH  19  20
ATOM     20  C   UNL A   1      31.845  28.533  23.277  1.00  0.00     0.027 A 
ATOM     21  C   UNL A   1      31.804  26.448  21.776  1.00  0.00     0.045 C 
ATOM     22  C   UNL A   1      31.171  27.506  22.620  1.00  0.00    -0.035 A 
ATOM     23  C   UNL A   1      29.762  27.554  22.886  1.00  0.00     0.015 A 
ATOM     24  C   UNL A   1      29.407  28.628  23.667  1.00  0.00     0.065 A 
ATOM     25  S   UNL A   1      30.737  29.642  23.986  1.00  0.00    -0.147 S 
ENDBRANCH  19  20
ENDBRANCH  14  19
ENDBRANCH   8  13
ENDBRANCH   4   7
ENDBRANCH   2   3
ENDBRANCH   1   2
BRANCH   1  26
ATOM     26  C   UNL A   1      38.534  24.157  26.429  1.00  0.00     0.118 C 
BRANCH  26  27
ATOM     27  N   UNL A   1      39.961  23.946  26.217  1.00  0.00    -0.352 N 
ATOM     28  C   UNL A   1      41.023  24.722  26.613  1.00  0.00     0.251 C 
ATOM     29  H   UNL A   1      40.197  23.131  25.720  1.00  0.00     0.163 HD
ATOM     30  O   UNL A   1      42.133  24.535  26.130  1.00  0.00    -0.269 OA
BRANCH  28  31
ATOM     31  C   UNL A   1      40.802  25.790  27.608  1.00  0.00     0.039 A 
ATOM     32  C   UNL A   1      39.758  25.664  28.524  1.00  0.00     0.014 A 
ATOM     33  C   UNL A   1      41.646  26.902  27.642  1.00  0.00     0.014 A 
ATOM     34  C   UNL A   1      39.605  26.629  29.522  1.00  0.00     0.010 A 
ATOM     35  C   UNL A   1      41.560  27.797  28.698  1.00  0.00     0.010 A 
ATOM     36  C   UNL A   1      40.530  27.680  29.641  1.00  0.00    -0.014 A 
BRANCH  36  37
ATOM     37  C   UNL A   1      40.427  28.683  30.728  1.00  0.00     0.031 A 
ATOM     38  C   UNL A   1      41.306  28.561  31.944  1.00  0.00     0.074 A 
ATOM     39  C   UNL A   1      39.500  29.659  30.650  1.00  0.00     0.049 A 
ATOM     40  N   UNL A   1      41.324  29.292  33.027  1.00  0.00    -0.248 NA
ATOM     41  C   UNL A   1      42.273  27.450  31.959  1.00  0.00     0.031 C 
ATOM     42  C   UNL A   1      38.555  29.842  29.545  1.00  0.00     0.029 A 
ATOM     43  N   UNL A   1      39.196  30.676  31.518  1.00  0.00    -0.354 N 
ATOM     44  C   UNL A   1      42.286  28.724  33.852  1.00  0.00     0.074 A 
ATOM     45  C   UNL A   1      42.785  27.547  33.176  1.00  0.00     0.031 C 
ATOM     46  C   UNL A   1      37.799  30.925  29.788  1.00  0.00     0.029 A 
ATOM     47  C   UNL A   1      38.173  31.485  31.083  1.00  0.00     0.049 A 
ATOM     48  H   UNL A   1      39.665  30.814  32.371  1.00  0.00     0.167 HD
ATOM     49  C   UNL A   1      42.738  29.161  35.051  1.00  0.00     0.037 A 
ATOM     50  C   UNL A   1      37.597  32.554  31.666  1.00  0.00     0.037 A 
ATOM     51  C   UNL A   1      42.250  30.347  35.704  1.00  0.00     0.049 A 
ATOM     52  C   UNL A   1      38.109  33.016  33.005  1.00  0.00     0.074 A 
ATOM     53  C   UNL A   1      42.678  30.912  36.892  1.00  0.00     0.029 A 
ATOM     54  N   UNL A   1      41.224  31.150  35.226  1.00  0.00    -0.354 N 
ATOM     55  N   UNL A   1      39.071  32.509  33.738  1.00  0.00    -0.248 NA
ATOM     56  C   UNL A   1      37.463  34.197  33.591  1.00  0.00     0.031 C 
ATOM     57  C   UNL A   1      41.875  32.024  37.160  1.00  0.00     0.029 A 
ATOM     58  C   UNL A   1      40.987  32.190  36.108  1.00  0.00     0.049 A 
ATOM     59  H   UNL A   1      40.737  31.001  34.383  1.00  0.00     0.167 HD
ATOM     60  C   UNL A   1      39.165  33.325  34.860  1.00  0.00     0.074 A 
ATOM     61  C   UNL A   1      38.171  34.367  34.699  1.00  0.00     0.031 C 
ATOM     62  C   UNL A   1      39.996  33.223  35.927  1.00  0.00     0.037 A 
BRANCH  49  63
ATOM     63  C   UNL A   1      43.814  28.355  35.729  1.00  0.00     0.058 A 
ATOM     64  C   UNL A   1      45.177  28.601  35.499  1.00  0.00     0.135 A 
ATOM     65  C   UNL A   1      43.480  27.342  36.643  1.00  0.00     0.135 A 
ATOM     66  F   UNL A   1      45.557  29.545  34.622  1.00  0.00    -0.206 F 
ATOM     67  C   UNL A   1      46.169  27.854  36.126  1.00  0.00     0.059 A 
ATOM     68  C   UNL A   1      44.455  26.604  37.306  1.00  0.00     0.059 A 
ATOM     69  F   UNL A   1      42.192  27.062  36.900  1.00  0.00    -0.206 F 
ATOM     70  C   UNL A   1      45.798  26.857  37.029  1.00  0.00     0.060 A 
BRANCH  70  71
ATOM     71  S   UNL A   1      47.099  25.905  37.839  1.00  0.00     0.124 S 
ATOM     72  O   UNL A   1      46.528  25.704  39.167  1.00  0.00    -0.237 OA
ATOM     73  O   UNL A   1      47.184  24.715  37.000  1.00  0.00    -0.237 OA
ATOM     74  O   UNL A   1      48.257  26.793  37.783  1.00  0.00    -0.744 OA
ENDBRANCH  70  71
ENDBRANCH  49  63
BRANCH  50  75
ATOM     75  C   UNL A   1      36.490  33.273  30.978  1.00  0.00     0.058 A 
ATOM     76  C   UNL A   1      35.164  33.152  31.420  1.00  0.00     0.135 A 
ATOM     77  C   UNL A   1      36.736  34.107  29.875  1.00  0.00     0.135 A 
ATOM     78  F   UNL A   1      34.876  32.364  32.467  1.00  0.00    -0.206 F 
ATOM     79  C   UNL A   1      34.120  33.816  30.784  1.00  0.00     0.059 A 
ATOM     80  C   UNL A   1      35.712  34.803  29.241  1.00  0.00     0.059 A 
ATOM     81  F   UNL A   1      37.989  34.273  29.423  1.00  0.00    -0.206 F 
ATOM     82  C   UNL A   1      34.405  34.642  29.697  1.00  0.00     0.060 A 
BRANCH  82  83
ATOM     83  S   UNL A   1      33.047  35.536  28.910  1.00  0.00     0.124 S 
ATOM     84  O   UNL A   1      32.455  34.497  28.075  1.00  0.00    -0.237 OA
ATOM     85  O   UNL A   1      32.254  35.961  30.060  1.00  0.00    -0.237 OA
ATOM     86  O   UNL A   1      33.724  36.612  28.193  1.00  0.00    -0.744 OA
ENDBRANCH  82  83
ENDBRANCH  50  75
BRANCH  62  87
ATOM     87  C   UNL A   1      39.895  34.284  36.988  1.00  0.00     0.058 A 
ATOM     88  C   UNL A   1      40.516  35.534  36.846  1.00  0.00     0.135 A 
ATOM     89  C   UNL A   1      39.118  34.064  38.137  1.00  0.00     0.135 A 
ATOM     90  F   UNL A   1      41.276  35.794  35.770  1.00  0.00    -0.206 F 
ATOM     91  C   UNL A   1      40.392  36.521  37.819  1.00  0.00     0.059 A 
ATOM     92  C   UNL A   1      38.954  35.048  39.107  1.00  0.00     0.059 A 
ATOM     93  F   UNL A   1      38.492  32.890  38.317  1.00  0.00    -0.206 F 
ATOM     94  C   UNL A   1      39.605  36.269  38.944  1.00  0.00     0.060 A 
BRANCH  94  95
ATOM     95  S   UNL A   1      39.426  37.571  40.181  1.00  0.00     0.124 S 
ATOM     96  O   UNL A   1      38.993  36.810  41.349  1.00  0.00    -0.237 OA
ATOM     97  O   UNL A   1      40.775  38.124  40.249  1.00  0.00    -0.237 OA
ATOM     98  O   UNL A   1      38.420  38.456  39.602  1.00  0.00    -0.744 OA
ENDBRANCH  94  95
ENDBRANCH  62  87
ENDBRANCH  36  37
ENDBRANCH  28  31
ENDBRANCH  26  27
ENDBRANCH   1  26
TORSDOF 16
ENDMDL
MODEL 3
REMARK VINA RESULT:     -11.5      2.716      3.520
REMARK SMILES Cc1ccsc1CNC(=O)N[C@@H]1CCCC[C@H]1C(=O)NCCCNC(=O)c1ccc(-c2c3nc(c(-c4c(F)cc(S(=O)(=O)[O-])cc4F)c4ccc([nH]4)c(-c4c(F)cc(S(=O)(=O)[O-])cc4F)c4nc(c(-c5c(F)cc(S(=O)(=O)[O-])cc5F)c5ccc2[nH]5)C=C4)C=C3)cc1
REMARK SMILES IDX 22 1 21 2 20 3 18 4 19 5 17 7 12 8 13 9 14 10 16 11 15 12
REMARK SMILES IDX 11 13 8 14 9 15 10 17 7 19 6 20 1 21 2 22 3 23 4 24 5 25
REMARK SMILES IDX 23 26 24 27 25 28 26 30 27 31 28 32 92 33 29 34 91 35 30 36
REMARK SMILES IDX 31 37 32 38 85 39 33 40 90 41 84 42 86 43 34 44 89 45 83 46
REMARK SMILES IDX 82 47 35 49 69 50 48 51 68 52 49 53 52 54 67 55 87 56 50 57
REMARK SMILES IDX 51 58 66 60 88 61 53 62 36 63 37 64 46 65 38 66 39 67 45 68
REMARK SMILES IDX 47 69 40 70 41 71 42 72 43 73 44 74 70 75 71 76 80 77 72 78
REMARK SMILES IDX 73 79 79 80 81 81 74 82 75 83 76 84 77 85 78 86 54 87 55 88
REMARK SMILES IDX 64 89 56 90 57 91 63 92 65 93 58 94 59 95 60 96 61 97 62 98
REMARK H PARENT 20 6 8 16 11 18 24 29 86 48 52 59
REMARK Flexibility Score: inf
ROOT
ATOM      1  C   UNL A   1      33.799  28.923  27.295  1.00  0.00     0.042 C 
ENDROOT
BRANCH   1   2
ATOM      2  C   UNL A   1      33.125  29.337  25.999  1.00  0.00     0.117 C 
BRANCH   2   3
ATOM      3  N   UNL A   1      34.009  29.152  24.865  1.00  0.00    -0.356 N 
ATOM      4  C   UNL A   1      33.754  28.784  23.586  1.00  0.00     0.225 C 
ATOM      5  O   UNL A   1      34.729  28.568  22.863  1.00  0.00    -0.275 OA
ATOM      6  H   UNL A   1      34.959  29.324  25.057  1.00  0.00     0.163 HD
BRANCH   4   7
ATOM      7  C   UNL A   1      32.332  28.689  23.050  1.00  0.00     0.101 C 
ATOM      8  C   UNL A   1      31.892  27.244  22.757  1.00  0.00     0.096 C 
ATOM      9  C   UNL A   1      30.388  26.946  22.804  1.00  0.00     0.026 C 
ATOM     10  C   UNL A   1      29.646  27.754  23.858  1.00  0.00     0.002 C 
ATOM     11  C   UNL A   1      31.382  29.569  23.877  1.00  0.00     0.015 C 
ATOM     12  C   UNL A   1      29.910  29.241  23.694  1.00  0.00     0.001 C 
BRANCH   8  13
ATOM     13  N   UNL A   1      32.493  26.670  21.540  1.00  0.00    -0.335 N 
ATOM     14  N   UNL A   1      32.638  24.296  21.658  1.00  0.00    -0.333 N 
ATOM     15  C   UNL A   1      32.752  25.464  21.027  1.00  0.00     0.315 C 
ATOM     16  H   UNL A   1      32.605  23.537  21.032  1.00  0.00     0.165 HD
ATOM     17  O   UNL A   1      33.127  25.428  19.851  1.00  0.00    -0.249 OA
ATOM     18  H   UNL A   1      32.788  27.381  20.925  1.00  0.00     0.165 HD
BRANCH  14  19
ATOM     19  C   UNL A   1      32.549  23.871  23.034  1.00  0.00     0.164 C 
BRANCH  19  20
ATOM     20  C   UNL A   1      33.850  23.960  23.799  1.00  0.00     0.027 A 
ATOM     21  C   UNL A   1      33.103  25.581  25.647  1.00  0.00     0.045 C 
ATOM     22  C   UNL A   1      34.069  24.650  24.989  1.00  0.00    -0.035 A 
ATOM     23  C   UNL A   1      35.347  24.324  25.554  1.00  0.00     0.015 A 
ATOM     24  C   UNL A   1      36.073  23.467  24.761  1.00  0.00     0.065 A 
ATOM     25  S   UNL A   1      35.277  23.141  23.291  1.00  0.00    -0.147 S 
ENDBRANCH  19  20
ENDBRANCH  14  19
ENDBRANCH   8  13
ENDBRANCH   4   7
ENDBRANCH   2   3
ENDBRANCH   1   2
BRANCH   1  26
ATOM     26  C   UNL A   1      35.151  29.585  27.505  1.00  0.00     0.118 C 
BRANCH  26  27
ATOM     27  N   UNL A   1      35.212  30.329  28.757  1.00  0.00    -0.352 N 
ATOM     28  C   UNL A   1      36.217  30.377  29.692  1.00  0.00     0.251 C 
ATOM     29  H   UNL A   1      34.420  30.875  28.961  1.00  0.00     0.163 HD
ATOM     30  O   UNL A   1      35.999  30.844  30.803  1.00  0.00    -0.269 OA
BRANCH  28  31
ATOM     31  C   UNL A   1      37.549  29.844  29.344  1.00  0.00     0.039 A 
ATOM     32  C   UNL A   1      37.965  29.860  28.013  1.00  0.00     0.014 A 
ATOM     33  C   UNL A   1      38.389  29.350  30.344  1.00  0.00     0.014 A 
ATOM     34  C   UNL A   1      39.259  29.440  27.696  1.00  0.00     0.010 A 
ATOM     35  C   UNL A   1      39.708  29.040  30.043  1.00  0.00     0.010 A 
ATOM     36  C   UNL A   1      40.152  29.066  28.714  1.00  0.00    -0.014 A 
BRANCH  36  37
ATOM     37  C   UNL A   1      41.550  28.675  28.412  1.00  0.00     0.031 A 
ATOM     38  C   UNL A   1      42.635  29.720  28.408  1.00  0.00     0.074 A 
ATOM     39  C   UNL A   1      41.829  27.399  28.078  1.00  0.00     0.049 A 
ATOM     40  N   UNL A   1      43.900  29.594  28.106  1.00  0.00    -0.248 NA
ATOM     41  C   UNL A   1      42.238  31.094  28.760  1.00  0.00     0.031 C 
ATOM     42  C   UNL A   1      40.849  26.313  27.993  1.00  0.00     0.029 A 
ATOM     43  N   UNL A   1      43.016  26.801  27.740  1.00  0.00    -0.354 N 
ATOM     44  C   UNL A   1      44.444  30.868  28.217  1.00  0.00     0.074 A 
ATOM     45  C   UNL A   1      43.359  31.766  28.548  1.00  0.00     0.031 C 
ATOM     46  C   UNL A   1      41.480  25.176  27.659  1.00  0.00     0.029 A 
ATOM     47  C   UNL A   1      42.898  25.460  27.461  1.00  0.00     0.049 A 
ATOM     48  H   UNL A   1      43.871  27.286  27.701  1.00  0.00     0.167 HD
ATOM     49  C   UNL A   1      45.735  31.252  28.087  1.00  0.00     0.037 A 
ATOM     50  C   UNL A   1      43.828  24.562  27.082  1.00  0.00     0.037 A 
ATOM     51  C   UNL A   1      46.810  30.345  27.780  1.00  0.00     0.049 A 
ATOM     52  C   UNL A   1      45.256  25.013  26.933  1.00  0.00     0.074 A 
ATOM     53  C   UNL A   1      48.163  30.618  27.682  1.00  0.00     0.029 A 
ATOM     54  N   UNL A   1      46.654  28.991  27.519  1.00  0.00    -0.354 N 
ATOM     55  N   UNL A   1      45.766  26.209  27.113  1.00  0.00    -0.248 NA
ATOM     56  C   UNL A   1      46.237  23.994  26.538  1.00  0.00     0.031 C 
ATOM     57  C   UNL A   1      48.818  29.441  27.309  1.00  0.00     0.029 A 
ATOM     58  C   UNL A   1      47.883  28.420  27.234  1.00  0.00     0.049 A 
ATOM     59  H   UNL A   1      45.797  28.508  27.534  1.00  0.00     0.167 HD
ATOM     60  C   UNL A   1      47.130  26.081  26.880  1.00  0.00     0.074 A 
ATOM     61  C   UNL A   1      47.367  24.687  26.561  1.00  0.00     0.031 C 
ATOM     62  C   UNL A   1      48.100  27.028  26.925  1.00  0.00     0.037 A 
BRANCH  49  63
ATOM     63  C   UNL A   1      46.055  32.710  28.280  1.00  0.00     0.058 A 
ATOM     64  C   UNL A   1      46.014  33.623  27.213  1.00  0.00     0.135 A 
ATOM     65  C   UNL A   1      46.377  33.209  29.553  1.00  0.00     0.135 A 
ATOM     66  F   UNL A   1      45.728  33.201  25.971  1.00  0.00    -0.206 F 
ATOM     67  C   UNL A   1      46.311  34.970  27.395  1.00  0.00     0.059 A 
ATOM     68  C   UNL A   1      46.647  34.558  29.763  1.00  0.00     0.059 A 
ATOM     69  F   UNL A   1      46.434  32.382  30.609  1.00  0.00    -0.206 F 
ATOM     70  C   UNL A   1      46.626  35.428  28.674  1.00  0.00     0.060 A 
BRANCH  70  71
ATOM     71  S   UNL A   1      46.999  37.180  28.891  1.00  0.00     0.124 S 
ATOM     72  O   UNL A   1      47.420  37.218  30.288  1.00  0.00    -0.237 OA
ATOM     73  O   UNL A   1      48.052  37.399  27.906  1.00  0.00    -0.237 OA
ATOM     74  O   UNL A   1      45.727  37.838  28.603  1.00  0.00    -0.744 OA
ENDBRANCH  70  71
ENDBRANCH  49  63
BRANCH  50  75
ATOM     75  C   UNL A   1      43.442  23.145  26.840  1.00  0.00     0.058 A 
ATOM     76  C   UNL A   1      43.408  22.616  25.541  1.00  0.00     0.135 A 
ATOM     77  C   UNL A   1      43.113  22.287  27.902  1.00  0.00     0.135 A 
ATOM     78  F   UNL A   1      43.709  23.397  24.492  1.00  0.00    -0.206 F 
ATOM     79  C   UNL A   1      43.045  21.295  25.300  1.00  0.00     0.059 A 
ATOM     80  C   UNL A   1      42.775  20.954  27.689  1.00  0.00     0.059 A 
ATOM     81  F   UNL A   1      43.147  22.737  29.166  1.00  0.00    -0.206 F 
ATOM     82  C   UNL A   1      42.734  20.471  26.382  1.00  0.00     0.060 A 
BRANCH  82  83
ATOM     83  S   UNL A   1      42.311  18.744  26.061  1.00  0.00     0.124 S 
ATOM     84  O   UNL A   1      43.251  18.403  24.999  1.00  0.00    -0.237 OA
ATOM     85  O   UNL A   1      42.561  18.123  27.358  1.00  0.00    -0.237 OA
ATOM     86  O   UNL A   1      40.908  18.809  25.666  1.00  0.00    -0.744 OA
ENDBRANCH  82  83
ENDBRANCH  50  75
BRANCH  62  87
ATOM     87  C   UNL A   1      49.512  26.586  26.658  1.00  0.00     0.058 A 
ATOM     88  C   UNL A   1      50.303  25.992  27.654  1.00  0.00     0.135 A 
ATOM     89  C   UNL A   1      50.062  26.709  25.371  1.00  0.00     0.135 A 
ATOM     90  F   UNL A   1      49.829  25.856  28.903  1.00  0.00    -0.206 F 
ATOM     91  C   UNL A   1      51.598  25.559  27.390  1.00  0.00     0.059 A 
ATOM     92  C   UNL A   1      51.343  26.253  25.077  1.00  0.00     0.059 A 
ATOM     93  F   UNL A   1      49.344  27.259  24.379  1.00  0.00    -0.206 F 
ATOM     94  C   UNL A   1      52.108  25.690  26.097  1.00  0.00     0.060 A 
BRANCH  94  95
ATOM     95  S   UNL A   1      53.777  25.092  25.761  1.00  0.00     0.124 S 
ATOM     96  O   UNL A   1      53.526  23.699  25.407  1.00  0.00    -0.237 OA
ATOM     97  O   UNL A   1      54.203  25.958  24.665  1.00  0.00    -0.237 OA
ATOM     98  O   UNL A   1      54.475  25.302  27.026  1.00  0.00    -0.744 OA
ENDBRANCH  94  95
ENDBRANCH  62  87
ENDBRANCH  36  37
ENDBRANCH  28  31
ENDBRANCH  26  27
ENDBRANCH   1  26
TORSDOF 16
ENDMDL
