MODEL 1
REMARK VINA RESULT:     -12.6      0.000      0.000
REMARK SMILES O=C(NCCCNC(=O)c1cccc([C@@H]2CCC[N@@H+](Cc3cccc(OCCO)c3)C2)c1)c1ccc(-c2c3nc(c(-c4c(F)cc(S(=O)(=O)[O-])cc4F)c4ccc([nH]4)c(-c4c(F)cc(S(=O)(=O)[O-])cc4F)c4nc(c(-c5c(F)cc(S(=O)(=O)[O-])cc5F)c5ccc2[nH]5)C=C4)C=C3)cc1
REMARK SMILES IDX 7 1 8 2 9 3 6 5 5 6 4 7 3 8 1 9 2 10 33 12 34 13 98 14 35 15
REMARK SMILES IDX 97 16 36 17 37 18 38 19 91 20 39 21 96 22 90 23 92 24 40 25
REMARK SMILES IDX 95 26 89 27 88 28 41 30 75 31 54 32 74 33 55 34 58 35 73 36
REMARK SMILES IDX 93 37 56 38 57 39 72 41 94 42 59 43 42 44 43 45 52 46 44 47
REMARK SMILES IDX 45 48 51 49 53 50 46 51 47 52 48 53 49 54 50 55 76 56 77 57
REMARK SMILES IDX 86 58 78 59 79 60 85 61 87 62 80 63 81 64 82 65 83 66 84 67
REMARK SMILES IDX 60 68 61 69 70 70 62 71 63 72 69 73 71 74 64 75 65 76 66 77
REMARK SMILES IDX 67 78 68 79 10 80 11 81 32 82 12 83 14 84 13 85 15 86 16 87
REMARK SMILES IDX 31 88 17 89 19 90 18 91 20 93 21 94 22 95 30 96 23 97 25 98
REMARK SMILES IDX 24 99 26 100 27 101 28 102 29 103
REMARK H PARENT 7 4 3 11 92 29 58 40 19 92 29 104
REMARK Flexibility Score: inf
ROOT
ATOM      1  N   UNL A   1      32.610  30.005  27.207  1.00  0.00    -0.352 N 
ATOM      2  C   UNL A   1      31.995  30.205  25.992  1.00  0.00     0.251 C 
ATOM      3  O   UNL A   1      31.381  31.245  25.773  1.00  0.00    -0.269 OA
ATOM      4  H   UNL A   1      32.399  30.672  27.899  1.00  0.00     0.163 HD
ENDROOT
BRANCH   1   5
ATOM      5  C   UNL A   1      33.530  28.947  27.623  1.00  0.00     0.118 C 
BRANCH   5   6
ATOM      6  C   UNL A   1      34.984  29.310  27.400  1.00  0.00     0.042 C 
BRANCH   6   7
ATOM      7  C   UNL A   1      35.402  30.583  28.104  1.00  0.00     0.118 C 
BRANCH   7   8
ATOM      8  N   UNL A   1      35.443  30.450  29.557  1.00  0.00    -0.352 N 
ATOM      9  O   UNL A   1      36.213  29.775  31.563  1.00  0.00    -0.269 OA
ATOM     10  C   UNL A   1      36.431  29.937  30.369  1.00  0.00     0.251 C 
ATOM     11  H   UNL A   1      34.642  30.776  30.028  1.00  0.00     0.163 HD
BRANCH  10  12
ATOM     12  C   UNL A   1      37.738  29.549  29.787  1.00  0.00     0.039 A 
ATOM     13  C   UNL A   1      38.661  28.830  30.543  1.00  0.00     0.014 A 
ATOM     14  C   UNL A   1      38.058  29.928  28.480  1.00  0.00     0.014 A 
ATOM     15  C   UNL A   1      39.963  28.689  30.087  1.00  0.00     0.010 A 
ATOM     16  C   UNL A   1      39.333  29.657  27.966  1.00  0.00     0.010 A 
ATOM     17  C   UNL A   1      40.313  29.074  28.782  1.00  0.00    -0.014 A 
BRANCH  17  18
ATOM     18  C   UNL A   1      41.692  28.777  28.309  1.00  0.00     0.031 A 
ATOM     19  C   UNL A   1      42.788  29.806  28.361  1.00  0.00     0.074 A 
ATOM     20  C   UNL A   1      41.964  27.516  27.914  1.00  0.00     0.049 A 
ATOM     21  N   UNL A   1      44.057  29.665  28.066  1.00  0.00    -0.248 NA
ATOM     22  C   UNL A   1      42.424  31.167  28.783  1.00  0.00     0.031 C 
ATOM     23  C   UNL A   1      40.973  26.441  27.794  1.00  0.00     0.029 A 
ATOM     24  N   UNL A   1      43.147  26.907  27.588  1.00  0.00    -0.354 N 
ATOM     25  C   UNL A   1      44.637  30.915  28.247  1.00  0.00     0.074 A 
ATOM     26  C   UNL A   1      43.577  31.812  28.655  1.00  0.00     0.031 C 
ATOM     27  C   UNL A   1      41.598  25.292  27.508  1.00  0.00     0.029 A 
ATOM     28  C   UNL A   1      43.021  25.558  27.349  1.00  0.00     0.049 A 
ATOM     29  H   UNL A   1      44.004  27.387  27.532  1.00  0.00     0.167 HD
ATOM     30  C   UNL A   1      45.935  31.277  28.094  1.00  0.00     0.037 A 
ATOM     31  C   UNL A   1      43.944  24.634  27.028  1.00  0.00     0.037 A 
ATOM     32  C   UNL A   1      46.988  30.371  27.706  1.00  0.00     0.049 A 
ATOM     33  C   UNL A   1      45.375  25.056  26.899  1.00  0.00     0.074 A 
ATOM     34  C   UNL A   1      48.334  30.641  27.523  1.00  0.00     0.029 A 
ATOM     35  N   UNL A   1      46.817  29.017  27.452  1.00  0.00    -0.354 N 
ATOM     36  N   UNL A   1      45.899  26.247  27.070  1.00  0.00    -0.248 NA
ATOM     37  C   UNL A   1      46.342  24.016  26.527  1.00  0.00     0.031 C 
ATOM     38  C   UNL A   1      48.972  29.457  27.134  1.00  0.00     0.029 A 
ATOM     39  C   UNL A   1      48.030  28.440  27.111  1.00  0.00     0.049 A 
ATOM     40  H   UNL A   1      45.960  28.536  27.508  1.00  0.00     0.167 HD
ATOM     41  C   UNL A   1      47.255  26.102  26.813  1.00  0.00     0.074 A 
ATOM     42  C   UNL A   1      47.477  24.700  26.519  1.00  0.00     0.031 C 
ATOM     43  C   UNL A   1      48.227  27.047  26.806  1.00  0.00     0.037 A 
BRANCH  30  44
ATOM     44  C   UNL A   1      46.297  32.716  28.341  1.00  0.00     0.058 A 
ATOM     45  C   UNL A   1      46.863  33.134  29.555  1.00  0.00     0.135 A 
ATOM     46  C   UNL A   1      46.139  33.678  27.329  1.00  0.00     0.135 A 
ATOM     47  F   UNL A   1      47.022  32.261  30.562  1.00  0.00    -0.206 F 
ATOM     48  C   UNL A   1      47.246  34.455  29.764  1.00  0.00     0.059 A 
ATOM     49  C   UNL A   1      46.534  35.001  27.508  1.00  0.00     0.059 A 
ATOM     50  F   UNL A   1      45.604  33.333  26.147  1.00  0.00    -0.206 F 
ATOM     51  C   UNL A   1      47.078  35.382  28.734  1.00  0.00     0.060 A 
BRANCH  51  52
ATOM     52  S   UNL A   1      47.600  37.089  29.012  1.00  0.00     0.124 S 
ATOM     53  O   UNL A   1      46.325  37.797  28.946  1.00  0.00    -0.237 OA
ATOM     54  O   UNL A   1      48.215  37.018  30.334  1.00  0.00    -0.237 OA
ATOM     55  O   UNL A   1      48.520  37.348  27.909  1.00  0.00    -0.744 OA
ENDBRANCH  51  52
ENDBRANCH  30  44
BRANCH  31  56
ATOM     56  C   UNL A   1      43.526  23.228  26.786  1.00  0.00     0.058 A 
ATOM     57  C   UNL A   1      43.490  22.690  25.493  1.00  0.00     0.135 A 
ATOM     58  C   UNL A   1      43.184  22.388  27.858  1.00  0.00     0.135 A 
ATOM     59  F   UNL A   1      43.808  23.455  24.438  1.00  0.00    -0.206 F 
ATOM     60  C   UNL A   1      43.114  21.369  25.267  1.00  0.00     0.059 A 
ATOM     61  C   UNL A   1      42.833  21.058  27.660  1.00  0.00     0.059 A 
ATOM     62  F   UNL A   1      43.225  22.851  29.116  1.00  0.00    -0.206 F 
ATOM     63  C   UNL A   1      42.788  20.561  26.358  1.00  0.00     0.060 A 
BRANCH  63  64
ATOM     64  S   UNL A   1      42.349  18.834  26.070  1.00  0.00     0.124 S 
ATOM     65  O   UNL A   1      43.282  18.470  25.011  1.00  0.00    -0.237 OA
ATOM     66  O   UNL A   1      42.594  18.227  27.375  1.00  0.00    -0.237 OA
ATOM     67  O   UNL A   1      40.945  18.910  25.679  1.00  0.00    -0.744 OA
ENDBRANCH  63  64
ENDBRANCH  31  56
BRANCH  43  68
ATOM     68  C   UNL A   1      49.612  26.581  26.461  1.00  0.00     0.058 A 
ATOM     69  C   UNL A   1      50.131  26.734  25.167  1.00  0.00     0.135 A 
ATOM     70  C   UNL A   1      50.423  25.971  27.430  1.00  0.00     0.135 A 
ATOM     71  F   UNL A   1      49.388  27.304  24.204  1.00  0.00    -0.206 F 
ATOM     72  C   UNL A   1      51.395  26.263  24.832  1.00  0.00     0.059 A 
ATOM     73  C   UNL A   1      51.701  25.514  27.123  1.00  0.00     0.059 A 
ATOM     74  F   UNL A   1      49.974  25.810  28.684  1.00  0.00    -0.206 F 
ATOM     75  C   UNL A   1      52.169  25.647  25.817  1.00  0.00     0.060 A 
BRANCH  75  76
ATOM     76  S   UNL A   1      53.807  25.032  25.373  1.00  0.00     0.124 S 
ATOM     77  O   UNL A   1      54.622  25.558  26.464  1.00  0.00    -0.237 OA
ATOM     78  O   UNL A   1      53.612  23.586  25.368  1.00  0.00    -0.237 OA
ATOM     79  O   UNL A   1      54.048  25.630  24.063  1.00  0.00    -0.744 OA
ENDBRANCH  75  76
ENDBRANCH  43  68
ENDBRANCH  17  18
ENDBRANCH  10  12
ENDBRANCH   7   8
ENDBRANCH   6   7
ENDBRANCH   5   6
ENDBRANCH   1   5
BRANCH   2  80
ATOM     80  C   UNL A   1      32.077  29.164  24.947  1.00  0.00     0.040 A 
ATOM     81  C   UNL A   1      33.186  29.098  24.107  1.00  0.00     0.014 A 
ATOM     82  C   UNL A   1      31.054  28.221  24.835  1.00  0.00     0.018 A 
ATOM     83  C   UNL A   1      33.300  28.032  23.215  1.00  0.00     0.001 A 
ATOM     84  C   UNL A   1      31.190  27.103  24.015  1.00  0.00    -0.039 A 
ATOM     85  C   UNL A   1      32.323  27.029  23.188  1.00  0.00     0.004 A 
BRANCH  84  86
ATOM     86  C   UNL A   1      30.221  25.936  24.117  1.00  0.00     0.074 C 
ATOM     87  C   UNL A   1      29.904  25.475  25.548  1.00  0.00     0.020 C 
ATOM     88  C   UNL A   1      30.662  24.743  23.231  1.00  0.00     0.270 C 
ATOM     89  C   UNL A   1      30.898  24.466  26.122  1.00  0.00     0.062 C 
ATOM     90  N   UNL A   1      31.664  23.843  23.833  1.00  0.00    -0.331 N 
ATOM     91  C   UNL A   1      31.228  23.343  25.140  1.00  0.00     0.262 C 
ATOM     92  H   UNL A   1      32.502  24.403  23.992  1.00  0.00     0.348 HD
BRANCH  90  93
ATOM     93  C   UNL A   1      32.079  22.750  22.915  1.00  0.00     0.299 C 
BRANCH  93  94
ATOM     94  C   UNL A   1      32.808  21.584  23.562  1.00  0.00     0.010 A 
ATOM     95  C   UNL A   1      34.027  21.779  24.224  1.00  0.00     0.010 A 
ATOM     96  C   UNL A   1      32.216  20.311  23.596  1.00  0.00     0.056 A 
ATOM     97  C   UNL A   1      34.604  20.739  24.952  1.00  0.00     0.004 A 
ATOM     98  C   UNL A   1      32.736  19.298  24.398  1.00  0.00     0.119 A 
ATOM     99  C   UNL A   1      33.947  19.512  25.056  1.00  0.00     0.046 A 
BRANCH  98 100
ATOM    100  O   UNL A   1      32.137  18.095  24.656  1.00  0.00    -0.491 OA
BRANCH 100 101
ATOM    101  C   UNL A   1      32.745  17.201  25.597  1.00  0.00     0.257 C 
BRANCH 101 102
ATOM    102  C   UNL A   1      33.067  15.839  24.973  1.00  0.00     0.197 C 
BRANCH 102 103
ATOM    103  O   UNL A   1      33.950  15.928  23.860  1.00  0.00    -0.393 OA
ATOM    104  H   UNL A   1      33.435  16.038  23.045  1.00  0.00     0.210 HD
ENDBRANCH 102 103
ENDBRANCH 101 102
ENDBRANCH 100 101
ENDBRANCH  98 100
ENDBRANCH  93  94
ENDBRANCH  90  93
ENDBRANCH  84  86
ENDBRANCH   2  80
TORSDOF 20
ENDMDL
MODEL 2
REMARK VINA RESULT:     -12.5      1.365      2.163
REMARK SMILES O=C(NCCCNC(=O)c1cccc([C@@H]2CCC[N@@H+](Cc3cccc(OCCO)c3)C2)c1)c1ccc(-c2c3nc(c(-c4c(F)cc(S(=O)(=O)[O-])cc4F)c4ccc([nH]4)c(-c4c(F)cc(S(=O)(=O)[O-])cc4F)c4nc(c(-c5c(F)cc(S(=O)(=O)[O-])cc5F)c5ccc2[nH]5)C=C4)C=C3)cc1
REMARK SMILES IDX 7 1 8 2 9 3 6 5 5 6 4 7 3 8 1 9 2 10 33 12 34 13 98 14 35 15
REMARK SMILES IDX 97 16 36 17 37 18 38 19 91 20 39 21 96 22 90 23 92 24 40 25
REMARK SMILES IDX 95 26 89 27 88 28 41 30 75 31 54 32 74 33 55 34 58 35 73 36
REMARK SMILES IDX 93 37 56 38 57 39 72 41 94 42 59 43 42 44 43 45 52 46 44 47
REMARK SMILES IDX 45 48 51 49 53 50 46 51 47 52 48 53 49 54 50 55 76 56 77 57
REMARK SMILES IDX 86 58 78 59 79 60 85 61 87 62 80 63 81 64 82 65 83 66 84 67
REMARK SMILES IDX 60 68 61 69 70 70 62 71 63 72 69 73 71 74 64 75 65 76 66 77
REMARK SMILES IDX 67 78 68 79 10 80 11 81 32 82 12 83 14 84 13 85 15 86 16 87
REMARK SMILES IDX 31 88 17 89 19 90 18 91 20 93 21 94 22 95 30 96 23 97 25 98
REMARK SMILES IDX 24 99 26 100 27 101 28 102 29 103
REMARK H PARENT 7 4 3 11 92 29 58 40 19 92 29 104
REMARK Flexibility Score: inf
ROOT
ATOM      1  N   UNL A   1      32.681  29.708  26.981  1.00  0.00    -0.352 N 
ATOM      2  C   UNL A   1      32.040  29.913  25.780  1.00  0.00     0.251 C 
ATOM      3  O   UNL A   1      31.429  30.957  25.574  1.00  0.00    -0.269 OA
ATOM      4  H   UNL A   1      32.490  30.378  27.677  1.00  0.00     0.163 HD
ENDROOT
BRANCH   1   5
ATOM      5  C   UNL A   1      33.602  28.645  27.377  1.00  0.00     0.118 C 
BRANCH   5   6
ATOM      6  C   UNL A   1      35.049  28.979  27.082  1.00  0.00     0.042 C 
BRANCH   6   7
ATOM      7  C   UNL A   1      35.529  30.239  27.772  1.00  0.00     0.118 C 
BRANCH   7   8
ATOM      8  N   UNL A   1      35.416  30.176  29.226  1.00  0.00    -0.352 N 
ATOM      9  O   UNL A   1      36.039  29.729  31.344  1.00  0.00    -0.269 OA
ATOM     10  C   UNL A   1      36.370  29.875  30.174  1.00  0.00     0.251 C 
ATOM     11  H   UNL A   1      34.522  30.380  29.583  1.00  0.00     0.163 HD
BRANCH  10  12
ATOM     12  C   UNL A   1      37.783  29.692  29.767  1.00  0.00     0.039 A 
ATOM     13  C   UNL A   1      38.176  29.935  28.454  1.00  0.00     0.014 A 
ATOM     14  C   UNL A   1      38.725  29.248  30.702  1.00  0.00     0.014 A 
ATOM     15  C   UNL A   1      39.430  29.525  28.024  1.00  0.00     0.010 A 
ATOM     16  C   UNL A   1      40.036  28.970  30.294  1.00  0.00     0.010 A 
ATOM     17  C   UNL A   1      40.389  29.064  28.941  1.00  0.00    -0.014 A 
BRANCH  17  18
ATOM     18  C   UNL A   1      41.755  28.765  28.434  1.00  0.00     0.031 A 
ATOM     19  C   UNL A   1      42.851  29.796  28.447  1.00  0.00     0.074 A 
ATOM     20  C   UNL A   1      42.020  27.501  28.044  1.00  0.00     0.049 A 
ATOM     21  N   UNL A   1      44.111  29.655  28.119  1.00  0.00    -0.248 NA
ATOM     22  C   UNL A   1      42.495  31.161  28.865  1.00  0.00     0.031 C 
ATOM     23  C   UNL A   1      41.028  26.423  27.961  1.00  0.00     0.029 A 
ATOM     24  N   UNL A   1      43.195  26.890  27.693  1.00  0.00    -0.354 N 
ATOM     25  C   UNL A   1      44.693  30.908  28.272  1.00  0.00     0.074 A 
ATOM     26  C   UNL A   1      43.642  31.807  28.701  1.00  0.00     0.031 C 
ATOM     27  C   UNL A   1      41.648  25.271  27.669  1.00  0.00     0.029 A 
ATOM     28  C   UNL A   1      43.066  25.539  27.470  1.00  0.00     0.049 A 
ATOM     29  H   UNL A   1      44.050  27.372  27.609  1.00  0.00     0.167 HD
ATOM     30  C   UNL A   1      45.986  31.271  28.081  1.00  0.00     0.037 A 
ATOM     31  C   UNL A   1      43.982  24.614  27.133  1.00  0.00     0.037 A 
ATOM     32  C   UNL A   1      47.030  30.363  27.675  1.00  0.00     0.049 A 
ATOM     33  C   UNL A   1      45.408  25.038  26.962  1.00  0.00     0.074 A 
ATOM     34  C   UNL A   1      48.370  30.634  27.453  1.00  0.00     0.029 A 
ATOM     35  N   UNL A   1      46.856  29.006  27.439  1.00  0.00    -0.354 N 
ATOM     36  N   UNL A   1      45.933  26.231  27.107  1.00  0.00    -0.248 NA
ATOM     37  C   UNL A   1      46.368  23.996  26.574  1.00  0.00     0.031 C 
ATOM     38  C   UNL A   1      49.000  29.448  27.059  1.00  0.00     0.029 A 
ATOM     39  C   UNL A   1      48.061  28.429  27.070  1.00  0.00     0.049 A 
ATOM     40  H   UNL A   1      46.001  28.524  27.522  1.00  0.00     0.167 HD
ATOM     41  C   UNL A   1      47.283  26.086  26.816  1.00  0.00     0.074 A 
ATOM     42  C   UNL A   1      47.500  24.682  26.529  1.00  0.00     0.031 C 
ATOM     43  C   UNL A   1      48.252  27.033  26.773  1.00  0.00     0.037 A 
BRANCH  30  44
ATOM     44  C   UNL A   1      46.351  32.713  28.305  1.00  0.00     0.058 A 
ATOM     45  C   UNL A   1      46.854  33.162  29.536  1.00  0.00     0.135 A 
ATOM     46  C   UNL A   1      46.261  33.645  27.257  1.00  0.00     0.135 A 
ATOM     47  F   UNL A   1      46.946  32.318  30.576  1.00  0.00    -0.206 F 
ATOM     48  C   UNL A   1      47.241  34.485  29.726  1.00  0.00     0.059 A 
ATOM     49  C   UNL A   1      46.661  34.969  27.418  1.00  0.00     0.059 A 
ATOM     50  F   UNL A   1      45.787  33.269  26.058  1.00  0.00    -0.206 F 
ATOM     51  C   UNL A   1      47.141  35.382  28.660  1.00  0.00     0.060 A 
BRANCH  51  52
ATOM     52  S   UNL A   1      47.668  37.091  28.916  1.00  0.00     0.124 S 
ATOM     53  O   UNL A   1      46.398  37.743  29.221  1.00  0.00    -0.237 OA
ATOM     54  O   UNL A   1      48.600  36.969  30.033  1.00  0.00    -0.237 OA
ATOM     55  O   UNL A   1      48.270  37.456  27.638  1.00  0.00    -0.744 OA
ENDBRANCH  51  52
ENDBRANCH  30  44
BRANCH  31  56
ATOM     56  C   UNL A   1      43.561  23.205  26.916  1.00  0.00     0.058 A 
ATOM     57  C   UNL A   1      43.229  22.369  27.991  1.00  0.00     0.135 A 
ATOM     58  C   UNL A   1      43.455  22.680  25.618  1.00  0.00     0.135 A 
ATOM     59  F   UNL A   1      43.315  22.827  29.249  1.00  0.00    -0.206 F 
ATOM     60  C   UNL A   1      42.820  21.055  27.789  1.00  0.00     0.059 A 
ATOM     61  C   UNL A   1      43.021  21.380  25.389  1.00  0.00     0.059 A 
ATOM     62  F   UNL A   1      43.740  23.449  24.556  1.00  0.00    -0.206 F 
ATOM     63  C   UNL A   1      42.719  20.570  26.483  1.00  0.00     0.060 A 
BRANCH  63  64
ATOM     64  S   UNL A   1      42.139  18.881  26.218  1.00  0.00     0.124 S 
ATOM     65  O   UNL A   1      42.260  18.318  27.557  1.00  0.00    -0.237 OA
ATOM     66  O   UNL A   1      40.779  19.089  25.731  1.00  0.00    -0.237 OA
ATOM     67  O   UNL A   1      43.076  18.362  25.225  1.00  0.00    -0.744 OA
ENDBRANCH  63  64
ENDBRANCH  31  56
BRANCH  43  68
ATOM     68  C   UNL A   1      49.628  26.566  26.397  1.00  0.00     0.058 A 
ATOM     69  C   UNL A   1      50.105  26.690  25.082  1.00  0.00     0.135 A 
ATOM     70  C   UNL A   1      50.475  25.987  27.354  1.00  0.00     0.135 A 
ATOM     71  F   UNL A   1      49.328  27.231  24.130  1.00  0.00    -0.206 F 
ATOM     72  C   UNL A   1      51.360  26.218  24.719  1.00  0.00     0.059 A 
ATOM     73  C   UNL A   1      51.744  25.529  27.017  1.00  0.00     0.059 A 
ATOM     74  F   UNL A   1      50.067  25.854  28.625  1.00  0.00    -0.206 F 
ATOM     75  C   UNL A   1      52.170  25.631  25.694  1.00  0.00     0.060 A 
BRANCH  75  76
ATOM     76  S   UNL A   1      53.797  25.015  25.214  1.00  0.00     0.124 S 
ATOM     77  O   UNL A   1      54.018  25.722  23.956  1.00  0.00    -0.237 OA
ATOM     78  O   UNL A   1      54.637  25.433  26.332  1.00  0.00    -0.237 OA
ATOM     79  O   UNL A   1      53.591  23.575  25.098  1.00  0.00    -0.744 OA
ENDBRANCH  75  76
ENDBRANCH  43  68
ENDBRANCH  17  18
ENDBRANCH  10  12
ENDBRANCH   7   8
ENDBRANCH   6   7
ENDBRANCH   5   6
ENDBRANCH   1   5
BRANCH   2  80
ATOM     80  C   UNL A   1      32.091  28.870  24.734  1.00  0.00     0.040 A 
ATOM     81  C   UNL A   1      33.185  28.790  23.875  1.00  0.00     0.014 A 
ATOM     82  C   UNL A   1      31.054  27.941  24.640  1.00  0.00     0.018 A 
ATOM     83  C   UNL A   1      33.270  27.723  22.982  1.00  0.00     0.001 A 
ATOM     84  C   UNL A   1      31.162  26.821  23.817  1.00  0.00    -0.039 A 
ATOM     85  C   UNL A   1      32.280  26.732  22.972  1.00  0.00     0.004 A 
BRANCH  84  86
ATOM     86  C   UNL A   1      30.180  25.667  23.936  1.00  0.00     0.074 C 
ATOM     87  C   UNL A   1      29.446  25.571  25.283  1.00  0.00     0.020 C 
ATOM     88  C   UNL A   1      30.835  24.313  23.560  1.00  0.00     0.270 C 
ATOM     89  C   UNL A   1      30.205  24.800  26.362  1.00  0.00     0.062 C 
ATOM     90  N   UNL A   1      31.596  23.655  24.639  1.00  0.00    -0.331 N 
ATOM     91  C   UNL A   1      30.784  23.483  25.848  1.00  0.00     0.262 C 
ATOM     92  H   UNL A   1      32.362  24.284  24.882  1.00  0.00     0.348 HD
BRANCH  90  93
ATOM     93  C   UNL A   1      32.238  22.389  24.200  1.00  0.00     0.299 C 
BRANCH  93  94
ATOM     94  C   UNL A   1      33.741  22.449  23.983  1.00  0.00     0.010 A 
ATOM     95  C   UNL A   1      34.281  23.158  22.902  1.00  0.00     0.010 A 
ATOM     96  C   UNL A   1      34.615  21.882  24.924  1.00  0.00     0.056 A 
ATOM     97  C   UNL A   1      35.659  23.345  22.804  1.00  0.00     0.004 A 
ATOM     98  C   UNL A   1      35.982  22.145  24.885  1.00  0.00     0.119 A 
ATOM     99  C   UNL A   1      36.502  22.859  23.805  1.00  0.00     0.046 A 
BRANCH  98 100
ATOM    100  O   UNL A   1      36.890  21.810  25.853  1.00  0.00    -0.491 OA
BRANCH 100 101
ATOM    101  C   UNL A   1      38.241  21.519  25.471  1.00  0.00     0.257 C 
BRANCH 101 102
ATOM    102  C   UNL A   1      39.257  22.135  26.439  1.00  0.00     0.197 C 
BRANCH 102 103
ATOM    103  O   UNL A   1      38.811  23.356  27.019  1.00  0.00    -0.393 OA
ATOM    104  H   UNL A   1      38.157  23.166  27.710  1.00  0.00     0.210 HD
ENDBRANCH 102 103
ENDBRANCH 101 102
ENDBRANCH 100 101
ENDBRANCH  98 100
ENDBRANCH  93  94
ENDBRANCH  90  93
ENDBRANCH  84  86
ENDBRANCH   2  80
TORSDOF 20
ENDMDL
MODEL 3
REMARK VINA RESULT:     -12.1      6.592     12.233
REMARK SMILES O=C(NCCCNC(=O)c1cccc([C@@H]2CCC[N@@H+](Cc3cccc(OCCO)c3)C2)c1)c1ccc(-c2c3nc(c(-c4c(F)cc(S(=O)(=O)[O-])cc4F)c4ccc([nH]4)c(-c4c(F)cc(S(=O)(=O)[O-])cc4F)c4nc(c(-c5c(F)cc(S(=O)(=O)[O-])cc5F)c5ccc2[nH]5)C=C4)C=C3)cc1
REMARK SMILES IDX 7 1 8 2 9 3 6 5 5 6 4 7 3 8 1 9 2 10 33 12 34 13 98 14 35 15
REMARK SMILES IDX 97 16 36 17 37 18 38 19 91 20 39 21 96 22 90 23 92 24 40 25
REMARK SMILES IDX 95 26 89 27 88 28 41 30 75 31 54 32 74 33 55 34 58 35 73 36
REMARK SMILES IDX 93 37 56 38 57 39 72 41 94 42 59 43 42 44 43 45 52 46 44 47
REMARK SMILES IDX 45 48 51 49 53 50 46 51 47 52 48 53 49 54 50 55 76 56 77 57
REMARK SMILES IDX 86 58 78 59 79 60 85 61 87 62 80 63 81 64 82 65 83 66 84 67
REMARK SMILES IDX 60 68 61 69 70 70 62 71 63 72 69 73 71 74 64 75 65 76 66 77
REMARK SMILES IDX 67 78 68 79 10 80 11 81 32 82 12 83 14 84 13 85 15 86 16 87
REMARK SMILES IDX 31 88 17 89 19 90 18 91 20 93 21 94 22 95 30 96 23 97 25 98
REMARK SMILES IDX 24 99 26 100 27 101 28 102 29 103
REMARK H PARENT 7 4 3 11 92 29 58 40 19 92 29 104
REMARK Flexibility Score: inf
ROOT
ATOM      1  N   UNL A   1      39.126  20.929  25.741  1.00  0.00    -0.352 N 
ATOM      2  C   UNL A   1      37.911  20.707  25.133  1.00  0.00     0.251 C 
ATOM      3  O   UNL A   1      37.646  19.605  24.662  1.00  0.00    -0.269 OA
ATOM      4  H   UNL A   1      39.785  20.205  25.638  1.00  0.00     0.163 HD
ENDROOT
BRANCH   1   5
ATOM      5  C   UNL A   1      39.584  22.081  26.516  1.00  0.00     0.118 C 
BRANCH   5   6
ATOM      6  C   UNL A   1      40.916  21.840  27.197  1.00  0.00     0.042 C 
BRANCH   6   7
ATOM      7  C   UNL A   1      41.759  23.091  27.329  1.00  0.00     0.118 C 
BRANCH   7   8
ATOM      8  N   UNL A   1      41.653  23.980  26.177  1.00  0.00    -0.352 N 
ATOM      9  O   UNL A   1      41.202  25.875  25.045  1.00  0.00    -0.269 OA
ATOM     10  C   UNL A   1      41.400  25.334  26.126  1.00  0.00     0.251 C 
ATOM     11  H   UNL A   1      41.783  23.546  25.303  1.00  0.00     0.163 HD
BRANCH  10  12
ATOM     12  C   UNL A   1      41.330  26.120  27.381  1.00  0.00     0.039 A 
ATOM     13  C   UNL A   1      40.308  25.894  28.299  1.00  0.00     0.014 A 
ATOM     14  C   UNL A   1      42.282  27.113  27.634  1.00  0.00     0.014 A 
ATOM     15  C   UNL A   1      40.105  26.791  29.337  1.00  0.00     0.010 A 
ATOM     16  C   UNL A   1      42.156  27.930  28.765  1.00  0.00     0.010 A 
ATOM     17  C   UNL A   1      41.040  27.805  29.604  1.00  0.00    -0.014 A 
BRANCH  17  18
ATOM     18  C   UNL A   1      40.831  28.651  30.810  1.00  0.00     0.031 A 
ATOM     19  C   UNL A   1      41.745  28.575  32.002  1.00  0.00     0.074 A 
ATOM     20  C   UNL A   1      39.842  29.568  30.772  1.00  0.00     0.049 A 
ATOM     21  N   UNL A   1      41.739  29.310  33.086  1.00  0.00    -0.248 NA
ATOM     22  C   UNL A   1      42.792  27.541  31.991  1.00  0.00     0.031 C 
ATOM     23  C   UNL A   1      38.872  29.713  29.680  1.00  0.00     0.029 A 
ATOM     24  N   UNL A   1      39.513  30.578  31.637  1.00  0.00    -0.354 N 
ATOM     25  C   UNL A   1      42.761  28.821  33.891  1.00  0.00     0.074 A 
ATOM     26  C   UNL A   1      43.355  27.708  33.182  1.00  0.00     0.031 C 
ATOM     27  C   UNL A   1      38.118  30.798  29.899  1.00  0.00     0.029 A 
ATOM     28  C   UNL A   1      38.496  31.383  31.178  1.00  0.00     0.049 A 
ATOM     29  H   UNL A   1      39.961  30.715  32.502  1.00  0.00     0.167 HD
ATOM     30  C   UNL A   1      43.170  29.266  35.105  1.00  0.00     0.037 A 
ATOM     31  C   UNL A   1      37.920  32.467  31.726  1.00  0.00     0.037 A 
ATOM     32  C   UNL A   1      42.585  30.389  35.795  1.00  0.00     0.049 A 
ATOM     33  C   UNL A   1      38.415  32.956  33.053  1.00  0.00     0.074 A 
ATOM     34  C   UNL A   1      42.928  30.917  37.029  1.00  0.00     0.029 A 
ATOM     35  N   UNL A   1      41.543  31.166  35.307  1.00  0.00    -0.354 N 
ATOM     36  N   UNL A   1      39.381  32.472  33.798  1.00  0.00    -0.248 NA
ATOM     37  C   UNL A   1      37.742  34.132  33.620  1.00  0.00     0.031 C 
ATOM     38  C   UNL A   1      42.077  31.996  37.298  1.00  0.00     0.029 A 
ATOM     39  C   UNL A   1      41.229  32.164  36.216  1.00  0.00     0.049 A 
ATOM     40  H   UNL A   1      41.094  31.029  34.442  1.00  0.00     0.167 HD
ATOM     41  C   UNL A   1      39.422  33.276  34.928  1.00  0.00     0.074 A 
ATOM     42  C   UNL A   1      38.415  34.303  34.748  1.00  0.00     0.031 C 
ATOM     43  C   UNL A   1      40.212  33.166  36.025  1.00  0.00     0.037 A 
BRANCH  30  44
ATOM     44  C   UNL A   1      44.303  28.538  35.775  1.00  0.00     0.058 A 
ATOM     45  C   UNL A   1      45.638  28.932  35.597  1.00  0.00     0.135 A 
ATOM     46  C   UNL A   1      44.048  27.474  36.658  1.00  0.00     0.135 A 
ATOM     47  F   UNL A   1      45.940  29.932  34.754  1.00  0.00    -0.206 F 
ATOM     48  C   UNL A   1      46.681  28.292  36.259  1.00  0.00     0.059 A 
ATOM     49  C   UNL A   1      45.075  26.831  37.345  1.00  0.00     0.059 A 
ATOM     50  F   UNL A   1      42.790  27.056  36.865  1.00  0.00    -0.206 F 
ATOM     51  C   UNL A   1      46.390  27.242  37.132  1.00  0.00     0.060 A 
BRANCH  51  52
ATOM     52  S   UNL A   1      47.753  26.434  37.999  1.00  0.00     0.124 S 
ATOM     53  O   UNL A   1      48.673  27.550  38.197  1.00  0.00    -0.237 OA
ATOM     54  O   UNL A   1      47.102  25.929  39.205  1.00  0.00    -0.237 OA
ATOM     55  O   UNL A   1      48.198  25.412  37.057  1.00  0.00    -0.744 OA
ENDBRANCH  51  52
ENDBRANCH  30  44
BRANCH  31  56
ATOM     56  C   UNL A   1      36.798  33.141  31.022  1.00  0.00     0.058 A 
ATOM     57  C   UNL A   1      37.018  33.928  29.885  1.00  0.00     0.135 A 
ATOM     58  C   UNL A   1      35.475  32.980  31.464  1.00  0.00     0.135 A 
ATOM     59  F   UNL A   1      38.265  34.112  29.426  1.00  0.00    -0.206 F 
ATOM     60  C   UNL A   1      35.966  34.547  29.215  1.00  0.00     0.059 A 
ATOM     61  C   UNL A   1      34.405  33.564  30.796  1.00  0.00     0.059 A 
ATOM     62  F   UNL A   1      35.211  32.216  32.536  1.00  0.00    -0.206 F 
ATOM     63  C   UNL A   1      34.663  34.358  29.679  1.00  0.00     0.060 A 
BRANCH  63  64
ATOM     64  S   UNL A   1      33.294  35.119  28.782  1.00  0.00     0.124 S 
ATOM     65  O   UNL A   1      32.417  35.520  29.875  1.00  0.00    -0.237 OA
ATOM     66  O   UNL A   1      33.956  36.202  28.061  1.00  0.00    -0.237 OA
ATOM     67  O   UNL A   1      32.802  34.030  27.942  1.00  0.00    -0.744 OA
ENDBRANCH  63  64
ENDBRANCH  31  56
BRANCH  43  68
ATOM     68  C   UNL A   1      40.002  34.185  37.107  1.00  0.00     0.058 A 
ATOM     69  C   UNL A   1      39.174  33.916  38.208  1.00  0.00     0.135 A 
ATOM     70  C   UNL A   1      40.627  35.439  37.041  1.00  0.00     0.135 A 
ATOM     71  F   UNL A   1      38.548  32.733  38.311  1.00  0.00    -0.206 F 
ATOM     72  C   UNL A   1      38.941  34.873  39.189  1.00  0.00     0.059 A 
ATOM     73  C   UNL A   1      40.426  36.402  38.024  1.00  0.00     0.059 A 
ATOM     74  F   UNL A   1      41.435  35.738  36.012  1.00  0.00    -0.206 F 
ATOM     75  C   UNL A   1      39.566  36.117  39.084  1.00  0.00     0.060 A 
BRANCH  75  76
ATOM     76  S   UNL A   1      39.254  37.356  40.358  1.00  0.00     0.124 S 
ATOM     77  O   UNL A   1      38.559  36.566  41.369  1.00  0.00    -0.237 OA
ATOM     78  O   UNL A   1      40.601  37.794  40.711  1.00  0.00    -0.237 OA
ATOM     79  O   UNL A   1      38.440  38.351  39.667  1.00  0.00    -0.744 OA
ENDBRANCH  75  76
ENDBRANCH  43  68
ENDBRANCH  17  18
ENDBRANCH  10  12
ENDBRANCH   7   8
ENDBRANCH   6   7
ENDBRANCH   5   6
ENDBRANCH   1   5
BRANCH   2  80
ATOM     80  C   UNL A   1      36.922  21.801  25.049  1.00  0.00     0.040 A 
ATOM     81  C   UNL A   1      36.984  22.725  24.008  1.00  0.00     0.014 A 
ATOM     82  C   UNL A   1      35.902  21.879  25.998  1.00  0.00     0.018 A 
ATOM     83  C   UNL A   1      35.967  23.671  23.879  1.00  0.00     0.001 A 
ATOM     84  C   UNL A   1      34.832  22.758  25.837  1.00  0.00    -0.039 A 
ATOM     85  C   UNL A   1      34.887  23.670  24.770  1.00  0.00     0.004 A 
BRANCH  84  86
ATOM     86  C   UNL A   1      33.585  22.637  26.697  1.00  0.00     0.074 C 
ATOM     87  C   UNL A   1      32.761  21.359  26.475  1.00  0.00     0.020 C 
ATOM     88  C   UNL A   1      32.693  23.900  26.598  1.00  0.00     0.270 C 
ATOM     89  C   UNL A   1      31.747  21.451  25.335  1.00  0.00     0.062 C 
ATOM     90  N   UNL A   1      31.779  23.942  25.441  1.00  0.00    -0.331 N 
ATOM     91  C   UNL A   1      30.935  22.744  25.374  1.00  0.00     0.262 C 
ATOM     92  H   UNL A   1      32.364  23.941  24.606  1.00  0.00     0.348 HD
BRANCH  90  93
ATOM     93  C   UNL A   1      30.988  25.199  25.378  1.00  0.00     0.299 C 
BRANCH  93  94
ATOM     94  C   UNL A   1      31.505  26.258  24.418  1.00  0.00     0.010 A 
ATOM     95  C   UNL A   1      32.851  26.280  24.032  1.00  0.00     0.010 A 
ATOM     96  C   UNL A   1      30.615  27.167  23.823  1.00  0.00     0.056 A 
ATOM     97  C   UNL A   1      33.279  27.149  23.029  1.00  0.00     0.004 A 
ATOM     98  C   UNL A   1      31.014  27.970  22.757  1.00  0.00     0.119 A 
ATOM     99  C   UNL A   1      32.358  27.973  22.381  1.00  0.00     0.046 A 
BRANCH  98 100
ATOM    100  O   UNL A   1      30.190  28.740  21.983  1.00  0.00    -0.491 OA
BRANCH 100 101
ATOM    101  C   UNL A   1      29.365  29.729  22.613  1.00  0.00     0.257 C 
BRANCH 101 102
ATOM    102  C   UNL A   1      28.374  30.363  21.631  1.00  0.00     0.197 C 
BRANCH 102 103
ATOM    103  O   UNL A   1      28.931  31.443  20.891  1.00  0.00    -0.393 OA
ATOM    104  H   UNL A   1      29.892  31.328  20.823  1.00  0.00     0.210 HD
ENDBRANCH 102 103
ENDBRANCH 101 102
ENDBRANCH 100 101
ENDBRANCH  98 100
ENDBRANCH  93  94
ENDBRANCH  90  93
ENDBRANCH  84  86
ENDBRANCH   2  80
TORSDOF 20
ENDMDL
