MODEL 1
REMARK VINA RESULT:     -11.9      0.000      0.000
REMARK SMILES Cc1cc2c(c(C)c1Cl)C=C(C(=O)NCCCNC(=O)c1ccc(-c3c4nc(c(-c5c(F)cc(S(=O)(=O)[O-])cc5F)c5ccc([nH]5)c(-c5c(F)cc(S(=O)(=O)[O-])cc5F)c5nc(c(-c6c(F)cc(S(=O)(=O)[O-])cc6F)c6ccc3[nH]6)C=C5)C=C4)cc1)[C@@H](C(F)(F)F)O2
REMARK SMILES IDX 17 1 16 2 15 3 14 4 12 5 13 6 11 8 1 9 2 10 3 11 8 12 4 13
REMARK SMILES IDX 6 14 9 15 5 16 92 17 7 18 10 19 87 20 88 21 89 22 90 23
REMARK SMILES IDX 91 24 18 25 19 26 20 28 21 29 22 30 86 31 23 32 85 33 24 34
REMARK SMILES IDX 25 35 26 36 79 37 27 38 84 39 78 40 80 41 28 42 83 43 77 44
REMARK SMILES IDX 76 45 29 47 63 48 42 49 62 50 43 51 46 52 61 53 81 54 44 55
REMARK SMILES IDX 45 56 60 58 82 59 47 60 30 61 31 62 40 63 32 64 33 65 39 66
REMARK SMILES IDX 41 67 34 68 35 69 36 70 37 71 38 72 64 73 65 74 74 75 66 76
REMARK SMILES IDX 67 77 73 78 75 79 68 80 69 81 70 82 71 83 72 84 48 85 49 86
REMARK SMILES IDX 58 87 50 88 51 89 57 90 59 91 52 92 53 93 54 94 55 95 56 96
REMARK H PARENT 14 7 18 27 80 46 46 57
REMARK Flexibility Score: inf
ROOT
ATOM      1  C   UNL A   1      33.786  28.266  26.731  1.00  0.00     0.118 C 
ENDROOT
BRANCH   1   2
ATOM      2  C   UNL A   1      33.952  28.210  25.218  1.00  0.00     0.042 C 
BRANCH   2   3
ATOM      3  C   UNL A   1      33.073  27.142  24.584  1.00  0.00     0.118 C 
BRANCH   3   4
ATOM      4  N   UNL A   1      32.164  26.542  25.549  1.00  0.00    -0.352 N 
ATOM      5  C   UNL A   1      31.948  25.317  26.081  1.00  0.00     0.251 C 
ATOM      6  O   UNL A   1      31.039  25.257  26.916  1.00  0.00    -0.270 OA
ATOM      7  H   UNL A   1      31.536  27.206  25.913  1.00  0.00     0.163 HD
BRANCH   5   8
ATOM      8  C   UNL A   1      32.719  24.086  25.741  1.00  0.00     0.067 C 
ATOM      9  C   UNL A   1      37.004  19.292  24.805  1.00  0.00     0.046 C 
ATOM     10  C   UNL A   1      36.332  20.602  25.120  1.00  0.00    -0.028 A 
ATOM     11  C   UNL A   1      34.935  20.616  25.057  1.00  0.00     0.052 A 
ATOM     12  C   UNL A   1      37.006  21.783  25.493  1.00  0.00     0.047 A 
ATOM     13  C   UNL A   1      34.223  21.775  25.336  1.00  0.00     0.128 A 
ATOM     14  C   UNL A   1      36.289  22.972  25.787  1.00  0.00    -0.021 A 
ATOM     15  Cl  UNL A   1      38.740  21.761  25.599  1.00  0.00    -0.084 Cl
ATOM     16  C   UNL A   1      34.875  22.955  25.707  1.00  0.00     0.022 A 
ATOM     17  O   UNL A   1      32.867  21.654  25.263  1.00  0.00    -0.475 OA
ATOM     18  C   UNL A   1      36.989  24.250  26.188  1.00  0.00     0.047 C 
ATOM     19  C   UNL A   1      34.033  24.111  26.035  1.00  0.00     0.026 C 
ATOM     20  C   UNL A   1      32.119  22.881  25.084  1.00  0.00     0.314 C 
BRANCH  20  21
ATOM     21  C   UNL A   1      31.848  23.098  23.582  1.00  0.00     0.429 C 
ATOM     22  F   UNL A   1      32.697  24.027  23.075  1.00  0.00    -0.167 F 
ATOM     23  F   UNL A   1      32.028  21.975  22.849  1.00  0.00    -0.167 F 
ATOM     24  F   UNL A   1      30.589  23.524  23.336  1.00  0.00    -0.167 F 
ENDBRANCH  20  21
ENDBRANCH   5   8
ENDBRANCH   3   4
ENDBRANCH   2   3
ENDBRANCH   1   2
BRANCH   1  25
ATOM     25  N   UNL A   1      33.642  29.640  27.207  1.00  0.00    -0.352 N 
ATOM     26  C   UNL A   1      34.470  30.390  28.004  1.00  0.00     0.251 C 
ATOM     27  H   UNL A   1      32.823  30.099  26.911  1.00  0.00     0.163 HD
ATOM     28  O   UNL A   1      34.040  31.412  28.535  1.00  0.00    -0.269 OA
BRANCH  26  29
ATOM     29  C   UNL A   1      35.867  29.969  28.218  1.00  0.00     0.039 A 
ATOM     30  C   UNL A   1      36.793  30.098  27.180  1.00  0.00     0.014 A 
ATOM     31  C   UNL A   1      36.254  29.421  29.444  1.00  0.00     0.014 A 
ATOM     32  C   UNL A   1      38.123  29.735  27.398  1.00  0.00     0.010 A 
ATOM     33  C   UNL A   1      37.593  29.159  29.691  1.00  0.00     0.010 A 
ATOM     34  C   UNL A   1      38.538  29.295  28.666  1.00  0.00    -0.014 A 
BRANCH  34  35
ATOM     35  C   UNL A   1      39.950  28.933  28.937  1.00  0.00     0.031 A 
ATOM     36  C   UNL A   1      40.877  29.955  29.539  1.00  0.00     0.074 A 
ATOM     37  C   UNL A   1      40.405  27.716  28.586  1.00  0.00     0.049 A 
ATOM     38  N   UNL A   1      42.158  29.864  29.782  1.00  0.00    -0.248 NA
ATOM     39  C   UNL A   1      40.293  31.264  29.883  1.00  0.00     0.031 C 
ATOM     40  C   UNL A   1      39.606  26.663  27.953  1.00  0.00     0.029 A 
ATOM     41  N   UNL A   1      41.652  27.157  28.706  1.00  0.00    -0.354 N 
ATOM     42  C   UNL A   1      42.532  31.099  30.297  1.00  0.00     0.074 A 
ATOM     43  C   UNL A   1      41.361  31.947  30.266  1.00  0.00     0.031 C 
ATOM     44  C   UNL A   1      40.373  25.576  27.775  1.00  0.00     0.029 A 
ATOM     45  C   UNL A   1      41.726  25.865  28.240  1.00  0.00     0.049 A 
ATOM     46  H   UNL A   1      42.422  27.636  29.090  1.00  0.00     0.167 HD
ATOM     47  C   UNL A   1      43.735  31.482  30.785  1.00  0.00     0.037 A 
ATOM     48  C   UNL A   1      42.769  25.014  28.194  1.00  0.00     0.037 A 
ATOM     49  C   UNL A   1      44.884  30.618  30.839  1.00  0.00     0.049 A 
ATOM     50  C   UNL A   1      44.100  25.465  28.729  1.00  0.00     0.074 A 
ATOM     51  C   UNL A   1      46.136  30.888  31.360  1.00  0.00     0.029 A 
ATOM     52  N   UNL A   1      44.919  29.317  30.361  1.00  0.00    -0.354 N 
ATOM     53  N   UNL A   1      44.425  26.620  29.261  1.00  0.00    -0.248 NA
ATOM     54  C   UNL A   1      45.206  24.501  28.660  1.00  0.00     0.031 C 
ATOM     55  C   UNL A   1      46.943  29.764  31.155  1.00  0.00     0.029 A 
ATOM     56  C   UNL A   1      46.179  28.777  30.553  1.00  0.00     0.049 A 
ATOM     57  H   UNL A   1      44.160  28.846  29.946  1.00  0.00     0.167 HD
ATOM     58  C   UNL A   1      45.766  26.516  29.609  1.00  0.00     0.074 A 
ATOM     59  C   UNL A   1      46.188  25.179  29.241  1.00  0.00     0.031 C 
ATOM     60  C   UNL A   1      46.577  27.442  30.179  1.00  0.00     0.037 A 
BRANCH  47  61
ATOM     61  C   UNL A   1      43.863  32.883  31.315  1.00  0.00     0.058 A 
ATOM     62  C   UNL A   1      44.254  33.948  30.485  1.00  0.00     0.135 A 
ATOM     63  C   UNL A   1      43.553  33.176  32.652  1.00  0.00     0.135 A 
ATOM     64  F   UNL A   1      44.582  33.723  29.203  1.00  0.00    -0.206 F 
ATOM     65  C   UNL A   1      44.354  35.248  30.970  1.00  0.00     0.059 A 
ATOM     66  C   UNL A   1      43.618  34.474  33.150  1.00  0.00     0.059 A 
ATOM     67  F   UNL A   1      43.179  32.195  33.489  1.00  0.00    -0.206 F 
ATOM     68  C   UNL A   1      44.030  35.502  32.303  1.00  0.00     0.060 A 
BRANCH  68  69
ATOM     69  S   UNL A   1      44.150  37.198  32.906  1.00  0.00     0.124 S 
ATOM     70  O   UNL A   1      43.005  37.269  33.808  1.00  0.00    -0.237 OA
ATOM     71  O   UNL A   1      45.461  37.207  33.547  1.00  0.00    -0.237 OA
ATOM     72  O   UNL A   1      44.041  38.001  31.693  1.00  0.00    -0.744 OA
ENDBRANCH  68  69
ENDBRANCH  47  61
BRANCH  48  73
ATOM     73  C   UNL A   1      42.578  23.640  27.654  1.00  0.00     0.058 A 
ATOM     74  C   UNL A   1      42.644  23.395  26.275  1.00  0.00     0.135 A 
ATOM     75  C   UNL A   1      42.368  22.543  28.503  1.00  0.00     0.135 A 
ATOM     76  F   UNL A   1      42.839  24.413  25.423  1.00  0.00    -0.206 F 
ATOM     77  C   UNL A   1      42.504  22.114  25.754  1.00  0.00     0.059 A 
ATOM     78  C   UNL A   1      42.249  21.247  28.008  1.00  0.00     0.059 A 
ATOM     79  F   UNL A   1      42.314  22.720  29.832  1.00  0.00    -0.206 F 
ATOM     80  C   UNL A   1      42.313  21.044  26.630  1.00  0.00     0.060 A 
BRANCH  80  81
ATOM     81  S   UNL A   1      42.197  19.377  25.944  1.00  0.00     0.124 S 
ATOM     82  O   UNL A   1      42.710  18.569  27.045  1.00  0.00    -0.237 OA
ATOM     83  O   UNL A   1      40.767  19.258  25.676  1.00  0.00    -0.237 OA
ATOM     84  O   UNL A   1      43.047  19.441  24.758  1.00  0.00    -0.744 OA
ENDBRANCH  80  81
ENDBRANCH  48  73
BRANCH  60  85
ATOM     85  C   UNL A   1      47.999  27.045  30.455  1.00  0.00     0.058 A 
ATOM     86  C   UNL A   1      49.048  27.447  29.613  1.00  0.00     0.135 A 
ATOM     87  C   UNL A   1      48.326  26.328  31.618  1.00  0.00     0.135 A 
ATOM     88  F   UNL A   1      48.788  28.129  28.486  1.00  0.00    -0.206 F 
ATOM     89  C   UNL A   1      50.371  27.142  29.909  1.00  0.00     0.059 A 
ATOM     90  C   UNL A   1      49.645  26.037  31.948  1.00  0.00     0.059 A 
ATOM     91  F   UNL A   1      47.360  25.931  32.462  1.00  0.00    -0.206 F 
ATOM     92  C   UNL A   1      50.661  26.443  31.083  1.00  0.00     0.060 A 
BRANCH  92  93
ATOM     93  S   UNL A   1      52.388  26.099  31.475  1.00  0.00     0.124 S 
ATOM     94  O   UNL A   1      52.734  27.243  32.311  1.00  0.00    -0.237 OA
ATOM     95  O   UNL A   1      52.299  24.814  32.163  1.00  0.00    -0.237 OA
ATOM     96  O   UNL A   1      53.035  26.059  30.167  1.00  0.00    -0.744 OA
ENDBRANCH  92  93
ENDBRANCH  60  85
ENDBRANCH  34  35
ENDBRANCH  26  29
ENDBRANCH   1  25
TORSDOF 14
ENDMDL
MODEL 2
REMARK VINA RESULT:     -11.8      3.099      4.017
REMARK SMILES Cc1cc2c(c(C)c1Cl)C=C(C(=O)NCCCNC(=O)c1ccc(-c3c4nc(c(-c5c(F)cc(S(=O)(=O)[O-])cc5F)c5ccc([nH]5)c(-c5c(F)cc(S(=O)(=O)[O-])cc5F)c5nc(c(-c6c(F)cc(S(=O)(=O)[O-])cc6F)c6ccc3[nH]6)C=C5)C=C4)cc1)[C@@H](C(F)(F)F)O2
REMARK SMILES IDX 17 1 16 2 15 3 14 4 12 5 13 6 11 8 1 9 2 10 3 11 8 12 4 13
REMARK SMILES IDX 6 14 9 15 5 16 92 17 7 18 10 19 87 20 88 21 89 22 90 23
REMARK SMILES IDX 91 24 18 25 19 26 20 28 21 29 22 30 86 31 23 32 85 33 24 34
REMARK SMILES IDX 25 35 26 36 79 37 27 38 84 39 78 40 80 41 28 42 83 43 77 44
REMARK SMILES IDX 76 45 29 47 63 48 42 49 62 50 43 51 46 52 61 53 81 54 44 55
REMARK SMILES IDX 45 56 60 58 82 59 47 60 30 61 31 62 40 63 32 64 33 65 39 66
REMARK SMILES IDX 41 67 34 68 35 69 36 70 37 71 38 72 64 73 65 74 74 75 66 76
REMARK SMILES IDX 67 77 73 78 75 79 68 80 69 81 70 82 71 83 72 84 48 85 49 86
REMARK SMILES IDX 58 87 50 88 51 89 57 90 59 91 52 92 53 93 54 94 55 95 56 96
REMARK H PARENT 14 7 18 27 80 46 46 57
REMARK Flexibility Score: inf
ROOT
ATOM      1  C   UNL A   1      35.558  31.005  27.985  1.00  0.00     0.118 C 
ENDROOT
BRANCH   1   2
ATOM      2  C   UNL A   1      34.832  29.839  27.325  1.00  0.00     0.042 C 
BRANCH   2   3
ATOM      3  C   UNL A   1      33.420  30.210  26.900  1.00  0.00     0.118 C 
BRANCH   3   4
ATOM      4  N   UNL A   1      32.418  29.382  27.555  1.00  0.00    -0.352 N 
ATOM      5  C   UNL A   1      31.726  28.254  27.277  1.00  0.00     0.251 C 
ATOM      6  O   UNL A   1      30.953  27.877  28.164  1.00  0.00    -0.270 OA
ATOM      7  H   UNL A   1      32.180  29.739  28.440  1.00  0.00     0.163 HD
BRANCH   5   8
ATOM      8  C   UNL A   1      31.843  27.465  26.016  1.00  0.00     0.067 C 
ATOM      9  C   UNL A   1      33.169  23.370  21.149  1.00  0.00     0.046 C 
ATOM     10  C   UNL A   1      33.179  24.153  22.435  1.00  0.00    -0.028 A 
ATOM     11  C   UNL A   1      32.108  25.030  22.637  1.00  0.00     0.052 A 
ATOM     12  C   UNL A   1      34.162  24.041  23.438  1.00  0.00     0.047 A 
ATOM     13  C   UNL A   1      32.024  25.793  23.794  1.00  0.00     0.128 A 
ATOM     14  C   UNL A   1      34.083  24.810  24.629  1.00  0.00    -0.021 A 
ATOM     15  Cl  UNL A   1      35.479  22.931  23.203  1.00  0.00    -0.084 Cl
ATOM     16  C   UNL A   1      32.990  25.695  24.799  1.00  0.00     0.022 A 
ATOM     17  O   UNL A   1      30.921  26.591  23.883  1.00  0.00    -0.475 OA
ATOM     18  C   UNL A   1      35.126  24.708  25.718  1.00  0.00     0.047 C 
ATOM     19  C   UNL A   1      32.784  26.500  26.008  1.00  0.00     0.026 C 
ATOM     20  C   UNL A   1      31.009  27.710  24.797  1.00  0.00     0.314 C 
BRANCH  20  21
ATOM     21  C   UNL A   1      31.449  28.969  24.023  1.00  0.00     0.429 C 
ATOM     22  F   UNL A   1      30.967  30.087  24.621  1.00  0.00    -0.167 F 
ATOM     23  F   UNL A   1      32.794  29.111  23.974  1.00  0.00    -0.167 F 
ATOM     24  F   UNL A   1      31.011  28.974  22.744  1.00  0.00    -0.167 F 
ENDBRANCH  20  21
ENDBRANCH   5   8
ENDBRANCH   3   4
ENDBRANCH   2   3
ENDBRANCH   1   2
BRANCH   1  25
ATOM     25  N   UNL A   1      35.497  30.923  29.442  1.00  0.00    -0.352 N 
ATOM     26  C   UNL A   1      36.327  30.280  30.326  1.00  0.00     0.251 C 
ATOM     27  H   UNL A   1      34.743  31.404  29.855  1.00  0.00     0.163 HD
ATOM     28  O   UNL A   1      35.948  30.080  31.479  1.00  0.00    -0.269 OA
BRANCH  26  29
ATOM     29  C   UNL A   1      37.664  29.835  29.892  1.00  0.00     0.039 A 
ATOM     30  C   UNL A   1      38.030  29.961  28.550  1.00  0.00     0.014 A 
ATOM     31  C   UNL A   1      38.548  29.268  30.813  1.00  0.00     0.014 A 
ATOM     32  C   UNL A   1      39.310  29.575  28.149  1.00  0.00     0.010 A 
ATOM     33  C   UNL A   1      39.851  28.983  30.435  1.00  0.00     0.010 A 
ATOM     34  C   UNL A   1      40.240  29.115  29.096  1.00  0.00    -0.014 A 
BRANCH  34  35
ATOM     35  C   UNL A   1      41.617  28.729  28.706  1.00  0.00     0.031 A 
ATOM     36  C   UNL A   1      42.705  29.769  28.690  1.00  0.00     0.074 A 
ATOM     37  C   UNL A   1      41.869  27.467  28.309  1.00  0.00     0.049 A 
ATOM     38  N   UNL A   1      43.950  29.654  28.310  1.00  0.00    -0.248 NA
ATOM     39  C   UNL A   1      42.336  31.126  29.131  1.00  0.00     0.031 C 
ATOM     40  C   UNL A   1      40.879  26.389  28.240  1.00  0.00     0.029 A 
ATOM     41  N   UNL A   1      43.031  26.876  27.885  1.00  0.00    -0.354 N 
ATOM     42  C   UNL A   1      44.507  30.919  28.457  1.00  0.00     0.074 A 
ATOM     43  C   UNL A   1      43.450  31.803  28.894  1.00  0.00     0.031 C 
ATOM     44  C   UNL A   1      41.485  25.261  27.834  1.00  0.00     0.029 A 
ATOM     45  C   UNL A   1      42.894  25.544  27.575  1.00  0.00     0.049 A 
ATOM     46  H   UNL A   1      43.885  27.362  27.809  1.00  0.00     0.167 HD
ATOM     47  C   UNL A   1      45.793  31.302  28.278  1.00  0.00     0.037 A 
ATOM     48  C   UNL A   1      43.801  24.653  27.131  1.00  0.00     0.037 A 
ATOM     49  C   UNL A   1      46.842  30.405  27.874  1.00  0.00     0.049 A 
ATOM     50  C   UNL A   1      45.222  25.104  26.926  1.00  0.00     0.074 A 
ATOM     51  C   UNL A   1      48.188  30.677  27.712  1.00  0.00     0.029 A 
ATOM     52  N   UNL A   1      46.664  29.063  27.572  1.00  0.00    -0.354 N 
ATOM     53  N   UNL A   1      45.744  26.292  27.120  1.00  0.00    -0.248 NA
ATOM     54  C   UNL A   1      46.177  24.098  26.445  1.00  0.00     0.031 C 
ATOM     55  C   UNL A   1      48.817  29.509  27.268  1.00  0.00     0.029 A 
ATOM     56  C   UNL A   1      47.872  28.498  27.203  1.00  0.00     0.049 A 
ATOM     57  H   UNL A   1      45.805  28.583  27.615  1.00  0.00     0.167 HD
ATOM     58  C   UNL A   1      47.092  26.173  26.804  1.00  0.00     0.074 A 
ATOM     59  C   UNL A   1      47.307  24.792  26.421  1.00  0.00     0.031 C 
ATOM     60  C   UNL A   1      48.064  27.119  26.826  1.00  0.00     0.037 A 
BRANCH  47  61
ATOM     61  C   UNL A   1      46.137  32.742  28.537  1.00  0.00     0.058 A 
ATOM     62  C   UNL A   1      46.556  33.180  29.805  1.00  0.00     0.135 A 
ATOM     63  C   UNL A   1      46.091  33.689  27.502  1.00  0.00     0.135 A 
ATOM     64  F   UNL A   1      46.599  32.322  30.837  1.00  0.00    -0.206 F 
ATOM     65  C   UNL A   1      46.893  34.509  30.042  1.00  0.00     0.059 A 
ATOM     66  C   UNL A   1      46.453  35.017  27.709  1.00  0.00     0.059 A 
ATOM     67  F   UNL A   1      45.693  33.326  26.272  1.00  0.00    -0.206 F 
ATOM     68  C   UNL A   1      46.842  35.419  28.985  1.00  0.00     0.060 A 
BRANCH  68  69
ATOM     69  S   UNL A   1      47.301  37.134  29.310  1.00  0.00     0.124 S 
ATOM     70  O   UNL A   1      48.546  37.250  28.557  1.00  0.00    -0.237 OA
ATOM     71  O   UNL A   1      46.162  37.867  28.766  1.00  0.00    -0.237 OA
ATOM     72  O   UNL A   1      47.441  37.182  30.761  1.00  0.00    -0.744 OA
ENDBRANCH  68  69
ENDBRANCH  47  61
BRANCH  48  73
ATOM     73  C   UNL A   1      43.396  23.242  26.890  1.00  0.00     0.058 A 
ATOM     74  C   UNL A   1      43.261  22.747  25.585  1.00  0.00     0.135 A 
ATOM     75  C   UNL A   1      43.177  22.351  27.952  1.00  0.00     0.135 A 
ATOM     76  F   UNL A   1      43.455  23.561  24.537  1.00  0.00    -0.206 F 
ATOM     77  C   UNL A   1      42.917  21.423  25.339  1.00  0.00     0.059 A 
ATOM     78  C   UNL A   1      42.857  21.015  27.732  1.00  0.00     0.059 A 
ATOM     79  F   UNL A   1      43.311  22.770  29.221  1.00  0.00    -0.206 F 
ATOM     80  C   UNL A   1      42.723  20.561  26.420  1.00  0.00     0.060 A 
BRANCH  80  81
ATOM     81  S   UNL A   1      42.341  18.828  26.085  1.00  0.00     0.124 S 
ATOM     82  O   UNL A   1      42.623  18.209  27.376  1.00  0.00    -0.237 OA
ATOM     83  O   UNL A   1      40.935  18.896  25.702  1.00  0.00    -0.237 OA
ATOM     84  O   UNL A   1      43.263  18.483  25.005  1.00  0.00    -0.744 OA
ENDBRANCH  80  81
ENDBRANCH  48  73
BRANCH  60  85
ATOM     85  C   UNL A   1      49.453  26.698  26.438  1.00  0.00     0.058 A 
ATOM     86  C   UNL A   1      50.308  26.062  27.352  1.00  0.00     0.135 A 
ATOM     87  C   UNL A   1      49.902  26.856  25.117  1.00  0.00     0.135 A 
ATOM     88  F   UNL A   1      49.928  25.893  28.629  1.00  0.00    -0.206 F 
ATOM     89  C   UNL A   1      51.565  25.608  26.971  1.00  0.00     0.059 A 
ATOM     90  C   UNL A   1      51.144  26.383  24.708  1.00  0.00     0.059 A 
ATOM     91  F   UNL A   1      49.117  27.447  24.202  1.00  0.00    -0.206 F 
ATOM     92  C   UNL A   1      51.972  25.766  25.645  1.00  0.00     0.060 A 
BRANCH  92  93
ATOM     93  S   UNL A   1      53.586  25.125  25.158  1.00  0.00     0.124 S 
ATOM     94  O   UNL A   1      53.674  25.571  23.772  1.00  0.00    -0.237 OA
ATOM     95  O   UNL A   1      54.481  25.795  26.097  1.00  0.00    -0.237 OA
ATOM     96  O   UNL A   1      53.454  23.683  25.346  1.00  0.00    -0.744 OA
ENDBRANCH  92  93
ENDBRANCH  60  85
ENDBRANCH  34  35
ENDBRANCH  26  29
ENDBRANCH   1  25
TORSDOF 14
ENDMDL
MODEL 3
REMARK VINA RESULT:     -11.8      4.956     10.389
REMARK SMILES Cc1cc2c(c(C)c1Cl)C=C(C(=O)NCCCNC(=O)c1ccc(-c3c4nc(c(-c5c(F)cc(S(=O)(=O)[O-])cc5F)c5ccc([nH]5)c(-c5c(F)cc(S(=O)(=O)[O-])cc5F)c5nc(c(-c6c(F)cc(S(=O)(=O)[O-])cc6F)c6ccc3[nH]6)C=C5)C=C4)cc1)[C@@H](C(F)(F)F)O2
REMARK SMILES IDX 17 1 16 2 15 3 14 4 12 5 13 6 11 8 1 9 2 10 3 11 8 12 4 13
REMARK SMILES IDX 6 14 9 15 5 16 92 17 7 18 10 19 87 20 88 21 89 22 90 23
REMARK SMILES IDX 91 24 18 25 19 26 20 28 21 29 22 30 86 31 23 32 85 33 24 34
REMARK SMILES IDX 25 35 26 36 79 37 27 38 84 39 78 40 80 41 28 42 83 43 77 44
REMARK SMILES IDX 76 45 29 47 63 48 42 49 62 50 43 51 46 52 61 53 81 54 44 55
REMARK SMILES IDX 45 56 60 58 82 59 47 60 30 61 31 62 40 63 32 64 33 65 39 66
REMARK SMILES IDX 41 67 34 68 35 69 36 70 37 71 38 72 64 73 65 74 74 75 66 76
REMARK SMILES IDX 67 77 73 78 75 79 68 80 69 81 70 82 71 83 72 84 48 85 49 86
REMARK SMILES IDX 58 87 50 88 51 89 57 90 59 91 52 92 53 93 54 94 55 95 56 96
REMARK H PARENT 14 7 18 27 80 46 46 57
REMARK Flexibility Score: inf
ROOT
ATOM      1  C   UNL A   1      38.485  24.514  26.123  1.00  0.00     0.118 C 
ENDROOT
BRANCH   1   2
ATOM      2  C   UNL A   1      37.557  23.385  26.553  1.00  0.00     0.042 C 
BRANCH   2   3
ATOM      3  C   UNL A   1      37.708  22.154  25.673  1.00  0.00     0.118 C 
BRANCH   3   4
ATOM      4  N   UNL A   1      37.418  22.443  24.277  1.00  0.00    -0.352 N 
ATOM      5  C   UNL A   1      36.341  22.796  23.538  1.00  0.00     0.251 C 
ATOM      6  O   UNL A   1      36.559  22.960  22.333  1.00  0.00    -0.270 OA
ATOM      7  H   UNL A   1      38.223  22.357  23.718  1.00  0.00     0.163 HD
BRANCH   5   8
ATOM      8  C   UNL A   1      34.964  23.002  24.074  1.00  0.00     0.067 C 
ATOM      9  C   UNL A   1      29.279  25.076  26.439  1.00  0.00     0.046 C 
ATOM     10  C   UNL A   1      30.708  24.958  25.982  1.00  0.00    -0.028 A 
ATOM     11  C   UNL A   1      31.067  23.756  25.365  1.00  0.00     0.052 A 
ATOM     12  C   UNL A   1      31.680  25.971  26.110  1.00  0.00     0.047 A 
ATOM     13  C   UNL A   1      32.361  23.553  24.904  1.00  0.00     0.128 A 
ATOM     14  C   UNL A   1      33.005  25.778  25.636  1.00  0.00    -0.021 A 
ATOM     15  Cl  UNL A   1      31.230  27.477  26.851  1.00  0.00    -0.084 Cl
ATOM     16  C   UNL A   1      33.338  24.546  25.021  1.00  0.00     0.022 A 
ATOM     17  O   UNL A   1      32.579  22.350  24.300  1.00  0.00    -0.475 OA
ATOM     18  C   UNL A   1      34.064  26.849  25.762  1.00  0.00     0.047 C 
ATOM     19  C   UNL A   1      34.659  24.258  24.455  1.00  0.00     0.026 C 
ATOM     20  C   UNL A   1      33.955  21.906  24.227  1.00  0.00     0.314 C 
BRANCH  20  21
ATOM     21  C   UNL A   1      34.259  20.984  25.425  1.00  0.00     0.429 C 
ATOM     22  F   UNL A   1      33.158  20.268  25.766  1.00  0.00    -0.167 F 
ATOM     23  F   UNL A   1      35.233  20.083  25.159  1.00  0.00    -0.167 F 
ATOM     24  F   UNL A   1      34.653  21.668  26.523  1.00  0.00    -0.167 F 
ENDBRANCH  20  21
ENDBRANCH   5   8
ENDBRANCH   3   4
ENDBRANCH   2   3
ENDBRANCH   1   2
BRANCH   1  25
ATOM     25  N   UNL A   1      39.884  24.095  26.129  1.00  0.00    -0.352 N 
ATOM     26  C   UNL A   1      40.982  24.686  26.702  1.00  0.00     0.251 C 
ATOM     27  H   UNL A   1      40.069  23.257  25.646  1.00  0.00     0.163 HD
ATOM     28  O   UNL A   1      42.109  24.344  26.350  1.00  0.00    -0.269 OA
BRANCH  26  29
ATOM     29  C   UNL A   1      40.805  25.724  27.734  1.00  0.00     0.039 A 
ATOM     30  C   UNL A   1      39.770  25.601  28.665  1.00  0.00     0.014 A 
ATOM     31  C   UNL A   1      41.652  26.834  27.765  1.00  0.00     0.014 A 
ATOM     32  C   UNL A   1      39.629  26.565  29.665  1.00  0.00     0.010 A 
ATOM     33  C   UNL A   1      41.576  27.733  28.819  1.00  0.00     0.010 A 
ATOM     34  C   UNL A   1      40.553  27.619  29.768  1.00  0.00    -0.014 A 
BRANCH  34  35
ATOM     35  C   UNL A   1      40.448  28.639  30.839  1.00  0.00     0.031 A 
ATOM     36  C   UNL A   1      41.348  28.549  32.042  1.00  0.00     0.074 A 
ATOM     37  C   UNL A   1      39.508  29.599  30.755  1.00  0.00     0.049 A 
ATOM     38  N   UNL A   1      41.364  29.292  33.117  1.00  0.00    -0.248 NA
ATOM     39  C   UNL A   1      42.340  27.459  32.052  1.00  0.00     0.031 C 
ATOM     40  C   UNL A   1      38.551  29.753  29.656  1.00  0.00     0.029 A 
ATOM     41  N   UNL A   1      39.198  30.626  31.610  1.00  0.00    -0.354 N 
ATOM     42  C   UNL A   1      42.356  28.756  33.930  1.00  0.00     0.074 A 
ATOM     43  C   UNL A   1      42.872  27.585  33.258  1.00  0.00     0.031 C 
ATOM     44  C   UNL A   1      37.787  30.833  29.887  1.00  0.00     0.029 A 
ATOM     45  C   UNL A   1      38.169  31.422  31.167  1.00  0.00     0.049 A 
ATOM     46  H   UNL A   1      39.669  30.778  32.461  1.00  0.00     0.167 HD
ATOM     47  C   UNL A   1      42.820  29.221  35.113  1.00  0.00     0.037 A 
ATOM     48  C   UNL A   1      37.598  32.504  31.731  1.00  0.00     0.037 A 
ATOM     49  C   UNL A   1      42.319  30.406  35.756  1.00  0.00     0.049 A 
ATOM     50  C   UNL A   1      38.120  32.995  33.054  1.00  0.00     0.074 A 
ATOM     51  C   UNL A   1      42.752  30.994  36.930  1.00  0.00     0.029 A 
ATOM     52  N   UNL A   1      41.278  31.187  35.275  1.00  0.00    -0.354 N 
ATOM     53  N   UNL A   1      39.095  32.508  33.785  1.00  0.00    -0.248 NA
ATOM     54  C   UNL A   1      37.470  34.179  33.629  1.00  0.00     0.031 C 
ATOM     55  C   UNL A   1      41.942  32.105  37.184  1.00  0.00     0.029 A 
ATOM     56  C   UNL A   1      41.039  32.240  36.141  1.00  0.00     0.049 A 
ATOM     57  H   UNL A   1      40.783  31.018  34.441  1.00  0.00     0.167 HD
ATOM     58  C   UNL A   1      39.189  33.336  34.897  1.00  0.00     0.074 A 
ATOM     59  C   UNL A   1      38.182  34.366  34.733  1.00  0.00     0.031 C 
ATOM     60  C   UNL A   1      40.030  33.254  35.958  1.00  0.00     0.037 A 
BRANCH  47  61
ATOM     61  C   UNL A   1      43.933  28.459  35.777  1.00  0.00     0.058 A 
ATOM     62  C   UNL A   1      45.281  28.765  35.528  1.00  0.00     0.135 A 
ATOM     63  C   UNL A   1      43.654  27.441  36.702  1.00  0.00     0.135 A 
ATOM     64  F   UNL A   1      45.607  29.715  34.637  1.00  0.00    -0.206 F 
ATOM     65  C   UNL A   1      46.312  28.073  36.156  1.00  0.00     0.059 A 
ATOM     66  C   UNL A   1      44.669  26.756  37.365  1.00  0.00     0.059 A 
ATOM     67  F   UNL A   1      42.383  27.104  36.974  1.00  0.00    -0.206 F 
ATOM     68  C   UNL A   1      45.996  27.073  37.076  1.00  0.00     0.060 A 
BRANCH  68  69
ATOM     69  S   UNL A   1      47.348  26.200  37.893  1.00  0.00     0.124 S 
ATOM     70  O   UNL A   1      48.393  27.220  37.897  1.00  0.00    -0.237 OA
ATOM     71  O   UNL A   1      46.770  25.882  39.194  1.00  0.00    -0.237 OA
ATOM     72  O   UNL A   1      47.593  25.057  37.021  1.00  0.00    -0.744 OA
ENDBRANCH  68  69
ENDBRANCH  47  61
BRANCH  48  73
ATOM     73  C   UNL A   1      36.497  33.213  31.025  1.00  0.00     0.058 A 
ATOM     74  C   UNL A   1      35.183  33.163  31.511  1.00  0.00     0.135 A 
ATOM     75  C   UNL A   1      36.740  33.985  29.878  1.00  0.00     0.135 A 
ATOM     76  F   UNL A   1      34.900  32.435  32.602  1.00  0.00    -0.206 F 
ATOM     77  C   UNL A   1      34.147  33.847  30.885  1.00  0.00     0.059 A 
ATOM     78  C   UNL A   1      35.724  34.698  29.248  1.00  0.00     0.059 A 
ATOM     79  F   UNL A   1      37.983  34.080  29.381  1.00  0.00    -0.206 F 
ATOM     80  C   UNL A   1      34.428  34.618  29.756  1.00  0.00     0.060 A 
BRANCH  80  81
ATOM     81  S   UNL A   1      33.085  35.553  28.992  1.00  0.00     0.124 S 
ATOM     82  O   UNL A   1      32.280  35.914  30.154  1.00  0.00    -0.237 OA
ATOM     83  O   UNL A   1      33.805  36.646  28.347  1.00  0.00    -0.237 OA
ATOM     84  O   UNL A   1      32.479  34.586  28.080  1.00  0.00    -0.744 OA
ENDBRANCH  80  81
ENDBRANCH  48  73
BRANCH  60  85
ATOM     85  C   UNL A   1      39.911  34.308  37.022  1.00  0.00     0.058 A 
ATOM     86  C   UNL A   1      40.523  35.563  36.882  1.00  0.00     0.135 A 
ATOM     87  C   UNL A   1      39.109  34.089  38.154  1.00  0.00     0.135 A 
ATOM     88  F   UNL A   1      41.306  35.820  35.822  1.00  0.00    -0.206 F 
ATOM     89  C   UNL A   1      40.352  36.562  37.833  1.00  0.00     0.059 A 
ATOM     90  C   UNL A   1      38.901  35.084  39.103  1.00  0.00     0.059 A 
ATOM     91  F   UNL A   1      38.492  32.909  38.329  1.00  0.00    -0.206 F 
ATOM     92  C   UNL A   1      39.533  36.316  38.937  1.00  0.00     0.060 A 
BRANCH  92  93
ATOM     93  S   UNL A   1      39.283  37.641  40.136  1.00  0.00     0.124 S 
ATOM     94  O   UNL A   1      38.188  38.387  39.527  1.00  0.00    -0.237 OA
ATOM     95  O   UNL A   1      38.949  36.901  41.350  1.00  0.00    -0.237 OA
ATOM     96  O   UNL A   1      40.571  38.327  40.161  1.00  0.00    -0.744 OA
ENDBRANCH  92  93
ENDBRANCH  60  85
ENDBRANCH  34  35
ENDBRANCH  26  29
ENDBRANCH   1  25
TORSDOF 14
ENDMDL
