MODEL 1
REMARK VINA RESULT:     -15.1      0.000      0.000
REMARK SMILES Cc1ccc(-c2nc(C)cc(N3CCCC[C@H]3C(=O)NCCCNC(=O)c3ccc(-c4c5nc(c(-c6c(F)cc(S(=O)(=O)[O-])cc6F)c6ccc([nH]6)c(-c6c(F)cc(S(=O)(=O)[O-])cc6F)c6nc(c(-c7c(F)cc(S(=O)(=O)[O-])cc7F)c7ccc4[nH]7)C=C6)C=C5)cc3)n2)cc1
REMARK SMILES IDX 22 1 21 2 20 3 18 4 19 5 17 7 12 8 13 9 14 10 16 11 15 12
REMARK SMILES IDX 11 13 6 14 7 15 93 16 8 17 9 18 10 19 5 20 1 21 2 22 3 23
REMARK SMILES IDX 95 24 4 25 94 26 23 27 24 28 25 29 26 31 27 32 28 33 92 34
REMARK SMILES IDX 29 35 91 36 30 37 31 38 32 39 85 40 33 41 90 42 84 43 86 44
REMARK SMILES IDX 34 45 89 46 83 47 82 48 35 50 69 51 48 52 68 53 49 54 52 55
REMARK SMILES IDX 67 56 87 57 50 58 51 59 66 61 88 62 53 63 36 64 37 65 46 66
REMARK SMILES IDX 38 67 39 68 45 69 47 70 40 71 41 72 42 73 43 74 44 75 70 76
REMARK SMILES IDX 71 77 80 78 72 79 73 80 79 81 81 82 74 83 75 84 76 85 77 86
REMARK SMILES IDX 78 87 54 88 55 89 64 90 56 91 57 92 63 93 65 94 58 95 59 96
REMARK SMILES IDX 60 97 61 98 62 99
REMARK H PARENT 20 6 24 30 86 49 52 60
REMARK Flexibility Score: inf
ROOT
ATOM      1  C   UNL A   1      33.071  30.331  27.229  1.00  0.00     0.042 C 
ENDROOT
BRANCH   1   2
ATOM      2  C   UNL A   1      32.343  29.625  26.090  1.00  0.00     0.117 C 
BRANCH   2   3
ATOM      3  N   UNL A   1      31.788  28.349  26.521  1.00  0.00    -0.354 N 
ATOM      4  C   UNL A   1      31.994  27.052  26.190  1.00  0.00     0.242 C 
ATOM      5  O   UNL A   1      31.297  26.249  26.836  1.00  0.00    -0.273 OA
ATOM      6  H   UNL A   1      31.100  28.455  27.217  1.00  0.00     0.163 HD
BRANCH   4   7
ATOM      7  C   UNL A   1      33.048  26.489  25.180  1.00  0.00     0.173 C 
ATOM      8  N   UNL A   1      32.733  25.061  24.912  1.00  0.00    -0.344 N 
ATOM      9  C   UNL A   1      31.671  24.783  23.954  1.00  0.00     0.119 C 
ATOM     10  C   UNL A   1      31.996  25.392  22.596  1.00  0.00     0.022 C 
ATOM     11  C   UNL A   1      33.360  27.146  23.827  1.00  0.00     0.035 C 
ATOM     12  C   UNL A   1      32.329  26.873  22.730  1.00  0.00     0.004 C 
BRANCH   8  13
ATOM     13  C   UNL A   1      33.751  24.131  25.032  1.00  0.00     0.133 A 
ATOM     14  C   UNL A   1      34.484  21.960  24.970  1.00  0.00     0.161 A 
ATOM     15  N   UNL A   1      35.720  22.263  25.403  1.00  0.00    -0.233 NA
ATOM     16  N   UNL A   1      33.488  22.840  24.781  1.00  0.00    -0.211 NA
ATOM     17  C   UNL A   1      35.964  23.568  25.634  1.00  0.00     0.043 A 
ATOM     18  C   UNL A   1      37.332  23.917  26.133  1.00  0.00     0.067 C 
ATOM     19  C   UNL A   1      35.004  24.543  25.446  1.00  0.00     0.070 A 
BRANCH  14  20
ATOM     20  C   UNL A   1      34.205  20.558  24.650  1.00  0.00     0.019 A 
ATOM     21  C   UNL A   1      33.382  16.415  23.694  1.00  0.00     0.044 C 
ATOM     22  C   UNL A   1      33.661  17.852  24.015  1.00  0.00    -0.051 A 
ATOM     23  C   UNL A   1      34.910  18.226  24.524  1.00  0.00     0.004 A 
ATOM     24  C   UNL A   1      32.680  18.833  23.838  1.00  0.00     0.004 A 
ATOM     25  C   UNL A   1      35.181  19.565  24.826  1.00  0.00     0.012 A 
ATOM     26  C   UNL A   1      32.948  20.168  24.159  1.00  0.00     0.012 A 
ENDBRANCH  14  20
ENDBRANCH   8  13
ENDBRANCH   4   7
ENDBRANCH   2   3
ENDBRANCH   1   2
BRANCH   1  27
ATOM     27  C   UNL A   1      34.574  30.071  27.258  1.00  0.00     0.118 C 
BRANCH  27  28
ATOM     28  N   UNL A   1      35.296  31.119  27.980  1.00  0.00    -0.352 N 
ATOM     29  C   UNL A   1      36.499  31.022  28.659  1.00  0.00     0.251 C 
ATOM     30  H   UNL A   1      34.873  32.007  27.983  1.00  0.00     0.163 HD
ATOM     31  O   UNL A   1      36.959  31.914  29.345  1.00  0.00    -0.269 OA
BRANCH  29  32
ATOM     32  C   UNL A   1      37.250  29.772  28.444  1.00  0.00     0.039 A 
ATOM     33  C   UNL A   1      37.403  28.939  29.557  1.00  0.00     0.014 A 
ATOM     34  C   UNL A   1      38.096  29.697  27.341  1.00  0.00     0.014 A 
ATOM     35  C   UNL A   1      38.549  28.162  29.662  1.00  0.00     0.010 A 
ATOM     36  C   UNL A   1      39.272  28.987  27.486  1.00  0.00     0.010 A 
ATOM     37  C   UNL A   1      39.524  28.277  28.673  1.00  0.00    -0.014 A 
BRANCH  37  38
ATOM     38  C   UNL A   1      40.883  27.773  28.845  1.00  0.00     0.031 A 
ATOM     39  C   UNL A   1      41.198  26.389  28.433  1.00  0.00     0.074 A 
ATOM     40  C   UNL A   1      41.852  28.582  29.329  1.00  0.00     0.049 A 
ATOM     41  N   UNL A   1      42.213  25.707  28.841  1.00  0.00    -0.248 NA
ATOM     42  C   UNL A   1      40.314  25.628  27.560  1.00  0.00     0.031 C 
ATOM     43  C   UNL A   1      43.292  28.350  29.293  1.00  0.00     0.029 A 
ATOM     44  N   UNL A   1      41.701  29.712  30.137  1.00  0.00    -0.354 N 
ATOM     45  C   UNL A   1      42.268  24.541  28.107  1.00  0.00     0.074 A 
ATOM     46  C   UNL A   1      41.022  24.512  27.382  1.00  0.00     0.031 C 
ATOM     47  C   UNL A   1      43.881  29.133  30.210  1.00  0.00     0.029 A 
ATOM     48  C   UNL A   1      42.831  29.785  30.973  1.00  0.00     0.049 A 
ATOM     49  H   UNL A   1      40.943  30.340  30.125  1.00  0.00     0.167 HD
ATOM     50  C   UNL A   1      43.422  23.807  28.110  1.00  0.00     0.037 A 
ATOM     51  C   UNL A   1      42.706  29.707  32.331  1.00  0.00     0.037 A 
ATOM     52  C   UNL A   1      44.356  24.331  29.113  1.00  0.00     0.049 A 
ATOM     53  C   UNL A   1      43.347  28.478  32.937  1.00  0.00     0.074 A 
ATOM     54  C   UNL A   1      45.439  25.190  29.029  1.00  0.00     0.029 A 
ATOM     55  N   UNL A   1      44.035  24.236  30.465  1.00  0.00    -0.354 N 
ATOM     56  N   UNL A   1      43.754  27.449  32.244  1.00  0.00    -0.248 NA
ATOM     57  C   UNL A   1      43.562  28.300  34.371  1.00  0.00     0.031 C 
ATOM     58  C   UNL A   1      45.700  25.696  30.329  1.00  0.00     0.029 A 
ATOM     59  C   UNL A   1      44.802  25.116  31.209  1.00  0.00     0.049 A 
ATOM     60  H   UNL A   1      43.358  23.628  30.840  1.00  0.00     0.167 HD
ATOM     61  C   UNL A   1      44.205  26.473  33.092  1.00  0.00     0.074 A 
ATOM     62  C   UNL A   1      44.101  27.069  34.412  1.00  0.00     0.031 C 
ATOM     63  C   UNL A   1      44.607  25.245  32.648  1.00  0.00     0.037 A 
BRANCH  50  64
ATOM     64  C   UNL A   1      43.822  22.834  27.005  1.00  0.00     0.058 A 
ATOM     65  C   UNL A   1      43.067  21.660  26.773  1.00  0.00     0.135 A 
ATOM     66  C   UNL A   1      44.979  22.932  26.205  1.00  0.00     0.135 A 
ATOM     67  F   UNL A   1      41.880  21.464  27.364  1.00  0.00    -0.206 F 
ATOM     68  C   UNL A   1      43.494  20.625  25.931  1.00  0.00     0.059 A 
ATOM     69  C   UNL A   1      45.455  21.893  25.398  1.00  0.00     0.059 A 
ATOM     70  F   UNL A   1      45.678  24.065  26.109  1.00  0.00    -0.206 F 
ATOM     71  C   UNL A   1      44.713  20.731  25.279  1.00  0.00     0.060 A 
BRANCH  71  72
ATOM     72  S   UNL A   1      45.300  19.362  24.266  1.00  0.00     0.124 S 
ATOM     73  O   UNL A   1      46.732  19.635  24.181  1.00  0.00    -0.237 OA
ATOM     74  O   UNL A   1      44.919  18.203  25.066  1.00  0.00    -0.237 OA
ATOM     75  O   UNL A   1      44.565  19.524  23.014  1.00  0.00    -0.744 OA
ENDBRANCH  71  72
ENDBRANCH  50  64
BRANCH  51  76
ATOM     76  C   UNL A   1      41.494  30.400  32.849  1.00  0.00     0.058 A 
ATOM     77  C   UNL A   1      40.356  29.612  33.107  1.00  0.00     0.135 A 
ATOM     78  C   UNL A   1      41.575  31.648  33.482  1.00  0.00     0.135 A 
ATOM     79  F   UNL A   1      40.219  28.417  32.509  1.00  0.00    -0.206 F 
ATOM     80  C   UNL A   1      39.424  29.966  34.075  1.00  0.00     0.059 A 
ATOM     81  C   UNL A   1      40.648  32.024  34.459  1.00  0.00     0.059 A 
ATOM     82  F   UNL A   1      42.631  32.447  33.270  1.00  0.00    -0.206 F 
ATOM     83  C   UNL A   1      39.618  31.143  34.793  1.00  0.00     0.060 A 
BRANCH  83  84
ATOM     84  S   UNL A   1      38.626  31.387  36.288  1.00  0.00     0.124 S 
ATOM     85  O   UNL A   1      38.351  30.015  36.696  1.00  0.00    -0.237 OA
ATOM     86  O   UNL A   1      39.550  32.127  37.148  1.00  0.00    -0.237 OA
ATOM     87  O   UNL A   1      37.481  32.149  35.807  1.00  0.00    -0.744 OA
ENDBRANCH  83  84
ENDBRANCH  51  76
BRANCH  63  88
ATOM     88  C   UNL A   1      44.928  24.075  33.541  1.00  0.00     0.058 A 
ATOM     89  C   UNL A   1      44.046  23.006  33.773  1.00  0.00     0.135 A 
ATOM     90  C   UNL A   1      46.223  23.937  34.093  1.00  0.00     0.135 A 
ATOM     91  F   UNL A   1      42.828  22.977  33.212  1.00  0.00    -0.206 F 
ATOM     92  C   UNL A   1      44.395  21.907  34.559  1.00  0.00     0.059 A 
ATOM     93  C   UNL A   1      46.609  22.825  34.838  1.00  0.00     0.059 A 
ATOM     94  F   UNL A   1      47.157  24.883  33.918  1.00  0.00    -0.206 F 
ATOM     95  C   UNL A   1      45.679  21.826  35.090  1.00  0.00     0.060 A 
BRANCH  95  96
ATOM     96  S   UNL A   1      46.157  20.391  36.070  1.00  0.00     0.124 S 
ATOM     97  O   UNL A   1      47.594  20.335  35.821  1.00  0.00    -0.237 OA
ATOM     98  O   UNL A   1      45.767  20.776  37.424  1.00  0.00    -0.237 OA
ATOM     99  O   UNL A   1      45.370  19.312  35.484  1.00  0.00    -0.744 OA
ENDBRANCH  95  96
ENDBRANCH  63  88
ENDBRANCH  37  38
ENDBRANCH  29  32
ENDBRANCH  27  28
ENDBRANCH   1  27
TORSDOF 15
ENDMDL
MODEL 2
REMARK VINA RESULT:     -14.9      1.333      2.094
REMARK SMILES Cc1ccc(-c2nc(C)cc(N3CCCC[C@H]3C(=O)NCCCNC(=O)c3ccc(-c4c5nc(c(-c6c(F)cc(S(=O)(=O)[O-])cc6F)c6ccc([nH]6)c(-c6c(F)cc(S(=O)(=O)[O-])cc6F)c6nc(c(-c7c(F)cc(S(=O)(=O)[O-])cc7F)c7ccc4[nH]7)C=C6)C=C5)cc3)n2)cc1
REMARK SMILES IDX 22 1 21 2 20 3 18 4 19 5 17 7 12 8 13 9 14 10 16 11 15 12
REMARK SMILES IDX 11 13 6 14 7 15 93 16 8 17 9 18 10 19 5 20 1 21 2 22 3 23
REMARK SMILES IDX 95 24 4 25 94 26 23 27 24 28 25 29 26 31 27 32 28 33 92 34
REMARK SMILES IDX 29 35 91 36 30 37 31 38 32 39 85 40 33 41 90 42 84 43 86 44
REMARK SMILES IDX 34 45 89 46 83 47 82 48 35 50 69 51 48 52 68 53 49 54 52 55
REMARK SMILES IDX 67 56 87 57 50 58 51 59 66 61 88 62 53 63 36 64 37 65 46 66
REMARK SMILES IDX 38 67 39 68 45 69 47 70 40 71 41 72 42 73 43 74 44 75 70 76
REMARK SMILES IDX 71 77 80 78 72 79 73 80 79 81 81 82 74 83 75 84 76 85 77 86
REMARK SMILES IDX 78 87 54 88 55 89 64 90 56 91 57 92 63 93 65 94 58 95 59 96
REMARK SMILES IDX 60 97 61 98 62 99
REMARK H PARENT 20 6 24 30 86 49 52 60
REMARK Flexibility Score: inf
ROOT
ATOM      1  C   UNL A   1      32.820  30.082  27.332  1.00  0.00     0.042 C 
ENDROOT
BRANCH   1   2
ATOM      2  C   UNL A   1      32.314  31.009  26.231  1.00  0.00     0.117 C 
BRANCH   2   3
ATOM      3  N   UNL A   1      31.401  30.319  25.330  1.00  0.00    -0.354 N 
ATOM      4  C   UNL A   1      31.438  29.162  24.625  1.00  0.00     0.242 C 
ATOM      5  O   UNL A   1      30.402  28.935  23.975  1.00  0.00    -0.273 OA
ATOM      6  H   UNL A   1      30.558  30.810  25.203  1.00  0.00     0.163 HD
BRANCH   4   7
ATOM      7  C   UNL A   1      32.577  28.089  24.626  1.00  0.00     0.173 C 
ATOM      8  N   UNL A   1      32.027  26.814  24.096  1.00  0.00    -0.344 N 
ATOM      9  C   UNL A   1      31.916  26.689  22.649  1.00  0.00     0.119 C 
ATOM     10  C   UNL A   1      33.277  26.855  21.986  1.00  0.00     0.022 C 
ATOM     11  C   UNL A   1      33.944  28.305  23.962  1.00  0.00     0.035 C 
ATOM     12  C   UNL A   1      33.950  28.145  22.441  1.00  0.00     0.004 C 
BRANCH   8  13
ATOM     13  C   UNL A   1      32.231  25.658  24.828  1.00  0.00     0.133 A 
ATOM     14  C   UNL A   1      33.600  23.955  25.524  1.00  0.00     0.161 A 
ATOM     15  N   UNL A   1      32.616  23.293  26.157  1.00  0.00    -0.233 NA
ATOM     16  N   UNL A   1      33.456  25.111  24.856  1.00  0.00    -0.211 NA
ATOM     17  C   UNL A   1      31.399  23.870  26.127  1.00  0.00     0.043 A 
ATOM     18  C   UNL A   1      30.290  23.134  26.814  1.00  0.00     0.067 C 
ATOM     19  C   UNL A   1      31.165  25.068  25.481  1.00  0.00     0.070 A 
BRANCH  14  20
ATOM     20  C   UNL A   1      34.948  23.386  25.590  1.00  0.00     0.019 A 
ATOM     21  C   UNL A   1      38.935  21.707  25.796  1.00  0.00     0.044 C 
ATOM     22  C   UNL A   1      37.558  22.296  25.732  1.00  0.00    -0.051 A 
ATOM     23  C   UNL A   1      36.440  21.458  25.655  1.00  0.00     0.004 A 
ATOM     24  C   UNL A   1      37.368  23.682  25.724  1.00  0.00     0.004 A 
ATOM     25  C   UNL A   1      35.151  21.998  25.596  1.00  0.00     0.012 A 
ATOM     26  C   UNL A   1      36.079  24.218  25.647  1.00  0.00     0.012 A 
ENDBRANCH  14  20
ENDBRANCH   8  13
ENDBRANCH   4   7
ENDBRANCH   2   3
ENDBRANCH   1   2
BRANCH   1  27
ATOM     27  C   UNL A   1      34.332  29.882  27.325  1.00  0.00     0.118 C 
BRANCH  27  28
ATOM     28  N   UNL A   1      35.027  30.944  28.055  1.00  0.00    -0.352 N 
ATOM     29  C   UNL A   1      36.213  30.864  28.765  1.00  0.00     0.251 C 
ATOM     30  H   UNL A   1      34.596  31.828  28.037  1.00  0.00     0.163 HD
ATOM     31  O   UNL A   1      36.648  31.768  29.453  1.00  0.00    -0.269 OA
BRANCH  29  32
ATOM     32  C   UNL A   1      36.980  29.619  28.583  1.00  0.00     0.039 A 
ATOM     33  C   UNL A   1      37.206  28.854  29.732  1.00  0.00     0.014 A 
ATOM     34  C   UNL A   1      37.771  29.496  27.444  1.00  0.00     0.014 A 
ATOM     35  C   UNL A   1      38.372  28.106  29.822  1.00  0.00     0.010 A 
ATOM     36  C   UNL A   1      38.968  28.819  27.569  1.00  0.00     0.010 A 
ATOM     37  C   UNL A   1      39.295  28.183  28.780  1.00  0.00    -0.014 A 
BRANCH  37  38
ATOM     38  C   UNL A   1      40.672  27.716  28.910  1.00  0.00     0.031 A 
ATOM     39  C   UNL A   1      41.007  26.335  28.503  1.00  0.00     0.074 A 
ATOM     40  C   UNL A   1      41.635  28.555  29.352  1.00  0.00     0.049 A 
ATOM     41  N   UNL A   1      42.054  25.685  28.884  1.00  0.00    -0.248 NA
ATOM     42  C   UNL A   1      40.115  25.542  27.669  1.00  0.00     0.031 C 
ATOM     43  C   UNL A   1      43.078  28.360  29.268  1.00  0.00     0.029 A 
ATOM     44  N   UNL A   1      41.482  29.690  30.152  1.00  0.00    -0.354 N 
ATOM     45  C   UNL A   1      42.114  24.511  28.161  1.00  0.00     0.074 A 
ATOM     46  C   UNL A   1      40.845  24.442  27.480  1.00  0.00     0.031 C 
ATOM     47  C   UNL A   1      43.678  29.168  30.156  1.00  0.00     0.029 A 
ATOM     48  C   UNL A   1      42.638  29.802  30.947  1.00  0.00     0.049 A 
ATOM     49  H   UNL A   1      40.709  30.299  30.159  1.00  0.00     0.167 HD
ATOM     50  C   UNL A   1      43.285  23.808  28.133  1.00  0.00     0.037 A 
ATOM     51  C   UNL A   1      42.561  29.738  32.310  1.00  0.00     0.037 A 
ATOM     52  C   UNL A   1      44.239  24.367  29.097  1.00  0.00     0.049 A 
ATOM     53  C   UNL A   1      43.255  28.532  32.907  1.00  0.00     0.074 A 
ATOM     54  C   UNL A   1      45.296  25.253  28.966  1.00  0.00     0.029 A 
ATOM     55  N   UNL A   1      43.967  24.280  30.460  1.00  0.00    -0.354 N 
ATOM     56  N   UNL A   1      43.664  27.506  32.212  1.00  0.00    -0.248 NA
ATOM     57  C   UNL A   1      43.523  28.378  34.335  1.00  0.00     0.031 C 
ATOM     58  C   UNL A   1      45.588  25.780  30.251  1.00  0.00     0.029 A 
ATOM     59  C   UNL A   1      44.736  25.188  31.168  1.00  0.00     0.049 A 
ATOM     60  H   UNL A   1      43.320  23.659  30.865  1.00  0.00     0.167 HD
ATOM     61  C   UNL A   1      44.169  26.552  33.055  1.00  0.00     0.074 A 
ATOM     62  C   UNL A   1      44.095  27.161  34.371  1.00  0.00     0.031 C 
ATOM     63  C   UNL A   1      44.587  25.330  32.611  1.00  0.00     0.037 A 
BRANCH  50  64
ATOM     64  C   UNL A   1      43.673  22.832  27.025  1.00  0.00     0.058 A 
ATOM     65  C   UNL A   1      42.959  21.623  26.851  1.00  0.00     0.135 A 
ATOM     66  C   UNL A   1      44.784  22.964  26.168  1.00  0.00     0.135 A 
ATOM     67  F   UNL A   1      41.811  21.388  27.503  1.00  0.00    -0.206 F 
ATOM     68  C   UNL A   1      43.388  20.592  26.006  1.00  0.00     0.059 A 
ATOM     69  C   UNL A   1      45.264  21.930  25.355  1.00  0.00     0.059 A 
ATOM     70  F   UNL A   1      45.428  24.124  26.018  1.00  0.00    -0.206 F 
ATOM     71  C   UNL A   1      44.569  20.737  25.293  1.00  0.00     0.060 A 
BRANCH  71  72
ATOM     72  S   UNL A   1      45.164  19.375  24.274  1.00  0.00     0.124 S 
ATOM     73  O   UNL A   1      44.509  19.639  22.996  1.00  0.00    -0.237 OA
ATOM     74  O   UNL A   1      46.608  19.579  24.304  1.00  0.00    -0.237 OA
ATOM     75  O   UNL A   1      44.687  18.188  24.979  1.00  0.00    -0.744 OA
ENDBRANCH  71  72
ENDBRANCH  50  64
BRANCH  51  76
ATOM     76  C   UNL A   1      41.350  30.406  32.861  1.00  0.00     0.058 A 
ATOM     77  C   UNL A   1      40.255  29.588  33.200  1.00  0.00     0.135 A 
ATOM     78  C   UNL A   1      41.415  31.677  33.448  1.00  0.00     0.135 A 
ATOM     79  F   UNL A   1      40.134  28.368  32.650  1.00  0.00    -0.206 F 
ATOM     80  C   UNL A   1      39.357  29.943  34.199  1.00  0.00     0.059 A 
ATOM     81  C   UNL A   1      40.521  32.055  34.455  1.00  0.00     0.059 A 
ATOM     82  F   UNL A   1      42.430  32.504  33.159  1.00  0.00    -0.206 F 
ATOM     83  C   UNL A   1      39.541  31.150  34.867  1.00  0.00     0.060 A 
BRANCH  83  84
ATOM     84  S   UNL A   1      38.610  31.412  36.399  1.00  0.00     0.124 S 
ATOM     85  O   UNL A   1      38.303  30.046  36.802  1.00  0.00    -0.237 OA
ATOM     86  O   UNL A   1      39.590  32.111  37.232  1.00  0.00    -0.237 OA
ATOM     87  O   UNL A   1      37.476  32.218  35.965  1.00  0.00    -0.744 OA
ENDBRANCH  83  84
ENDBRANCH  51  76
BRANCH  63  88
ATOM     88  C   UNL A   1      44.968  24.179  33.506  1.00  0.00     0.058 A 
ATOM     89  C   UNL A   1      44.089  23.141  33.859  1.00  0.00     0.135 A 
ATOM     90  C   UNL A   1      46.308  24.023  33.930  1.00  0.00     0.135 A 
ATOM     91  F   UNL A   1      42.821  23.128  33.423  1.00  0.00    -0.206 F 
ATOM     92  C   UNL A   1      44.490  22.058  34.641  1.00  0.00     0.059 A 
ATOM     93  C   UNL A   1      46.741  22.924  34.668  1.00  0.00     0.059 A 
ATOM     94  F   UNL A   1      47.242  24.938  33.632  1.00  0.00    -0.206 F 
ATOM     95  C   UNL A   1      45.818  21.959  35.044  1.00  0.00     0.060 A 
BRANCH  95  96
ATOM     96  S   UNL A   1      46.358  20.542  36.018  1.00  0.00     0.124 S 
ATOM     97  O   UNL A   1      45.654  20.769  37.276  1.00  0.00    -0.237 OA
ATOM     98  O   UNL A   1      45.888  19.406  35.230  1.00  0.00    -0.237 OA
ATOM     99  O   UNL A   1      47.807  20.704  36.066  1.00  0.00    -0.744 OA
ENDBRANCH  95  96
ENDBRANCH  63  88
ENDBRANCH  37  38
ENDBRANCH  29  32
ENDBRANCH  27  28
ENDBRANCH   1  27
TORSDOF 15
ENDMDL
MODEL 3
REMARK VINA RESULT:     -14.8      4.913     11.510
REMARK SMILES Cc1ccc(-c2nc(C)cc(N3CCCC[C@H]3C(=O)NCCCNC(=O)c3ccc(-c4c5nc(c(-c6c(F)cc(S(=O)(=O)[O-])cc6F)c6ccc([nH]6)c(-c6c(F)cc(S(=O)(=O)[O-])cc6F)c6nc(c(-c7c(F)cc(S(=O)(=O)[O-])cc7F)c7ccc4[nH]7)C=C6)C=C5)cc3)n2)cc1
REMARK SMILES IDX 22 1 21 2 20 3 18 4 19 5 17 7 12 8 13 9 14 10 16 11 15 12
REMARK SMILES IDX 11 13 6 14 7 15 93 16 8 17 9 18 10 19 5 20 1 21 2 22 3 23
REMARK SMILES IDX 95 24 4 25 94 26 23 27 24 28 25 29 26 31 27 32 28 33 92 34
REMARK SMILES IDX 29 35 91 36 30 37 31 38 32 39 85 40 33 41 90 42 84 43 86 44
REMARK SMILES IDX 34 45 89 46 83 47 82 48 35 50 69 51 48 52 68 53 49 54 52 55
REMARK SMILES IDX 67 56 87 57 50 58 51 59 66 61 88 62 53 63 36 64 37 65 46 66
REMARK SMILES IDX 38 67 39 68 45 69 47 70 40 71 41 72 42 73 43 74 44 75 70 76
REMARK SMILES IDX 71 77 80 78 72 79 73 80 79 81 81 82 74 83 75 84 76 85 77 86
REMARK SMILES IDX 78 87 54 88 55 89 64 90 56 91 57 92 63 93 65 94 58 95 59 96
REMARK SMILES IDX 60 97 61 98 62 99
REMARK H PARENT 20 6 24 30 86 49 52 60
REMARK Flexibility Score: inf
ROOT
ATOM      1  C   UNL A   1      37.238  23.019  26.480  1.00  0.00     0.042 C 
ENDROOT
BRANCH   1   2
ATOM      2  C   UNL A   1      35.990  22.728  25.653  1.00  0.00     0.117 C 
BRANCH   2   3
ATOM      3  N   UNL A   1      35.940  21.334  25.234  1.00  0.00    -0.354 N 
ATOM      4  C   UNL A   1      34.952  20.441  24.983  1.00  0.00     0.242 C 
ATOM      5  O   UNL A   1      35.362  19.324  24.619  1.00  0.00    -0.273 OA
ATOM      6  H   UNL A   1      36.836  20.949  25.104  1.00  0.00     0.163 HD
BRANCH   4   7
ATOM      7  C   UNL A   1      33.409  20.702  25.017  1.00  0.00     0.173 C 
ATOM      8  N   UNL A   1      33.151  22.083  24.533  1.00  0.00    -0.344 N 
ATOM      9  C   UNL A   1      33.151  22.294  23.091  1.00  0.00     0.119 C 
ATOM     10  C   UNL A   1      32.100  21.421  22.419  1.00  0.00     0.022 C 
ATOM     11  C   UNL A   1      32.380  19.785  24.340  1.00  0.00     0.035 C 
ATOM     12  C   UNL A   1      32.262  19.962  22.826  1.00  0.00     0.004 C 
BRANCH   8  13
ATOM     13  C   UNL A   1      32.352  22.909  25.304  1.00  0.00     0.133 A 
ATOM     14  C   UNL A   1      31.962  24.933  26.310  1.00  0.00     0.161 A 
ATOM     15  N   UNL A   1      30.853  24.513  26.943  1.00  0.00    -0.233 NA
ATOM     16  N   UNL A   1      32.730  24.181  25.505  1.00  0.00    -0.211 NA
ATOM     17  C   UNL A   1      30.485  23.237  26.713  1.00  0.00     0.043 A 
ATOM     18  C   UNL A   1      29.260  22.753  27.425  1.00  0.00     0.067 C 
ATOM     19  C   UNL A   1      31.205  22.400  25.883  1.00  0.00     0.070 A 
BRANCH  14  20
ATOM     20  C   UNL A   1      32.354  26.332  26.488  1.00  0.00     0.019 A 
ATOM     21  C   UNL A   1      33.511  30.473  27.006  1.00  0.00     0.044 C 
ATOM     22  C   UNL A   1      33.116  29.040  26.817  1.00  0.00    -0.051 A 
ATOM     23  C   UNL A   1      31.836  28.612  27.185  1.00  0.00     0.004 A 
ATOM     24  C   UNL A   1      34.019  28.107  26.297  1.00  0.00     0.004 A 
ATOM     25  C   UNL A   1      31.457  27.276  27.012  1.00  0.00     0.012 A 
ATOM     26  C   UNL A   1      33.644  26.769  26.142  1.00  0.00     0.012 A 
ENDBRANCH  14  20
ENDBRANCH   8  13
ENDBRANCH   4   7
ENDBRANCH   2   3
ENDBRANCH   1   2
BRANCH   1  27
ATOM     27  C   UNL A   1      38.447  23.434  25.648  1.00  0.00     0.118 C 
BRANCH  27  28
ATOM     28  N   UNL A   1      39.704  23.229  26.371  1.00  0.00    -0.352 N 
ATOM     29  C   UNL A   1      40.452  24.158  27.074  1.00  0.00     0.251 C 
ATOM     30  H   UNL A   1      40.061  22.312  26.356  1.00  0.00     0.163 HD
ATOM     31  O   UNL A   1      41.554  23.927  27.532  1.00  0.00    -0.269 OA
BRANCH  29  32
ATOM     32  C   UNL A   1      39.795  25.456  27.308  1.00  0.00     0.039 A 
ATOM     33  C   UNL A   1      40.295  26.545  26.587  1.00  0.00     0.014 A 
ATOM     34  C   UNL A   1      39.061  25.618  28.479  1.00  0.00     0.014 A 
ATOM     35  C   UNL A   1      40.244  27.810  27.158  1.00  0.00     0.010 A 
ATOM     36  C   UNL A   1      39.085  26.861  29.080  1.00  0.00     0.010 A 
ATOM     37  C   UNL A   1      39.735  27.937  28.449  1.00  0.00    -0.014 A 
BRANCH  37  38
ATOM     38  C   UNL A   1      39.933  29.134  29.260  1.00  0.00     0.031 A 
ATOM     39  C   UNL A   1      38.902  30.193  29.248  1.00  0.00     0.074 A 
ATOM     40  C   UNL A   1      41.024  29.247  30.049  1.00  0.00     0.049 A 
ATOM     41  N   UNL A   1      39.094  31.417  29.607  1.00  0.00    -0.248 NA
ATOM     42  C   UNL A   1      37.558  29.952  28.742  1.00  0.00     0.031 C 
ATOM     43  C   UNL A   1      41.238  30.210  31.124  1.00  0.00     0.029 A 
ATOM     44  N   UNL A   1      42.260  28.612  29.901  1.00  0.00    -0.354 N 
ATOM     45  C   UNL A   1      37.870  32.052  29.630  1.00  0.00     0.074 A 
ATOM     46  C   UNL A   1      36.965  31.116  29.011  1.00  0.00     0.031 C 
ATOM     47  C   UNL A   1      42.553  30.288  31.384  1.00  0.00     0.029 A 
ATOM     48  C   UNL A   1      43.245  29.491  30.386  1.00  0.00     0.049 A 
ATOM     49  H   UNL A   1      42.413  27.715  29.524  1.00  0.00     0.167 HD
ATOM     50  C   UNL A   1      37.753  33.245  30.288  1.00  0.00     0.037 A 
ATOM     51  C   UNL A   1      44.225  29.971  29.564  1.00  0.00     0.037 A 
ATOM     52  C   UNL A   1      39.075  33.739  30.687  1.00  0.00     0.049 A 
ATOM     53  C   UNL A   1      44.160  31.466  29.340  1.00  0.00     0.074 A 
ATOM     54  C   UNL A   1      39.783  33.672  31.876  1.00  0.00     0.029 A 
ATOM     55  N   UNL A   1      39.990  34.121  29.708  1.00  0.00    -0.354 N 
ATOM     56  N   UNL A   1      43.138  32.210  29.666  1.00  0.00    -0.248 NA
ATOM     57  C   UNL A   1      45.231  32.238  28.712  1.00  0.00     0.031 C 
ATOM     58  C   UNL A   1      41.151  33.912  31.586  1.00  0.00     0.029 A 
ATOM     59  C   UNL A   1      41.271  34.161  30.229  1.00  0.00     0.049 A 
ATOM     60  H   UNL A   1      39.757  34.332  28.775  1.00  0.00     0.167 HD
ATOM     61  C   UNL A   1      43.357  33.498  29.254  1.00  0.00     0.074 A 
ATOM     62  C   UNL A   1      44.697  33.473  28.698  1.00  0.00     0.031 C 
ATOM     63  C   UNL A   1      42.414  34.477  29.381  1.00  0.00     0.037 A 
BRANCH  50  64
ATOM     64  C   UNL A   1      36.441  33.795  30.840  1.00  0.00     0.058 A 
ATOM     65  C   UNL A   1      35.405  34.197  29.963  1.00  0.00     0.135 A 
ATOM     66  C   UNL A   1      36.164  34.048  32.199  1.00  0.00     0.135 A 
ATOM     67  F   UNL A   1      35.454  33.926  28.651  1.00  0.00    -0.206 F 
ATOM     68  C   UNL A   1      34.272  34.904  30.385  1.00  0.00     0.059 A 
ATOM     69  C   UNL A   1      35.068  34.798  32.641  1.00  0.00     0.059 A 
ATOM     70  F   UNL A   1      36.904  33.526  33.179  1.00  0.00    -0.206 F 
ATOM     71  C   UNL A   1      34.133  35.239  31.724  1.00  0.00     0.060 A 
BRANCH  71  72
ATOM     72  S   UNL A   1      32.718  36.223  32.250  1.00  0.00     0.124 S 
ATOM     73  O   UNL A   1      32.459  37.044  31.070  1.00  0.00    -0.237 OA
ATOM     74  O   UNL A   1      31.723  35.197  32.543  1.00  0.00    -0.237 OA
ATOM     75  O   UNL A   1      33.223  36.952  33.411  1.00  0.00    -0.744 OA
ENDBRANCH  71  72
ENDBRANCH  50  64
BRANCH  51  76
ATOM     76  C   UNL A   1      44.709  28.964  28.579  1.00  0.00     0.058 A 
ATOM     77  C   UNL A   1      44.138  28.988  27.293  1.00  0.00     0.135 A 
ATOM     78  C   UNL A   1      45.952  28.333  28.724  1.00  0.00     0.135 A 
ATOM     79  F   UNL A   1      42.938  29.562  27.103  1.00  0.00    -0.206 F 
ATOM     80  C   UNL A   1      44.838  28.557  26.172  1.00  0.00     0.059 A 
ATOM     81  C   UNL A   1      46.673  27.892  27.610  1.00  0.00     0.059 A 
ATOM     82  F   UNL A   1      46.544  28.272  29.927  1.00  0.00    -0.206 F 
ATOM     83  C   UNL A   1      46.133  28.074  26.336  1.00  0.00     0.060 A 
BRANCH  83  84
ATOM     84  S   UNL A   1      47.152  27.885  24.851  1.00  0.00     0.124 S 
ATOM     85  O   UNL A   1      46.782  26.550  24.399  1.00  0.00    -0.237 OA
ATOM     86  O   UNL A   1      46.676  28.988  24.015  1.00  0.00    -0.237 OA
ATOM     87  O   UNL A   1      48.510  28.032  25.359  1.00  0.00    -0.744 OA
ENDBRANCH  83  84
ENDBRANCH  51  76
BRANCH  63  88
ATOM     88  C   UNL A   1      42.523  35.853  28.777  1.00  0.00     0.058 A 
ATOM     89  C   UNL A   1      41.873  36.239  27.592  1.00  0.00     0.135 A 
ATOM     90  C   UNL A   1      43.197  36.883  29.473  1.00  0.00     0.135 A 
ATOM     91  F   UNL A   1      41.115  35.373  26.903  1.00  0.00    -0.206 F 
ATOM     92  C   UNL A   1      41.946  37.538  27.089  1.00  0.00     0.059 A 
ATOM     93  C   UNL A   1      43.239  38.199  29.016  1.00  0.00     0.059 A 
ATOM     94  F   UNL A   1      43.833  36.639  30.628  1.00  0.00    -0.206 F 
ATOM     95  C   UNL A   1      42.634  38.512  27.807  1.00  0.00     0.060 A 
BRANCH  95  96
ATOM     96  S   UNL A   1      42.698  40.204  27.192  1.00  0.00     0.124 S 
ATOM     97  O   UNL A   1      41.347  40.374  26.668  1.00  0.00    -0.237 OA
ATOM     98  O   UNL A   1      43.010  40.976  28.392  1.00  0.00    -0.237 OA
ATOM     99  O   UNL A   1      43.762  40.155  26.195  1.00  0.00    -0.744 OA
ENDBRANCH  95  96
ENDBRANCH  63  88
ENDBRANCH  37  38
ENDBRANCH  29  32
ENDBRANCH  27  28
ENDBRANCH   1  27
TORSDOF 15
ENDMDL
