MODEL 1
REMARK VINA RESULT:     -11.5      0.000      0.000
REMARK SMILES Cc1c(C(=O)NC(=S)Nc2ccccc2C(=O)NCCCNC(=O)c2ccc(-c3c4nc(c(-c5c(F)cc(S(=O)(=O)[O-])cc5F)c5ccc([nH]5)c(-c5c(F)cc(S(=O)(=O)[O-])cc5F)c5nc(c(-c6c(F)cc(S(=O)(=O)[O-])cc6F)c6ccc3[nH]6)C=C5)C=C4)cc2)cccc1[N+](=O)[O-]
REMARK SMILES IDX 19 1 18 2 16 3 17 4 15 6 10 7 11 8 12 9 14 10 13 11 9 12
REMARK SMILES IDX 7 14 8 15 6 16 4 17 5 18 3 20 1 21 2 22 94 23 91 24 93 25
REMARK SMILES IDX 92 26 95 27 96 28 97 29 20 30 21 31 22 32 23 33 24 35 25 36
REMARK SMILES IDX 26 37 90 38 27 39 89 40 28 41 29 42 30 43 83 44 31 45 88 46
REMARK SMILES IDX 82 47 84 48 32 49 87 50 81 51 80 52 33 54 67 55 46 56 66 57
REMARK SMILES IDX 47 58 50 59 65 60 85 61 48 62 49 63 64 65 86 66 51 67 34 68
REMARK SMILES IDX 35 69 44 70 36 71 37 72 43 73 45 74 38 75 39 76 40 77 41 78
REMARK SMILES IDX 42 79 68 80 69 81 78 82 70 83 71 84 77 85 79 86 72 87 73 88
REMARK SMILES IDX 74 89 75 90 76 91 52 92 53 93 62 94 54 95 55 96 61 97 63 98
REMARK SMILES IDX 56 99 57 100 58 101 59 102 60 103
REMARK H PARENT 18 5 9 13 6 19 22 34 84 53 50 64
REMARK Flexibility Score: inf
ROOT
ATOM      1  C   UNL A   1      34.206  29.998  27.274  1.00  0.00     0.118 C 
ENDROOT
BRANCH   1   2
ATOM      2  N   UNL A   1      32.922  29.222  27.415  1.00  0.00    -0.352 N 
ATOM      3  C   UNL A   1      32.070  28.484  26.539  1.00  0.00     0.253 C 
ATOM      4  O   UNL A   1      31.264  27.699  27.033  1.00  0.00    -0.269 OA
ATOM      5  H   UNL A   1      32.589  29.223  28.342  1.00  0.00     0.163 HD
BRANCH   3   6
ATOM      6  C   UNL A   1      32.044  28.722  25.019  1.00  0.00     0.063 A 
ATOM      7  C   UNL A   1      31.801  27.387  23.845  1.00  0.00     0.053 A 
ATOM      8  C   UNL A   1      30.656  27.539  22.411  1.00  0.00     0.027 A 
ATOM      9  C   UNL A   1      29.366  28.885  22.568  1.00  0.00     0.002 A 
ATOM     10  C   UNL A   1      31.281  30.117  24.922  1.00  0.00     0.016 A 
ATOM     11  C   UNL A   1      29.831  30.227  24.003  1.00  0.00     0.001 A 
BRANCH   7  12
ATOM     12  N   UNL A   1      31.517  26.161  24.608  1.00  0.00    -0.332 N 
ATOM     13  H   UNL A   1      30.716  26.209  25.178  1.00  0.00     0.169 HD
BRANCH  12  14
ATOM     14  C   UNL A   1      32.197  24.937  24.659  1.00  0.00     0.177 C 
ATOM     15  S   UNL A   1      33.816  24.961  24.185  1.00  0.00    -0.040 S 
BRANCH  14  16
ATOM     16  N   UNL A   1      31.611  23.613  24.899  1.00  0.00    -0.299 N 
ATOM     17  C   UNL A   1      31.771  22.096  25.196  1.00  0.00     0.257 C 
ATOM     18  O   UNL A   1      30.840  21.497  25.727  1.00  0.00    -0.269 OA
ATOM     19  H   UNL A   1      30.639  23.756  24.845  1.00  0.00     0.172 HD
BRANCH  17  20
ATOM     20  C   UNL A   1      33.117  21.400  24.967  1.00  0.00     0.049 A 
ATOM     21  C   UNL A   1      32.344  21.113  22.843  1.00  0.00     0.053 C 
ATOM     22  C   UNL A   1      32.622  19.938  24.374  1.00  0.00     0.039 A 
ATOM     23  C   UNL A   1      33.745  18.234  24.316  1.00  0.00     0.273 A 
ATOM     24  C   UNL A   1      34.829  21.565  25.176  1.00  0.00     0.014 A 
ATOM     25  C   UNL A   1      35.542  18.515  24.627  1.00  0.00     0.086 A 
ATOM     26  C   UNL A   1      36.022  20.214  25.000  1.00  0.00     0.008 A 
BRANCH  23  27
ATOM     27  N   UNL A   1      33.584  16.778  23.846  1.00  0.00     0.063 N 
ATOM     28  O   UNL A   1      32.969  16.034  24.626  1.00  0.00    -0.258 OA
ATOM     29  O   UNL A   1      34.022  16.399  22.754  1.00  0.00    -0.258 OA
ENDBRANCH  23  27
ENDBRANCH  17  20
ENDBRANCH  14  16
ENDBRANCH  12  14
ENDBRANCH   7  12
ENDBRANCH   3   6
ENDBRANCH   1   2
BRANCH   1  30
ATOM     30  C   UNL A   1      35.525  29.408  27.720  1.00  0.00     0.042 C 
BRANCH  30  31
ATOM     31  C   UNL A   1      35.835  29.696  29.147  1.00  0.00     0.118 C 
BRANCH  31  32
ATOM     32  N   UNL A   1      37.196  29.304  29.392  1.00  0.00    -0.352 N 
ATOM     33  C   UNL A   1      38.185  30.268  29.314  1.00  0.00     0.251 C 
ATOM     34  H   UNL A   1      37.418  28.370  29.611  1.00  0.00     0.163 HD
ATOM     35  O   UNL A   1      38.950  30.104  28.378  1.00  0.00    -0.269 OA
BRANCH  33  36
ATOM     36  C   UNL A   1      38.267  31.302  30.445  1.00  0.00     0.039 A 
ATOM     37  C   UNL A   1      39.265  32.257  30.211  1.00  0.00     0.014 A 
ATOM     38  C   UNL A   1      38.289  30.716  31.703  1.00  0.00     0.014 A 
ATOM     39  C   UNL A   1      40.513  32.059  30.765  1.00  0.00     0.010 A 
ATOM     40  C   UNL A   1      39.516  30.341  32.147  1.00  0.00     0.010 A 
ATOM     41  C   UNL A   1      40.625  30.943  31.561  1.00  0.00    -0.014 A 
BRANCH  41  42
ATOM     42  C   UNL A   1      41.849  30.287  31.922  1.00  0.00     0.031 A 
ATOM     43  C   UNL A   1      41.909  28.960  31.269  1.00  0.00     0.074 A 
ATOM     44  C   UNL A   1      42.686  31.180  32.518  1.00  0.00     0.049 A 
ATOM     45  N   UNL A   1      42.511  27.907  31.675  1.00  0.00    -0.248 NA
ATOM     46  C   UNL A   1      41.068  28.637  30.085  1.00  0.00     0.031 C 
ATOM     47  C   UNL A   1      44.125  31.262  32.759  1.00  0.00     0.029 A 
ATOM     48  N   UNL A   1      42.209  32.290  33.263  1.00  0.00    -0.354 N 
ATOM     49  C   UNL A   1      42.648  27.125  30.537  1.00  0.00     0.074 A 
ATOM     50  C   UNL A   1      41.503  27.427  29.739  1.00  0.00     0.031 C 
ATOM     51  C   UNL A   1      44.341  32.037  33.850  1.00  0.00     0.029 A 
ATOM     52  C   UNL A   1      43.034  32.417  34.388  1.00  0.00     0.049 A 
ATOM     53  H   UNL A   1      41.442  32.863  33.031  1.00  0.00     0.167 HD
ATOM     54  C   UNL A   1      43.890  26.646  30.237  1.00  0.00     0.037 A 
ATOM     55  C   UNL A   1      42.516  31.977  35.579  1.00  0.00     0.037 A 
ATOM     56  C   UNL A   1      44.806  27.108  31.295  1.00  0.00     0.049 A 
ATOM     57  C   UNL A   1      43.163  30.622  35.886  1.00  0.00     0.074 A 
ATOM     58  C   UNL A   1      45.717  28.150  31.350  1.00  0.00     0.029 A 
ATOM     59  N   UNL A   1      44.498  26.796  32.617  1.00  0.00    -0.354 N 
ATOM     60  N   UNL A   1      43.415  29.686  34.999  1.00  0.00    -0.248 NA
ATOM     61  C   UNL A   1      43.765  30.337  37.189  1.00  0.00     0.031 C 
ATOM     62  C   UNL A   1      45.865  28.518  32.724  1.00  0.00     0.029 A 
ATOM     63  C   UNL A   1      45.018  27.733  33.493  1.00  0.00     0.049 A 
ATOM     64  H   UNL A   1      43.978  26.007  32.894  1.00  0.00     0.167 HD
ATOM     65  C   UNL A   1      44.221  28.726  35.565  1.00  0.00     0.074 A 
ATOM     66  C   UNL A   1      44.411  29.188  36.932  1.00  0.00     0.031 C 
ATOM     67  C   UNL A   1      44.728  27.626  34.920  1.00  0.00     0.037 A 
BRANCH  54  68
ATOM     68  C   UNL A   1      44.368  26.069  28.911  1.00  0.00     0.058 A 
ATOM     69  C   UNL A   1      44.383  24.666  28.744  1.00  0.00     0.135 A 
ATOM     70  C   UNL A   1      44.812  26.784  27.773  1.00  0.00     0.135 A 
ATOM     71  F   UNL A   1      43.950  23.845  29.713  1.00  0.00    -0.206 F 
ATOM     72  C   UNL A   1      44.823  24.031  27.580  1.00  0.00     0.059 A 
ATOM     73  C   UNL A   1      45.263  26.169  26.596  1.00  0.00     0.059 A 
ATOM     74  F   UNL A   1      44.818  28.118  27.721  1.00  0.00    -0.206 F 
ATOM     75  C   UNL A   1      45.264  24.789  26.507  1.00  0.00     0.060 A 
BRANCH  75  76
ATOM     76  S   UNL A   1      45.789  23.941  25.007  1.00  0.00     0.124 S 
ATOM     77  O   UNL A   1      46.702  24.914  24.413  1.00  0.00    -0.237 OA
ATOM     78  O   UNL A   1      46.409  22.733  25.540  1.00  0.00    -0.237 OA
ATOM     79  O   UNL A   1      44.544  23.731  24.275  1.00  0.00    -0.744 OA
ENDBRANCH  75  76
ENDBRANCH  54  68
BRANCH  55  80
ATOM     80  C   UNL A   1      41.046  32.342  35.743  1.00  0.00     0.058 A 
ATOM     81  C   UNL A   1      40.639  33.705  35.741  1.00  0.00     0.135 A 
ATOM     82  C   UNL A   1      40.013  31.416  35.584  1.00  0.00     0.135 A 
ATOM     83  F   UNL A   1      41.561  34.668  35.926  1.00  0.00    -0.206 F 
ATOM     84  C   UNL A   1      39.315  34.119  35.474  1.00  0.00     0.059 A 
ATOM     85  C   UNL A   1      38.684  31.810  35.312  1.00  0.00     0.059 A 
ATOM     86  F   UNL A   1      40.280  30.103  35.584  1.00  0.00    -0.206 F 
ATOM     87  C   UNL A   1      38.347  33.161  35.181  1.00  0.00     0.060 A 
BRANCH  87  88
ATOM     88  S   UNL A   1      36.630  33.636  34.681  1.00  0.00     0.124 S 
ATOM     89  O   UNL A   1      36.849  34.858  33.913  1.00  0.00    -0.237 OA
ATOM     90  O   UNL A   1      36.086  32.520  33.918  1.00  0.00    -0.237 OA
ATOM     91  O   UNL A   1      35.970  33.820  35.972  1.00  0.00    -0.744 OA
ENDBRANCH  87  88
ENDBRANCH  55  80
BRANCH  67  92
ATOM     92  C   UNL A   1      45.053  26.325  35.640  1.00  0.00     0.058 A 
ATOM     93  C   UNL A   1      44.110  25.303  35.854  1.00  0.00     0.135 A 
ATOM     94  C   UNL A   1      46.383  25.988  36.006  1.00  0.00     0.135 A 
ATOM     95  F   UNL A   1      42.857  25.378  35.388  1.00  0.00    -0.206 F 
ATOM     96  C   UNL A   1      44.420  24.124  36.522  1.00  0.00     0.059 A 
ATOM     97  C   UNL A   1      46.735  24.766  36.567  1.00  0.00     0.059 A 
ATOM     98  F   UNL A   1      47.415  26.822  35.820  1.00  0.00    -0.206 F 
ATOM     99  C   UNL A   1      45.735  23.866  36.880  1.00  0.00     0.060 A 
BRANCH  99 100
ATOM    100  S   UNL A   1      46.113  22.343  37.745  1.00  0.00     0.124 S 
ATOM    101  O   UNL A   1      45.298  22.488  38.947  1.00  0.00    -0.237 OA
ATOM    102  O   UNL A   1      45.667  21.326  36.797  1.00  0.00    -0.237 OA
ATOM    103  O   UNL A   1      47.556  22.413  37.950  1.00  0.00    -0.744 OA
ENDBRANCH  99 100
ENDBRANCH  67  92
ENDBRANCH  41  42
ENDBRANCH  33  36
ENDBRANCH  31  32
ENDBRANCH  30  31
ENDBRANCH   1  30
TORSDOF 18
ENDMDL
MODEL 2
REMARK VINA RESULT:     -11.3      2.415      3.437
REMARK SMILES Cc1c(C(=O)NC(=S)Nc2ccccc2C(=O)NCCCNC(=O)c2ccc(-c3c4nc(c(-c5c(F)cc(S(=O)(=O)[O-])cc5F)c5ccc([nH]5)c(-c5c(F)cc(S(=O)(=O)[O-])cc5F)c5nc(c(-c6c(F)cc(S(=O)(=O)[O-])cc6F)c6ccc3[nH]6)C=C5)C=C4)cc2)cccc1[N+](=O)[O-]
REMARK SMILES IDX 19 1 18 2 16 3 17 4 15 6 10 7 11 8 12 9 14 10 13 11 9 12
REMARK SMILES IDX 7 14 8 15 6 16 4 17 5 18 3 20 1 21 2 22 94 23 91 24 93 25
REMARK SMILES IDX 92 26 95 27 96 28 97 29 20 30 21 31 22 32 23 33 24 35 25 36
REMARK SMILES IDX 26 37 90 38 27 39 89 40 28 41 29 42 30 43 83 44 31 45 88 46
REMARK SMILES IDX 82 47 84 48 32 49 87 50 81 51 80 52 33 54 67 55 46 56 66 57
REMARK SMILES IDX 47 58 50 59 65 60 85 61 48 62 49 63 64 65 86 66 51 67 34 68
REMARK SMILES IDX 35 69 44 70 36 71 37 72 43 73 45 74 38 75 39 76 40 77 41 78
REMARK SMILES IDX 42 79 68 80 69 81 78 82 70 83 71 84 77 85 79 86 72 87 73 88
REMARK SMILES IDX 74 89 75 90 76 91 52 92 53 93 62 94 54 95 55 96 61 97 63 98
REMARK SMILES IDX 56 99 57 100 58 101 59 102 60 103
REMARK H PARENT 18 5 9 13 6 19 22 34 84 53 50 64
REMARK Flexibility Score: inf
ROOT
ATOM      1  C   UNL A   1      34.750  30.141  27.609  1.00  0.00     0.118 C 
ENDROOT
BRANCH   1   2
ATOM      2  N   UNL A   1      33.361  29.600  27.833  1.00  0.00    -0.352 N 
ATOM      3  C   UNL A   1      32.247  29.265  27.004  1.00  0.00     0.253 C 
ATOM      4  O   UNL A   1      31.370  28.544  27.470  1.00  0.00    -0.269 OA
ATOM      5  H   UNL A   1      33.176  29.436  28.786  1.00  0.00     0.163 HD
BRANCH   3   6
ATOM      6  C   UNL A   1      32.052  29.868  25.601  1.00  0.00     0.063 A 
ATOM      7  C   UNL A   1      31.387  28.915  24.235  1.00  0.00     0.053 A 
ATOM      8  C   UNL A   1      30.101  29.590  23.103  1.00  0.00     0.027 A 
ATOM      9  C   UNL A   1      29.136  31.044  23.779  1.00  0.00     0.002 A 
ATOM     10  C   UNL A   1      31.571  31.346  25.948  1.00  0.00     0.016 A 
ATOM     11  C   UNL A   1      30.056  31.904  25.357  1.00  0.00     0.001 A 
BRANCH   7  12
ATOM     12  N   UNL A   1      30.979  27.600  24.757  1.00  0.00    -0.332 N 
ATOM     13  H   UNL A   1      30.056  27.562  25.095  1.00  0.00     0.169 HD
BRANCH  12  14
ATOM     14  C   UNL A   1      31.687  26.395  24.854  1.00  0.00     0.177 C 
ATOM     15  S   UNL A   1      32.923  26.162  23.730  1.00  0.00    -0.040 S 
BRANCH  14  16
ATOM     16  N   UNL A   1      31.354  25.243  25.700  1.00  0.00    -0.299 N 
ATOM     17  C   UNL A   1      31.721  23.863  26.313  1.00  0.00     0.257 C 
ATOM     18  O   UNL A   1      31.169  23.513  27.353  1.00  0.00    -0.269 OA
ATOM     19  H   UNL A   1      30.456  25.441  26.051  1.00  0.00     0.172 HD
BRANCH  17  20
ATOM     20  C   UNL A   1      32.856  23.027  25.714  1.00  0.00     0.049 A 
ATOM     21  C   UNL A   1      31.424  22.764  23.961  1.00  0.00     0.053 C 
ATOM     22  C   UNL A   1      32.070  21.608  25.392  1.00  0.00     0.039 A 
ATOM     23  C   UNL A   1      32.960  19.797  25.084  1.00  0.00     0.273 A 
ATOM     24  C   UNL A   1      34.554  23.020  25.363  1.00  0.00     0.014 A 
ATOM     25  C   UNL A   1      34.779  19.900  24.796  1.00  0.00     0.086 A 
ATOM     26  C   UNL A   1      35.503  21.549  24.899  1.00  0.00     0.008 A 
BRANCH  23  27
ATOM     27  N   UNL A   1      32.529  18.353  24.774  1.00  0.00     0.063 N 
ATOM     28  O   UNL A   1      32.329  17.635  25.766  1.00  0.00    -0.258 OA
ATOM     29  O   UNL A   1      32.373  17.959  23.612  1.00  0.00    -0.258 OA
ENDBRANCH  23  27
ENDBRANCH  17  20
ENDBRANCH  14  16
ENDBRANCH  12  14
ENDBRANCH   7  12
ENDBRANCH   3   6
ENDBRANCH   1   2
BRANCH   1  30
ATOM     30  C   UNL A   1      35.970  29.335  27.995  1.00  0.00     0.042 C 
BRANCH  30  31
ATOM     31  C   UNL A   1      36.418  29.593  29.391  1.00  0.00     0.118 C 
BRANCH  31  32
ATOM     32  N   UNL A   1      37.600  28.811  29.629  1.00  0.00    -0.352 N 
ATOM     33  C   UNL A   1      38.445  28.551  28.565  1.00  0.00     0.251 C 
ATOM     34  H   UNL A   1      37.802  28.467  30.529  1.00  0.00     0.163 HD
ATOM     35  O   UNL A   1      38.473  27.376  28.241  1.00  0.00    -0.269 OA
BRANCH  33  36
ATOM     36  C   UNL A   1      39.304  29.708  28.035  1.00  0.00     0.039 A 
ATOM     37  C   UNL A   1      40.026  29.344  26.892  1.00  0.00     0.014 A 
ATOM     38  C   UNL A   1      40.045  30.323  29.035  1.00  0.00     0.014 A 
ATOM     39  C   UNL A   1      41.324  28.903  27.042  1.00  0.00     0.010 A 
ATOM     40  C   UNL A   1      41.243  29.745  29.309  1.00  0.00     0.010 A 
ATOM     41  C   UNL A   1      41.801  28.928  28.332  1.00  0.00    -0.014 A 
BRANCH  41  42
ATOM     42  C   UNL A   1      42.920  28.178  28.830  1.00  0.00     0.031 A 
ATOM     43  C   UNL A   1      42.649  26.731  28.681  1.00  0.00     0.074 A 
ATOM     44  C   UNL A   1      43.977  29.014  29.027  1.00  0.00     0.049 A 
ATOM     45  N   UNL A   1      43.094  25.768  29.396  1.00  0.00    -0.248 NA
ATOM     46  C   UNL A   1      41.618  26.225  27.735  1.00  0.00     0.031 C 
ATOM     47  C   UNL A   1      45.424  28.856  29.141  1.00  0.00     0.029 A 
ATOM     48  N   UNL A   1      43.812  30.383  29.360  1.00  0.00    -0.354 N 
ATOM     49  C   UNL A   1      42.937  24.643  28.598  1.00  0.00     0.074 A 
ATOM     50  C   UNL A   1      41.775  24.905  27.812  1.00  0.00     0.031 C 
ATOM     51  C   UNL A   1      45.917  29.882  29.877  1.00  0.00     0.029 A 
ATOM     52  C   UNL A   1      44.783  30.694  30.321  1.00  0.00     0.049 A 
ATOM     53  H   UNL A   1      43.141  31.000  28.987  1.00  0.00     0.167 HD
ATOM     54  C   UNL A   1      44.021  23.834  28.415  1.00  0.00     0.037 A 
ATOM     55  C   UNL A   1      44.350  30.797  31.618  1.00  0.00     0.037 A 
ATOM     56  C   UNL A   1      45.134  24.410  29.191  1.00  0.00     0.049 A 
ATOM     57  C   UNL A   1      44.771  29.513  32.343  1.00  0.00     0.074 A 
ATOM     58  C   UNL A   1      46.221  25.186  28.825  1.00  0.00     0.029 A 
ATOM     59  N   UNL A   1      44.947  24.628  30.553  1.00  0.00    -0.354 N 
ATOM     60  N   UNL A   1      44.729  28.306  31.828  1.00  0.00    -0.248 NA
ATOM     61  C   UNL A   1      45.471  29.552  33.627  1.00  0.00     0.031 C 
ATOM     62  C   UNL A   1      46.610  25.947  29.972  1.00  0.00     0.029 A 
ATOM     63  C   UNL A   1      45.738  25.666  31.013  1.00  0.00     0.049 A 
ATOM     64  H   UNL A   1      44.330  24.108  31.118  1.00  0.00     0.167 HD
ATOM     65  C   UNL A   1      45.411  27.436  32.647  1.00  0.00     0.074 A 
ATOM     66  C   UNL A   1      45.856  28.272  33.753  1.00  0.00     0.031 C 
ATOM     67  C   UNL A   1      45.619  26.103  32.402  1.00  0.00     0.037 A 
BRANCH  54  68
ATOM     68  C   UNL A   1      44.210  22.761  27.351  1.00  0.00     0.058 A 
ATOM     69  C   UNL A   1      43.287  21.692  27.289  1.00  0.00     0.135 A 
ATOM     70  C   UNL A   1      45.227  22.694  26.369  1.00  0.00     0.135 A 
ATOM     71  F   UNL A   1      42.237  21.631  28.121  1.00  0.00    -0.206 F 
ATOM     72  C   UNL A   1      43.380  20.644  26.370  1.00  0.00     0.059 A 
ATOM     73  C   UNL A   1      45.343  21.651  25.439  1.00  0.00     0.059 A 
ATOM     74  F   UNL A   1      46.159  23.642  26.235  1.00  0.00    -0.206 F 
ATOM     75  C   UNL A   1      44.412  20.628  25.446  1.00  0.00     0.060 A 
BRANCH  75  76
ATOM     76  S   UNL A   1      44.482  19.283  24.250  1.00  0.00     0.124 S 
ATOM     77  O   UNL A   1      45.741  18.632  24.597  1.00  0.00    -0.237 OA
ATOM     78  O   UNL A   1      43.271  18.532  24.565  1.00  0.00    -0.237 OA
ATOM     79  O   UNL A   1      44.472  19.967  22.960  1.00  0.00    -0.744 OA
ENDBRANCH  75  76
ENDBRANCH  54  68
BRANCH  55  80
ATOM     80  C   UNL A   1      43.007  31.506  31.726  1.00  0.00     0.058 A 
ATOM     81  C   UNL A   1      41.915  30.881  32.389  1.00  0.00     0.135 A 
ATOM     82  C   UNL A   1      42.849  32.874  31.488  1.00  0.00     0.135 A 
ATOM     83  F   UNL A   1      41.959  29.557  32.627  1.00  0.00    -0.206 F 
ATOM     84  C   UNL A   1      40.802  31.591  32.892  1.00  0.00     0.059 A 
ATOM     85  C   UNL A   1      41.747  33.602  31.986  1.00  0.00     0.059 A 
ATOM     86  F   UNL A   1      43.811  33.562  30.858  1.00  0.00    -0.206 F 
ATOM     87  C   UNL A   1      40.758  32.977  32.754  1.00  0.00     0.060 A 
BRANCH  87  88
ATOM     88  S   UNL A   1      39.407  33.987  33.512  1.00  0.00     0.124 S 
ATOM     89  O   UNL A   1      38.740  34.555  32.345  1.00  0.00    -0.237 OA
ATOM     90  O   UNL A   1      38.589  33.076  34.304  1.00  0.00    -0.237 OA
ATOM     91  O   UNL A   1      40.154  34.940  34.330  1.00  0.00    -0.744 OA
ENDBRANCH  87  88
ENDBRANCH  55  80
BRANCH  67  92
ATOM     92  C   UNL A   1      45.788  25.076  33.512  1.00  0.00     0.058 A 
ATOM     93  C   UNL A   1      47.037  24.573  33.917  1.00  0.00     0.135 A 
ATOM     94  C   UNL A   1      44.697  24.672  34.326  1.00  0.00     0.135 A 
ATOM     95  F   UNL A   1      48.188  25.006  33.386  1.00  0.00    -0.206 F 
ATOM     96  C   UNL A   1      47.174  23.627  34.926  1.00  0.00     0.059 A 
ATOM     97  C   UNL A   1      44.829  23.819  35.416  1.00  0.00     0.059 A 
ATOM     98  F   UNL A   1      43.444  25.100  34.118  1.00  0.00    -0.206 F 
ATOM     99  C   UNL A   1      46.064  23.251  35.668  1.00  0.00     0.060 A 
BRANCH  99 100
ATOM    100  S   UNL A   1      46.260  22.027  36.961  1.00  0.00     0.124 S 
ATOM    101  O   UNL A   1      45.564  20.884  36.380  1.00  0.00    -0.237 OA
ATOM    102  O   UNL A   1      47.712  21.902  37.055  1.00  0.00    -0.237 OA
ATOM    103  O   UNL A   1      45.612  22.640  38.116  1.00  0.00    -0.744 OA
ENDBRANCH  99 100
ENDBRANCH  67  92
ENDBRANCH  41  42
ENDBRANCH  33  36
ENDBRANCH  31  32
ENDBRANCH  30  31
ENDBRANCH   1  30
TORSDOF 18
ENDMDL
MODEL 3
REMARK VINA RESULT:     -11.0      3.417      6.345
REMARK SMILES Cc1c(C(=O)NC(=S)Nc2ccccc2C(=O)NCCCNC(=O)c2ccc(-c3c4nc(c(-c5c(F)cc(S(=O)(=O)[O-])cc5F)c5ccc([nH]5)c(-c5c(F)cc(S(=O)(=O)[O-])cc5F)c5nc(c(-c6c(F)cc(S(=O)(=O)[O-])cc6F)c6ccc3[nH]6)C=C5)C=C4)cc2)cccc1[N+](=O)[O-]
REMARK SMILES IDX 19 1 18 2 16 3 17 4 15 6 10 7 11 8 12 9 14 10 13 11 9 12
REMARK SMILES IDX 7 14 8 15 6 16 4 17 5 18 3 20 1 21 2 22 94 23 91 24 93 25
REMARK SMILES IDX 92 26 95 27 96 28 97 29 20 30 21 31 22 32 23 33 24 35 25 36
REMARK SMILES IDX 26 37 90 38 27 39 89 40 28 41 29 42 30 43 83 44 31 45 88 46
REMARK SMILES IDX 82 47 84 48 32 49 87 50 81 51 80 52 33 54 67 55 46 56 66 57
REMARK SMILES IDX 47 58 50 59 65 60 85 61 48 62 49 63 64 65 86 66 51 67 34 68
REMARK SMILES IDX 35 69 44 70 36 71 37 72 43 73 45 74 38 75 39 76 40 77 41 78
REMARK SMILES IDX 42 79 68 80 69 81 78 82 70 83 71 84 77 85 79 86 72 87 73 88
REMARK SMILES IDX 74 89 75 90 76 91 52 92 53 93 62 94 54 95 55 96 61 97 63 98
REMARK SMILES IDX 56 99 57 100 58 101 59 102 60 103
REMARK H PARENT 18 5 9 13 6 19 22 34 84 53 50 64
REMARK Flexibility Score: inf
ROOT
ATOM      1  C   UNL A   1      34.314  29.964  27.388  1.00  0.00     0.118 C 
ENDROOT
BRANCH   1   2
ATOM      2  N   UNL A   1      33.059  29.159  27.610  1.00  0.00    -0.352 N 
ATOM      3  C   UNL A   1      32.325  28.182  26.871  1.00  0.00     0.253 C 
ATOM      4  O   UNL A   1      31.514  27.483  27.473  1.00  0.00    -0.269 OA
ATOM      5  H   UNL A   1      32.642  29.355  28.480  1.00  0.00     0.163 HD
BRANCH   3   6
ATOM      6  C   UNL A   1      32.428  28.057  25.340  1.00  0.00     0.063 A 
ATOM      7  C   UNL A   1      32.264  26.482  24.496  1.00  0.00     0.053 A 
ATOM      8  C   UNL A   1      31.244  26.287  22.976  1.00  0.00     0.027 A 
ATOM      9  C   UNL A   1      29.964  27.625  22.704  1.00  0.00     0.002 A 
ATOM     10  C   UNL A   1      31.695  29.385  24.856  1.00  0.00     0.016 A 
ATOM     11  C   UNL A   1      30.328  29.269  23.819  1.00  0.00     0.001 A 
BRANCH   7  12
ATOM     12  N   UNL A   1      31.900  25.468  25.499  1.00  0.00    -0.332 N 
ATOM     13  H   UNL A   1      31.450  25.825  26.298  1.00  0.00     0.169 HD
BRANCH  12  14
ATOM     14  C   UNL A   1      32.089  24.080  25.506  1.00  0.00     0.177 C 
ATOM     15  S   UNL A   1      30.743  23.145  25.906  1.00  0.00    -0.040 S 
BRANCH  14  16
ATOM     16  N   UNL A   1      33.364  23.363  25.386  1.00  0.00    -0.299 N 
ATOM     17  C   UNL A   1      34.210  22.191  24.815  1.00  0.00     0.257 C 
ATOM     18  O   UNL A   1      35.428  22.325  24.735  1.00  0.00    -0.269 OA
ATOM     19  H   UNL A   1      33.993  23.877  25.942  1.00  0.00     0.172 HD
BRANCH  17  20
ATOM     20  C   UNL A   1      33.521  20.956  24.226  1.00  0.00     0.049 A 
ATOM     21  C   UNL A   1      33.098  20.439  26.404  1.00  0.00     0.053 C 
ATOM     22  C   UNL A   1      34.298  19.741  25.035  1.00  0.00     0.039 A 
ATOM     23  C   UNL A   1      34.366  17.782  24.465  1.00  0.00     0.273 A 
ATOM     24  C   UNL A   1      32.368  20.427  23.044  1.00  0.00     0.014 A 
ATOM     25  C   UNL A   1      33.149  17.347  23.149  1.00  0.00     0.086 A 
ATOM     26  C   UNL A   1      32.146  18.708  22.519  1.00  0.00     0.008 A 
BRANCH  23  27
ATOM     27  N   UNL A   1      34.975  16.466  24.978  1.00  0.00     0.063 N 
ATOM     28  O   UNL A   1      36.137  16.550  25.404  1.00  0.00    -0.258 OA
ATOM     29  O   UNL A   1      34.328  15.412  24.982  1.00  0.00    -0.258 OA
ENDBRANCH  23  27
ENDBRANCH  17  20
ENDBRANCH  14  16
ENDBRANCH  12  14
ENDBRANCH   7  12
ENDBRANCH   3   6
ENDBRANCH   1   2
BRANCH   1  30
ATOM     30  C   UNL A   1      35.679  29.357  27.624  1.00  0.00     0.042 C 
BRANCH  30  31
ATOM     31  C   UNL A   1      36.540  30.191  28.504  1.00  0.00     0.118 C 
BRANCH  31  32
ATOM     32  N   UNL A   1      37.909  29.966  28.126  1.00  0.00    -0.352 N 
ATOM     33  C   UNL A   1      38.844  29.758  29.125  1.00  0.00     0.251 C 
ATOM     34  H   UNL A   1      38.174  29.960  27.179  1.00  0.00     0.163 HD
ATOM     35  O   UNL A   1      39.659  30.660  29.223  1.00  0.00    -0.269 OA
BRANCH  33  36
ATOM     36  C   UNL A   1      38.814  28.413  29.863  1.00  0.00     0.039 A 
ATOM     37  C   UNL A   1      38.150  28.505  31.093  1.00  0.00     0.014 A 
ATOM     38  C   UNL A   1      40.059  27.801  29.905  1.00  0.00     0.014 A 
ATOM     39  C   UNL A   1      38.895  28.725  32.232  1.00  0.00     0.010 A 
ATOM     40  C   UNL A   1      40.862  28.186  30.930  1.00  0.00     0.010 A 
ATOM     41  C   UNL A   1      40.256  28.769  32.037  1.00  0.00    -0.014 A 
BRANCH  41  42
ATOM     42  C   UNL A   1      41.215  29.363  32.926  1.00  0.00     0.031 A 
ATOM     43  C   UNL A   1      41.417  28.479  34.096  1.00  0.00     0.074 A 
ATOM     44  C   UNL A   1      41.835  30.401  32.299  1.00  0.00     0.049 A 
ATOM     45  N   UNL A   1      41.755  28.809  35.285  1.00  0.00    -0.248 NA
ATOM     46  C   UNL A   1      41.049  27.039  34.055  1.00  0.00     0.031 C 
ATOM     47  C   UNL A   1      43.087  31.131  32.480  1.00  0.00     0.029 A 
ATOM     48  N   UNL A   1      41.196  31.175  31.296  1.00  0.00    -0.354 N 
ATOM     49  C   UNL A   1      42.244  27.637  35.843  1.00  0.00     0.074 A 
ATOM     50  C   UNL A   1      41.495  26.590  35.227  1.00  0.00     0.031 C 
ATOM     51  C   UNL A   1      42.941  32.379  31.971  1.00  0.00     0.029 A 
ATOM     52  C   UNL A   1      41.557  32.511  31.512  1.00  0.00     0.049 A 
ATOM     53  H   UNL A   1      40.609  30.836  30.581  1.00  0.00     0.167 HD
ATOM     54  C   UNL A   1      43.474  27.677  36.435  1.00  0.00     0.037 A 
ATOM     55  C   UNL A   1      40.610  33.315  32.092  1.00  0.00     0.037 A 
ATOM     56  C   UNL A   1      43.967  29.061  36.327  1.00  0.00     0.049 A 
ATOM     57  C   UNL A   1      41.004  33.499  33.562  1.00  0.00     0.074 A 
ATOM     58  C   UNL A   1      44.865  29.666  35.463  1.00  0.00     0.029 A 
ATOM     59  N   UNL A   1      43.176  30.086  36.839  1.00  0.00    -0.354 N 
ATOM     60  N   UNL A   1      41.498  32.558  34.336  1.00  0.00    -0.248 NA
ATOM     61  C   UNL A   1      41.066  34.823  34.179  1.00  0.00     0.031 C 
ATOM     62  C   UNL A   1      44.524  31.054  35.393  1.00  0.00     0.029 A 
ATOM     63  C   UNL A   1      43.402  31.280  36.177  1.00  0.00     0.049 A 
ATOM     64  H   UNL A   1      42.537  29.976  37.581  1.00  0.00     0.167 HD
ATOM     65  C   UNL A   1      41.973  33.125  35.496  1.00  0.00     0.074 A 
ATOM     66  C   UNL A   1      41.680  34.542  35.340  1.00  0.00     0.031 C 
ATOM     67  C   UNL A   1      42.602  32.455  36.513  1.00  0.00     0.037 A 
BRANCH  54  68
ATOM     68  C   UNL A   1      44.363  26.498  36.809  1.00  0.00     0.058 A 
ATOM     69  C   UNL A   1      45.190  25.926  35.816  1.00  0.00     0.135 A 
ATOM     70  C   UNL A   1      44.480  25.879  38.076  1.00  0.00     0.135 A 
ATOM     71  F   UNL A   1      45.231  26.425  34.572  1.00  0.00    -0.206 F 
ATOM     72  C   UNL A   1      46.025  24.830  36.044  1.00  0.00     0.059 A 
ATOM     73  C   UNL A   1      45.308  24.775  38.329  1.00  0.00     0.059 A 
ATOM     74  F   UNL A   1      43.819  26.314  39.152  1.00  0.00    -0.206 F 
ATOM     75  C   UNL A   1      46.079  24.256  37.305  1.00  0.00     0.060 A 
BRANCH  75  76
ATOM     76  S   UNL A   1      47.195  22.868  37.577  1.00  0.00     0.124 S 
ATOM     77  O   UNL A   1      48.398  23.536  38.064  1.00  0.00    -0.237 OA
ATOM     78  O   UNL A   1      46.464  22.078  38.563  1.00  0.00    -0.237 OA
ATOM     79  O   UNL A   1      47.315  22.258  36.256  1.00  0.00    -0.744 OA
ENDBRANCH  75  76
ENDBRANCH  54  68
BRANCH  55  80
ATOM     80  C   UNL A   1      39.212  33.046  31.551  1.00  0.00     0.058 A 
ATOM     81  C   UNL A   1      38.266  32.324  32.329  1.00  0.00     0.135 A 
ATOM     82  C   UNL A   1      38.678  33.731  30.456  1.00  0.00     0.135 A 
ATOM     83  F   UNL A   1      38.693  31.601  33.381  1.00  0.00    -0.206 F 
ATOM     84  C   UNL A   1      36.872  32.382  32.107  1.00  0.00     0.059 A 
ATOM     85  C   UNL A   1      37.287  33.805  30.221  1.00  0.00     0.059 A 
ATOM     86  F   UNL A   1      39.480  34.435  29.646  1.00  0.00    -0.206 F 
ATOM     87  C   UNL A   1      36.376  33.193  31.089  1.00  0.00     0.060 A 
BRANCH  87  88
ATOM     88  S   UNL A   1      34.560  33.432  30.833  1.00  0.00     0.124 S 
ATOM     89  O   UNL A   1      33.991  32.891  32.064  1.00  0.00    -0.237 OA
ATOM     90  O   UNL A   1      34.343  34.859  30.631  1.00  0.00    -0.237 OA
ATOM     91  O   UNL A   1      34.310  32.641  29.630  1.00  0.00    -0.744 OA
ENDBRANCH  87  88
ENDBRANCH  55  80
BRANCH  67  92
ATOM     92  C   UNL A   1      42.550  32.917  37.963  1.00  0.00     0.058 A 
ATOM     93  C   UNL A   1      43.667  33.419  38.655  1.00  0.00     0.135 A 
ATOM     94  C   UNL A   1      41.322  33.019  38.669  1.00  0.00     0.135 A 
ATOM     95  F   UNL A   1      44.859  33.580  38.067  1.00  0.00    -0.206 F 
ATOM     96  C   UNL A   1      43.605  33.827  39.983  1.00  0.00     0.059 A 
ATOM     97  C   UNL A   1      41.220  33.536  39.954  1.00  0.00     0.059 A 
ATOM     98  F   UNL A   1      40.152  32.639  38.138  1.00  0.00    -0.206 F 
ATOM     99  C   UNL A   1      42.378  33.878  40.627  1.00  0.00     0.060 A 
BRANCH  99 100
ATOM    100  S   UNL A   1      42.320  34.402  42.339  1.00  0.00     0.124 S 
ATOM    101  O   UNL A   1      43.670  34.924  42.523  1.00  0.00    -0.237 OA
ATOM    102  O   UNL A   1      41.253  35.398  42.325  1.00  0.00    -0.237 OA
ATOM    103  O   UNL A   1      42.015  33.173  43.064  1.00  0.00    -0.744 OA
ENDBRANCH  99 100
ENDBRANCH  67  92
ENDBRANCH  41  42
ENDBRANCH  33  36
ENDBRANCH  31  32
ENDBRANCH  30  31
ENDBRANCH   1  30
TORSDOF 18
ENDMDL
