MODEL 1
REMARK VINA RESULT:     -12.7      0.000      0.000
REMARK SMILES CC(=O)N1CC[NH+](C[C@@H](CC(=O)Nc2ccccc2F)C(=O)NCCCNC(=O)c2ccc(-c3c4nc(c(-c5c(F)cc(S(=O)(=O)[O-])cc5F)c5ccc([nH]5)c(-c5c(F)cc(S(=O)(=O)[O-])cc5F)c5nc(c(-c6c(F)cc(S(=O)(=O)[O-])cc6F)c6ccc3[nH]6)C=C5)C=C4)cc2)CC1
REMARK SMILES IDX 25 1 24 2 23 3 21 4 22 5 9 7 8 8 7 9 1 10 2 11 3 12 4 13
REMARK SMILES IDX 5 14 97 15 6 16 96 17 10 19 11 20 12 21 13 22 14 24 15 25
REMARK SMILES IDX 19 26 16 27 18 28 20 29 17 30 26 31 27 32 28 33 29 35 30 36
REMARK SMILES IDX 31 37 95 38 32 39 94 40 33 41 34 42 35 43 88 44 36 45 93 46
REMARK SMILES IDX 87 47 89 48 37 49 92 50 86 51 85 52 38 54 72 55 51 56 71 57
REMARK SMILES IDX 52 58 55 59 70 60 90 61 53 62 54 63 69 65 91 66 56 67 39 68
REMARK SMILES IDX 40 69 49 70 41 71 42 72 48 73 50 74 43 75 44 76 45 77 46 78
REMARK SMILES IDX 47 79 73 80 74 81 83 82 75 83 76 84 82 85 84 86 77 87 78 88
REMARK SMILES IDX 79 89 80 90 81 91 57 92 58 93 67 94 59 95 60 96 66 97 68 98
REMARK SMILES IDX 61 99 62 100 63 101 64 102 65 103
REMARK H PARENT 23 6 7 18 13 23 27 34 89 53 55 64
REMARK Flexibility Score: inf
ROOT
ATOM      1  C   UNL A   1      38.939  22.397  26.346  1.00  0.00     0.042 C 
ENDROOT
BRANCH   1   2
ATOM      2  C   UNL A   1      37.762  23.207  25.882  1.00  0.00     0.117 C 
BRANCH   2   3
ATOM      3  N   UNL A   1      37.413  23.128  24.493  1.00  0.00    -0.356 N 
ATOM      4  C   UNL A   1      36.167  23.300  23.967  1.00  0.00     0.229 C 
ATOM      5  O   UNL A   1      36.068  23.305  22.734  1.00  0.00    -0.275 OA
ATOM      6  H   UNL A   1      38.141  22.932  23.860  1.00  0.00     0.163 HD
BRANCH   4   7
ATOM      7  C   UNL A   1      34.894  23.407  24.845  1.00  0.00     0.142 C 
BRANCH   7   8
ATOM      8  C   UNL A   1      34.355  24.845  24.734  1.00  0.00     0.276 C 
BRANCH   8   9
ATOM      9  N   UNL A   1      33.867  25.467  23.493  1.00  0.00    -0.331 N 
ATOM     10  C   UNL A   1      29.710  28.566  23.508  1.00  0.00     0.114 C 
ATOM     11  C   UNL A   1      29.878  27.083  23.662  1.00  0.00     0.219 C 
ATOM     12  O   UNL A   1      28.897  26.340  23.658  1.00  0.00    -0.275 OA
ATOM     13  N   UNL A   1      31.175  26.609  23.699  1.00  0.00    -0.332 N 
ATOM     14  C   UNL A   1      31.365  25.186  23.482  1.00  0.00     0.181 C 
ATOM     15  C   UNL A   1      32.327  27.325  24.271  1.00  0.00     0.181 C 
ATOM     16  C   UNL A   1      32.705  24.909  22.802  1.00  0.00     0.284 C 
ATOM     17  C   UNL A   1      33.675  26.927  23.625  1.00  0.00     0.284 C 
ATOM     18  H   UNL A   1      34.651  25.225  22.886  1.00  0.00     0.348 HD
ENDBRANCH   8   9
ENDBRANCH   7   8
BRANCH   7  19
ATOM     19  C   UNL A   1      34.024  22.148  24.948  1.00  0.00     0.119 C 
BRANCH  19  20
ATOM     20  C   UNL A   1      33.881  21.030  25.996  1.00  0.00     0.225 C 
ATOM     21  O   UNL A   1      33.894  21.415  27.182  1.00  0.00    -0.275 OA
ATOM     22  N   UNL A   1      33.591  19.718  25.869  1.00  0.00    -0.324 N 
ATOM     23  H   UNL A   1      33.333  19.335  26.739  1.00  0.00     0.170 HD
BRANCH  22  24
ATOM     24  C   UNL A   1      33.545  18.736  24.866  1.00  0.00     0.077 A 
ATOM     25  C   UNL A   1      34.438  17.669  25.031  1.00  0.00     0.029 A 
ATOM     26  C   UNL A   1      32.810  18.779  23.682  1.00  0.00     0.146 A 
ATOM     27  C   UNL A   1      34.484  16.616  24.111  1.00  0.00     0.002 A 
ATOM     28  C   UNL A   1      32.854  17.737  22.753  1.00  0.00     0.041 A 
ATOM     29  F   UNL A   1      32.102  19.856  23.336  1.00  0.00    -0.205 F 
ATOM     30  C   UNL A   1      33.674  16.638  22.980  1.00  0.00     0.003 A 
ENDBRANCH  22  24
ENDBRANCH  19  20
ENDBRANCH   7  19
ENDBRANCH   4   7
ENDBRANCH   2   3
ENDBRANCH   1   2
BRANCH   1  31
ATOM     31  C   UNL A   1      39.986  23.222  27.044  1.00  0.00     0.118 C 
BRANCH  31  32
ATOM     32  N   UNL A   1      40.895  23.904  26.125  1.00  0.00    -0.352 N 
ATOM     33  C   UNL A   1      41.362  25.197  26.088  1.00  0.00     0.251 C 
ATOM     34  H   UNL A   1      41.235  23.332  25.400  1.00  0.00     0.163 HD
ATOM     35  O   UNL A   1      42.039  25.561  25.134  1.00  0.00    -0.269 OA
BRANCH  33  36
ATOM     36  C   UNL A   1      41.026  26.156  27.165  1.00  0.00     0.039 A 
ATOM     37  C   UNL A   1      40.045  25.819  28.101  1.00  0.00     0.014 A 
ATOM     38  C   UNL A   1      41.678  27.381  27.270  1.00  0.00     0.014 A 
ATOM     39  C   UNL A   1      39.789  26.679  29.171  1.00  0.00     0.010 A 
ATOM     40  C   UNL A   1      41.565  28.133  28.427  1.00  0.00     0.010 A 
ATOM     41  C   UNL A   1      40.584  27.820  29.371  1.00  0.00    -0.014 A 
BRANCH  41  42
ATOM     42  C   UNL A   1      40.373  28.727  30.526  1.00  0.00     0.031 A 
ATOM     43  C   UNL A   1      41.224  28.589  31.764  1.00  0.00     0.074 A 
ATOM     44  C   UNL A   1      39.385  29.642  30.479  1.00  0.00     0.049 A 
ATOM     45  N   UNL A   1      41.190  29.288  32.870  1.00  0.00    -0.248 NA
ATOM     46  C   UNL A   1      42.212  27.496  31.789  1.00  0.00     0.031 C 
ATOM     47  C   UNL A   1      38.434  29.804  29.376  1.00  0.00     0.029 A 
ATOM     48  N   UNL A   1      39.021  30.616  31.373  1.00  0.00    -0.354 N 
ATOM     49  C   UNL A   1      42.128  28.705  33.715  1.00  0.00     0.074 A 
ATOM     50  C   UNL A   1      42.651  27.544  33.036  1.00  0.00     0.031 C 
ATOM     51  C   UNL A   1      37.642  30.857  29.628  1.00  0.00     0.029 A 
ATOM     52  C   UNL A   1      38.002  31.421  30.925  1.00  0.00     0.049 A 
ATOM     53  H   UNL A   1      39.450  30.727  32.253  1.00  0.00     0.167 HD
ATOM     54  C   UNL A   1      42.552  29.125  34.929  1.00  0.00     0.037 A 
ATOM     55  C   UNL A   1      37.433  32.506  31.487  1.00  0.00     0.037 A 
ATOM     56  C   UNL A   1      42.063  30.315  35.571  1.00  0.00     0.049 A 
ATOM     57  C   UNL A   1      37.953  32.991  32.810  1.00  0.00     0.074 A 
ATOM     58  C   UNL A   1      42.483  30.885  36.757  1.00  0.00     0.029 A 
ATOM     59  N   UNL A   1      41.046  31.118  35.074  1.00  0.00    -0.354 N 
ATOM     60  N   UNL A   1      38.903  32.479  33.558  1.00  0.00    -0.248 NA
ATOM     61  C   UNL A   1      37.336  34.203  33.362  1.00  0.00     0.031 C 
ATOM     62  C   UNL A   1      41.685  32.007  37.005  1.00  0.00     0.029 A 
ATOM     63  C   UNL A   1      40.805  32.166  35.945  1.00  0.00     0.049 A 
ATOM     64  H   UNL A   1      40.567  30.965  34.228  1.00  0.00     0.167 HD
ATOM     65  C   UNL A   1      39.002  33.309  34.667  1.00  0.00     0.074 A 
ATOM     66  C   UNL A   1      38.033  34.370  34.479  1.00  0.00     0.031 C 
ATOM     67  C   UNL A   1      39.820  33.201  35.745  1.00  0.00     0.037 A 
BRANCH  54  68
ATOM     68  C   UNL A   1      43.608  28.306  35.623  1.00  0.00     0.058 A 
ATOM     69  C   UNL A   1      43.245  27.294  36.526  1.00  0.00     0.135 A 
ATOM     70  C   UNL A   1      44.980  28.528  35.410  1.00  0.00     0.135 A 
ATOM     71  F   UNL A   1      41.951  27.030  36.764  1.00  0.00    -0.206 F 
ATOM     72  C   UNL A   1      44.202  26.536  37.194  1.00  0.00     0.059 A 
ATOM     73  C   UNL A   1      45.953  27.760  36.042  1.00  0.00     0.059 A 
ATOM     74  F   UNL A   1      45.385  29.466  34.539  1.00  0.00    -0.206 F 
ATOM     75  C   UNL A   1      45.554  26.773  36.942  1.00  0.00     0.060 A 
BRANCH  75  76
ATOM     76  S   UNL A   1      46.781  25.741  37.771  1.00  0.00     0.124 S 
ATOM     77  O   UNL A   1      45.951  24.683  38.334  1.00  0.00    -0.237 OA
ATOM     78  O   UNL A   1      47.651  25.350  36.665  1.00  0.00    -0.237 OA
ATOM     79  O   UNL A   1      47.388  26.649  38.740  1.00  0.00    -0.744 OA
ENDBRANCH  75  76
ENDBRANCH  54  68
BRANCH  55  80
ATOM     80  C   UNL A   1      36.359  33.224  30.751  1.00  0.00     0.058 A 
ATOM     81  C   UNL A   1      36.655  34.052  29.658  1.00  0.00     0.135 A 
ATOM     82  C   UNL A   1      35.028  33.174  31.193  1.00  0.00     0.135 A 
ATOM     83  F   UNL A   1      37.915  34.146  29.205  1.00  0.00    -0.206 F 
ATOM     84  C   UNL A   1      35.679  34.838  29.055  1.00  0.00     0.059 A 
ATOM     85  C   UNL A   1      34.028  33.934  30.590  1.00  0.00     0.059 A 
ATOM     86  F   UNL A   1      34.695  32.390  32.229  1.00  0.00    -0.206 F 
ATOM     87  C   UNL A   1      34.371  34.782  29.537  1.00  0.00     0.060 A 
BRANCH  87  88
ATOM     88  S   UNL A   1      33.136  35.865  28.786  1.00  0.00     0.124 S 
ATOM     89  O   UNL A   1      32.489  36.431  29.966  1.00  0.00    -0.237 OA
ATOM     90  O   UNL A   1      33.965  36.785  28.015  1.00  0.00    -0.237 OA
ATOM     91  O   UNL A   1      32.317  34.949  27.999  1.00  0.00    -0.744 OA
ENDBRANCH  87  88
ENDBRANCH  55  80
BRANCH  67  92
ATOM     92  C   UNL A   1      39.696  34.252  36.813  1.00  0.00     0.058 A 
ATOM     93  C   UNL A   1      40.433  35.443  36.730  1.00  0.00     0.135 A 
ATOM     94  C   UNL A   1      38.898  34.048  37.950  1.00  0.00     0.135 A 
ATOM     95  F   UNL A   1      41.220  35.681  35.669  1.00  0.00    -0.206 F 
ATOM     96  C   UNL A   1      40.391  36.393  37.743  1.00  0.00     0.059 A 
ATOM     97  C   UNL A   1      38.818  35.000  38.962  1.00  0.00     0.059 A 
ATOM     98  F   UNL A   1      38.168  32.929  38.071  1.00  0.00    -0.206 F 
ATOM     99  C   UNL A   1      39.579  36.163  38.855  1.00  0.00     0.060 A 
BRANCH  99 100
ATOM    100  S   UNL A   1      39.509  37.425  40.143  1.00  0.00     0.124 S 
ATOM    101  O   UNL A   1      40.874  37.939  40.133  1.00  0.00    -0.237 OA
ATOM    102  O   UNL A   1      38.485  38.331  39.631  1.00  0.00    -0.237 OA
ATOM    103  O   UNL A   1      39.129  36.671  41.335  1.00  0.00    -0.744 OA
ENDBRANCH  99 100
ENDBRANCH  67  92
ENDBRANCH  41  42
ENDBRANCH  33  36
ENDBRANCH  31  32
ENDBRANCH   1  31
TORSDOF 18
ENDMDL
MODEL 2
REMARK VINA RESULT:     -12.7      6.546     12.343
REMARK SMILES CC(=O)N1CC[NH+](C[C@@H](CC(=O)Nc2ccccc2F)C(=O)NCCCNC(=O)c2ccc(-c3c4nc(c(-c5c(F)cc(S(=O)(=O)[O-])cc5F)c5ccc([nH]5)c(-c5c(F)cc(S(=O)(=O)[O-])cc5F)c5nc(c(-c6c(F)cc(S(=O)(=O)[O-])cc6F)c6ccc3[nH]6)C=C5)C=C4)cc2)CC1
REMARK SMILES IDX 25 1 24 2 23 3 21 4 22 5 9 7 8 8 7 9 1 10 2 11 3 12 4 13
REMARK SMILES IDX 5 14 97 15 6 16 96 17 10 19 11 20 12 21 13 22 14 24 15 25
REMARK SMILES IDX 19 26 16 27 18 28 20 29 17 30 26 31 27 32 28 33 29 35 30 36
REMARK SMILES IDX 31 37 95 38 32 39 94 40 33 41 34 42 35 43 88 44 36 45 93 46
REMARK SMILES IDX 87 47 89 48 37 49 92 50 86 51 85 52 38 54 72 55 51 56 71 57
REMARK SMILES IDX 52 58 55 59 70 60 90 61 53 62 54 63 69 65 91 66 56 67 39 68
REMARK SMILES IDX 40 69 49 70 41 71 42 72 48 73 50 74 43 75 44 76 45 77 46 78
REMARK SMILES IDX 47 79 73 80 74 81 83 82 75 83 76 84 82 85 84 86 77 87 78 88
REMARK SMILES IDX 79 89 80 90 81 91 57 92 58 93 67 94 59 95 60 96 66 97 68 98
REMARK SMILES IDX 61 99 62 100 63 101 64 102 65 103
REMARK H PARENT 23 6 7 18 13 23 27 34 89 53 55 64
REMARK Flexibility Score: inf
ROOT
ATOM      1  C   UNL A   1      34.413  30.662  27.315  1.00  0.00     0.042 C 
ENDROOT
BRANCH   1   2
ATOM      2  C   UNL A   1      34.231  29.171  27.328  1.00  0.00     0.117 C 
BRANCH   2   3
ATOM      3  N   UNL A   1      32.911  28.669  27.579  1.00  0.00    -0.356 N 
ATOM      4  C   UNL A   1      32.329  27.601  26.964  1.00  0.00     0.229 C 
ATOM      5  O   UNL A   1      31.222  27.240  27.382  1.00  0.00    -0.275 OA
ATOM      6  H   UNL A   1      32.376  29.140  28.257  1.00  0.00     0.163 HD
BRANCH   4   7
ATOM      7  C   UNL A   1      32.960  26.891  25.738  1.00  0.00     0.142 C 
BRANCH   7   8
ATOM      8  C   UNL A   1      33.174  25.410  26.099  1.00  0.00     0.276 C 
BRANCH   8   9
ATOM      9  N   UNL A   1      32.098  24.422  26.273  1.00  0.00    -0.331 N 
ATOM     10  C   UNL A   1      32.552  19.612  24.392  1.00  0.00     0.114 C 
ATOM     11  C   UNL A   1      32.334  20.946  23.741  1.00  0.00     0.219 C 
ATOM     12  O   UNL A   1      32.055  21.018  22.544  1.00  0.00    -0.275 OA
ATOM     13  N   UNL A   1      32.359  22.050  24.571  1.00  0.00    -0.332 N 
ATOM     14  C   UNL A   1      31.801  23.283  24.047  1.00  0.00     0.181 C 
ATOM     15  C   UNL A   1      33.191  22.189  25.776  1.00  0.00     0.181 C 
ATOM     16  C   UNL A   1      31.189  24.127  25.165  1.00  0.00     0.284 C 
ATOM     17  C   UNL A   1      32.583  23.143  26.832  1.00  0.00     0.284 C 
ATOM     18  H   UNL A   1      31.518  24.946  26.929  1.00  0.00     0.348 HD
ENDBRANCH   8   9
ENDBRANCH   7   8
BRANCH   7  19
ATOM     19  C   UNL A   1      32.539  27.407  24.356  1.00  0.00     0.119 C 
BRANCH  19  20
ATOM     20  C   UNL A   1      32.379  28.809  23.741  1.00  0.00     0.225 C 
ATOM     21  O   UNL A   1      33.447  29.419  23.538  1.00  0.00    -0.275 OA
ATOM     22  N   UNL A   1      31.302  29.446  23.238  1.00  0.00    -0.324 N 
ATOM     23  H   UNL A   1      31.579  30.226  22.703  1.00  0.00     0.170 HD
BRANCH  22  24
ATOM     24  C   UNL A   1      29.902  29.330  23.248  1.00  0.00     0.077 A 
ATOM     25  C   UNL A   1      29.409  28.018  23.259  1.00  0.00     0.029 A 
ATOM     26  C   UNL A   1      28.974  30.362  23.119  1.00  0.00     0.146 A 
ATOM     27  C   UNL A   1      28.033  27.764  23.284  1.00  0.00     0.002 A 
ATOM     28  C   UNL A   1      27.598  30.119  23.136  1.00  0.00     0.041 A 
ATOM     29  F   UNL A   1      29.353  31.620  22.882  1.00  0.00    -0.205 F 
ATOM     30  C   UNL A   1      27.125  28.816  23.246  1.00  0.00     0.003 A 
ENDBRANCH  22  24
ENDBRANCH  19  20
ENDBRANCH   7  19
ENDBRANCH   4   7
ENDBRANCH   2   3
ENDBRANCH   1   2
BRANCH   1  31
ATOM     31  C   UNL A   1      35.589  31.120  28.135  1.00  0.00     0.118 C 
BRANCH  31  32
ATOM     32  N   UNL A   1      35.515  30.711  29.535  1.00  0.00    -0.352 N 
ATOM     33  C   UNL A   1      36.438  30.123  30.369  1.00  0.00     0.251 C 
ATOM     34  H   UNL A   1      34.646  30.890  29.960  1.00  0.00     0.163 HD
ATOM     35  O   UNL A   1      36.091  29.769  31.490  1.00  0.00    -0.269 OA
BRANCH  33  36
ATOM     36  C   UNL A   1      37.826  29.882  29.914  1.00  0.00     0.039 A 
ATOM     37  C   UNL A   1      38.817  29.600  30.857  1.00  0.00     0.014 A 
ATOM     38  C   UNL A   1      38.159  29.920  28.564  1.00  0.00     0.014 A 
ATOM     39  C   UNL A   1      40.108  29.282  30.427  1.00  0.00     0.010 A 
ATOM     40  C   UNL A   1      39.375  29.418  28.132  1.00  0.00     0.010 A 
ATOM     41  C   UNL A   1      40.384  29.138  29.057  1.00  0.00    -0.014 A 
BRANCH  41  42
ATOM     42  C   UNL A   1      41.730  28.751  28.568  1.00  0.00     0.031 A 
ATOM     43  C   UNL A   1      42.844  29.768  28.530  1.00  0.00     0.074 A 
ATOM     44  C   UNL A   1      41.937  27.499  28.115  1.00  0.00     0.049 A 
ATOM     45  N   UNL A   1      44.084  29.618  28.139  1.00  0.00    -0.248 NA
ATOM     46  C   UNL A   1      42.518  31.146  28.937  1.00  0.00     0.031 C 
ATOM     47  C   UNL A   1      40.912  26.457  28.011  1.00  0.00     0.029 A 
ATOM     48  N   UNL A   1      43.078  26.884  27.668  1.00  0.00    -0.354 N 
ATOM     49  C   UNL A   1      44.666  30.877  28.235  1.00  0.00     0.074 A 
ATOM     50  C   UNL A   1      43.628  31.797  28.632  1.00  0.00     0.031 C 
ATOM     51  C   UNL A   1      41.483  25.316  27.597  1.00  0.00     0.029 A 
ATOM     52  C   UNL A   1      42.905  25.554  27.369  1.00  0.00     0.049 A 
ATOM     53  H   UNL A   1      43.939  27.351  27.570  1.00  0.00     0.167 HD
ATOM     54  C   UNL A   1      45.960  31.229  28.056  1.00  0.00     0.037 A 
ATOM     55  C   UNL A   1      43.796  24.623  26.974  1.00  0.00     0.037 A 
ATOM     56  C   UNL A   1      46.995  30.292  27.714  1.00  0.00     0.049 A 
ATOM     57  C   UNL A   1      45.238  25.018  26.832  1.00  0.00     0.074 A 
ATOM     58  C   UNL A   1      48.354  30.518  27.594  1.00  0.00     0.029 A 
ATOM     59  N   UNL A   1      46.785  28.947  27.442  1.00  0.00    -0.354 N 
ATOM     60  N   UNL A   1      45.789  26.196  27.011  1.00  0.00    -0.248 NA
ATOM     61  C   UNL A   1      46.181  23.962  26.446  1.00  0.00     0.031 C 
ATOM     62  C   UNL A   1      48.959  29.321  27.199  1.00  0.00     0.029 A 
ATOM     63  C   UNL A   1      47.986  28.336  27.127  1.00  0.00     0.049 A 
ATOM     64  H   UNL A   1      45.911  28.495  27.469  1.00  0.00     0.167 HD
ATOM     65  C   UNL A   1      47.146  26.023  26.766  1.00  0.00     0.074 A 
ATOM     66  C   UNL A   1      47.333  24.620  26.449  1.00  0.00     0.031 C 
ATOM     67  C   UNL A   1      48.145  26.941  26.796  1.00  0.00     0.037 A 
BRANCH  54  68
ATOM     68  C   UNL A   1      46.324  32.677  28.247  1.00  0.00     0.058 A 
ATOM     69  C   UNL A   1      46.715  33.152  29.508  1.00  0.00     0.135 A 
ATOM     70  C   UNL A   1      46.273  33.601  27.189  1.00  0.00     0.135 A 
ATOM     71  F   UNL A   1      46.791  32.316  30.554  1.00  0.00    -0.206 F 
ATOM     72  C   UNL A   1      47.039  34.490  29.715  1.00  0.00     0.059 A 
ATOM     73  C   UNL A   1      46.624  34.937  27.365  1.00  0.00     0.059 A 
ATOM     74  F   UNL A   1      45.930  33.198  25.955  1.00  0.00    -0.206 F 
ATOM     75  C   UNL A   1      46.995  35.374  28.636  1.00  0.00     0.060 A 
BRANCH  75  76
ATOM     76  S   UNL A   1      47.476  37.093  28.907  1.00  0.00     0.124 S 
ATOM     77  O   UNL A   1      46.388  37.814  28.257  1.00  0.00    -0.237 OA
ATOM     78  O   UNL A   1      47.515  37.175  30.364  1.00  0.00    -0.237 OA
ATOM     79  O   UNL A   1      48.776  37.188  28.250  1.00  0.00    -0.744 OA
ENDBRANCH  75  76
ENDBRANCH  54  68
BRANCH  55  80
ATOM     80  C   UNL A   1      43.337  23.226  26.757  1.00  0.00     0.058 A 
ATOM     81  C   UNL A   1      43.040  22.382  27.838  1.00  0.00     0.135 A 
ATOM     82  C   UNL A   1      43.284  22.679  25.466  1.00  0.00     0.135 A 
ATOM     83  F   UNL A   1      43.090  22.853  29.094  1.00  0.00    -0.206 F 
ATOM     84  C   UNL A   1      42.749  21.035  27.651  1.00  0.00     0.059 A 
ATOM     85  C   UNL A   1      42.972  21.338  25.252  1.00  0.00     0.059 A 
ATOM     86  F   UNL A   1      43.551  23.449  24.401  1.00  0.00    -0.206 F 
ATOM     87  C   UNL A   1      42.731  20.519  26.354  1.00  0.00     0.060 A 
BRANCH  87  88
ATOM     88  S   UNL A   1      42.423  18.753  26.141  1.00  0.00     0.124 S 
ATOM     89  O   UNL A   1      41.035  18.752  25.688  1.00  0.00    -0.237 OA
ATOM     90  O   UNL A   1      43.418  18.388  25.139  1.00  0.00    -0.237 OA
ATOM     91  O   UNL A   1      42.648  18.206  27.475  1.00  0.00    -0.744 OA
ENDBRANCH  87  88
ENDBRANCH  55  80
BRANCH  67  92
ATOM     92  C   UNL A   1      49.532  26.463  26.469  1.00  0.00     0.058 A 
ATOM     93  C   UNL A   1      50.384  25.997  27.482  1.00  0.00     0.135 A 
ATOM     94  C   UNL A   1      50.038  26.528  25.161  1.00  0.00     0.135 A 
ATOM     95  F   UNL A   1      49.951  25.925  28.751  1.00  0.00    -0.206 F 
ATOM     96  C   UNL A   1      51.694  25.622  27.213  1.00  0.00     0.059 A 
ATOM     97  C   UNL A   1      51.338  26.129  24.864  1.00  0.00     0.059 A 
ATOM     98  F   UNL A   1      49.260  26.958  24.156  1.00  0.00    -0.206 F 
ATOM     99  C   UNL A   1      52.162  25.691  25.900  1.00  0.00     0.060 A 
BRANCH  99 100
ATOM    100  S   UNL A   1      53.855  25.164  25.563  1.00  0.00     0.124 S 
ATOM    101  O   UNL A   1      53.641  23.966  24.759  1.00  0.00    -0.237 OA
ATOM    102  O   UNL A   1      54.401  26.317  24.853  1.00  0.00    -0.237 OA
ATOM    103  O   UNL A   1      54.410  24.938  26.895  1.00  0.00    -0.744 OA
ENDBRANCH  99 100
ENDBRANCH  67  92
ENDBRANCH  41  42
ENDBRANCH  33  36
ENDBRANCH  31  32
ENDBRANCH   1  31
TORSDOF 18
ENDMDL
MODEL 3
REMARK VINA RESULT:     -12.2      4.421     10.398
REMARK SMILES CC(=O)N1CC[NH+](C[C@@H](CC(=O)Nc2ccccc2F)C(=O)NCCCNC(=O)c2ccc(-c3c4nc(c(-c5c(F)cc(S(=O)(=O)[O-])cc5F)c5ccc([nH]5)c(-c5c(F)cc(S(=O)(=O)[O-])cc5F)c5nc(c(-c6c(F)cc(S(=O)(=O)[O-])cc6F)c6ccc3[nH]6)C=C5)C=C4)cc2)CC1
REMARK SMILES IDX 25 1 24 2 23 3 21 4 22 5 9 7 8 8 7 9 1 10 2 11 3 12 4 13
REMARK SMILES IDX 5 14 97 15 6 16 96 17 10 19 11 20 12 21 13 22 14 24 15 25
REMARK SMILES IDX 19 26 16 27 18 28 20 29 17 30 26 31 27 32 28 33 29 35 30 36
REMARK SMILES IDX 31 37 95 38 32 39 94 40 33 41 34 42 35 43 88 44 36 45 93 46
REMARK SMILES IDX 87 47 89 48 37 49 92 50 86 51 85 52 38 54 72 55 51 56 71 57
REMARK SMILES IDX 52 58 55 59 70 60 90 61 53 62 54 63 69 65 91 66 56 67 39 68
REMARK SMILES IDX 40 69 49 70 41 71 42 72 48 73 50 74 43 75 44 76 45 77 46 78
REMARK SMILES IDX 47 79 73 80 74 81 83 82 75 83 76 84 82 85 84 86 77 87 78 88
REMARK SMILES IDX 79 89 80 90 81 91 57 92 58 93 67 94 59 95 60 96 66 97 68 98
REMARK SMILES IDX 61 99 62 100 63 101 64 102 65 103
REMARK H PARENT 23 6 7 18 13 23 27 34 89 53 55 64
REMARK Flexibility Score: inf
ROOT
ATOM      1  C   UNL A   1      33.682  27.738  26.116  1.00  0.00     0.042 C 
ENDROOT
BRANCH   1   2
ATOM      2  C   UNL A   1      33.201  26.336  25.872  1.00  0.00     0.117 C 
BRANCH   2   3
ATOM      3  N   UNL A   1      31.828  26.049  26.174  1.00  0.00    -0.356 N 
ATOM      4  C   UNL A   1      31.226  24.829  26.089  1.00  0.00     0.229 C 
ATOM      5  O   UNL A   1      30.061  24.743  26.493  1.00  0.00    -0.275 OA
ATOM      6  H   UNL A   1      31.269  26.803  26.470  1.00  0.00     0.163 HD
BRANCH   4   7
ATOM      7  C   UNL A   1      31.914  23.597  25.445  1.00  0.00     0.142 C 
BRANCH   7   8
ATOM      8  C   UNL A   1      31.886  22.445  26.466  1.00  0.00     0.276 C 
BRANCH   8   9
ATOM      9  N   UNL A   1      33.050  21.627  26.842  1.00  0.00    -0.331 N 
ATOM     10  C   UNL A   1      37.881  23.235  25.861  1.00  0.00     0.114 C 
ATOM     11  C   UNL A   1      36.777  22.723  24.982  1.00  0.00     0.219 C 
ATOM     12  O   UNL A   1      36.993  22.459  23.800  1.00  0.00    -0.275 OA
ATOM     13  N   UNL A   1      35.566  22.472  25.596  1.00  0.00    -0.332 N 
ATOM     14  C   UNL A   1      34.615  21.650  24.869  1.00  0.00     0.181 C 
ATOM     15  C   UNL A   1      35.017  23.224  26.735  1.00  0.00     0.181 C 
ATOM     16  C   UNL A   1      33.747  20.836  25.829  1.00  0.00     0.284 C 
ATOM     17  C   UNL A   1      34.056  22.388  27.614  1.00  0.00     0.284 C 
ATOM     18  H   UNL A   1      32.566  20.928  27.406  1.00  0.00     0.348 HD
ENDBRANCH   8   9
ENDBRANCH   7   8
BRANCH   7  19
ATOM     19  C   UNL A   1      31.746  23.433  23.929  1.00  0.00     0.119 C 
BRANCH  19  20
ATOM     20  C   UNL A   1      32.456  24.034  22.703  1.00  0.00     0.225 C 
ATOM     21  O   UNL A   1      33.054  23.209  21.984  1.00  0.00    -0.275 OA
ATOM     22  N   UNL A   1      32.428  25.275  22.175  1.00  0.00    -0.324 N 
ATOM     23  H   UNL A   1      32.793  25.269  21.259  1.00  0.00     0.170 HD
BRANCH  22  24
ATOM     24  C   UNL A   1      32.033  26.573  22.538  1.00  0.00     0.077 A 
ATOM     25  C   UNL A   1      30.676  26.721  22.856  1.00  0.00     0.029 A 
ATOM     26  C   UNL A   1      32.809  27.730  22.490  1.00  0.00     0.146 A 
ATOM     27  C   UNL A   1      30.156  27.959  23.248  1.00  0.00     0.002 A 
ATOM     28  C   UNL A   1      32.298  28.973  22.873  1.00  0.00     0.041 A 
ATOM     29  F   UNL A   1      34.047  27.723  21.990  1.00  0.00    -0.205 F 
ATOM     30  C   UNL A   1      30.974  29.084  23.279  1.00  0.00     0.003 A 
ENDBRANCH  22  24
ENDBRANCH  19  20
ENDBRANCH   7  19
ENDBRANCH   4   7
ENDBRANCH   2   3
ENDBRANCH   1   2
BRANCH   1  31
ATOM     31  C   UNL A   1      33.321  28.258  27.481  1.00  0.00     0.118 C 
BRANCH  31  32
ATOM     32  N   UNL A   1      33.370  29.715  27.579  1.00  0.00    -0.352 N 
ATOM     33  C   UNL A   1      34.388  30.579  27.909  1.00  0.00     0.251 C 
ATOM     34  H   UNL A   1      32.517  30.159  27.370  1.00  0.00     0.163 HD
ATOM     35  O   UNL A   1      34.143  31.773  28.032  1.00  0.00    -0.269 OA
BRANCH  33  36
ATOM     36  C   UNL A   1      35.760  30.077  28.151  1.00  0.00     0.039 A 
ATOM     37  C   UNL A   1      36.710  30.160  27.130  1.00  0.00     0.014 A 
ATOM     38  C   UNL A   1      36.123  29.535  29.379  1.00  0.00     0.014 A 
ATOM     39  C   UNL A   1      38.028  29.772  27.382  1.00  0.00     0.010 A 
ATOM     40  C   UNL A   1      37.459  29.338  29.685  1.00  0.00     0.010 A 
ATOM     41  C   UNL A   1      38.425  29.406  28.679  1.00  0.00    -0.014 A 
BRANCH  41  42
ATOM     42  C   UNL A   1      39.828  29.039  28.992  1.00  0.00     0.031 A 
ATOM     43  C   UNL A   1      40.717  30.006  29.733  1.00  0.00     0.074 A 
ATOM     44  C   UNL A   1      40.314  27.855  28.568  1.00  0.00     0.049 A 
ATOM     45  N   UNL A   1      41.966  29.864  30.098  1.00  0.00    -0.248 NA
ATOM     46  C   UNL A   1      40.152  31.325  30.069  1.00  0.00     0.031 C 
ATOM     47  C   UNL A   1      39.579  26.880  27.759  1.00  0.00     0.029 A 
ATOM     48  N   UNL A   1      41.535  27.265  28.768  1.00  0.00    -0.354 N 
ATOM     49  C   UNL A   1      42.330  31.073  30.679  1.00  0.00     0.074 A 
ATOM     50  C   UNL A   1      41.208  31.969  30.540  1.00  0.00     0.031 C 
ATOM     51  C   UNL A   1      40.338  25.787  27.589  1.00  0.00     0.029 A 
ATOM     52  C   UNL A   1      41.626  25.998  28.243  1.00  0.00     0.049 A 
ATOM     53  H   UNL A   1      42.277  27.707  29.241  1.00  0.00     0.167 HD
ATOM     54  C   UNL A   1      43.480  31.396  31.316  1.00  0.00     0.037 A 
ATOM     55  C   UNL A   1      42.627  25.098  28.300  1.00  0.00     0.037 A 
ATOM     56  C   UNL A   1      44.570  30.476  31.497  1.00  0.00     0.049 A 
ATOM     57  C   UNL A   1      43.875  25.452  29.057  1.00  0.00     0.074 A 
ATOM     58  C   UNL A   1      45.744  30.663  32.200  1.00  0.00     0.029 A 
ATOM     59  N   UNL A   1      44.615  29.192  30.971  1.00  0.00    -0.354 N 
ATOM     60  N   UNL A   1      44.171  26.570  29.677  1.00  0.00    -0.248 NA
ATOM     61  C   UNL A   1      44.920  24.424  29.132  1.00  0.00     0.031 C 
ATOM     62  C   UNL A   1      46.523  29.510  32.058  1.00  0.00     0.029 A 
ATOM     63  C   UNL A   1      45.810  28.584  31.311  1.00  0.00     0.049 A 
ATOM     64  H   UNL A   1      43.902  28.776  30.434  1.00  0.00     0.167 HD
ATOM     65  C   UNL A   1      45.434  26.380  30.223  1.00  0.00     0.074 A 
ATOM     66  C   UNL A   1      45.835  25.029  29.879  1.00  0.00     0.031 C 
ATOM     67  C   UNL A   1      46.195  27.245  30.940  1.00  0.00     0.037 A 
BRANCH  54  68
ATOM     68  C   UNL A   1      43.602  32.787  31.878  1.00  0.00     0.058 A 
ATOM     69  C   UNL A   1      44.192  33.811  31.122  1.00  0.00     0.135 A 
ATOM     70  C   UNL A   1      43.150  33.108  33.170  1.00  0.00     0.135 A 
ATOM     71  F   UNL A   1      44.635  33.568  29.879  1.00  0.00    -0.206 F 
ATOM     72  C   UNL A   1      44.333  35.101  31.626  1.00  0.00     0.059 A 
ATOM     73  C   UNL A   1      43.250  34.398  33.682  1.00  0.00     0.059 A 
ATOM     74  F   UNL A   1      42.554  32.174  33.929  1.00  0.00    -0.206 F 
ATOM     75  C   UNL A   1      43.855  35.386  32.906  1.00  0.00     0.060 A 
BRANCH  75  76
ATOM     76  S   UNL A   1      43.991  37.077  33.522  1.00  0.00     0.124 S 
ATOM     77  O   UNL A   1      42.875  37.146  34.457  1.00  0.00    -0.237 OA
ATOM     78  O   UNL A   1      45.324  37.082  34.117  1.00  0.00    -0.237 OA
ATOM     79  O   UNL A   1      43.852  37.889  32.315  1.00  0.00    -0.744 OA
ENDBRANCH  75  76
ENDBRANCH  54  68
BRANCH  55  80
ATOM     80  C   UNL A   1      42.438  23.764  27.670  1.00  0.00     0.058 A 
ATOM     81  C   UNL A   1      42.129  22.633  28.441  1.00  0.00     0.135 A 
ATOM     82  C   UNL A   1      42.664  23.579  26.298  1.00  0.00     0.135 A 
ATOM     83  F   UNL A   1      41.917  22.755  29.761  1.00  0.00    -0.206 F 
ATOM     84  C   UNL A   1      42.092  21.360  27.883  1.00  0.00     0.059 A 
ATOM     85  C   UNL A   1      42.610  22.316  25.712  1.00  0.00     0.059 A 
ATOM     86  F   UNL A   1      42.955  24.631  25.519  1.00  0.00    -0.206 F 
ATOM     87  C   UNL A   1      42.348  21.210  26.520  1.00  0.00     0.060 A 
BRANCH  87  88
ATOM     88  S   UNL A   1      42.366  19.541  25.832  1.00  0.00     0.124 S 
ATOM     89  O   UNL A   1      40.980  19.389  25.399  1.00  0.00    -0.237 OA
ATOM     90  O   UNL A   1      43.354  19.661  24.765  1.00  0.00    -0.237 OA
ATOM     91  O   UNL A   1      42.765  18.712  26.965  1.00  0.00    -0.744 OA
ENDBRANCH  87  88
ENDBRANCH  55  80
BRANCH  67  92
ATOM     92  C   UNL A   1      47.544  26.763  31.396  1.00  0.00     0.058 A 
ATOM     93  C   UNL A   1      47.696  26.140  32.643  1.00  0.00     0.135 A 
ATOM     94  C   UNL A   1      48.696  26.978  30.623  1.00  0.00     0.135 A 
ATOM     95  F   UNL A   1      46.627  25.920  33.426  1.00  0.00    -0.206 F 
ATOM     96  C   UNL A   1      48.945  25.756  33.116  1.00  0.00     0.059 A 
ATOM     97  C   UNL A   1      49.954  26.575  31.063  1.00  0.00     0.059 A 
ATOM     98  F   UNL A   1      48.602  27.563  29.419  1.00  0.00    -0.206 F 
ATOM     99  C   UNL A   1      50.068  25.976  32.317  1.00  0.00     0.060 A 
BRANCH  99 100
ATOM    100  S   UNL A   1      51.677  25.437  32.930  1.00  0.00     0.124 S 
ATOM    101  O   UNL A   1      52.514  26.594  32.632  1.00  0.00    -0.237 OA
ATOM    102  O   UNL A   1      51.404  25.197  34.344  1.00  0.00    -0.237 OA
ATOM    103  O   UNL A   1      51.956  24.240  32.142  1.00  0.00    -0.744 OA
ENDBRANCH  99 100
ENDBRANCH  67  92
ENDBRANCH  41  42
ENDBRANCH  33  36
ENDBRANCH  31  32
ENDBRANCH   1  31
TORSDOF 18
ENDMDL
