MODEL 1
REMARK VINA RESULT:     -12.3      0.000      0.000
REMARK SMILES Cc1cscc1C(=O)N1C[C@@H](C(=O)NCCCNC(=O)c2ccc(-c3c4nc(c(-c5c(F)cc(S(=O)(=O)[O-])cc5F)c5ccc([nH]5)c(-c5c(F)cc(S(=O)(=O)[O-])cc5F)c5nc(c(-c6c(F)cc(S(=O)(=O)[O-])cc6F)c6ccc3[nH]6)C=C5)C=C4)cc2)Oc2ccccc21
REMARK SMILES IDX 16 1 15 2 14 3 12 4 13 5 11 7 9 8 10 9 93 10 88 11 92 12
REMARK SMILES IDX 87 13 89 14 91 15 90 16 7 17 8 18 6 19 1 20 2 21 3 22 4 23
REMARK SMILES IDX 5 24 17 25 18 26 19 27 20 29 21 30 22 31 86 32 23 33 85 34
REMARK SMILES IDX 24 35 25 36 26 37 79 38 27 39 84 40 78 41 80 42 28 43 83 44
REMARK SMILES IDX 77 45 76 46 29 48 63 49 42 50 62 51 43 52 46 53 61 54 81 55
REMARK SMILES IDX 44 56 45 57 60 59 82 60 47 61 30 62 31 63 40 64 32 65 33 66
REMARK SMILES IDX 39 67 41 68 34 69 35 70 36 71 37 72 38 73 64 74 65 75 74 76
REMARK SMILES IDX 66 77 67 78 73 79 75 80 68 81 69 82 70 83 71 84 72 85 48 86
REMARK SMILES IDX 49 87 58 88 50 89 51 90 57 91 59 92 52 93 53 94 54 95 55 96
REMARK SMILES IDX 56 97
REMARK H PARENT 14 6 18 28 80 47 46 58
REMARK Flexibility Score: inf
ROOT
ATOM      1  C   UNL A   1      32.014  27.806  27.635  1.00  0.00     0.042 C 
ENDROOT
BRANCH   1   2
ATOM      2  C   UNL A   1      31.230  27.205  26.477  1.00  0.00     0.118 C 
BRANCH   2   3
ATOM      3  N   UNL A   1      31.069  25.766  26.558  1.00  0.00    -0.353 N 
ATOM      4  C   UNL A   1      30.752  24.868  25.586  1.00  0.00     0.262 C 
ATOM      5  O   UNL A   1      30.839  23.671  25.887  1.00  0.00    -0.271 OA
ATOM      6  H   UNL A   1      31.213  25.379  27.453  1.00  0.00     0.163 HD
BRANCH   4   7
ATOM      7  C   UNL A   1      30.228  25.275  24.186  1.00  0.00     0.281 C 
ATOM      8  N   UNL A   1      32.220  24.757  22.810  1.00  0.00    -0.301 N 
ATOM      9  C   UNL A   1      30.844  24.352  23.126  1.00  0.00     0.181 C 
ATOM     10  C   UNL A   1      32.449  26.167  22.801  1.00  0.00     0.086 A 
ATOM     11  C   UNL A   1      31.415  27.034  23.186  1.00  0.00     0.144 A 
ATOM     12  C   UNL A   1      33.650  26.732  22.353  1.00  0.00     0.030 A 
ATOM     13  O   UNL A   1      30.225  26.617  23.730  1.00  0.00    -0.477 OA
ATOM     14  C   UNL A   1      31.561  28.422  23.080  1.00  0.00     0.049 A 
ATOM     15  C   UNL A   1      33.808  28.120  22.284  1.00  0.00     0.002 A 
ATOM     16  C   UNL A   1      32.762  28.965  22.638  1.00  0.00     0.004 A 
BRANCH   8  17
ATOM     17  C   UNL A   1      33.247  23.830  22.629  1.00  0.00     0.259 C 
ATOM     18  O   UNL A   1      33.612  23.445  21.518  1.00  0.00    -0.269 OA
BRANCH  17  19
ATOM     19  C   UNL A   1      33.900  23.279  23.829  1.00  0.00     0.053 A 
ATOM     20  C   UNL A   1      32.668  20.965  24.123  1.00  0.00     0.046 C 
ATOM     21  C   UNL A   1      33.672  22.008  24.497  1.00  0.00    -0.028 A 
ATOM     22  C   UNL A   1      34.565  21.827  25.540  1.00  0.00     0.069 A 
ATOM     23  S   UNL A   1      35.674  23.109  25.708  1.00  0.00    -0.151 S 
ATOM     24  C   UNL A   1      34.986  23.936  24.387  1.00  0.00     0.079 A 
ENDBRANCH  17  19
ENDBRANCH   8  17
ENDBRANCH   4   7
ENDBRANCH   2   3
ENDBRANCH   1   2
BRANCH   1  25
ATOM     25  C   UNL A   1      33.295  28.536  27.254  1.00  0.00     0.118 C 
BRANCH  25  26
ATOM     26  N   UNL A   1      33.303  29.944  27.623  1.00  0.00    -0.352 N 
ATOM     27  C   UNL A   1      34.311  30.718  28.152  1.00  0.00     0.251 C 
ATOM     28  H   UNL A   1      32.453  30.417  27.470  1.00  0.00     0.163 HD
ATOM     29  O   UNL A   1      34.070  31.877  28.490  1.00  0.00    -0.269 OA
BRANCH  27  30
ATOM     30  C   UNL A   1      35.668  30.161  28.362  1.00  0.00     0.039 A 
ATOM     31  C   UNL A   1      36.557  30.130  27.282  1.00  0.00     0.014 A 
ATOM     32  C   UNL A   1      36.075  29.672  29.604  1.00  0.00     0.014 A 
ATOM     33  C   UNL A   1      37.876  29.705  27.474  1.00  0.00     0.010 A 
ATOM     34  C   UNL A   1      37.410  29.331  29.815  1.00  0.00     0.010 A 
ATOM     35  C   UNL A   1      38.329  29.352  28.754  1.00  0.00    -0.014 A 
BRANCH  35  36
ATOM     36  C   UNL A   1      39.751  29.005  29.015  1.00  0.00     0.031 A 
ATOM     37  C   UNL A   1      40.692  30.041  29.568  1.00  0.00     0.074 A 
ATOM     38  C   UNL A   1      40.223  27.790  28.669  1.00  0.00     0.049 A 
ATOM     39  N   UNL A   1      41.992  29.990  29.703  1.00  0.00    -0.248 NA
ATOM     40  C   UNL A   1      40.094  31.318  29.992  1.00  0.00     0.031 C 
ATOM     41  C   UNL A   1      39.435  26.707  28.075  1.00  0.00     0.029 A 
ATOM     42  N   UNL A   1      41.490  27.266  28.752  1.00  0.00    -0.354 N 
ATOM     43  C   UNL A   1      42.374  31.241  30.174  1.00  0.00     0.074 A 
ATOM     44  C   UNL A   1      41.169  32.035  30.288  1.00  0.00     0.031 C 
ATOM     45  C   UNL A   1      40.229  25.643  27.870  1.00  0.00     0.029 A 
ATOM     46  C   UNL A   1      41.587  25.978  28.283  1.00  0.00     0.049 A 
ATOM     47  H   UNL A   1      42.256  27.767  29.116  1.00  0.00     0.167 HD
ATOM     48  C   UNL A   1      43.613  31.686  30.491  1.00  0.00     0.037 A 
ATOM     49  C   UNL A   1      42.654  25.159  28.187  1.00  0.00     0.037 A 
ATOM     50  C   UNL A   1      44.803  30.879  30.446  1.00  0.00     0.049 A 
ATOM     51  C   UNL A   1      44.002  25.644  28.637  1.00  0.00     0.074 A 
ATOM     52  C   UNL A   1      46.096  31.227  30.796  1.00  0.00     0.029 A 
ATOM     53  N   UNL A   1      44.840  29.552  30.046  1.00  0.00    -0.354 N 
ATOM     54  N   UNL A   1      44.340  26.827  29.088  1.00  0.00    -0.248 NA
ATOM     55  C   UNL A   1      45.112  24.683  28.569  1.00  0.00     0.031 C 
ATOM     56  C   UNL A   1      46.916  30.108  30.609  1.00  0.00     0.029 A 
ATOM     57  C   UNL A   1      46.130  29.062  30.155  1.00  0.00     0.049 A 
ATOM     58  H   UNL A   1      44.063  29.035  29.732  1.00  0.00     0.167 HD
ATOM     59  C   UNL A   1      45.699  26.750  29.370  1.00  0.00     0.074 A 
ATOM     60  C   UNL A   1      46.119  25.401  29.049  1.00  0.00     0.031 C 
ATOM     61  C   UNL A   1      46.524  27.711  29.848  1.00  0.00     0.037 A 
BRANCH  48  62
ATOM     62  C   UNL A   1      43.737  33.119  30.920  1.00  0.00     0.058 A 
ATOM     63  C   UNL A   1      43.901  34.152  29.985  1.00  0.00     0.135 A 
ATOM     64  C   UNL A   1      43.689  33.463  32.280  1.00  0.00     0.135 A 
ATOM     65  F   UNL A   1      43.971  33.872  28.674  1.00  0.00    -0.206 F 
ATOM     66  C   UNL A   1      44.048  35.476  30.384  1.00  0.00     0.059 A 
ATOM     67  C   UNL A   1      43.814  34.783  32.702  1.00  0.00     0.059 A 
ATOM     68  F   UNL A   1      43.534  32.511  33.213  1.00  0.00    -0.206 F 
ATOM     69  C   UNL A   1      44.012  35.780  31.746  1.00  0.00     0.060 A 
BRANCH  69  70
ATOM     70  S   UNL A   1      44.223  37.497  32.264  1.00  0.00     0.124 S 
ATOM     71  O   UNL A   1      43.345  37.557  33.429  1.00  0.00    -0.237 OA
ATOM     72  O   UNL A   1      45.653  37.573  32.546  1.00  0.00    -0.237 OA
ATOM     73  O   UNL A   1      43.777  38.256  31.099  1.00  0.00    -0.744 OA
ENDBRANCH  69  70
ENDBRANCH  48  62
BRANCH  49  74
ATOM     74  C   UNL A   1      42.480  23.780  27.667  1.00  0.00     0.058 A 
ATOM     75  C   UNL A   1      42.505  23.531  26.287  1.00  0.00     0.135 A 
ATOM     76  C   UNL A   1      42.311  22.690  28.531  1.00  0.00     0.135 A 
ATOM     77  F   UNL A   1      42.661  24.546  25.425  1.00  0.00    -0.206 F 
ATOM     78  C   UNL A   1      42.356  22.245  25.778  1.00  0.00     0.059 A 
ATOM     79  C   UNL A   1      42.174  21.393  28.047  1.00  0.00     0.059 A 
ATOM     80  F   UNL A   1      42.298  22.879  29.859  1.00  0.00    -0.206 F 
ATOM     81  C   UNL A   1      42.191  21.181  26.667  1.00  0.00     0.060 A 
BRANCH  81  82
ATOM     82  S   UNL A   1      42.060  19.504  26.010  1.00  0.00     0.124 S 
ATOM     83  O   UNL A   1      40.638  19.421  25.700  1.00  0.00    -0.237 OA
ATOM     84  O   UNL A   1      42.963  19.544  24.863  1.00  0.00    -0.237 OA
ATOM     85  O   UNL A   1      42.517  18.678  27.124  1.00  0.00    -0.744 OA
ENDBRANCH  81  82
ENDBRANCH  49  74
BRANCH  61  86
ATOM     86  C   UNL A   1      47.955  27.332  30.083  1.00  0.00     0.058 A 
ATOM     87  C   UNL A   1      48.932  27.526  29.096  1.00  0.00     0.135 A 
ATOM     88  C   UNL A   1      48.360  26.818  31.324  1.00  0.00     0.135 A 
ATOM     89  F   UNL A   1      48.590  28.009  27.891  1.00  0.00    -0.206 F 
ATOM     90  C   UNL A   1      50.267  27.210  29.328  1.00  0.00     0.059 A 
ATOM     91  C   UNL A   1      49.691  26.507  31.582  1.00  0.00     0.059 A 
ATOM     92  F   UNL A   1      47.460  26.620  32.299  1.00  0.00    -0.206 F 
ATOM     93  C   UNL A   1      50.636  26.700  30.574  1.00  0.00     0.060 A 
BRANCH  93  94
ATOM     94  S   UNL A   1      52.376  26.329  30.888  1.00  0.00     0.124 S 
ATOM     95  O   UNL A   1      52.792  27.502  31.649  1.00  0.00    -0.237 OA
ATOM     96  O   UNL A   1      52.305  25.081  31.640  1.00  0.00    -0.237 OA
ATOM     97  O   UNL A   1      52.941  26.213  29.547  1.00  0.00    -0.744 OA
ENDBRANCH  93  94
ENDBRANCH  61  86
ENDBRANCH  35  36
ENDBRANCH  27  30
ENDBRANCH  25  26
ENDBRANCH   1  25
TORSDOF 15
ENDMDL
MODEL 2
REMARK VINA RESULT:     -12.3      2.569      3.950
REMARK SMILES Cc1cscc1C(=O)N1C[C@@H](C(=O)NCCCNC(=O)c2ccc(-c3c4nc(c(-c5c(F)cc(S(=O)(=O)[O-])cc5F)c5ccc([nH]5)c(-c5c(F)cc(S(=O)(=O)[O-])cc5F)c5nc(c(-c6c(F)cc(S(=O)(=O)[O-])cc6F)c6ccc3[nH]6)C=C5)C=C4)cc2)Oc2ccccc21
REMARK SMILES IDX 16 1 15 2 14 3 12 4 13 5 11 7 9 8 10 9 93 10 88 11 92 12
REMARK SMILES IDX 87 13 89 14 91 15 90 16 7 17 8 18 6 19 1 20 2 21 3 22 4 23
REMARK SMILES IDX 5 24 17 25 18 26 19 27 20 29 21 30 22 31 86 32 23 33 85 34
REMARK SMILES IDX 24 35 25 36 26 37 79 38 27 39 84 40 78 41 80 42 28 43 83 44
REMARK SMILES IDX 77 45 76 46 29 48 63 49 42 50 62 51 43 52 46 53 61 54 81 55
REMARK SMILES IDX 44 56 45 57 60 59 82 60 47 61 30 62 31 63 40 64 32 65 33 66
REMARK SMILES IDX 39 67 41 68 34 69 35 70 36 71 37 72 38 73 64 74 65 75 74 76
REMARK SMILES IDX 66 77 67 78 73 79 75 80 68 81 69 82 70 83 71 84 72 85 48 86
REMARK SMILES IDX 49 87 58 88 50 89 51 90 57 91 59 92 52 93 53 94 54 95 55 96
REMARK SMILES IDX 56 97
REMARK H PARENT 14 6 18 28 80 47 46 58
REMARK Flexibility Score: inf
ROOT
ATOM      1  C   UNL A   1      33.647  28.911  27.479  1.00  0.00     0.042 C 
ENDROOT
BRANCH   1   2
ATOM      2  C   UNL A   1      33.494  28.027  26.249  1.00  0.00     0.118 C 
BRANCH   2   3
ATOM      3  N   UNL A   1      32.417  27.060  26.349  1.00  0.00    -0.353 N 
ATOM      4  C   UNL A   1      32.465  25.701  26.362  1.00  0.00     0.262 C 
ATOM      5  O   UNL A   1      31.408  25.111  26.623  1.00  0.00    -0.271 OA
ATOM      6  H   UNL A   1      31.514  27.447  26.421  1.00  0.00     0.163 HD
BRANCH   4   7
ATOM      7  C   UNL A   1      33.732  24.887  25.998  1.00  0.00     0.281 C 
ATOM      8  N   UNL A   1      33.515  24.825  23.533  1.00  0.00    -0.301 N 
ATOM      9  C   UNL A   1      34.283  25.382  24.654  1.00  0.00     0.181 C 
ATOM     10  C   UNL A   1      33.071  23.479  23.712  1.00  0.00     0.086 A 
ATOM     11  C   UNL A   1      33.294  22.839  24.941  1.00  0.00     0.144 A 
ATOM     12  C   UNL A   1      32.479  22.737  22.682  1.00  0.00     0.030 A 
ATOM     13  O   UNL A   1      33.778  23.472  26.060  1.00  0.00    -0.477 OA
ATOM     14  C   UNL A   1      32.979  21.488  25.119  1.00  0.00     0.049 A 
ATOM     15  C   UNL A   1      32.129  21.396  22.872  1.00  0.00     0.002 A 
ATOM     16  C   UNL A   1      32.387  20.769  24.086  1.00  0.00     0.004 A 
BRANCH   8  17
ATOM     17  C   UNL A   1      33.162  25.588  22.419  1.00  0.00     0.259 C 
ATOM     18  O   UNL A   1      33.575  25.345  21.285  1.00  0.00    -0.269 OA
BRANCH  17  19
ATOM     19  C   UNL A   1      32.275  26.744  22.626  1.00  0.00     0.053 A 
ATOM     20  C   UNL A   1      33.969  28.765  22.586  1.00  0.00     0.046 C 
ATOM     21  C   UNL A   1      32.607  28.158  22.687  1.00  0.00    -0.028 A 
ATOM     22  C   UNL A   1      31.465  28.933  22.799  1.00  0.00     0.069 A 
ATOM     23  S   UNL A   1      30.027  28.019  22.797  1.00  0.00    -0.151 S 
ATOM     24  C   UNL A   1      30.900  26.564  22.643  1.00  0.00     0.079 A 
ENDBRANCH  17  19
ENDBRANCH   8  17
ENDBRANCH   4   7
ENDBRANCH   2   3
ENDBRANCH   1   2
BRANCH   1  25
ATOM     25  C   UNL A   1      35.010  29.570  27.650  1.00  0.00     0.118 C 
BRANCH  25  26
ATOM     26  N   UNL A   1      35.132  30.361  28.866  1.00  0.00    -0.352 N 
ATOM     27  C   UNL A   1      36.208  30.537  29.707  1.00  0.00     0.251 C 
ATOM     28  H   UNL A   1      34.318  30.849  29.127  1.00  0.00     0.163 HD
ATOM     29  O   UNL A   1      36.063  31.174  30.750  1.00  0.00    -0.269 OA
BRANCH  27  30
ATOM     30  C   UNL A   1      37.523  29.930  29.397  1.00  0.00     0.039 A 
ATOM     31  C   UNL A   1      37.979  29.950  28.074  1.00  0.00     0.014 A 
ATOM     32  C   UNL A   1      38.312  29.343  30.389  1.00  0.00     0.014 A 
ATOM     33  C   UNL A   1      39.259  29.477  27.768  1.00  0.00     0.010 A 
ATOM     34  C   UNL A   1      39.618  28.952  30.099  1.00  0.00     0.010 A 
ATOM     35  C   UNL A   1      40.110  29.022  28.787  1.00  0.00    -0.014 A 
BRANCH  35  36
ATOM     36  C   UNL A   1      41.516  28.619  28.514  1.00  0.00     0.031 A 
ATOM     37  C   UNL A   1      42.612  29.650  28.523  1.00  0.00     0.074 A 
ATOM     38  C   UNL A   1      41.796  27.347  28.164  1.00  0.00     0.049 A 
ATOM     39  N   UNL A   1      43.859  29.534  28.145  1.00  0.00    -0.248 NA
ATOM     40  C   UNL A   1      42.247  30.999  28.984  1.00  0.00     0.031 C 
ATOM     41  C   UNL A   1      40.823  26.257  28.063  1.00  0.00     0.029 A 
ATOM     42  N   UNL A   1      42.986  26.758  27.811  1.00  0.00    -0.354 N 
ATOM     43  C   UNL A   1      44.413  30.802  28.271  1.00  0.00     0.074 A 
ATOM     44  C   UNL A   1      43.361  31.677  28.747  1.00  0.00     0.031 C 
ATOM     45  C   UNL A   1      41.457  25.130  27.699  1.00  0.00     0.029 A 
ATOM     46  C   UNL A   1      42.873  25.423  27.504  1.00  0.00     0.049 A 
ATOM     47  H   UNL A   1      43.840  27.248  27.783  1.00  0.00     0.167 HD
ATOM     48  C   UNL A   1      45.683  31.203  28.023  1.00  0.00     0.037 A 
ATOM     49  C   UNL A   1      43.803  24.535  27.103  1.00  0.00     0.037 A 
ATOM     50  C   UNL A   1      46.747  30.324  27.618  1.00  0.00     0.049 A 
ATOM     51  C   UNL A   1      45.226  24.983  26.928  1.00  0.00     0.074 A 
ATOM     52  C   UNL A   1      48.079  30.628  27.390  1.00  0.00     0.029 A 
ATOM     53  N   UNL A   1      46.605  28.961  27.403  1.00  0.00    -0.354 N 
ATOM     54  N   UNL A   1      45.731  26.185  27.061  1.00  0.00    -0.248 NA
ATOM     55  C   UNL A   1      46.206  23.953  26.551  1.00  0.00     0.031 C 
ATOM     56  C   UNL A   1      48.743  29.447  27.038  1.00  0.00     0.029 A 
ATOM     57  C   UNL A   1      47.827  28.408  27.060  1.00  0.00     0.049 A 
ATOM     58  H   UNL A   1      45.761  28.462  27.483  1.00  0.00     0.167 HD
ATOM     59  C   UNL A   1      47.090  26.055  26.798  1.00  0.00     0.074 A 
ATOM     60  C   UNL A   1      47.331  24.657  26.508  1.00  0.00     0.031 C 
ATOM     61  C   UNL A   1      48.050  27.011  26.793  1.00  0.00     0.037 A 
BRANCH  48  62
ATOM     62  C   UNL A   1      45.985  32.663  28.189  1.00  0.00     0.058 A 
ATOM     63  C   UNL A   1      45.831  33.568  27.128  1.00  0.00     0.135 A 
ATOM     64  C   UNL A   1      46.433  33.164  29.421  1.00  0.00     0.135 A 
ATOM     65  F   UNL A   1      45.423  33.135  25.924  1.00  0.00    -0.206 F 
ATOM     66  C   UNL A   1      46.142  34.916  27.272  1.00  0.00     0.059 A 
ATOM     67  C   UNL A   1      46.731  34.511  29.595  1.00  0.00     0.059 A 
ATOM     68  F   UNL A   1      46.598  32.337  30.466  1.00  0.00    -0.206 F 
ATOM     69  C   UNL A   1      46.600  35.376  28.508  1.00  0.00     0.060 A 
BRANCH  69  70
ATOM     70  S   UNL A   1      47.023  37.122  28.688  1.00  0.00     0.124 S 
ATOM     71  O   UNL A   1      47.218  37.517  27.297  1.00  0.00    -0.237 OA
ATOM     72  O   UNL A   1      45.839  37.672  29.341  1.00  0.00    -0.237 OA
ATOM     73  O   UNL A   1      48.229  37.092  29.511  1.00  0.00    -0.744 OA
ENDBRANCH  69  70
ENDBRANCH  48  62
BRANCH  49  74
ATOM     74  C   UNL A   1      43.420  23.121  26.866  1.00  0.00     0.058 A 
ATOM     75  C   UNL A   1      43.394  22.598  25.566  1.00  0.00     0.135 A 
ATOM     76  C   UNL A   1      43.097  22.265  27.928  1.00  0.00     0.135 A 
ATOM     77  F   UNL A   1      43.693  23.384  24.520  1.00  0.00    -0.206 F 
ATOM     78  C   UNL A   1      43.050  21.273  25.322  1.00  0.00     0.059 A 
ATOM     79  C   UNL A   1      42.762  20.932  27.711  1.00  0.00     0.059 A 
ATOM     80  F   UNL A   1      43.125  22.719  29.191  1.00  0.00    -0.206 F 
ATOM     81  C   UNL A   1      42.735  20.447  26.403  1.00  0.00     0.060 A 
BRANCH  81  82
ATOM     82  S   UNL A   1      42.347  18.710  26.093  1.00  0.00     0.124 S 
ATOM     83  O   UNL A   1      43.269  18.394  25.008  1.00  0.00    -0.237 OA
ATOM     84  O   UNL A   1      42.640  18.088  27.381  1.00  0.00    -0.237 OA
ATOM     85  O   UNL A   1      40.933  18.748  25.734  1.00  0.00    -0.744 OA
ENDBRANCH  81  82
ENDBRANCH  49  74
BRANCH  61  86
ATOM     86  C   UNL A   1      49.452  26.572  26.497  1.00  0.00     0.058 A 
ATOM     87  C   UNL A   1      50.292  26.082  27.507  1.00  0.00     0.135 A 
ATOM     88  C   UNL A   1      49.942  26.595  25.182  1.00  0.00     0.135 A 
ATOM     89  F   UNL A   1      49.869  26.048  28.781  1.00  0.00    -0.206 F 
ATOM     90  C   UNL A   1      51.580  25.639  27.225  1.00  0.00     0.059 A 
ATOM     91  C   UNL A   1      51.221  26.146  24.876  1.00  0.00     0.059 A 
ATOM     92  F   UNL A   1      49.171  27.052  24.182  1.00  0.00    -0.206 F 
ATOM     93  C   UNL A   1      52.036  25.676  25.906  1.00  0.00     0.060 A 
BRANCH  93  94
ATOM     94  S   UNL A   1      53.693  25.062  25.535  1.00  0.00     0.124 S 
ATOM     95  O   UNL A   1      53.440  23.640  25.331  1.00  0.00    -0.237 OA
ATOM     96  O   UNL A   1      54.054  25.818  24.340  1.00  0.00    -0.237 OA
ATOM     97  O   UNL A   1      54.453  25.401  26.735  1.00  0.00    -0.744 OA
ENDBRANCH  93  94
ENDBRANCH  61  86
ENDBRANCH  35  36
ENDBRANCH  27  30
ENDBRANCH  25  26
ENDBRANCH   1  25
TORSDOF 15
ENDMDL
MODEL 3
REMARK VINA RESULT:     -12.2      4.845     10.262
REMARK SMILES Cc1cscc1C(=O)N1C[C@@H](C(=O)NCCCNC(=O)c2ccc(-c3c4nc(c(-c5c(F)cc(S(=O)(=O)[O-])cc5F)c5ccc([nH]5)c(-c5c(F)cc(S(=O)(=O)[O-])cc5F)c5nc(c(-c6c(F)cc(S(=O)(=O)[O-])cc6F)c6ccc3[nH]6)C=C5)C=C4)cc2)Oc2ccccc21
REMARK SMILES IDX 16 1 15 2 14 3 12 4 13 5 11 7 9 8 10 9 93 10 88 11 92 12
REMARK SMILES IDX 87 13 89 14 91 15 90 16 7 17 8 18 6 19 1 20 2 21 3 22 4 23
REMARK SMILES IDX 5 24 17 25 18 26 19 27 20 29 21 30 22 31 86 32 23 33 85 34
REMARK SMILES IDX 24 35 25 36 26 37 79 38 27 39 84 40 78 41 80 42 28 43 83 44
REMARK SMILES IDX 77 45 76 46 29 48 63 49 42 50 62 51 43 52 46 53 61 54 81 55
REMARK SMILES IDX 44 56 45 57 60 59 82 60 47 61 30 62 31 63 40 64 32 65 33 66
REMARK SMILES IDX 39 67 41 68 34 69 35 70 36 71 37 72 38 73 64 74 65 75 74 76
REMARK SMILES IDX 66 77 67 78 73 79 75 80 68 81 69 82 70 83 71 84 72 85 48 86
REMARK SMILES IDX 49 87 58 88 50 89 51 90 57 91 59 92 52 93 53 94 54 95 55 96
REMARK SMILES IDX 56 97
REMARK H PARENT 14 6 18 28 80 47 46 58
REMARK Flexibility Score: inf
ROOT
ATOM      1  C   UNL A   1      37.408  23.496  25.338  1.00  0.00     0.042 C 
ENDROOT
BRANCH   1   2
ATOM      2  C   UNL A   1      35.947  23.883  25.511  1.00  0.00     0.118 C 
BRANCH   2   3
ATOM      3  N   UNL A   1      35.216  23.998  24.262  1.00  0.00    -0.353 N 
ATOM      4  C   UNL A   1      34.449  25.019  23.793  1.00  0.00     0.262 C 
ATOM      5  O   UNL A   1      34.067  24.931  22.619  1.00  0.00    -0.271 OA
ATOM      6  H   UNL A   1      35.288  23.220  23.663  1.00  0.00     0.163 HD
BRANCH   4   7
ATOM      7  C   UNL A   1      33.984  26.210  24.668  1.00  0.00     0.281 C 
ATOM      8  N   UNL A   1      32.003  25.202  25.758  1.00  0.00    -0.301 N 
ATOM      9  C   UNL A   1      33.376  25.675  25.972  1.00  0.00     0.181 C 
ATOM     10  C   UNL A   1      31.234  25.973  24.833  1.00  0.00     0.086 A 
ATOM     11  C   UNL A   1      31.849  27.024  24.135  1.00  0.00     0.144 A 
ATOM     12  C   UNL A   1      29.861  25.771  24.640  1.00  0.00     0.030 A 
ATOM     13  O   UNL A   1      33.200  27.274  24.158  1.00  0.00    -0.477 OA
ATOM     14  C   UNL A   1      31.106  27.874  23.309  1.00  0.00     0.049 A 
ATOM     15  C   UNL A   1      29.126  26.597  23.785  1.00  0.00     0.002 A 
ATOM     16  C   UNL A   1      29.745  27.654  23.127  1.00  0.00     0.004 A 
BRANCH   8  17
ATOM     17  C   UNL A   1      31.518  24.030  26.340  1.00  0.00     0.259 C 
ATOM     18  O   UNL A   1      30.619  24.024  27.181  1.00  0.00    -0.269 OA
BRANCH  17  19
ATOM     19  C   UNL A   1      32.132  22.754  25.938  1.00  0.00     0.053 A 
ATOM     20  C   UNL A   1      33.755  22.253  27.956  1.00  0.00     0.046 C 
ATOM     21  C   UNL A   1      33.111  21.942  26.644  1.00  0.00    -0.028 A 
ATOM     22  C   UNL A   1      33.359  20.760  25.967  1.00  0.00     0.069 A 
ATOM     23  S   UNL A   1      32.433  20.590  24.547  1.00  0.00    -0.151 S 
ATOM     24  C   UNL A   1      31.676  22.094  24.807  1.00  0.00     0.079 A 
ENDBRANCH  17  19
ENDBRANCH   8  17
ENDBRANCH   4   7
ENDBRANCH   2   3
ENDBRANCH   1   2
BRANCH   1  25
ATOM     25  C   UNL A   1      38.332  23.884  26.485  1.00  0.00     0.118 C 
BRANCH  25  26
ATOM     26  N   UNL A   1      39.748  23.798  26.156  1.00  0.00    -0.352 N 
ATOM     27  C   UNL A   1      40.798  24.606  26.531  1.00  0.00     0.251 C 
ATOM     28  H   UNL A   1      39.993  23.042  25.575  1.00  0.00     0.163 HD
ATOM     29  O   UNL A   1      41.913  24.410  26.049  1.00  0.00    -0.269 OA
BRANCH  27  30
ATOM     30  C   UNL A   1      40.592  25.735  27.467  1.00  0.00     0.039 A 
ATOM     31  C   UNL A   1      39.664  25.589  28.504  1.00  0.00     0.014 A 
ATOM     32  C   UNL A   1      41.300  26.932  27.339  1.00  0.00     0.014 A 
ATOM     33  C   UNL A   1      39.523  26.597  29.464  1.00  0.00     0.010 A 
ATOM     34  C   UNL A   1      41.222  27.898  28.341  1.00  0.00     0.010 A 
ATOM     35  C   UNL A   1      40.339  27.738  29.420  1.00  0.00    -0.014 A 
BRANCH  35  36
ATOM     36  C   UNL A   1      40.296  28.775  30.486  1.00  0.00     0.031 A 
ATOM     37  C   UNL A   1      41.210  28.673  31.676  1.00  0.00     0.074 A 
ATOM     38  C   UNL A   1      39.372  29.757  30.433  1.00  0.00     0.049 A 
ATOM     39  N   UNL A   1      41.207  29.371  32.783  1.00  0.00    -0.248 NA
ATOM     40  C   UNL A   1      42.239  27.622  31.632  1.00  0.00     0.031 C 
ATOM     41  C   UNL A   1      38.388  29.946  29.364  1.00  0.00     0.029 A 
ATOM     42  N   UNL A   1      39.099  30.776  31.313  1.00  0.00    -0.354 N 
ATOM     43  C   UNL A   1      42.194  28.812  33.586  1.00  0.00     0.074 A 
ATOM     44  C   UNL A   1      42.765  27.706  32.845  1.00  0.00     0.031 C 
ATOM     45  C   UNL A   1      37.638  31.025  29.638  1.00  0.00     0.029 A 
ATOM     46  C   UNL A   1      38.060  31.584  30.918  1.00  0.00     0.049 A 
ATOM     47  H   UNL A   1      39.603  30.914  32.148  1.00  0.00     0.167 HD
ATOM     48  C   UNL A   1      42.595  29.188  34.824  1.00  0.00     0.037 A 
ATOM     49  C   UNL A   1      37.503  32.652  31.522  1.00  0.00     0.037 A 
ATOM     50  C   UNL A   1      42.079  30.327  35.534  1.00  0.00     0.049 A 
ATOM     51  C   UNL A   1      38.032  33.109  32.851  1.00  0.00     0.074 A 
ATOM     52  C   UNL A   1      42.458  30.818  36.772  1.00  0.00     0.029 A 
ATOM     53  N   UNL A   1      41.087  31.170  35.056  1.00  0.00    -0.354 N 
ATOM     54  N   UNL A   1      38.972  32.572  33.590  1.00  0.00    -0.248 NA
ATOM     55  C   UNL A   1      37.427  34.319  33.428  1.00  0.00     0.031 C 
ATOM     56  C   UNL A   1      41.694  31.959  37.043  1.00  0.00     0.029 A 
ATOM     57  C   UNL A   1      40.851  32.185  35.968  1.00  0.00     0.049 A 
ATOM     58  H   UNL A   1      40.620  31.062  34.196  1.00  0.00     0.167 HD
ATOM     59  C   UNL A   1      39.081  33.384  34.712  1.00  0.00     0.074 A 
ATOM     60  C   UNL A   1      38.119  34.456  34.552  1.00  0.00     0.031 C 
ATOM     61  C   UNL A   1      39.902  33.252  35.781  1.00  0.00     0.037 A 
BRANCH  48  62
ATOM     62  C   UNL A   1      43.652  28.352  35.484  1.00  0.00     0.058 A 
ATOM     63  C   UNL A   1      45.018  28.591  35.266  1.00  0.00     0.135 A 
ATOM     64  C   UNL A   1      43.297  27.303  36.346  1.00  0.00     0.135 A 
ATOM     65  F   UNL A   1      45.408  29.571  34.435  1.00  0.00    -0.206 F 
ATOM     66  C   UNL A   1      45.996  27.796  35.853  1.00  0.00     0.059 A 
ATOM     67  C   UNL A   1      44.259  26.507  36.959  1.00  0.00     0.059 A 
ATOM     68  F   UNL A   1      42.004  27.034  36.586  1.00  0.00    -0.206 F 
ATOM     69  C   UNL A   1      45.606  26.750  36.691  1.00  0.00     0.060 A 
BRANCH  69  70
ATOM     70  S   UNL A   1      46.878  25.707  37.437  1.00  0.00     0.124 S 
ATOM     71  O   UNL A   1      46.168  24.439  37.570  1.00  0.00    -0.237 OA
ATOM     72  O   UNL A   1      47.941  25.735  36.438  1.00  0.00    -0.237 OA
ATOM     73  O   UNL A   1      47.183  26.394  38.689  1.00  0.00    -0.744 OA
ENDBRANCH  69  70
ENDBRANCH  48  62
BRANCH  49  74
ATOM     74  C   UNL A   1      36.396  33.382  30.856  1.00  0.00     0.058 A 
ATOM     75  C   UNL A   1      35.086  33.292  31.347  1.00  0.00     0.135 A 
ATOM     76  C   UNL A   1      36.627  34.197  29.738  1.00  0.00     0.135 A 
ATOM     77  F   UNL A   1      34.821  32.520  32.412  1.00  0.00    -0.206 F 
ATOM     78  C   UNL A   1      34.036  33.977  30.746  1.00  0.00     0.059 A 
ATOM     79  C   UNL A   1      35.595  34.902  29.128  1.00  0.00     0.059 A 
ATOM     80  F   UNL A   1      37.868  34.326  29.244  1.00  0.00    -0.206 F 
ATOM     81  C   UNL A   1      34.301  34.780  29.635  1.00  0.00     0.060 A 
BRANCH  81  82
ATOM     82  S   UNL A   1      32.948  35.719  28.892  1.00  0.00     0.124 S 
ATOM     83  O   UNL A   1      32.331  34.714  28.034  1.00  0.00    -0.237 OA
ATOM     84  O   UNL A   1      32.170  36.127  30.058  1.00  0.00    -0.237 OA
ATOM     85  O   UNL A   1      33.641  36.804  28.203  1.00  0.00    -0.744 OA
ENDBRANCH  81  82
ENDBRANCH  49  74
BRANCH  61  86
ATOM     86  C   UNL A   1      39.819  34.305  36.844  1.00  0.00     0.058 A 
ATOM     87  C   UNL A   1      38.999  34.143  37.970  1.00  0.00     0.135 A 
ATOM     88  C   UNL A   1      40.605  35.464  36.760  1.00  0.00     0.135 A 
ATOM     89  F   UNL A   1      38.224  33.053  38.090  1.00  0.00    -0.206 F 
ATOM     90  C   UNL A   1      38.952  35.103  38.975  1.00  0.00     0.059 A 
ATOM     91  C   UNL A   1      40.583  36.431  37.759  1.00  0.00     0.059 A 
ATOM     92  F   UNL A   1      41.409  35.660  35.702  1.00  0.00    -0.206 F 
ATOM     93  C   UNL A   1      39.747  36.245  38.860  1.00  0.00     0.060 A 
BRANCH  93  94
ATOM     94  S   UNL A   1      39.716  37.470  40.186  1.00  0.00     0.124 S 
ATOM     95  O   UNL A   1      38.370  38.015  40.049  1.00  0.00    -0.237 OA
ATOM     96  O   UNL A   1      39.952  36.659  41.376  1.00  0.00    -0.237 OA
ATOM     97  O   UNL A   1      40.803  38.377  39.829  1.00  0.00    -0.744 OA
ENDBRANCH  93  94
ENDBRANCH  61  86
ENDBRANCH  35  36
ENDBRANCH  27  30
ENDBRANCH  25  26
ENDBRANCH   1  25
TORSDOF 15
ENDMDL
