MODEL 1
REMARK VINA RESULT:     -13.0      0.000      0.000
REMARK SMILES O=C(NCCCNC(=O)c1ccc(-c2c3nc(c(-c4c(F)cc(S(=O)(=O)[O-])cc4F)c4ccc([nH]4)c(-c4c(F)cc(S(=O)(=O)[O-])cc4F)c4nc(c(-c5c(F)cc(S(=O)(=O)[O-])cc5F)c5ccc2[nH]5)C=C4)C=C3)cc1)C1=Cc2cc(Cl)ccc2O[C@@H]1C(F)(F)F
REMARK SMILES IDX 6 1 5 2 4 3 3 4 1 5 2 6 76 8 77 9 86 10 78 11 85 12 79 13
REMARK SMILES IDX 84 14 80 15 83 16 81 17 82 18 87 19 88 20 89 21 90 22 7 23
REMARK SMILES IDX 8 24 9 26 10 27 11 28 75 29 12 30 74 31 13 32 14 33 15 34
REMARK SMILES IDX 68 35 16 36 73 37 67 38 69 39 17 40 72 41 66 42 65 43 18 45
REMARK SMILES IDX 52 46 31 47 51 48 32 49 35 50 50 51 70 52 33 53 34 54 49 56
REMARK SMILES IDX 71 57 36 58 19 59 20 60 29 61 21 62 22 63 28 64 30 65 23 66
REMARK SMILES IDX 24 67 25 68 26 69 27 70 53 71 54 72 63 73 55 74 56 75 62 76
REMARK SMILES IDX 64 77 57 78 58 79 59 80 60 81 61 82 37 83 38 84 47 85 39 86
REMARK SMILES IDX 40 87 46 88 48 89 41 90 42 91 43 92 44 93 45 94
REMARK H PARENT 3 7 7 25 69 44 35 55
REMARK Flexibility Score: inf
ROOT
ATOM      1  C   UNL A   1      38.475  24.061  26.499  1.00  0.00     0.118 C 
ENDROOT
BRANCH   1   2
ATOM      2  C   UNL A   1      37.611  23.067  25.734  1.00  0.00     0.042 C 
BRANCH   2   3
ATOM      3  C   UNL A   1      36.154  23.503  25.657  1.00  0.00     0.118 C 
BRANCH   3   4
ATOM      4  N   UNL A   1      35.338  22.988  26.757  1.00  0.00    -0.352 N 
ATOM      5  O   UNL A   1      34.012  21.509  27.849  1.00  0.00    -0.270 OA
ATOM      6  C   UNL A   1      34.439  21.950  26.791  1.00  0.00     0.251 C 
ATOM      7  H   UNL A   1      35.452  23.462  27.613  1.00  0.00     0.163 HD
BRANCH   6   8
ATOM      8  C   UNL A   1      34.085  21.320  25.506  1.00  0.00     0.067 C 
ATOM      9  C   UNL A   1      34.940  20.441  24.968  1.00  0.00     0.025 C 
ATOM     10  C   UNL A   1      32.652  21.408  25.085  1.00  0.00     0.314 C 
ATOM     11  C   UNL A   1      34.282  19.166  24.647  1.00  0.00     0.019 A 
ATOM     12  O   UNL A   1      32.033  20.107  24.945  1.00  0.00    -0.475 OA
ATOM     13  C   UNL A   1      35.077  18.014  24.650  1.00  0.00     0.032 A 
ATOM     14  C   UNL A   1      32.883  19.041  24.774  1.00  0.00     0.128 A 
ATOM     15  C   UNL A   1      34.488  16.770  24.873  1.00  0.00     0.041 A 
ATOM     16  C   UNL A   1      32.301  17.787  24.960  1.00  0.00     0.048 A 
ATOM     17  Cl  UNL A   1      35.488  15.384  25.060  1.00  0.00    -0.084 Cl
ATOM     18  C   UNL A   1      33.109  16.653  25.041  1.00  0.00     0.024 A 
BRANCH  10  19
ATOM     19  C   UNL A   1      32.517  22.217  23.786  1.00  0.00     0.429 C 
ATOM     20  F   UNL A   1      33.653  22.910  23.523  1.00  0.00    -0.167 F 
ATOM     21  F   UNL A   1      32.290  21.422  22.713  1.00  0.00    -0.167 F 
ATOM     22  F   UNL A   1      31.506  23.116  23.839  1.00  0.00    -0.167 F 
ENDBRANCH  10  19
ENDBRANCH   6   8
ENDBRANCH   3   4
ENDBRANCH   2   3
ENDBRANCH   1   2
BRANCH   1  23
ATOM     23  N   UNL A   1      39.878  24.063  26.105  1.00  0.00    -0.352 N 
ATOM     24  C   UNL A   1      40.921  24.870  26.523  1.00  0.00     0.251 C 
ATOM     25  H   UNL A   1      40.123  23.383  25.436  1.00  0.00     0.163 HD
ATOM     26  O   UNL A   1      42.017  24.745  26.012  1.00  0.00    -0.269 OA
BRANCH  24  27
ATOM     27  C   UNL A   1      40.687  25.910  27.560  1.00  0.00     0.039 A 
ATOM     28  C   UNL A   1      39.695  25.699  28.523  1.00  0.00     0.014 A 
ATOM     29  C   UNL A   1      41.450  27.075  27.604  1.00  0.00     0.014 A 
ATOM     30  C   UNL A   1      39.528  26.621  29.562  1.00  0.00     0.010 A 
ATOM     31  C   UNL A   1      41.385  27.907  28.712  1.00  0.00     0.010 A 
ATOM     32  C   UNL A   1      40.400  27.713  29.688  1.00  0.00    -0.014 A 
BRANCH  32  33
ATOM     33  C   UNL A   1      40.275  28.699  30.795  1.00  0.00     0.031 A 
ATOM     34  C   UNL A   1      41.154  28.569  32.015  1.00  0.00     0.074 A 
ATOM     35  C   UNL A   1      39.328  29.657  30.739  1.00  0.00     0.049 A 
ATOM     36  N   UNL A   1      41.151  29.273  33.117  1.00  0.00    -0.248 NA
ATOM     37  C   UNL A   1      42.131  27.465  32.021  1.00  0.00     0.031 C 
ATOM     38  C   UNL A   1      38.357  29.831  29.655  1.00  0.00     0.029 A 
ATOM     39  N   UNL A   1      39.024  30.666  31.618  1.00  0.00    -0.354 N 
ATOM     40  C   UNL A   1      42.092  28.675  33.950  1.00  0.00     0.074 A 
ATOM     41  C   UNL A   1      42.585  27.505  33.263  1.00  0.00     0.031 C 
ATOM     42  C   UNL A   1      37.597  30.908  29.912  1.00  0.00     0.029 A 
ATOM     43  C   UNL A   1      38.002  31.482  31.190  1.00  0.00     0.049 A 
ATOM     44  H   UNL A   1      39.495  30.794  32.473  1.00  0.00     0.167 HD
ATOM     45  C   UNL A   1      42.541  29.086  35.161  1.00  0.00     0.037 A 
ATOM     46  C   UNL A   1      37.463  32.575  31.764  1.00  0.00     0.037 A 
ATOM     47  C   UNL A   1      42.092  30.290  35.805  1.00  0.00     0.049 A 
ATOM     48  C   UNL A   1      38.028  33.061  33.070  1.00  0.00     0.074 A 
ATOM     49  C   UNL A   1      42.534  30.851  36.990  1.00  0.00     0.029 A 
ATOM     50  N   UNL A   1      41.103  31.128  35.308  1.00  0.00    -0.354 N 
ATOM     51  N   UNL A   1      38.972  32.525  33.810  1.00  0.00    -0.248 NA
ATOM     52  C   UNL A   1      37.473  34.308  33.610  1.00  0.00     0.031 C 
ATOM     53  C   UNL A   1      41.786  32.011  37.227  1.00  0.00     0.029 A 
ATOM     54  C   UNL A   1      40.913  32.197  36.166  1.00  0.00     0.049 A 
ATOM     55  H   UNL A   1      40.608  30.982  34.469  1.00  0.00     0.167 HD
ATOM     56  C   UNL A   1      39.141  33.385  34.890  1.00  0.00     0.074 A 
ATOM     57  C   UNL A   1      38.215  34.483  34.695  1.00  0.00     0.031 C 
ATOM     58  C   UNL A   1      39.987  33.279  35.947  1.00  0.00     0.037 A 
BRANCH  45  59
ATOM     59  C   UNL A   1      43.581  28.237  35.843  1.00  0.00     0.058 A 
ATOM     60  C   UNL A   1      44.956  28.436  35.633  1.00  0.00     0.135 A 
ATOM     61  C   UNL A   1      43.199  27.210  36.722  1.00  0.00     0.135 A 
ATOM     62  F   UNL A   1      45.380  29.391  34.789  1.00  0.00    -0.206 F 
ATOM     63  C   UNL A   1      45.912  27.622  36.232  1.00  0.00     0.059 A 
ATOM     64  C   UNL A   1      44.140  26.406  37.361  1.00  0.00     0.059 A 
ATOM     65  F   UNL A   1      41.900  26.972  36.962  1.00  0.00    -0.206 F 
ATOM     66  C   UNL A   1      45.493  26.607  37.093  1.00  0.00     0.060 A 
BRANCH  66  67
ATOM     67  S   UNL A   1      46.746  25.556  37.858  1.00  0.00     0.124 S 
ATOM     68  O   UNL A   1      47.972  26.095  37.276  1.00  0.00    -0.237 OA
ATOM     69  O   UNL A   1      46.550  25.820  39.279  1.00  0.00    -0.237 OA
ATOM     70  O   UNL A   1      46.380  24.214  37.415  1.00  0.00    -0.744 OA
ENDBRANCH  66  67
ENDBRANCH  45  59
BRANCH  46  71
ATOM     71  C   UNL A   1      36.371  33.313  31.073  1.00  0.00     0.058 A 
ATOM     72  C   UNL A   1      35.060  33.300  31.575  1.00  0.00     0.135 A 
ATOM     73  C   UNL A   1      36.618  34.070  29.917  1.00  0.00     0.135 A 
ATOM     74  F   UNL A   1      34.771  32.590  32.676  1.00  0.00    -0.206 F 
ATOM     75  C   UNL A   1      34.031  33.995  30.948  1.00  0.00     0.059 A 
ATOM     76  C   UNL A   1      35.609  34.794  29.287  1.00  0.00     0.059 A 
ATOM     77  F   UNL A   1      37.858  34.134  29.408  1.00  0.00    -0.206 F 
ATOM     78  C   UNL A   1      34.316  34.742  29.805  1.00  0.00     0.060 A 
BRANCH  78  79
ATOM     79  S   UNL A   1      32.984  35.685  29.031  1.00  0.00     0.124 S 
ATOM     80  O   UNL A   1      32.415  34.698  28.122  1.00  0.00    -0.237 OA
ATOM     81  O   UNL A   1      32.159  36.047  30.180  1.00  0.00    -0.237 OA
ATOM     82  O   UNL A   1      33.685  36.799  28.398  1.00  0.00    -0.744 OA
ENDBRANCH  78  79
ENDBRANCH  46  71
BRANCH  58  83
ATOM     83  C   UNL A   1      39.972  34.400  36.947  1.00  0.00     0.058 A 
ATOM     84  C   UNL A   1      39.097  34.402  38.044  1.00  0.00     0.135 A 
ATOM     85  C   UNL A   1      40.865  35.477  36.816  1.00  0.00     0.135 A 
ATOM     86  F   UNL A   1      38.223  33.396  38.214  1.00  0.00    -0.206 F 
ATOM     87  C   UNL A   1      39.074  35.455  38.952  1.00  0.00     0.059 A 
ATOM     88  C   UNL A   1      40.881  36.524  37.730  1.00  0.00     0.059 A 
ATOM     89  F   UNL A   1      41.735  35.514  35.795  1.00  0.00    -0.206 F 
ATOM     90  C   UNL A   1      39.967  36.515  38.782  1.00  0.00     0.060 A 
BRANCH  90  91
ATOM     91  S   UNL A   1      39.924  37.880  39.962  1.00  0.00     0.124 S 
ATOM     92  O   UNL A   1      41.161  38.583  39.640  1.00  0.00    -0.237 OA
ATOM     93  O   UNL A   1      38.690  38.569  39.600  1.00  0.00    -0.237 OA
ATOM     94  O   UNL A   1      39.903  37.207  41.257  1.00  0.00    -0.744 OA
ENDBRANCH  90  91
ENDBRANCH  58  83
ENDBRANCH  32  33
ENDBRANCH  24  27
ENDBRANCH   1  23
TORSDOF 14
ENDMDL
MODEL 2
REMARK VINA RESULT:     -12.8      6.035     12.541
REMARK SMILES O=C(NCCCNC(=O)c1ccc(-c2c3nc(c(-c4c(F)cc(S(=O)(=O)[O-])cc4F)c4ccc([nH]4)c(-c4c(F)cc(S(=O)(=O)[O-])cc4F)c4nc(c(-c5c(F)cc(S(=O)(=O)[O-])cc5F)c5ccc2[nH]5)C=C4)C=C3)cc1)C1=Cc2cc(Cl)ccc2O[C@@H]1C(F)(F)F
REMARK SMILES IDX 6 1 5 2 4 3 3 4 1 5 2 6 76 8 77 9 86 10 78 11 85 12 79 13
REMARK SMILES IDX 84 14 80 15 83 16 81 17 82 18 87 19 88 20 89 21 90 22 7 23
REMARK SMILES IDX 8 24 9 26 10 27 11 28 75 29 12 30 74 31 13 32 14 33 15 34
REMARK SMILES IDX 68 35 16 36 73 37 67 38 69 39 17 40 72 41 66 42 65 43 18 45
REMARK SMILES IDX 52 46 31 47 51 48 32 49 35 50 50 51 70 52 33 53 34 54 49 56
REMARK SMILES IDX 71 57 36 58 19 59 20 60 29 61 21 62 22 63 28 64 30 65 23 66
REMARK SMILES IDX 24 67 25 68 26 69 27 70 53 71 54 72 63 73 55 74 56 75 62 76
REMARK SMILES IDX 64 77 57 78 58 79 59 80 60 81 61 82 37 83 38 84 47 85 39 86
REMARK SMILES IDX 40 87 46 88 48 89 41 90 42 91 43 92 44 93 45 94
REMARK H PARENT 3 7 7 25 69 44 35 55
REMARK Flexibility Score: inf
ROOT
ATOM      1  C   UNL A   1      34.507  32.525  28.032  1.00  0.00     0.118 C 
ENDROOT
BRANCH   1   2
ATOM      2  C   UNL A   1      34.095  33.242  29.310  1.00  0.00     0.042 C 
BRANCH   2   3
ATOM      3  C   UNL A   1      34.788  34.589  29.469  1.00  0.00     0.118 C 
BRANCH   3   4
ATOM      4  N   UNL A   1      36.222  34.539  29.178  1.00  0.00    -0.352 N 
ATOM      5  O   UNL A   1      38.371  33.857  29.413  1.00  0.00    -0.270 OA
ATOM      6  C   UNL A   1      37.263  34.017  29.906  1.00  0.00     0.251 C 
ATOM      7  H   UNL A   1      36.483  34.946  28.320  1.00  0.00     0.163 HD
BRANCH   6   8
ATOM      8  C   UNL A   1      36.967  33.561  31.276  1.00  0.00     0.067 C 
ATOM      9  C   UNL A   1      36.911  32.245  31.515  1.00  0.00     0.025 C 
ATOM     10  C   UNL A   1      37.127  34.569  32.371  1.00  0.00     0.314 C 
ATOM     11  C   UNL A   1      37.785  31.853  32.630  1.00  0.00     0.019 A 
ATOM     12  O   UNL A   1      38.124  34.178  33.345  1.00  0.00    -0.475 OA
ATOM     13  C   UNL A   1      38.287  30.546  32.625  1.00  0.00     0.032 A 
ATOM     14  C   UNL A   1      38.435  32.841  33.398  1.00  0.00     0.128 A 
ATOM     15  C   UNL A   1      39.472  30.260  33.301  1.00  0.00     0.041 A 
ATOM     16  C   UNL A   1      39.601  32.534  34.100  1.00  0.00     0.048 A 
ATOM     17  Cl  UNL A   1      40.181  28.702  33.139  1.00  0.00    -0.084 Cl
ATOM     18  C   UNL A   1      40.137  31.249  34.024  1.00  0.00     0.024 A 
BRANCH  10  19
ATOM     19  C   UNL A   1      35.779  34.848  33.054  1.00  0.00     0.429 C 
ATOM     20  F   UNL A   1      35.295  36.062  32.697  1.00  0.00    -0.167 F 
ATOM     21  F   UNL A   1      34.838  33.938  32.708  1.00  0.00    -0.167 F 
ATOM     22  F   UNL A   1      35.871  34.836  34.405  1.00  0.00    -0.167 F 
ENDBRANCH  10  19
ENDBRANCH   6   8
ENDBRANCH   3   4
ENDBRANCH   2   3
ENDBRANCH   1   2
BRANCH   1  23
ATOM     23  N   UNL A   1      33.871  31.227  27.842  1.00  0.00    -0.352 N 
ATOM     24  C   UNL A   1      34.412  29.954  27.880  1.00  0.00     0.251 C 
ATOM     25  H   UNL A   1      32.904  31.261  27.658  1.00  0.00     0.163 HD
ATOM     26  O   UNL A   1      33.708  28.996  27.625  1.00  0.00    -0.269 OA
BRANCH  24  27
ATOM     27  C   UNL A   1      35.855  29.769  28.187  1.00  0.00     0.039 A 
ATOM     28  C   UNL A   1      36.225  29.290  29.448  1.00  0.00     0.014 A 
ATOM     29  C   UNL A   1      36.839  30.038  27.239  1.00  0.00     0.014 A 
ATOM     30  C   UNL A   1      37.570  29.018  29.720  1.00  0.00     0.010 A 
ATOM     31  C   UNL A   1      38.146  29.627  27.458  1.00  0.00     0.010 A 
ATOM     32  C   UNL A   1      38.538  29.146  28.712  1.00  0.00    -0.014 A 
BRANCH  32  33
ATOM     33  C   UNL A   1      39.973  28.837  28.953  1.00  0.00     0.031 A 
ATOM     34  C   UNL A   1      40.870  29.884  29.568  1.00  0.00     0.074 A 
ATOM     35  C   UNL A   1      40.483  27.655  28.553  1.00  0.00     0.049 A 
ATOM     36  N   UNL A   1      42.158  29.845  29.790  1.00  0.00    -0.248 NA
ATOM     37  C   UNL A   1      40.246  31.168  29.932  1.00  0.00     0.031 C 
ATOM     38  C   UNL A   1      39.740  26.596  27.864  1.00  0.00     0.029 A 
ATOM     39  N   UNL A   1      41.753  27.145  28.666  1.00  0.00    -0.354 N 
ATOM     40  C   UNL A   1      42.496  31.102  30.281  1.00  0.00     0.074 A 
ATOM     41  C   UNL A   1      41.298  31.907  30.246  1.00  0.00     0.031 C 
ATOM     42  C   UNL A   1      40.554  25.548  27.658  1.00  0.00     0.029 A 
ATOM     43  C   UNL A   1      41.882  25.870  28.167  1.00  0.00     0.049 A 
ATOM     44  H   UNL A   1      42.499  27.646  29.068  1.00  0.00     0.167 HD
ATOM     45  C   UNL A   1      43.686  31.538  30.761  1.00  0.00     0.037 A 
ATOM     46  C   UNL A   1      42.952  25.051  28.136  1.00  0.00     0.037 A 
ATOM     47  C   UNL A   1      44.855  30.706  30.853  1.00  0.00     0.049 A 
ATOM     48  C   UNL A   1      44.243  25.524  28.745  1.00  0.00     0.074 A 
ATOM     49  C   UNL A   1      46.090  31.010  31.398  1.00  0.00     0.029 A 
ATOM     50  N   UNL A   1      44.927  29.396  30.400  1.00  0.00    -0.354 N 
ATOM     51  N   UNL A   1      44.526  26.692  29.274  1.00  0.00    -0.248 NA
ATOM     52  C   UNL A   1      45.354  24.565  28.773  1.00  0.00     0.031 C 
ATOM     53  C   UNL A   1      46.920  29.895  31.241  1.00  0.00     0.029 A 
ATOM     54  C   UNL A   1      46.189  28.880  30.644  1.00  0.00     0.049 A 
ATOM     55  H   UNL A   1      44.191  28.906  29.968  1.00  0.00     0.167 HD
ATOM     56  C   UNL A   1      45.839  26.598  29.722  1.00  0.00     0.074 A 
ATOM     57  C   UNL A   1      46.286  25.254  29.417  1.00  0.00     0.031 C 
ATOM     58  C   UNL A   1      46.607  27.537  30.332  1.00  0.00     0.037 A 
BRANCH  45  59
ATOM     59  C   UNL A   1      43.765  32.963  31.238  1.00  0.00     0.058 A 
ATOM     60  C   UNL A   1      44.112  34.017  30.375  1.00  0.00     0.135 A 
ATOM     61  C   UNL A   1      43.490  33.285  32.577  1.00  0.00     0.135 A 
ATOM     62  F   UNL A   1      44.405  33.768  29.088  1.00  0.00    -0.206 F 
ATOM     63  C   UNL A   1      44.226  35.327  30.828  1.00  0.00     0.059 A 
ATOM     64  C   UNL A   1      43.563  34.594  33.046  1.00  0.00     0.059 A 
ATOM     65  F   UNL A   1      43.153  32.321  33.449  1.00  0.00    -0.206 F 
ATOM     66  C   UNL A   1      43.951  35.605  32.168  1.00  0.00     0.060 A 
BRANCH  66  67
ATOM     67  S   UNL A   1      44.109  37.309  32.743  1.00  0.00     0.124 S 
ATOM     68  O   UNL A   1      43.022  37.390  33.713  1.00  0.00    -0.237 OA
ATOM     69  O   UNL A   1      45.458  37.328  33.299  1.00  0.00    -0.237 OA
ATOM     70  O   UNL A   1      43.924  38.096  31.528  1.00  0.00    -0.744 OA
ENDBRANCH  66  67
ENDBRANCH  45  59
BRANCH  46  71
ATOM     71  C   UNL A   1      42.824  23.684  27.562  1.00  0.00     0.058 A 
ATOM     72  C   UNL A   1      43.050  23.449  26.198  1.00  0.00     0.135 A 
ATOM     73  C   UNL A   1      42.504  22.581  28.369  1.00  0.00     0.135 A 
ATOM     74  F   UNL A   1      43.357  24.471  25.384  1.00  0.00    -0.206 F 
ATOM     75  C   UNL A   1      42.946  22.175  25.648  1.00  0.00     0.059 A 
ATOM     76  C   UNL A   1      42.419  21.293  27.847  1.00  0.00     0.059 A 
ATOM     77  F   UNL A   1      42.299  22.747  29.685  1.00  0.00    -0.206 F 
ATOM     78  C   UNL A   1      42.632  21.101  26.483  1.00  0.00     0.060 A 
BRANCH  78  79
ATOM     79  S   UNL A   1      42.555  19.444  25.770  1.00  0.00     0.124 S 
ATOM     80  O   UNL A   1      43.531  19.542  24.692  1.00  0.00    -0.237 OA
ATOM     81  O   UNL A   1      42.936  18.605  26.904  1.00  0.00    -0.237 OA
ATOM     82  O   UNL A   1      41.161  19.323  25.353  1.00  0.00    -0.744 OA
ENDBRANCH  78  79
ENDBRANCH  46  71
BRANCH  58  83
ATOM     83  C   UNL A   1      47.993  27.124  30.742  1.00  0.00     0.058 A 
ATOM     84  C   UNL A   1      49.114  27.400  29.944  1.00  0.00     0.135 A 
ATOM     85  C   UNL A   1      48.201  26.462  31.963  1.00  0.00     0.135 A 
ATOM     86  F   UNL A   1      48.968  28.029  28.767  1.00  0.00    -0.206 F 
ATOM     87  C   UNL A   1      50.389  26.993  30.320  1.00  0.00     0.059 A 
ATOM     88  C   UNL A   1      49.472  26.075  32.374  1.00  0.00     0.059 A 
ATOM     89  F   UNL A   1      47.164  26.191  32.772  1.00  0.00    -0.206 F 
ATOM     90  C   UNL A   1      50.556  26.325  31.535  1.00  0.00     0.060 A 
BRANCH  90  91
ATOM     91  S   UNL A   1      52.214  25.795  32.011  1.00  0.00     0.124 S 
ATOM     92  O   UNL A   1      52.562  26.791  33.019  1.00  0.00    -0.237 OA
ATOM     93  O   UNL A   1      51.982  24.443  32.507  1.00  0.00    -0.237 OA
ATOM     94  O   UNL A   1      52.966  25.877  30.762  1.00  0.00    -0.744 OA
ENDBRANCH  90  91
ENDBRANCH  58  83
ENDBRANCH  32  33
ENDBRANCH  24  27
ENDBRANCH   1  23
TORSDOF 14
ENDMDL
MODEL 3
REMARK VINA RESULT:     -12.7      6.284     13.022
REMARK SMILES O=C(NCCCNC(=O)c1ccc(-c2c3nc(c(-c4c(F)cc(S(=O)(=O)[O-])cc4F)c4ccc([nH]4)c(-c4c(F)cc(S(=O)(=O)[O-])cc4F)c4nc(c(-c5c(F)cc(S(=O)(=O)[O-])cc5F)c5ccc2[nH]5)C=C4)C=C3)cc1)C1=Cc2cc(Cl)ccc2O[C@@H]1C(F)(F)F
REMARK SMILES IDX 6 1 5 2 4 3 3 4 1 5 2 6 76 8 77 9 86 10 78 11 85 12 79 13
REMARK SMILES IDX 84 14 80 15 83 16 81 17 82 18 87 19 88 20 89 21 90 22 7 23
REMARK SMILES IDX 8 24 9 26 10 27 11 28 75 29 12 30 74 31 13 32 14 33 15 34
REMARK SMILES IDX 68 35 16 36 73 37 67 38 69 39 17 40 72 41 66 42 65 43 18 45
REMARK SMILES IDX 52 46 31 47 51 48 32 49 35 50 50 51 70 52 33 53 34 54 49 56
REMARK SMILES IDX 71 57 36 58 19 59 20 60 29 61 21 62 22 63 28 64 30 65 23 66
REMARK SMILES IDX 24 67 25 68 26 69 27 70 53 71 54 72 63 73 55 74 56 75 62 76
REMARK SMILES IDX 64 77 57 78 58 79 59 80 60 81 61 82 37 83 38 84 47 85 39 86
REMARK SMILES IDX 40 87 46 88 48 89 41 90 42 91 43 92 44 93 45 94
REMARK H PARENT 3 7 7 25 69 44 35 55
REMARK Flexibility Score: inf
ROOT
ATOM      1  C   UNL A   1      34.522  32.543  28.470  1.00  0.00     0.118 C 
ENDROOT
BRANCH   1   2
ATOM      2  C   UNL A   1      34.698  32.745  29.969  1.00  0.00     0.042 C 
BRANCH   2   3
ATOM      3  C   UNL A   1      35.646  33.893  30.291  1.00  0.00     0.118 C 
BRANCH   3   4
ATOM      4  N   UNL A   1      35.174  34.742  31.387  1.00  0.00    -0.352 N 
ATOM      5  O   UNL A   1      35.287  35.838  33.367  1.00  0.00    -0.270 OA
ATOM      6  C   UNL A   1      35.671  34.921  32.654  1.00  0.00     0.251 C 
ATOM      7  H   UNL A   1      34.370  35.272  31.181  1.00  0.00     0.163 HD
BRANCH   6   8
ATOM      8  C   UNL A   1      36.757  34.024  33.087  1.00  0.00     0.067 C 
ATOM      9  C   UNL A   1      37.991  34.529  33.215  1.00  0.00     0.025 C 
ATOM     10  C   UNL A   1      36.352  32.727  33.715  1.00  0.00     0.314 C 
ATOM     11  C   UNL A   1      38.563  34.247  34.539  1.00  0.00     0.019 A 
ATOM     12  O   UNL A   1      36.823  32.598  35.077  1.00  0.00    -0.475 OA
ATOM     13  C   UNL A   1      39.514  35.146  35.034  1.00  0.00     0.032 A 
ATOM     14  C   UNL A   1      37.882  33.397  35.436  1.00  0.00     0.128 A 
ATOM     15  C   UNL A   1      39.707  35.258  36.410  1.00  0.00     0.041 A 
ATOM     16  C   UNL A   1      38.111  33.492  36.809  1.00  0.00     0.048 A 
ATOM     17  Cl  UNL A   1      40.738  36.492  37.021  1.00  0.00    -0.084 Cl
ATOM     18  C   UNL A   1      39.002  34.447  37.298  1.00  0.00     0.024 A 
BRANCH  10  19
ATOM     19  C   UNL A   1      36.822  31.540  32.861  1.00  0.00     0.429 C 
ATOM     20  F   UNL A   1      35.771  30.796  32.440  1.00  0.00    -0.167 F 
ATOM     21  F   UNL A   1      37.482  31.944  31.750  1.00  0.00    -0.167 F 
ATOM     22  F   UNL A   1      37.651  30.711  33.540  1.00  0.00    -0.167 F 
ENDBRANCH  10  19
ENDBRANCH   6   8
ENDBRANCH   3   4
ENDBRANCH   2   3
ENDBRANCH   1   2
BRANCH   1  23
ATOM     23  N   UNL A   1      33.912  31.270  28.105  1.00  0.00    -0.352 N 
ATOM     24  C   UNL A   1      34.478  30.013  27.981  1.00  0.00     0.251 C 
ATOM     25  H   UNL A   1      32.947  31.311  27.916  1.00  0.00     0.163 HD
ATOM     26  O   UNL A   1      33.794  29.085  27.596  1.00  0.00    -0.269 OA
BRANCH  24  27
ATOM     27  C   UNL A   1      35.921  29.815  28.278  1.00  0.00     0.039 A 
ATOM     28  C   UNL A   1      36.298  29.346  29.540  1.00  0.00     0.014 A 
ATOM     29  C   UNL A   1      36.899  30.064  27.317  1.00  0.00     0.014 A 
ATOM     30  C   UNL A   1      37.642  29.061  29.802  1.00  0.00     0.010 A 
ATOM     31  C   UNL A   1      38.204  29.641  27.528  1.00  0.00     0.010 A 
ATOM     32  C   UNL A   1      38.602  29.168  28.783  1.00  0.00    -0.014 A 
BRANCH  32  33
ATOM     33  C   UNL A   1      40.036  28.845  29.014  1.00  0.00     0.031 A 
ATOM     34  C   UNL A   1      40.946  29.881  29.629  1.00  0.00     0.074 A 
ATOM     35  C   UNL A   1      40.534  27.661  28.606  1.00  0.00     0.049 A 
ATOM     36  N   UNL A   1      42.235  29.830  29.842  1.00  0.00    -0.248 NA
ATOM     37  C   UNL A   1      40.335  31.170  30.003  1.00  0.00     0.031 C 
ATOM     38  C   UNL A   1      39.777  26.612  27.916  1.00  0.00     0.029 A 
ATOM     39  N   UNL A   1      41.799  27.140  28.708  1.00  0.00    -0.354 N 
ATOM     40  C   UNL A   1      42.586  31.082  30.337  1.00  0.00     0.074 A 
ATOM     41  C   UNL A   1      41.395  31.898  30.313  1.00  0.00     0.031 C 
ATOM     42  C   UNL A   1      40.581  25.558  27.700  1.00  0.00     0.029 A 
ATOM     43  C   UNL A   1      41.914  25.866  28.202  1.00  0.00     0.049 A 
ATOM     44  H   UNL A   1      42.552  27.632  29.108  1.00  0.00     0.167 HD
ATOM     45  C   UNL A   1      43.783  31.505  30.812  1.00  0.00     0.037 A 
ATOM     46  C   UNL A   1      42.977  25.038  28.161  1.00  0.00     0.037 A 
ATOM     47  C   UNL A   1      44.945  30.663  30.894  1.00  0.00     0.049 A 
ATOM     48  C   UNL A   1      44.276  25.497  28.764  1.00  0.00     0.074 A 
ATOM     49  C   UNL A   1      46.186  30.954  31.432  1.00  0.00     0.029 A 
ATOM     50  N   UNL A   1      45.004  29.354  30.433  1.00  0.00    -0.354 N 
ATOM     51  N   UNL A   1      44.572  26.660  29.297  1.00  0.00    -0.248 NA
ATOM     52  C   UNL A   1      45.379  24.528  28.781  1.00  0.00     0.031 C 
ATOM     53  C   UNL A   1      47.006  29.832  31.264  1.00  0.00     0.029 A 
ATOM     54  C   UNL A   1      46.262  28.827  30.667  1.00  0.00     0.049 A 
ATOM     55  H   UNL A   1      44.260  28.873  30.004  1.00  0.00     0.167 HD
ATOM     56  C   UNL A   1      45.887  26.552  29.736  1.00  0.00     0.074 A 
ATOM     57  C   UNL A   1      46.320  25.206  29.422  1.00  0.00     0.031 C 
ATOM     58  C   UNL A   1      46.666  27.482  30.346  1.00  0.00     0.037 A 
BRANCH  45  59
ATOM     59  C   UNL A   1      43.877  32.928  31.295  1.00  0.00     0.058 A 
ATOM     60  C   UNL A   1      43.572  33.283  32.620  1.00  0.00     0.135 A 
ATOM     61  C   UNL A   1      44.280  33.954  30.424  1.00  0.00     0.135 A 
ATOM     62  F   UNL A   1      43.163  32.349  33.494  1.00  0.00    -0.206 F 
ATOM     63  C   UNL A   1      43.619  34.605  33.052  1.00  0.00     0.059 A 
ATOM     64  C   UNL A   1      44.368  35.278  30.844  1.00  0.00     0.059 A 
ATOM     65  F   UNL A   1      44.584  33.675  29.146  1.00  0.00    -0.206 F 
ATOM     66  C   UNL A   1      44.016  35.596  32.154  1.00  0.00     0.060 A 
BRANCH  66  67
ATOM     67  S   UNL A   1      44.066  37.307  32.728  1.00  0.00     0.124 S 
ATOM     68  O   UNL A   1      42.991  37.314  33.716  1.00  0.00    -0.237 OA
ATOM     69  O   UNL A   1      45.419  37.418  33.264  1.00  0.00    -0.237 OA
ATOM     70  O   UNL A   1      43.809  38.080  31.517  1.00  0.00    -0.744 OA
ENDBRANCH  66  67
ENDBRANCH  45  59
BRANCH  46  71
ATOM     71  C   UNL A   1      42.834  23.675  27.582  1.00  0.00     0.058 A 
ATOM     72  C   UNL A   1      43.074  23.440  26.219  1.00  0.00     0.135 A 
ATOM     73  C   UNL A   1      42.484  22.575  28.381  1.00  0.00     0.135 A 
ATOM     74  F   UNL A   1      43.409  24.458  25.412  1.00  0.00    -0.206 F 
ATOM     75  C   UNL A   1      42.956  22.169  25.665  1.00  0.00     0.059 A 
ATOM     76  C   UNL A   1      42.384  21.290  27.854  1.00  0.00     0.059 A 
ATOM     77  F   UNL A   1      42.264  22.741  29.694  1.00  0.00    -0.206 F 
ATOM     78  C   UNL A   1      42.613  21.099  26.492  1.00  0.00     0.060 A 
BRANCH  78  79
ATOM     79  S   UNL A   1      42.518  19.445  25.773  1.00  0.00     0.124 S 
ATOM     80  O   UNL A   1      42.920  18.611  26.900  1.00  0.00    -0.237 OA
ATOM     81  O   UNL A   1      41.112  19.360  25.385  1.00  0.00    -0.237 OA
ATOM     82  O   UNL A   1      43.463  19.506  24.662  1.00  0.00    -0.744 OA
ENDBRANCH  78  79
ENDBRANCH  46  71
BRANCH  58  83
ATOM     83  C   UNL A   1      48.051  27.054  30.746  1.00  0.00     0.058 A 
ATOM     84  C   UNL A   1      49.173  27.349  29.956  1.00  0.00     0.135 A 
ATOM     85  C   UNL A   1      48.257  26.360  31.949  1.00  0.00     0.135 A 
ATOM     86  F   UNL A   1      49.029  28.010  28.796  1.00  0.00    -0.206 F 
ATOM     87  C   UNL A   1      50.447  26.929  30.322  1.00  0.00     0.059 A 
ATOM     88  C   UNL A   1      49.527  25.959  32.350  1.00  0.00     0.059 A 
ATOM     89  F   UNL A   1      47.220  26.070  32.750  1.00  0.00    -0.206 F 
ATOM     90  C   UNL A   1      50.612  26.229  31.519  1.00  0.00     0.060 A 
BRANCH  90  91
ATOM     91  S   UNL A   1      52.269  25.683  31.981  1.00  0.00     0.124 S 
ATOM     92  O   UNL A   1      52.569  26.572  33.098  1.00  0.00    -0.237 OA
ATOM     93  O   UNL A   1      52.053  24.282  32.324  1.00  0.00    -0.237 OA
ATOM     94  O   UNL A   1      53.050  25.911  30.769  1.00  0.00    -0.744 OA
ENDBRANCH  90  91
ENDBRANCH  58  83
ENDBRANCH  32  33
ENDBRANCH  24  27
ENDBRANCH   1  23
TORSDOF 14
ENDMDL
