MODEL 1
REMARK VINA RESULT:     -12.8      0.000      0.000
REMARK SMILES C[C@@H](Oc1ccc(-c2ccccc2)cc1)C(=O)N1CCC[C@H](C(=O)NCCCNC(=O)c2ccc(-c3c4nc(c(-c5c(F)cc(S(=O)(=O)[O-])cc5F)c5ccc([nH]5)c(-c5c(F)cc(S(=O)(=O)[O-])cc5F)c5nc(c(-c6c(F)cc(S(=O)(=O)[O-])cc6F)c6ccc3[nH]6)C=C5)C=C4)cc2)C1
REMARK SMILES IDX 26 1 25 2 23 3 24 4 22 6 18 7 19 8 98 9 20 10 21 11 16 12
REMARK SMILES IDX 17 13 2 14 1 15 3 16 4 17 5 18 15 19 6 20 14 21 7 22 8 23
REMARK SMILES IDX 9 24 13 25 10 26 12 27 11 28 27 29 28 30 29 31 30 32 31 34
REMARK SMILES IDX 32 35 33 36 97 37 34 38 96 39 35 40 36 41 37 42 90 43 38 44
REMARK SMILES IDX 95 45 89 46 91 47 39 48 94 49 88 50 87 51 40 53 74 54 53 55
REMARK SMILES IDX 73 56 54 57 57 58 72 59 92 60 55 61 56 62 71 64 93 65 58 66
REMARK SMILES IDX 41 67 42 68 51 69 43 70 44 71 50 72 52 73 45 74 46 75 47 76
REMARK SMILES IDX 48 77 49 78 75 79 76 80 85 81 77 82 78 83 84 84 86 85 79 86
REMARK SMILES IDX 80 87 81 88 82 89 83 90 59 91 60 92 69 93 61 94 62 95 68 96
REMARK SMILES IDX 70 97 63 98 64 99 65 100 66 101 67 102
REMARK H PARENT 25 5 29 33 91 52 57 63
REMARK Flexibility Score: inf
ROOT
ATOM      1  C   UNL A   1      34.087  28.979  26.688  1.00  0.00     0.117 C 
ENDROOT
BRANCH   1   2
ATOM      2  N   UNL A   1      34.037  28.968  25.244  1.00  0.00    -0.356 N 
ATOM      3  C   UNL A   1      32.992  29.081  24.385  1.00  0.00     0.224 C 
ATOM      4  O   UNL A   1      33.287  29.270  23.198  1.00  0.00    -0.275 OA
ATOM      5  H   UNL A   1      34.912  28.858  24.807  1.00  0.00     0.163 HD
BRANCH   3   6
ATOM      6  C   UNL A   1      31.509  28.979  24.775  1.00  0.00     0.098 C 
ATOM      7  N   UNL A   1      30.678  26.624  24.882  1.00  0.00    -0.339 N 
ATOM      8  C   UNL A   1      29.619  26.889  23.907  1.00  0.00     0.119 C 
ATOM      9  C   UNL A   1      31.122  27.781  25.649  1.00  0.00     0.133 C 
ATOM     10  C   UNL A   1      29.940  28.038  22.957  1.00  0.00     0.022 C 
ATOM     11  C   UNL A   1      30.521  29.268  23.644  1.00  0.00     0.017 C 
BRANCH   7  12
ATOM     12  C   UNL A   1      31.157  25.320  25.015  1.00  0.00     0.263 C 
ATOM     13  O   UNL A   1      30.822  24.624  25.981  1.00  0.00    -0.271 OA
BRANCH  12  14
ATOM     14  C   UNL A   1      32.161  24.742  24.002  1.00  0.00     0.259 C 
ATOM     15  C   UNL A   1      32.770  25.720  23.003  1.00  0.00     0.064 C 
BRANCH  14  16
ATOM     16  O   UNL A   1      33.171  24.127  24.812  1.00  0.00    -0.481 OA
BRANCH  16  17
ATOM     17  C   UNL A   1      33.306  22.794  24.562  1.00  0.00     0.120 A 
ATOM     18  C   UNL A   1      32.417  22.120  23.729  1.00  0.00     0.047 A 
ATOM     19  C   UNL A   1      34.257  22.101  25.298  1.00  0.00     0.047 A 
ATOM     20  C   UNL A   1      32.461  20.722  23.663  1.00  0.00     0.012 A 
ATOM     21  C   UNL A   1      34.305  20.715  25.221  1.00  0.00     0.012 A 
ATOM     22  C   UNL A   1      33.382  19.997  24.437  1.00  0.00    -0.018 A 
BRANCH  22  23
ATOM     23  C   UNL A   1      33.352  18.529  24.526  1.00  0.00    -0.018 A 
ATOM     24  C   UNL A   1      33.995  17.707  23.590  1.00  0.00     0.009 A 
ATOM     25  C   UNL A   1      32.673  17.912  25.593  1.00  0.00     0.009 A 
ATOM     26  C   UNL A   1      33.978  16.315  23.736  1.00  0.00     0.001 A 
ATOM     27  C   UNL A   1      32.656  16.526  25.741  1.00  0.00     0.001 A 
ATOM     28  C   UNL A   1      33.315  15.727  24.813  1.00  0.00     0.000 A 
ENDBRANCH  22  23
ENDBRANCH  16  17
ENDBRANCH  14  16
ENDBRANCH  12  14
ENDBRANCH   7  12
ENDBRANCH   3   6
ENDBRANCH   1   2
BRANCH   1  29
ATOM     29  C   UNL A   1      34.238  30.359  27.301  1.00  0.00     0.042 C 
BRANCH  29  30
ATOM     30  C   UNL A   1      35.580  30.575  27.971  1.00  0.00     0.118 C 
BRANCH  30  31
ATOM     31  N   UNL A   1      35.477  30.701  29.423  1.00  0.00    -0.352 N 
ATOM     32  C   UNL A   1      36.413  30.516  30.415  1.00  0.00     0.251 C 
ATOM     33  H   UNL A   1      34.584  30.964  29.747  1.00  0.00     0.163 HD
ATOM     34  O   UNL A   1      36.066  30.565  31.587  1.00  0.00    -0.269 OA
BRANCH  32  35
ATOM     35  C   UNL A   1      37.823  30.229  30.069  1.00  0.00     0.039 A 
ATOM     36  C   UNL A   1      38.665  29.688  31.047  1.00  0.00     0.014 A 
ATOM     37  C   UNL A   1      38.317  30.482  28.791  1.00  0.00     0.014 A 
ATOM     38  C   UNL A   1      39.973  29.328  30.712  1.00  0.00     0.010 A 
ATOM     39  C   UNL A   1      39.570  30.010  28.428  1.00  0.00     0.010 A 
ATOM     40  C   UNL A   1      40.420  29.443  29.386  1.00  0.00    -0.014 A 
BRANCH  40  41
ATOM     41  C   UNL A   1      41.782  29.013  28.976  1.00  0.00     0.031 A 
ATOM     42  C   UNL A   1      42.901  30.022  28.942  1.00  0.00     0.074 A 
ATOM     43  C   UNL A   1      41.991  27.750  28.558  1.00  0.00     0.049 A 
ATOM     44  N   UNL A   1      44.123  29.887  28.498  1.00  0.00    -0.248 NA
ATOM     45  C   UNL A   1      42.589  31.377  29.430  1.00  0.00     0.031 C 
ATOM     46  C   UNL A   1      40.973  26.698  28.486  1.00  0.00     0.029 A 
ATOM     47  N   UNL A   1      43.129  27.135  28.100  1.00  0.00    -0.354 N 
ATOM     48  C   UNL A   1      44.712  31.140  28.626  1.00  0.00     0.074 A 
ATOM     49  C   UNL A   1      43.695  32.037  29.125  1.00  0.00     0.031 C 
ATOM     50  C   UNL A   1      41.539  25.565  28.042  1.00  0.00     0.029 A 
ATOM     51  C   UNL A   1      42.947  25.816  27.757  1.00  0.00     0.049 A 
ATOM     52  H   UNL A   1      43.996  27.596  28.024  1.00  0.00     0.167 HD
ATOM     53  C   UNL A   1      45.994  31.503  28.383  1.00  0.00     0.037 A 
ATOM     54  C   UNL A   1      43.817  24.913  27.265  1.00  0.00     0.037 A 
ATOM     55  C   UNL A   1      47.011  30.591  27.936  1.00  0.00     0.049 A 
ATOM     56  C   UNL A   1      45.245  25.330  27.034  1.00  0.00     0.074 A 
ATOM     57  C   UNL A   1      48.355  30.837  27.719  1.00  0.00     0.029 A 
ATOM     58  N   UNL A   1      46.797  29.250  27.647  1.00  0.00    -0.354 N 
ATOM     59  N   UNL A   1      45.797  26.507  27.212  1.00  0.00    -0.248 NA
ATOM     60  C   UNL A   1      46.168  24.297  26.546  1.00  0.00     0.031 C 
ATOM     61  C   UNL A   1      48.947  29.653  27.268  1.00  0.00     0.029 A 
ATOM     62  C   UNL A   1      47.981  28.658  27.246  1.00  0.00     0.049 A 
ATOM     63  H   UNL A   1      45.930  28.789  27.718  1.00  0.00     0.167 HD
ATOM     64  C   UNL A   1      47.139  26.350  26.881  1.00  0.00     0.074 A 
ATOM     65  C   UNL A   1      47.315  24.961  26.506  1.00  0.00     0.031 C 
ATOM     66  C   UNL A   1      48.135  27.270  26.886  1.00  0.00     0.037 A 
BRANCH  53  67
ATOM     67  C   UNL A   1      46.365  32.942  28.619  1.00  0.00     0.058 A 
ATOM     68  C   UNL A   1      46.795  33.395  29.877  1.00  0.00     0.135 A 
ATOM     69  C   UNL A   1      46.306  33.878  27.574  1.00  0.00     0.135 A 
ATOM     70  F   UNL A   1      46.853  32.549  30.918  1.00  0.00    -0.206 F 
ATOM     71  C   UNL A   1      47.117  34.730  30.101  1.00  0.00     0.059 A 
ATOM     72  C   UNL A   1      46.654  35.212  27.767  1.00  0.00     0.059 A 
ATOM     73  F   UNL A   1      45.901  33.501  26.350  1.00  0.00    -0.206 F 
ATOM     74  C   UNL A   1      47.042  35.631  29.039  1.00  0.00     0.060 A 
BRANCH  74  75
ATOM     75  S   UNL A   1      47.464  37.360  29.344  1.00  0.00     0.124 S 
ATOM     76  O   UNL A   1      48.419  37.619  28.271  1.00  0.00    -0.237 OA
ATOM     77  O   UNL A   1      46.171  38.025  29.215  1.00  0.00    -0.237 OA
ATOM     78  O   UNL A   1      48.025  37.340  30.691  1.00  0.00    -0.744 OA
ENDBRANCH  74  75
ENDBRANCH  53  67
BRANCH  54  79
ATOM     79  C   UNL A   1      43.368  23.522  26.989  1.00  0.00     0.058 A 
ATOM     80  C   UNL A   1      43.152  22.615  28.036  1.00  0.00     0.135 A 
ATOM     81  C   UNL A   1      43.123  23.078  25.680  1.00  0.00     0.135 A 
ATOM     82  F   UNL A   1      43.377  22.990  29.305  1.00  0.00    -0.206 F 
ATOM     83  C   UNL A   1      42.723  21.314  27.798  1.00  0.00     0.059 A 
ATOM     84  C   UNL A   1      42.669  21.789  25.417  1.00  0.00     0.059 A 
ATOM     85  F   UNL A   1      43.296  23.914  24.643  1.00  0.00    -0.206 F 
ATOM     86  C   UNL A   1      42.481  20.910  26.484  1.00  0.00     0.060 A 
BRANCH  86  87
ATOM     87  S   UNL A   1      41.874  19.235  26.189  1.00  0.00     0.124 S 
ATOM     88  O   UNL A   1      42.657  18.839  25.025  1.00  0.00    -0.237 OA
ATOM     89  O   UNL A   1      42.207  18.562  27.441  1.00  0.00    -0.237 OA
ATOM     90  O   UNL A   1      40.447  19.432  25.954  1.00  0.00    -0.744 OA
ENDBRANCH  86  87
ENDBRANCH  54  79
BRANCH  66  91
ATOM     91  C   UNL A   1      49.510  26.802  26.506  1.00  0.00     0.058 A 
ATOM     92  C   UNL A   1      50.394  26.267  27.454  1.00  0.00     0.135 A 
ATOM     93  C   UNL A   1      49.924  26.835  25.164  1.00  0.00     0.135 A 
ATOM     94  F   UNL A   1      50.048  26.218  28.750  1.00  0.00    -0.206 F 
ATOM     95  C   UNL A   1      51.652  25.799  27.089  1.00  0.00     0.059 A 
ATOM     96  C   UNL A   1      51.166  26.348  24.773  1.00  0.00     0.059 A 
ATOM     97  F   UNL A   1      49.110  27.327  24.217  1.00  0.00    -0.206 F 
ATOM     98  C   UNL A   1      52.027  25.842  25.745  1.00  0.00     0.060 A 
BRANCH  98  99
ATOM     99  S   UNL A   1      53.647  25.195  25.278  1.00  0.00     0.124 S 
ATOM    100  O   UNL A   1      53.824  25.778  23.953  1.00  0.00    -0.237 OA
ATOM    101  O   UNL A   1      54.511  25.727  26.327  1.00  0.00    -0.237 OA
ATOM    102  O   UNL A   1      53.457  23.747  25.307  1.00  0.00    -0.744 OA
ENDBRANCH  98  99
ENDBRANCH  66  91
ENDBRANCH  40  41
ENDBRANCH  32  35
ENDBRANCH  30  31
ENDBRANCH  29  30
ENDBRANCH   1  29
TORSDOF 18
ENDMDL
MODEL 2
REMARK VINA RESULT:     -12.7      6.340     12.228
REMARK SMILES C[C@@H](Oc1ccc(-c2ccccc2)cc1)C(=O)N1CCC[C@H](C(=O)NCCCNC(=O)c2ccc(-c3c4nc(c(-c5c(F)cc(S(=O)(=O)[O-])cc5F)c5ccc([nH]5)c(-c5c(F)cc(S(=O)(=O)[O-])cc5F)c5nc(c(-c6c(F)cc(S(=O)(=O)[O-])cc6F)c6ccc3[nH]6)C=C5)C=C4)cc2)C1
REMARK SMILES IDX 26 1 25 2 23 3 24 4 22 6 18 7 19 8 98 9 20 10 21 11 16 12
REMARK SMILES IDX 17 13 2 14 1 15 3 16 4 17 5 18 15 19 6 20 14 21 7 22 8 23
REMARK SMILES IDX 9 24 13 25 10 26 12 27 11 28 27 29 28 30 29 31 30 32 31 34
REMARK SMILES IDX 32 35 33 36 97 37 34 38 96 39 35 40 36 41 37 42 90 43 38 44
REMARK SMILES IDX 95 45 89 46 91 47 39 48 94 49 88 50 87 51 40 53 74 54 53 55
REMARK SMILES IDX 73 56 54 57 57 58 72 59 92 60 55 61 56 62 71 64 93 65 58 66
REMARK SMILES IDX 41 67 42 68 51 69 43 70 44 71 50 72 52 73 45 74 46 75 47 76
REMARK SMILES IDX 48 77 49 78 75 79 76 80 85 81 77 82 78 83 84 84 86 85 79 86
REMARK SMILES IDX 80 87 81 88 82 89 83 90 59 91 60 92 69 93 61 94 62 95 68 96
REMARK SMILES IDX 70 97 63 98 64 99 65 100 66 101 67 102
REMARK H PARENT 25 5 29 33 91 52 57 63
REMARK Flexibility Score: inf
ROOT
ATOM      1  C   UNL A   1      37.026  23.735  25.833  1.00  0.00     0.117 C 
ENDROOT
BRANCH   1   2
ATOM      2  N   UNL A   1      35.853  23.260  26.529  1.00  0.00    -0.356 N 
ATOM      3  C   UNL A   1      34.957  22.291  26.212  1.00  0.00     0.224 C 
ATOM      4  O   UNL A   1      34.186  21.950  27.119  1.00  0.00    -0.275 OA
ATOM      5  H   UNL A   1      35.671  23.718  27.382  1.00  0.00     0.163 HD
BRANCH   3   6
ATOM      6  C   UNL A   1      34.828  21.618  24.836  1.00  0.00     0.098 C 
ATOM      7  N   UNL A   1      33.078  22.661  23.389  1.00  0.00    -0.339 N 
ATOM      8  C   UNL A   1      32.366  21.392  23.230  1.00  0.00     0.119 C 
ATOM      9  C   UNL A   1      34.505  22.545  23.660  1.00  0.00     0.133 C 
ATOM     10  C   UNL A   1      32.589  20.421  24.385  1.00  0.00     0.022 C 
ATOM     11  C   UNL A   1      34.042  20.306  24.829  1.00  0.00     0.017 C 
BRANCH   7  12
ATOM     12  C   UNL A   1      32.363  23.852  23.255  1.00  0.00     0.263 C 
ATOM     13  O   UNL A   1      32.442  24.518  22.216  1.00  0.00    -0.271 OA
BRANCH  12  14
ATOM     14  C   UNL A   1      31.516  24.398  24.418  1.00  0.00     0.259 C 
ATOM     15  C   UNL A   1      31.398  23.517  25.656  1.00  0.00     0.064 C 
BRANCH  14  16
ATOM     16  O   UNL A   1      32.113  25.663  24.732  1.00  0.00    -0.481 OA
BRANCH  16  17
ATOM     17  C   UNL A   1      31.289  26.715  24.468  1.00  0.00     0.120 A 
ATOM     18  C   UNL A   1      30.081  26.537  23.797  1.00  0.00     0.047 A 
ATOM     19  C   UNL A   1      31.772  27.987  24.738  1.00  0.00     0.047 A 
ATOM     20  C   UNL A   1      29.365  27.658  23.360  1.00  0.00     0.012 A 
ATOM     21  C   UNL A   1      31.053  29.097  24.313  1.00  0.00     0.012 A 
ATOM     22  C   UNL A   1      29.861  28.955  23.579  1.00  0.00    -0.018 A 
BRANCH  22  23
ATOM     23  C   UNL A   1      29.230  30.147  22.993  1.00  0.00    -0.018 A 
ATOM     24  C   UNL A   1      29.074  31.342  23.709  1.00  0.00     0.009 A 
ATOM     25  C   UNL A   1      28.776  30.109  21.661  1.00  0.00     0.009 A 
ATOM     26  C   UNL A   1      28.507  32.467  23.098  1.00  0.00     0.001 A 
ATOM     27  C   UNL A   1      28.213  31.229  21.052  1.00  0.00     0.001 A 
ATOM     28  C   UNL A   1      28.084  32.411  21.771  1.00  0.00     0.000 A 
ENDBRANCH  22  23
ENDBRANCH  16  17
ENDBRANCH  14  16
ENDBRANCH  12  14
ENDBRANCH   7  12
ENDBRANCH   3   6
ENDBRANCH   1   2
BRANCH   1  29
ATOM     29  C   UNL A   1      38.296  22.965  26.143  1.00  0.00     0.042 C 
BRANCH  29  30
ATOM     30  C   UNL A   1      39.307  23.768  26.937  1.00  0.00     0.118 C 
BRANCH  30  31
ATOM     31  N   UNL A   1      40.499  24.106  26.162  1.00  0.00    -0.352 N 
ATOM     32  C   UNL A   1      41.423  25.114  26.319  1.00  0.00     0.251 C 
ATOM     33  H   UNL A   1      40.670  23.511  25.396  1.00  0.00     0.163 HD
ATOM     34  O   UNL A   1      42.288  25.278  25.469  1.00  0.00    -0.269 OA
BRANCH  32  35
ATOM     35  C   UNL A   1      41.354  26.016  27.491  1.00  0.00     0.039 A 
ATOM     36  C   UNL A   1      42.196  27.133  27.538  1.00  0.00     0.014 A 
ATOM     37  C   UNL A   1      40.465  25.773  28.536  1.00  0.00     0.014 A 
ATOM     38  C   UNL A   1      42.081  28.042  28.593  1.00  0.00     0.010 A 
ATOM     39  C   UNL A   1      40.266  26.737  29.514  1.00  0.00     0.010 A 
ATOM     40  C   UNL A   1      41.082  27.875  29.565  1.00  0.00    -0.014 A 
BRANCH  40  41
ATOM     41  C   UNL A   1      40.886  28.852  30.666  1.00  0.00     0.031 A 
ATOM     42  C   UNL A   1      41.732  28.750  31.909  1.00  0.00     0.074 A 
ATOM     43  C   UNL A   1      39.900  29.767  30.587  1.00  0.00     0.049 A 
ATOM     44  N   UNL A   1      41.640  29.416  33.030  1.00  0.00    -0.248 NA
ATOM     45  C   UNL A   1      42.796  27.731  31.907  1.00  0.00     0.031 C 
ATOM     46  C   UNL A   1      38.974  29.924  29.462  1.00  0.00     0.029 A 
ATOM     47  N   UNL A   1      39.502  30.734  31.476  1.00  0.00    -0.354 N 
ATOM     48  C   UNL A   1      42.608  28.878  33.870  1.00  0.00     0.074 A 
ATOM     49  C   UNL A   1      43.232  27.788  33.155  1.00  0.00     0.031 C 
ATOM     50  C   UNL A   1      38.139  30.943  29.717  1.00  0.00     0.029 A 
ATOM     51  C   UNL A   1      38.439  31.486  31.037  1.00  0.00     0.049 A 
ATOM     52  H   UNL A   1      39.938  30.875  32.348  1.00  0.00     0.167 HD
ATOM     53  C   UNL A   1      42.971  29.279  35.112  1.00  0.00     0.037 A 
ATOM     54  C   UNL A   1      37.778  32.497  31.634  1.00  0.00     0.037 A 
ATOM     55  C   UNL A   1      42.379  30.398  35.794  1.00  0.00     0.049 A 
ATOM     56  C   UNL A   1      38.219  32.948  33.000  1.00  0.00     0.074 A 
ATOM     57  C   UNL A   1      42.712  30.930  37.027  1.00  0.00     0.029 A 
ATOM     58  N   UNL A   1      41.337  31.166  35.294  1.00  0.00    -0.354 N 
ATOM     59  N   UNL A   1      39.174  32.462  33.758  1.00  0.00    -0.248 NA
ATOM     60  C   UNL A   1      37.503  34.088  33.588  1.00  0.00     0.031 C 
ATOM     61  C   UNL A   1      41.850  32.001  37.287  1.00  0.00     0.029 A 
ATOM     62  C   UNL A   1      41.009  32.162  36.196  1.00  0.00     0.049 A 
ATOM     63  H   UNL A   1      40.897  31.024  34.425  1.00  0.00     0.167 HD
ATOM     64  C   UNL A   1      39.189  33.251  34.902  1.00  0.00     0.074 A 
ATOM     65  C   UNL A   1      38.157  34.254  34.729  1.00  0.00     0.031 C 
ATOM     66  C   UNL A   1      39.983  33.156  35.998  1.00  0.00     0.037 A 
BRANCH  53  67
ATOM     67  C   UNL A   1      44.070  28.512  35.796  1.00  0.00     0.058 A 
ATOM     68  C   UNL A   1      45.423  28.837  35.605  1.00  0.00     0.135 A 
ATOM     69  C   UNL A   1      43.770  27.451  36.665  1.00  0.00     0.135 A 
ATOM     70  F   UNL A   1      45.770  29.831  34.772  1.00  0.00    -0.206 F 
ATOM     71  C   UNL A   1      46.440  28.115  36.221  1.00  0.00     0.059 A 
ATOM     72  C   UNL A   1      44.770  26.735  37.316  1.00  0.00     0.059 A 
ATOM     73  F   UNL A   1      42.493  27.097  36.884  1.00  0.00    -0.206 F 
ATOM     74  C   UNL A   1      46.103  27.064  37.074  1.00  0.00     0.060 A 
BRANCH  74  75
ATOM     75  S   UNL A   1      47.434  26.136  37.866  1.00  0.00     0.124 S 
ATOM     76  O   UNL A   1      47.786  25.182  36.819  1.00  0.00    -0.237 OA
ATOM     77  O   UNL A   1      48.423  27.176  38.133  1.00  0.00    -0.237 OA
ATOM     78  O   UNL A   1      46.795  25.565  39.047  1.00  0.00    -0.744 OA
ENDBRANCH  74  75
ENDBRANCH  53  67
BRANCH  54  79
ATOM     79  C   UNL A   1      36.654  33.169  30.928  1.00  0.00     0.058 A 
ATOM     80  C   UNL A   1      35.327  32.971  31.336  1.00  0.00     0.135 A 
ATOM     81  C   UNL A   1      36.882  34.039  29.850  1.00  0.00     0.135 A 
ATOM     82  F   UNL A   1      35.057  32.146  32.359  1.00  0.00    -0.206 F 
ATOM     83  C   UNL A   1      34.265  33.599  30.695  1.00  0.00     0.059 A 
ATOM     84  C   UNL A   1      35.839  34.698  29.207  1.00  0.00     0.059 A 
ATOM     85  F   UNL A   1      38.136  34.277  29.432  1.00  0.00    -0.206 F 
ATOM     86  C   UNL A   1      34.531  34.464  29.632  1.00  0.00     0.060 A 
BRANCH  86  87
ATOM     87  S   UNL A   1      33.149  35.314  28.839  1.00  0.00     0.124 S 
ATOM     88  O   UNL A   1      33.836  36.360  28.093  1.00  0.00    -0.237 OA
ATOM     89  O   UNL A   1      32.550  34.248  28.040  1.00  0.00    -0.237 OA
ATOM     90  O   UNL A   1      32.342  35.768  29.968  1.00  0.00    -0.744 OA
ENDBRANCH  86  87
ENDBRANCH  54  79
BRANCH  66  91
ATOM     91  C   UNL A   1      39.792  34.180  37.080  1.00  0.00     0.058 A 
ATOM     92  C   UNL A   1      38.904  33.968  38.145  1.00  0.00     0.135 A 
ATOM     93  C   UNL A   1      40.552  35.360  37.081  1.00  0.00     0.135 A 
ATOM     94  F   UNL A   1      38.149  32.858  38.187  1.00  0.00    -0.206 F 
ATOM     95  C   UNL A   1      38.760  34.903  39.165  1.00  0.00     0.059 A 
ATOM     96  C   UNL A   1      40.444  36.296  38.104  1.00  0.00     0.059 A 
ATOM     97  F   UNL A   1      41.425  35.604  36.090  1.00  0.00    -0.206 F 
ATOM     98  C   UNL A   1      39.537  36.063  39.136  1.00  0.00     0.060 A 
BRANCH  98  99
ATOM     99  S   UNL A   1      39.370  37.249  40.486  1.00  0.00     0.124 S 
ATOM    100  O   UNL A   1      38.282  38.093  40.002  1.00  0.00    -0.237 OA
ATOM    101  O   UNL A   1      39.048  36.390  41.621  1.00  0.00    -0.237 OA
ATOM    102  O   UNL A   1      40.682  37.888  40.543  1.00  0.00    -0.744 OA
ENDBRANCH  98  99
ENDBRANCH  66  91
ENDBRANCH  40  41
ENDBRANCH  32  35
ENDBRANCH  30  31
ENDBRANCH  29  30
ENDBRANCH   1  29
TORSDOF 18
ENDMDL
MODEL 3
REMARK VINA RESULT:     -12.7      6.391     12.110
REMARK SMILES C[C@@H](Oc1ccc(-c2ccccc2)cc1)C(=O)N1CCC[C@H](C(=O)NCCCNC(=O)c2ccc(-c3c4nc(c(-c5c(F)cc(S(=O)(=O)[O-])cc5F)c5ccc([nH]5)c(-c5c(F)cc(S(=O)(=O)[O-])cc5F)c5nc(c(-c6c(F)cc(S(=O)(=O)[O-])cc6F)c6ccc3[nH]6)C=C5)C=C4)cc2)C1
REMARK SMILES IDX 26 1 25 2 23 3 24 4 22 6 18 7 19 8 98 9 20 10 21 11 16 12
REMARK SMILES IDX 17 13 2 14 1 15 3 16 4 17 5 18 15 19 6 20 14 21 7 22 8 23
REMARK SMILES IDX 9 24 13 25 10 26 12 27 11 28 27 29 28 30 29 31 30 32 31 34
REMARK SMILES IDX 32 35 33 36 97 37 34 38 96 39 35 40 36 41 37 42 90 43 38 44
REMARK SMILES IDX 95 45 89 46 91 47 39 48 94 49 88 50 87 51 40 53 74 54 53 55
REMARK SMILES IDX 73 56 54 57 57 58 72 59 92 60 55 61 56 62 71 64 93 65 58 66
REMARK SMILES IDX 41 67 42 68 51 69 43 70 44 71 50 72 52 73 45 74 46 75 47 76
REMARK SMILES IDX 48 77 49 78 75 79 76 80 85 81 77 82 78 83 84 84 86 85 79 86
REMARK SMILES IDX 80 87 81 88 82 89 83 90 59 91 60 92 69 93 61 94 62 95 68 96
REMARK SMILES IDX 70 97 63 98 64 99 65 100 66 101 67 102
REMARK H PARENT 25 5 29 33 91 52 57 63
REMARK Flexibility Score: inf
ROOT
ATOM      1  C   UNL A   1      38.407  21.706  25.936  1.00  0.00     0.117 C 
ENDROOT
BRANCH   1   2
ATOM      2  N   UNL A   1      37.494  22.783  25.631  1.00  0.00    -0.356 N 
ATOM      3  C   UNL A   1      36.149  22.886  25.786  1.00  0.00     0.224 C 
ATOM      4  O   UNL A   1      35.675  24.022  25.649  1.00  0.00    -0.275 OA
ATOM      5  H   UNL A   1      37.920  23.582  25.243  1.00  0.00     0.163 HD
BRANCH   3   6
ATOM      6  C   UNL A   1      35.200  21.717  26.095  1.00  0.00     0.098 C 
ATOM      7  N   UNL A   1      33.193  21.656  24.607  1.00  0.00    -0.339 N 
ATOM      8  C   UNL A   1      32.273  21.709  25.744  1.00  0.00     0.119 C 
ATOM      9  C   UNL A   1      34.501  21.079  24.890  1.00  0.00     0.133 C 
ATOM     10  C   UNL A   1      32.869  22.376  26.978  1.00  0.00     0.022 C 
ATOM     11  C   UNL A   1      34.288  21.927  27.304  1.00  0.00     0.017 C 
BRANCH   7  12
ATOM     12  C   UNL A   1      32.758  22.131  23.369  1.00  0.00     0.263 C 
ATOM     13  O   UNL A   1      32.109  21.402  22.609  1.00  0.00    -0.271 OA
BRANCH  12  14
ATOM     14  C   UNL A   1      33.130  23.546  22.892  1.00  0.00     0.259 C 
ATOM     15  C   UNL A   1      33.276  23.749  21.388  1.00  0.00     0.064 C 
BRANCH  14  16
ATOM     16  O   UNL A   1      32.103  24.387  23.434  1.00  0.00    -0.481 OA
BRANCH  16  17
ATOM     17  C   UNL A   1      32.592  25.331  24.288  1.00  0.00     0.120 A 
ATOM     18  C   UNL A   1      32.123  25.436  25.595  1.00  0.00     0.047 A 
ATOM     19  C   UNL A   1      33.447  26.287  23.759  1.00  0.00     0.047 A 
ATOM     20  C   UNL A   1      32.493  26.541  26.371  1.00  0.00     0.012 A 
ATOM     21  C   UNL A   1      33.820  27.376  24.536  1.00  0.00     0.012 A 
ATOM     22  C   UNL A   1      33.317  27.547  25.839  1.00  0.00    -0.018 A 
BRANCH  22  23
ATOM     23  C   UNL A   1      33.592  28.801  26.558  1.00  0.00    -0.018 A 
ATOM     24  C   UNL A   1      34.822  29.056  27.180  1.00  0.00     0.009 A 
ATOM     25  C   UNL A   1      32.601  29.799  26.616  1.00  0.00     0.009 A 
ATOM     26  C   UNL A   1      35.056  30.280  27.816  1.00  0.00     0.001 A 
ATOM     27  C   UNL A   1      32.834  31.019  27.248  1.00  0.00     0.001 A 
ATOM     28  C   UNL A   1      34.066  31.262  27.843  1.00  0.00     0.000 A 
ENDBRANCH  22  23
ENDBRANCH  16  17
ENDBRANCH  14  16
ENDBRANCH  12  14
ENDBRANCH   7  12
ENDBRANCH   3   6
ENDBRANCH   1   2
BRANCH   1  29
ATOM     29  C   UNL A   1      39.737  22.154  26.513  1.00  0.00     0.042 C 
BRANCH  29  30
ATOM     30  C   UNL A   1      39.844  23.657  26.680  1.00  0.00     0.118 C 
BRANCH  30  31
ATOM     31  N   UNL A   1      40.886  24.249  25.843  1.00  0.00    -0.352 N 
ATOM     32  C   UNL A   1      41.484  25.487  25.887  1.00  0.00     0.251 C 
ATOM     33  H   UNL A   1      41.215  23.661  25.125  1.00  0.00     0.163 HD
ATOM     34  O   UNL A   1      42.262  25.812  25.000  1.00  0.00    -0.269 OA
BRANCH  32  35
ATOM     35  C   UNL A   1      41.168  26.434  26.980  1.00  0.00     0.039 A 
ATOM     36  C   UNL A   1      40.377  25.998  28.047  1.00  0.00     0.014 A 
ATOM     37  C   UNL A   1      41.650  27.741  26.962  1.00  0.00     0.014 A 
ATOM     38  C   UNL A   1      40.143  26.850  29.130  1.00  0.00     0.010 A 
ATOM     39  C   UNL A   1      41.523  28.541  28.090  1.00  0.00     0.010 A 
ATOM     40  C   UNL A   1      40.755  28.113  29.180  1.00  0.00    -0.014 A 
BRANCH  40  41
ATOM     41  C   UNL A   1      40.583  29.024  30.341  1.00  0.00     0.031 A 
ATOM     42  C   UNL A   1      41.439  28.836  31.567  1.00  0.00     0.074 A 
ATOM     43  C   UNL A   1      39.610  29.956  30.326  1.00  0.00     0.049 A 
ATOM     44  N   UNL A   1      41.366  29.435  32.727  1.00  0.00    -0.248 NA
ATOM     45  C   UNL A   1      42.488  27.805  31.492  1.00  0.00     0.031 C 
ATOM     46  C   UNL A   1      38.675  30.192  29.222  1.00  0.00     0.029 A 
ATOM     47  N   UNL A   1      39.233  30.872  31.276  1.00  0.00    -0.354 N 
ATOM     48  C   UNL A   1      42.335  28.834  33.523  1.00  0.00     0.074 A 
ATOM     49  C   UNL A   1      42.936  27.781  32.737  1.00  0.00     0.031 C 
ATOM     50  C   UNL A   1      37.857  31.205  29.546  1.00  0.00     0.029 A 
ATOM     51  C   UNL A   1      38.177  31.664  30.893  1.00  0.00     0.049 A 
ATOM     52  H   UNL A   1      39.679  30.955  32.150  1.00  0.00     0.167 HD
ATOM     53  C   UNL A   1      42.714  29.154  34.783  1.00  0.00     0.037 A 
ATOM     54  C   UNL A   1      37.535  32.645  31.557  1.00  0.00     0.037 A 
ATOM     55  C   UNL A   1      42.144  30.238  35.537  1.00  0.00     0.049 A 
ATOM     56  C   UNL A   1      37.995  33.007  32.943  1.00  0.00     0.074 A 
ATOM     57  C   UNL A   1      42.496  30.690  36.796  1.00  0.00     0.029 A 
ATOM     58  N   UNL A   1      41.109  31.048  35.094  1.00  0.00    -0.354 N 
ATOM     59  N   UNL A   1      38.950  32.463  33.661  1.00  0.00    -0.248 NA
ATOM     60  C   UNL A   1      37.300  34.118  33.606  1.00  0.00     0.031 C 
ATOM     61  C   UNL A   1      41.651  31.754  37.129  1.00  0.00     0.029 A 
ATOM     62  C   UNL A   1      40.802  31.992  36.059  1.00  0.00     0.049 A 
ATOM     63  H   UNL A   1      40.659  30.965  34.223  1.00  0.00     0.167 HD
ATOM     64  C   UNL A   1      38.986  33.182  34.851  1.00  0.00     0.074 A 
ATOM     65  C   UNL A   1      37.967  34.207  34.748  1.00  0.00     0.031 C 
ATOM     66  C   UNL A   1      39.789  33.010  35.931  1.00  0.00     0.037 A 
BRANCH  53  67
ATOM     67  C   UNL A   1      43.809  28.333  35.409  1.00  0.00     0.058 A 
ATOM     68  C   UNL A   1      45.164  28.659  35.236  1.00  0.00     0.135 A 
ATOM     69  C   UNL A   1      43.502  27.217  36.203  1.00  0.00     0.135 A 
ATOM     70  F   UNL A   1      45.517  29.704  34.471  1.00  0.00    -0.206 F 
ATOM     71  C   UNL A   1      46.176  27.887  35.796  1.00  0.00     0.059 A 
ATOM     72  C   UNL A   1      44.498  26.449  36.800  1.00  0.00     0.059 A 
ATOM     73  F   UNL A   1      42.223  26.859  36.402  1.00  0.00    -0.206 F 
ATOM     74  C   UNL A   1      45.833  26.783  36.576  1.00  0.00     0.060 A 
BRANCH  74  75
ATOM     75  S   UNL A   1      47.158  25.792  37.298  1.00  0.00     0.124 S 
ATOM     76  O   UNL A   1      48.066  25.651  36.163  1.00  0.00    -0.237 OA
ATOM     77  O   UNL A   1      47.630  26.645  38.384  1.00  0.00    -0.237 OA
ATOM     78  O   UNL A   1      46.481  24.569  37.714  1.00  0.00    -0.744 OA
ENDBRANCH  74  75
ENDBRANCH  53  67
BRANCH  54  79
ATOM     79  C   UNL A   1      36.414  33.374  30.904  1.00  0.00     0.058 A 
ATOM     80  C   UNL A   1      36.653  34.263  29.846  1.00  0.00     0.135 A 
ATOM     81  C   UNL A   1      35.083  33.180  31.306  1.00  0.00     0.135 A 
ATOM     82  F   UNL A   1      37.908  34.485  29.428  1.00  0.00    -0.206 F 
ATOM     83  C   UNL A   1      35.616  34.945  29.218  1.00  0.00     0.059 A 
ATOM     84  C   UNL A   1      34.026  33.832  30.678  1.00  0.00     0.059 A 
ATOM     85  F   UNL A   1      34.799  32.325  32.302  1.00  0.00    -0.206 F 
ATOM     86  C   UNL A   1      34.304  34.720  29.640  1.00  0.00     0.060 A 
BRANCH  86  87
ATOM     87  S   UNL A   1      32.961  35.571  28.783  1.00  0.00     0.124 S 
ATOM     88  O   UNL A   1      32.167  36.066  29.900  1.00  0.00    -0.237 OA
ATOM     89  O   UNL A   1      33.679  36.583  28.013  1.00  0.00    -0.237 OA
ATOM     90  O   UNL A   1      32.345  34.512  27.989  1.00  0.00    -0.744 OA
ENDBRANCH  86  87
ENDBRANCH  54  79
BRANCH  66  91
ATOM     91  C   UNL A   1      39.622  33.969  37.074  1.00  0.00     0.058 A 
ATOM     92  C   UNL A   1      38.759  33.694  38.145  1.00  0.00     0.135 A 
ATOM     93  C   UNL A   1      40.381  35.149  37.126  1.00  0.00     0.135 A 
ATOM     94  F   UNL A   1      38.007  32.582  38.140  1.00  0.00    -0.206 F 
ATOM     95  C   UNL A   1      38.638  34.568  39.221  1.00  0.00     0.059 A 
ATOM     96  C   UNL A   1      40.295  36.024  38.203  1.00  0.00     0.059 A 
ATOM     97  F   UNL A   1      41.230  35.452  36.130  1.00  0.00    -0.206 F 
ATOM     98  C   UNL A   1      39.412  35.729  39.241  1.00  0.00     0.060 A 
BRANCH  98  99
ATOM     99  S   UNL A   1      39.276  36.835  40.661  1.00  0.00     0.124 S 
ATOM    100  O   UNL A   1      38.158  37.685  40.264  1.00  0.00    -0.237 OA
ATOM    101  O   UNL A   1      39.009  35.908  41.756  1.00  0.00    -0.237 OA
ATOM    102  O   UNL A   1      40.579  37.493  40.708  1.00  0.00    -0.744 OA
ENDBRANCH  98  99
ENDBRANCH  66  91
ENDBRANCH  40  41
ENDBRANCH  32  35
ENDBRANCH  30  31
ENDBRANCH  29  30
ENDBRANCH   1  29
TORSDOF 18
ENDMDL
