MODEL 1
REMARK VINA RESULT:      -9.8      0.000      0.000
REMARK SMILES CC(C)Cc1ccc([C@@H]2CC[NH2+][C@H]2C(=O)NCCCNC(=O)c2ccc(-c3c4nc(c(-c5c(F)cc(S(=O)(=O)[O-])cc5F)c5ccc([nH]5)c(-c5c(F)cc(S(=O)(=O)[O-])cc5F)c5nc(c(-c6c(F)cc(S(=O)(=O)[O-])cc6F)c6ccc3[nH]6)C=C5)C=C4)cc2)cc1
REMARK SMILES IDX 18 1 17 2 16 3 14 4 15 5 13 7 9 8 10 9 11 10 12 11 8 14 5 15
REMARK SMILES IDX 6 16 90 17 7 18 89 19 4 20 2 21 1 22 3 23 19 24 20 25 21 26
REMARK SMILES IDX 22 28 23 29 24 30 88 31 25 32 87 33 26 34 27 35 28 36 81 37
REMARK SMILES IDX 29 38 86 39 80 40 82 41 30 42 85 43 79 44 78 45 31 47 65 48
REMARK SMILES IDX 44 49 64 50 45 51 48 52 63 53 83 54 46 55 47 56 62 58 84 59
REMARK SMILES IDX 49 60 32 61 33 62 42 63 34 64 35 65 41 66 43 67 36 68 37 69
REMARK SMILES IDX 38 70 39 71 40 72 66 73 67 74 76 75 68 76 69 77 75 78 77 79
REMARK SMILES IDX 70 80 71 81 72 82 73 83 74 84 50 85 51 86 60 87 52 88 53 89
REMARK SMILES IDX 59 90 61 91 54 92 55 93 56 94 57 95 58 96
REMARK H PARENT 16 6 12 12 12 13 20 27 82 46 48 57
REMARK Flexibility Score: inf
ROOT
ATOM      1  C   UNL A   1      40.242  21.570  27.178  1.00  0.00     0.042 C 
ENDROOT
BRANCH   1   2
ATOM      2  C   UNL A   1      41.570  21.010  27.669  1.00  0.00     0.118 C 
BRANCH   2   3
ATOM      3  N   UNL A   1      42.235  20.202  26.665  1.00  0.00    -0.351 N 
ATOM      4  C   UNL A   1      43.159  20.500  25.710  1.00  0.00     0.278 C 
ATOM      5  O   UNL A   1      43.492  19.572  24.963  1.00  0.00    -0.268 OA
ATOM      6  H   UNL A   1      41.965  19.255  26.675  1.00  0.00     0.163 HD
BRANCH   4   7
ATOM      7  C   UNL A   1      43.770  21.906  25.532  1.00  0.00     0.280 C 
ATOM      8  C   UNL A   1      45.195  22.030  26.088  1.00  0.00     0.093 C 
ATOM      9  C   UNL A   1      46.065  22.306  24.862  1.00  0.00     0.076 C 
ATOM     10  C   UNL A   1      45.115  22.829  23.798  1.00  0.00     0.262 C 
ATOM     11  N   UNL A   1      43.772  22.339  24.110  1.00  0.00    -0.335 N 
ATOM     12  H   UNL A   1      43.541  21.551  23.506  1.00  0.00     0.346 HD
ATOM     13  H   UNL A   1      43.079  23.073  23.959  1.00  0.00     0.346 HD
BRANCH   8  14
ATOM     14  C   UNL A   1      45.330  23.142  27.119  1.00  0.00    -0.038 A 
ATOM     15  C   UNL A   1      45.546  25.221  29.015  1.00  0.00    -0.048 A 
ATOM     16  C   UNL A   1      44.438  24.366  29.021  1.00  0.00     0.004 A 
ATOM     17  C   UNL A   1      46.558  25.010  28.076  1.00  0.00     0.004 A 
ATOM     18  C   UNL A   1      44.331  23.335  28.083  1.00  0.00     0.004 A 
ATOM     19  C   UNL A   1      46.445  23.992  27.133  1.00  0.00     0.004 A 
BRANCH  15  20
ATOM     20  C   UNL A   1      45.638  26.387  29.969  1.00  0.00     0.038 C 
BRANCH  20  21
ATOM     21  C   UNL A   1      47.028  26.504  30.628  1.00  0.00    -0.013 C 
ATOM     22  C   UNL A   1      47.683  27.858  30.340  1.00  0.00     0.008 C 
ATOM     23  C   UNL A   1      46.916  26.286  32.136  1.00  0.00     0.008 C 
ENDBRANCH  20  21
ENDBRANCH  15  20
ENDBRANCH   8  14
ENDBRANCH   4   7
ENDBRANCH   2   3
ENDBRANCH   1   2
BRANCH   1  24
ATOM     24  C   UNL A   1      40.218  23.093  27.108  1.00  0.00     0.118 C 
BRANCH  24  25
ATOM     25  N   UNL A   1      41.245  23.615  26.215  1.00  0.00    -0.352 N 
ATOM     26  C   UNL A   1      41.792  24.869  26.130  1.00  0.00     0.251 C 
ATOM     27  H   UNL A   1      41.604  22.961  25.571  1.00  0.00     0.163 HD
ATOM     28  O   UNL A   1      42.466  25.163  25.143  1.00  0.00    -0.269 OA
BRANCH  26  29
ATOM     29  C   UNL A   1      41.576  25.862  27.202  1.00  0.00     0.039 A 
ATOM     30  C   UNL A   1      40.508  25.683  28.087  1.00  0.00     0.014 A 
ATOM     31  C   UNL A   1      42.392  26.992  27.313  1.00  0.00     0.014 A 
ATOM     32  C   UNL A   1      40.298  26.605  29.115  1.00  0.00     0.010 A 
ATOM     33  C   UNL A   1      42.230  27.866  28.383  1.00  0.00     0.010 A 
ATOM     34  C   UNL A   1      41.176  27.687  29.291  1.00  0.00    -0.014 A 
BRANCH  34  35
ATOM     35  C   UNL A   1      41.010  28.645  30.413  1.00  0.00     0.031 A 
ATOM     36  C   UNL A   1      41.855  28.509  31.653  1.00  0.00     0.074 A 
ATOM     37  C   UNL A   1      40.049  29.588  30.345  1.00  0.00     0.049 A 
ATOM     38  N   UNL A   1      41.792  29.183  32.770  1.00  0.00    -0.248 NA
ATOM     39  C   UNL A   1      42.885  27.456  31.647  1.00  0.00     0.031 C 
ATOM     40  C   UNL A   1      39.132  29.782  29.218  1.00  0.00     0.029 A 
ATOM     41  N   UNL A   1      39.670  30.550  31.247  1.00  0.00    -0.354 N 
ATOM     42  C   UNL A   1      42.755  28.626  33.606  1.00  0.00     0.074 A 
ATOM     43  C   UNL A   1      43.359  27.530  32.882  1.00  0.00     0.031 C 
ATOM     44  C   UNL A   1      38.307  30.806  29.492  1.00  0.00     0.029 A 
ATOM     45  C   UNL A   1      38.609  31.316  30.825  1.00  0.00     0.049 A 
ATOM     46  H   UNL A   1      40.116  30.679  32.115  1.00  0.00     0.167 HD
ATOM     47  C   UNL A   1      43.114  29.009  34.853  1.00  0.00     0.037 A 
ATOM     48  C   UNL A   1      37.943  32.309  31.449  1.00  0.00     0.037 A 
ATOM     49  C   UNL A   1      42.538  30.131  35.548  1.00  0.00     0.049 A 
ATOM     50  C   UNL A   1      38.380  32.727  32.827  1.00  0.00     0.074 A 
ATOM     51  C   UNL A   1      42.888  30.647  36.785  1.00  0.00     0.029 A 
ATOM     52  N   UNL A   1      41.497  30.910  35.070  1.00  0.00    -0.354 N 
ATOM     53  N   UNL A   1      39.342  32.234  33.571  1.00  0.00    -0.248 NA
ATOM     54  C   UNL A   1      37.649  33.839  33.449  1.00  0.00     0.031 C 
ATOM     55  C   UNL A   1      42.031  31.712  37.072  1.00  0.00     0.029 A 
ATOM     56  C   UNL A   1      41.178  31.892  35.993  1.00  0.00     0.049 A 
ATOM     57  H   UNL A   1      41.049  30.785  34.202  1.00  0.00     0.167 HD
ATOM     58  C   UNL A   1      39.351  32.997  34.733  1.00  0.00     0.074 A 
ATOM     59  C   UNL A   1      38.307  33.991  34.589  1.00  0.00     0.031 C 
ATOM     60  C   UNL A   1      40.149  32.886  35.823  1.00  0.00     0.037 A 
BRANCH  47  61
ATOM     61  C   UNL A   1      44.191  28.226  35.553  1.00  0.00     0.058 A 
ATOM     62  C   UNL A   1      43.898  27.070  36.292  1.00  0.00     0.135 A 
ATOM     63  C   UNL A   1      45.540  28.592  35.416  1.00  0.00     0.135 A 
ATOM     64  F   UNL A   1      42.624  26.685  36.469  1.00  0.00    -0.206 F 
ATOM     65  C   UNL A   1      44.902  26.308  36.878  1.00  0.00     0.059 A 
ATOM     66  C   UNL A   1      46.564  27.830  35.972  1.00  0.00     0.059 A 
ATOM     67  F   UNL A   1      45.875  29.692  34.722  1.00  0.00    -0.206 F 
ATOM     68  C   UNL A   1      46.234  26.693  36.707  1.00  0.00     0.060 A 
BRANCH  68  69
ATOM     69  S   UNL A   1      47.527  25.665  37.436  1.00  0.00     0.124 S 
ATOM     70  O   UNL A   1      47.472  26.077  38.835  1.00  0.00    -0.237 OA
ATOM     71  O   UNL A   1      47.050  24.316  37.153  1.00  0.00    -0.237 OA
ATOM     72  O   UNL A   1      48.730  26.066  36.711  1.00  0.00    -0.744 OA
ENDBRANCH  68  69
ENDBRANCH  47  61
BRANCH  48  73
ATOM     73  C   UNL A   1      36.798  32.981  30.779  1.00  0.00     0.058 A 
ATOM     74  C   UNL A   1      37.006  33.912  29.750  1.00  0.00     0.135 A 
ATOM     75  C   UNL A   1      35.473  32.722  31.167  1.00  0.00     0.135 A 
ATOM     76  F   UNL A   1      38.253  34.195  29.346  1.00  0.00    -0.206 F 
ATOM     77  C   UNL A   1      35.947  34.588  29.153  1.00  0.00     0.059 A 
ATOM     78  C   UNL A   1      34.396  33.365  30.566  1.00  0.00     0.059 A 
ATOM     79  F   UNL A   1      35.218  31.823  32.131  1.00  0.00    -0.206 F 
ATOM     80  C   UNL A   1      34.644  34.311  29.572  1.00  0.00     0.060 A 
BRANCH  80  81
ATOM     81  S   UNL A   1      33.274  35.184  28.783  1.00  0.00     0.124 S 
ATOM     82  O   UNL A   1      33.980  36.206  28.020  1.00  0.00    -0.237 OA
ATOM     83  O   UNL A   1      32.643  34.125  28.002  1.00  0.00    -0.237 OA
ATOM     84  O   UNL A   1      32.491  35.668  29.917  1.00  0.00    -0.744 OA
ENDBRANCH  80  81
ENDBRANCH  48  73
BRANCH  60  85
ATOM     85  C   UNL A   1      39.960  33.887  36.927  1.00  0.00     0.058 A 
ATOM     86  C   UNL A   1      40.643  35.112  36.937  1.00  0.00     0.135 A 
ATOM     87  C   UNL A   1      39.040  33.639  37.960  1.00  0.00     0.135 A 
ATOM     88  F   UNL A   1      41.538  35.395  35.977  1.00  0.00    -0.206 F 
ATOM     89  C   UNL A   1      40.438  36.048  37.945  1.00  0.00     0.059 A 
ATOM     90  C   UNL A   1      38.800  34.572  38.962  1.00  0.00     0.059 A 
ATOM     91  F   UNL A   1      38.353  32.485  37.989  1.00  0.00    -0.206 F 
ATOM     92  C   UNL A   1      39.513  35.770  38.953  1.00  0.00     0.060 A 
BRANCH  92  93
ATOM     93  S   UNL A   1      39.230  37.008  40.235  1.00  0.00     0.124 S 
ATOM     94  O   UNL A   1      38.492  38.029  39.499  1.00  0.00    -0.237 OA
ATOM     95  O   UNL A   1      38.462  36.262  41.228  1.00  0.00    -0.237 OA
ATOM     96  O   UNL A   1      40.579  37.383  40.649  1.00  0.00    -0.744 OA
ENDBRANCH  92  93
ENDBRANCH  60  85
ENDBRANCH  34  35
ENDBRANCH  26  29
ENDBRANCH  24  25
ENDBRANCH   1  24
TORSDOF 16
ENDMDL
MODEL 2
REMARK VINA RESULT:      -9.8      3.214     11.283
REMARK SMILES CC(C)Cc1ccc([C@@H]2CC[NH2+][C@H]2C(=O)NCCCNC(=O)c2ccc(-c3c4nc(c(-c5c(F)cc(S(=O)(=O)[O-])cc5F)c5ccc([nH]5)c(-c5c(F)cc(S(=O)(=O)[O-])cc5F)c5nc(c(-c6c(F)cc(S(=O)(=O)[O-])cc6F)c6ccc3[nH]6)C=C5)C=C4)cc2)cc1
REMARK SMILES IDX 18 1 17 2 16 3 14 4 15 5 13 7 9 8 10 9 11 10 12 11 8 14 5 15
REMARK SMILES IDX 6 16 90 17 7 18 89 19 4 20 2 21 1 22 3 23 19 24 20 25 21 26
REMARK SMILES IDX 22 28 23 29 24 30 88 31 25 32 87 33 26 34 27 35 28 36 81 37
REMARK SMILES IDX 29 38 86 39 80 40 82 41 30 42 85 43 79 44 78 45 31 47 65 48
REMARK SMILES IDX 44 49 64 50 45 51 48 52 63 53 83 54 46 55 47 56 62 58 84 59
REMARK SMILES IDX 49 60 32 61 33 62 42 63 34 64 35 65 41 66 43 67 36 68 37 69
REMARK SMILES IDX 38 70 39 71 40 72 66 73 67 74 76 75 68 76 69 77 75 78 77 79
REMARK SMILES IDX 70 80 71 81 72 82 73 83 74 84 50 85 51 86 60 87 52 88 53 89
REMARK SMILES IDX 59 90 61 91 54 92 55 93 56 94 57 95 58 96
REMARK H PARENT 16 6 12 12 12 13 20 27 82 46 48 57
REMARK Flexibility Score: inf
ROOT
ATOM      1  C   UNL A   1      33.863  34.162  27.932  1.00  0.00     0.042 C 
ENDROOT
BRANCH   1   2
ATOM      2  C   UNL A   1      34.398  35.342  28.732  1.00  0.00     0.118 C 
BRANCH   2   3
ATOM      3  N   UNL A   1      33.742  35.481  30.017  1.00  0.00    -0.351 N 
ATOM      4  C   UNL A   1      33.950  34.886  31.225  1.00  0.00     0.278 C 
ATOM      5  O   UNL A   1      33.165  35.197  32.130  1.00  0.00    -0.268 OA
ATOM      6  H   UNL A   1      33.002  36.131  30.018  1.00  0.00     0.163 HD
BRANCH   4   7
ATOM      7  C   UNL A   1      35.083  33.871  31.485  1.00  0.00     0.280 C 
ATOM      8  C   UNL A   1      36.220  34.429  32.351  1.00  0.00     0.093 C 
ATOM      9  C   UNL A   1      36.180  33.592  33.628  1.00  0.00     0.076 C 
ATOM     10  C   UNL A   1      35.431  32.322  33.259  1.00  0.00     0.262 C 
ATOM     11  N   UNL A   1      34.580  32.618  32.106  1.00  0.00    -0.335 N 
ATOM     12  H   UNL A   1      33.615  32.745  32.411  1.00  0.00     0.346 HD
ATOM     13  H   UNL A   1      34.607  31.851  31.435  1.00  0.00     0.346 HD
BRANCH   8  14
ATOM     14  C   UNL A   1      37.579  34.333  31.672  1.00  0.00    -0.038 A 
ATOM     15  C   UNL A   1      40.105  34.194  30.420  1.00  0.00    -0.048 A 
ATOM     16  C   UNL A   1      40.002  34.513  31.779  1.00  0.00     0.004 A 
ATOM     17  C   UNL A   1      38.940  33.915  29.701  1.00  0.00     0.004 A 
ATOM     18  C   UNL A   1      38.751  34.580  32.400  1.00  0.00     0.004 A 
ATOM     19  C   UNL A   1      37.694  33.995  30.316  1.00  0.00     0.004 A 
BRANCH  15  20
ATOM     20  C   UNL A   1      41.440  34.195  29.717  1.00  0.00     0.038 C 
BRANCH  20  21
ATOM     21  C   UNL A   1      42.479  33.295  30.419  1.00  0.00    -0.013 C 
ATOM     22  C   UNL A   1      42.537  31.898  29.795  1.00  0.00     0.008 C 
ATOM     23  C   UNL A   1      43.859  33.949  30.371  1.00  0.00     0.008 C 
ENDBRANCH  20  21
ENDBRANCH  15  20
ENDBRANCH   8  14
ENDBRANCH   4   7
ENDBRANCH   2   3
ENDBRANCH   1   2
BRANCH   1  24
ATOM     24  C   UNL A   1      34.751  32.925  28.011  1.00  0.00     0.118 C 
BRANCH  24  25
ATOM     25  N   UNL A   1      34.104  31.752  27.437  1.00  0.00    -0.352 N 
ATOM     26  C   UNL A   1      34.571  30.474  27.272  1.00  0.00     0.251 C 
ATOM     27  H   UNL A   1      33.183  31.900  27.120  1.00  0.00     0.163 HD
ATOM     28  O   UNL A   1      33.954  29.700  26.541  1.00  0.00    -0.269 OA
BRANCH  26  29
ATOM     29  C   UNL A   1      35.802  30.025  27.955  1.00  0.00     0.039 A 
ATOM     30  C   UNL A   1      37.026  30.126  27.285  1.00  0.00     0.014 A 
ATOM     31  C   UNL A   1      35.753  29.465  29.235  1.00  0.00     0.014 A 
ATOM     32  C   UNL A   1      38.201  29.720  27.920  1.00  0.00     0.010 A 
ATOM     33  C   UNL A   1      36.932  29.135  29.896  1.00  0.00     0.010 A 
ATOM     34  C   UNL A   1      38.168  29.251  29.243  1.00  0.00    -0.014 A 
BRANCH  34  35
ATOM     35  C   UNL A   1      39.411  28.872  29.962  1.00  0.00     0.031 A 
ATOM     36  C   UNL A   1      39.835  29.635  31.190  1.00  0.00     0.074 A 
ATOM     37  C   UNL A   1      40.192  27.892  29.466  1.00  0.00     0.049 A 
ATOM     38  N   UNL A   1      40.929  29.517  31.895  1.00  0.00    -0.248 NA
ATOM     39  C   UNL A   1      38.923  30.687  31.671  1.00  0.00     0.031 C 
ATOM     40  C   UNL A   1      39.913  27.119  28.252  1.00  0.00     0.029 A 
ATOM     41  N   UNL A   1      41.390  27.389  29.908  1.00  0.00    -0.354 N 
ATOM     42  C   UNL A   1      40.849  30.491  32.886  1.00  0.00     0.074 A 
ATOM     43  C   UNL A   1      39.619  31.218  32.666  1.00  0.00     0.031 C 
ATOM     44  C   UNL A   1      40.904  26.234  28.055  1.00  0.00     0.029 A 
ATOM     45  C   UNL A   1      41.905  26.400  29.103  1.00  0.00     0.049 A 
ATOM     46  H   UNL A   1      41.838  27.707  30.725  1.00  0.00     0.167 HD
ATOM     47  C   UNL A   1      41.713  30.739  33.897  1.00  0.00     0.037 A 
ATOM     48  C   UNL A   1      43.062  25.714  29.191  1.00  0.00     0.037 A 
ATOM     49  C   UNL A   1      42.913  29.980  34.135  1.00  0.00     0.049 A 
ATOM     50  C   UNL A   1      43.993  25.997  30.340  1.00  0.00     0.074 A 
ATOM     51  C   UNL A   1      43.815  30.104  35.179  1.00  0.00     0.029 A 
ATOM     52  N   UNL A   1      43.378  28.957  33.324  1.00  0.00    -0.354 N 
ATOM     53  N   UNL A   1      43.863  26.872  31.308  1.00  0.00    -0.248 NA
ATOM     54  C   UNL A   1      45.223  25.196  30.414  1.00  0.00     0.031 C 
ATOM     55  C   UNL A   1      44.846  29.183  34.976  1.00  0.00     0.029 A 
ATOM     56  C   UNL A   1      44.563  28.452  33.833  1.00  0.00     0.049 A 
ATOM     57  H   UNL A   1      42.932  28.635  32.508  1.00  0.00     0.167 HD
ATOM     58  C   UNL A   1      44.978  26.705  32.122  1.00  0.00     0.074 A 
ATOM     59  C   UNL A   1      45.765  25.637  31.540  1.00  0.00     0.031 C 
ATOM     60  C   UNL A   1      45.322  27.374  33.250  1.00  0.00     0.037 A 
BRANCH  47  61
ATOM     61  C   UNL A   1      41.396  31.867  34.840  1.00  0.00     0.058 A 
ATOM     62  C   UNL A   1      41.913  33.157  34.645  1.00  0.00     0.135 A 
ATOM     63  C   UNL A   1      40.502  31.673  35.906  1.00  0.00     0.135 A 
ATOM     64  F   UNL A   1      42.786  33.393  33.653  1.00  0.00    -0.206 F 
ATOM     65  C   UNL A   1      41.562  34.214  35.477  1.00  0.00     0.059 A 
ATOM     66  C   UNL A   1      40.115  32.723  36.735  1.00  0.00     0.059 A 
ATOM     67  F   UNL A   1      39.981  30.458  36.139  1.00  0.00    -0.206 F 
ATOM     68  C   UNL A   1      40.656  33.989  36.516  1.00  0.00     0.060 A 
BRANCH  68  69
ATOM     69  S   UNL A   1      40.176  35.383  37.557  1.00  0.00     0.124 S 
ATOM     70  O   UNL A   1      38.980  34.861  38.210  1.00  0.00    -0.237 OA
ATOM     71  O   UNL A   1      41.345  35.549  38.414  1.00  0.00    -0.237 OA
ATOM     72  O   UNL A   1      39.947  36.461  36.599  1.00  0.00    -0.744 OA
ENDBRANCH  68  69
ENDBRANCH  47  61
BRANCH  48  73
ATOM     73  C   UNL A   1      43.408  24.690  28.170  1.00  0.00     0.058 A 
ATOM     74  C   UNL A   1      44.145  25.028  27.025  1.00  0.00     0.135 A 
ATOM     75  C   UNL A   1      42.993  23.355  28.307  1.00  0.00     0.135 A 
ATOM     76  F   UNL A   1      44.562  26.291  26.847  1.00  0.00    -0.206 F 
ATOM     77  C   UNL A   1      44.428  24.092  26.036  1.00  0.00     0.059 A 
ATOM     78  C   UNL A   1      43.288  22.394  27.346  1.00  0.00     0.059 A 
ATOM     79  F   UNL A   1      42.304  22.974  29.395  1.00  0.00    -0.206 F 
ATOM     80  C   UNL A   1      43.991  22.777  26.204  1.00  0.00     0.060 A 
BRANCH  80  81
ATOM     81  S   UNL A   1      44.373  21.565  24.921  1.00  0.00     0.124 S 
ATOM     82  O   UNL A   1      45.755  21.226  25.241  1.00  0.00    -0.237 OA
ATOM     83  O   UNL A   1      43.384  20.523  25.177  1.00  0.00    -0.237 OA
ATOM     84  O   UNL A   1      44.177  22.316  23.684  1.00  0.00    -0.744 OA
ENDBRANCH  80  81
ENDBRANCH  48  73
BRANCH  60  85
ATOM     85  C   UNL A   1      46.577  26.946  33.956  1.00  0.00     0.058 A 
ATOM     86  C   UNL A   1      47.818  27.541  33.683  1.00  0.00     0.135 A 
ATOM     87  C   UNL A   1      46.525  25.964  34.959  1.00  0.00     0.135 A 
ATOM     88  F   UNL A   1      47.922  28.480  32.729  1.00  0.00    -0.206 F 
ATOM     89  C   UNL A   1      48.969  27.162  34.365  1.00  0.00     0.059 A 
ATOM     90  C   UNL A   1      47.659  25.589  35.671  1.00  0.00     0.059 A 
ATOM     91  F   UNL A   1      45.360  25.371  35.265  1.00  0.00    -0.206 F 
ATOM     92  C   UNL A   1      48.880  26.186  35.359  1.00  0.00     0.060 A 
BRANCH  92  93
ATOM     93  S   UNL A   1      50.374  25.728  36.261  1.00  0.00     0.124 S 
ATOM     94  O   UNL A   1      49.991  26.030  37.636  1.00  0.00    -0.237 OA
ATOM     95  O   UNL A   1      50.515  24.312  35.937  1.00  0.00    -0.237 OA
ATOM     96  O   UNL A   1      51.397  26.600  35.688  1.00  0.00    -0.744 OA
ENDBRANCH  92  93
ENDBRANCH  60  85
ENDBRANCH  34  35
ENDBRANCH  26  29
ENDBRANCH  24  25
ENDBRANCH   1  24
TORSDOF 16
ENDMDL
MODEL 3
REMARK VINA RESULT:      -9.8      5.958     13.569
REMARK SMILES CC(C)Cc1ccc([C@@H]2CC[NH2+][C@H]2C(=O)NCCCNC(=O)c2ccc(-c3c4nc(c(-c5c(F)cc(S(=O)(=O)[O-])cc5F)c5ccc([nH]5)c(-c5c(F)cc(S(=O)(=O)[O-])cc5F)c5nc(c(-c6c(F)cc(S(=O)(=O)[O-])cc6F)c6ccc3[nH]6)C=C5)C=C4)cc2)cc1
REMARK SMILES IDX 18 1 17 2 16 3 14 4 15 5 13 7 9 8 10 9 11 10 12 11 8 14 5 15
REMARK SMILES IDX 6 16 90 17 7 18 89 19 4 20 2 21 1 22 3 23 19 24 20 25 21 26
REMARK SMILES IDX 22 28 23 29 24 30 88 31 25 32 87 33 26 34 27 35 28 36 81 37
REMARK SMILES IDX 29 38 86 39 80 40 82 41 30 42 85 43 79 44 78 45 31 47 65 48
REMARK SMILES IDX 44 49 64 50 45 51 48 52 63 53 83 54 46 55 47 56 62 58 84 59
REMARK SMILES IDX 49 60 32 61 33 62 42 63 34 64 35 65 41 66 43 67 36 68 37 69
REMARK SMILES IDX 38 70 39 71 40 72 66 73 67 74 76 75 68 76 69 77 75 78 77 79
REMARK SMILES IDX 70 80 71 81 72 82 73 83 74 84 50 85 51 86 60 87 52 88 53 89
REMARK SMILES IDX 59 90 61 91 54 92 55 93 56 94 57 95 58 96
REMARK H PARENT 16 6 12 12 12 13 20 27 82 46 48 57
REMARK Flexibility Score: inf
ROOT
ATOM      1  C   UNL A   1      35.249  33.463  28.020  1.00  0.00     0.042 C 
ENDROOT
BRANCH   1   2
ATOM      2  C   UNL A   1      33.809  33.467  28.513  1.00  0.00     0.118 C 
BRANCH   2   3
ATOM      3  N   UNL A   1      33.514  34.615  29.349  1.00  0.00    -0.351 N 
ATOM      4  C   UNL A   1      33.870  34.939  30.624  1.00  0.00     0.278 C 
ATOM      5  O   UNL A   1      33.400  35.992  31.071  1.00  0.00    -0.268 OA
ATOM      6  H   UNL A   1      32.945  35.289  28.912  1.00  0.00     0.163 HD
BRANCH   4   7
ATOM      7  C   UNL A   1      34.797  34.063  31.493  1.00  0.00     0.280 C 
ATOM      8  C   UNL A   1      35.779  34.873  32.350  1.00  0.00     0.093 C 
ATOM      9  C   UNL A   1      35.371  34.575  33.792  1.00  0.00     0.076 C 
ATOM     10  C   UNL A   1      34.577  33.280  33.730  1.00  0.00     0.262 C 
ATOM     11  N   UNL A   1      34.032  33.148  32.379  1.00  0.00    -0.335 N 
ATOM     12  H   UNL A   1      33.045  33.405  32.376  1.00  0.00     0.346 HD
ATOM     13  H   UNL A   1      34.114  32.184  32.053  1.00  0.00     0.346 HD
BRANCH   8  14
ATOM     14  C   UNL A   1      37.231  34.493  32.100  1.00  0.00    -0.038 A 
ATOM     15  C   UNL A   1      39.936  33.826  31.647  1.00  0.00    -0.048 A 
ATOM     16  C   UNL A   1      39.486  34.134  32.936  1.00  0.00     0.004 A 
ATOM     17  C   UNL A   1      39.019  33.823  30.593  1.00  0.00     0.004 A 
ATOM     18  C   UNL A   1      38.146  34.463  33.161  1.00  0.00     0.004 A 
ATOM     19  C   UNL A   1      37.688  34.163  30.815  1.00  0.00     0.004 A 
BRANCH  15  20
ATOM     20  C   UNL A   1      41.394  33.546  31.375  1.00  0.00     0.038 C 
BRANCH  20  21
ATOM     21  C   UNL A   1      42.200  34.831  31.089  1.00  0.00    -0.013 C 
ATOM     22  C   UNL A   1      43.658  34.700  31.536  1.00  0.00     0.008 C 
ATOM     23  C   UNL A   1      42.136  35.172  29.600  1.00  0.00     0.008 C 
ENDBRANCH  20  21
ENDBRANCH  15  20
ENDBRANCH   8  14
ENDBRANCH   4   7
ENDBRANCH   2   3
ENDBRANCH   1   2
BRANCH   1  24
ATOM     24  C   UNL A   1      35.951  32.124  28.215  1.00  0.00     0.118 C 
BRANCH  24  25
ATOM     25  N   UNL A   1      35.703  31.566  29.539  1.00  0.00    -0.352 N 
ATOM     26  C   UNL A   1      36.420  30.649  30.263  1.00  0.00     0.251 C 
ATOM     27  H   UNL A   1      34.892  31.903  29.984  1.00  0.00     0.163 HD
ATOM     28  O   UNL A   1      35.903  30.131  31.252  1.00  0.00    -0.269 OA
BRANCH  26  29
ATOM     29  C   UNL A   1      37.793  30.279  29.865  1.00  0.00     0.039 A 
ATOM     30  C   UNL A   1      38.790  30.219  30.844  1.00  0.00     0.014 A 
ATOM     31  C   UNL A   1      38.114  30.032  28.527  1.00  0.00     0.014 A 
ATOM     32  C   UNL A   1      40.091  29.856  30.488  1.00  0.00     0.010 A 
ATOM     33  C   UNL A   1      39.390  29.595  28.186  1.00  0.00     0.010 A 
ATOM     34  C   UNL A   1      40.395  29.510  29.161  1.00  0.00    -0.014 A 
BRANCH  34  35
ATOM     35  C   UNL A   1      41.755  29.061  28.770  1.00  0.00     0.031 A 
ATOM     36  C   UNL A   1      42.878  30.060  28.667  1.00  0.00     0.074 A 
ATOM     37  C   UNL A   1      41.959  27.771  28.437  1.00  0.00     0.049 A 
ATOM     38  N   UNL A   1      44.104  29.881  28.251  1.00  0.00    -0.248 NA
ATOM     39  C   UNL A   1      42.575  31.448  29.053  1.00  0.00     0.031 C 
ATOM     40  C   UNL A   1      40.935  26.722  28.445  1.00  0.00     0.029 A 
ATOM     41  N   UNL A   1      43.090  27.123  28.009  1.00  0.00    -0.354 N 
ATOM     42  C   UNL A   1      44.711  31.132  28.304  1.00  0.00     0.074 A 
ATOM     43  C   UNL A   1      43.706  32.070  28.753  1.00  0.00     0.031 C 
ATOM     44  C   UNL A   1      41.489  25.562  28.053  1.00  0.00     0.029 A 
ATOM     45  C   UNL A   1      42.892  25.791  27.730  1.00  0.00     0.049 A 
ATOM     46  H   UNL A   1      43.962  27.570  27.910  1.00  0.00     0.167 HD
ATOM     47  C   UNL A   1      45.993  31.460  28.025  1.00  0.00     0.037 A 
ATOM     48  C   UNL A   1      43.744  24.860  27.253  1.00  0.00     0.037 A 
ATOM     49  C   UNL A   1      46.999  30.511  27.624  1.00  0.00     0.049 A 
ATOM     50  C   UNL A   1      45.170  25.251  26.973  1.00  0.00     0.074 A 
ATOM     51  C   UNL A   1      48.346  30.733  27.392  1.00  0.00     0.029 A 
ATOM     52  N   UNL A   1      46.771  29.163  27.396  1.00  0.00    -0.354 N 
ATOM     53  N   UNL A   1      45.743  26.425  27.101  1.00  0.00    -0.248 NA
ATOM     54  C   UNL A   1      46.068  24.193  26.493  1.00  0.00     0.031 C 
ATOM     55  C   UNL A   1      48.923  29.527  26.985  1.00  0.00     0.029 A 
ATOM     56  C   UNL A   1      47.947  28.543  27.009  1.00  0.00     0.049 A 
ATOM     57  H   UNL A   1      45.901  28.712  27.495  1.00  0.00     0.167 HD
ATOM     58  C   UNL A   1      47.074  26.238  26.746  1.00  0.00     0.074 A 
ATOM     59  C   UNL A   1      47.224  24.836  26.411  1.00  0.00     0.031 C 
ATOM     60  C   UNL A   1      48.082  27.143  26.699  1.00  0.00     0.037 A 
BRANCH  47  61
ATOM     61  C   UNL A   1      46.400  32.902  28.156  1.00  0.00     0.058 A 
ATOM     62  C   UNL A   1      46.272  33.803  27.087  1.00  0.00     0.135 A 
ATOM     63  C   UNL A   1      46.849  33.406  29.387  1.00  0.00     0.135 A 
ATOM     64  F   UNL A   1      45.865  33.370  25.884  1.00  0.00    -0.206 F 
ATOM     65  C   UNL A   1      46.581  35.150  27.232  1.00  0.00     0.059 A 
ATOM     66  C   UNL A   1      47.139  34.757  29.562  1.00  0.00     0.059 A 
ATOM     67  F   UNL A   1      46.993  32.587  30.442  1.00  0.00    -0.206 F 
ATOM     68  C   UNL A   1      47.009  35.620  28.475  1.00  0.00     0.060 A 
BRANCH  68  69
ATOM     69  S   UNL A   1      47.361  37.381  28.657  1.00  0.00     0.124 S 
ATOM     70  O   UNL A   1      47.918  37.703  27.347  1.00  0.00    -0.237 OA
ATOM     71  O   UNL A   1      46.041  37.936  28.938  1.00  0.00    -0.237 OA
ATOM     72  O   UNL A   1      48.307  37.427  29.768  1.00  0.00    -0.744 OA
ENDBRANCH  68  69
ENDBRANCH  47  61
BRANCH  48  73
ATOM     73  C   UNL A   1      43.278  23.468  27.015  1.00  0.00     0.058 A 
ATOM     74  C   UNL A   1      43.067  22.582  28.082  1.00  0.00     0.135 A 
ATOM     75  C   UNL A   1      43.052  22.989  25.714  1.00  0.00     0.135 A 
ATOM     76  F   UNL A   1      43.271  22.992  29.342  1.00  0.00    -0.206 F 
ATOM     77  C   UNL A   1      42.683  21.262  27.869  1.00  0.00     0.059 A 
ATOM     78  C   UNL A   1      42.641  21.681  25.477  1.00  0.00     0.059 A 
ATOM     79  F   UNL A   1      43.218  23.803  24.659  1.00  0.00    -0.206 F 
ATOM     80  C   UNL A   1      42.477  20.819  26.561  1.00  0.00     0.060 A 
BRANCH  80  81
ATOM     81  S   UNL A   1      41.968  19.108  26.294  1.00  0.00     0.124 S 
ATOM     82  O   UNL A   1      42.111  18.547  27.632  1.00  0.00    -0.237 OA
ATOM     83  O   UNL A   1      40.601  19.265  25.809  1.00  0.00    -0.237 OA
ATOM     84  O   UNL A   1      42.925  18.626  25.301  1.00  0.00    -0.744 OA
ENDBRANCH  80  81
ENDBRANCH  48  73
BRANCH  60  85
ATOM     85  C   UNL A   1      49.447  26.643  26.317  1.00  0.00     0.058 A 
ATOM     86  C   UNL A   1      49.968  26.833  25.029  1.00  0.00     0.135 A 
ATOM     87  C   UNL A   1      50.263  26.014  27.271  1.00  0.00     0.135 A 
ATOM     88  F   UNL A   1      49.226  27.423  24.079  1.00  0.00    -0.206 F 
ATOM     89  C   UNL A   1      51.245  26.397  24.693  1.00  0.00     0.059 A 
ATOM     90  C   UNL A   1      51.552  25.594  26.964  1.00  0.00     0.059 A 
ATOM     91  F   UNL A   1      49.813  25.817  28.521  1.00  0.00    -0.206 F 
ATOM     92  C   UNL A   1      52.031  25.780  25.668  1.00  0.00     0.060 A 
BRANCH  92  93
ATOM     93  S   UNL A   1      53.700  25.251  25.229  1.00  0.00     0.124 S 
ATOM     94  O   UNL A   1      53.762  25.617  23.818  1.00  0.00    -0.237 OA
ATOM     95  O   UNL A   1      54.529  26.047  26.129  1.00  0.00    -0.237 OA
ATOM     96  O   UNL A   1      53.685  23.816  25.506  1.00  0.00    -0.744 OA
ENDBRANCH  92  93
ENDBRANCH  60  85
ENDBRANCH  34  35
ENDBRANCH  26  29
ENDBRANCH  24  25
ENDBRANCH   1  24
TORSDOF 16
ENDMDL
