MODEL 1
REMARK VINA RESULT:     -11.9      0.000      0.000
REMARK SMILES N#C[C@H]1CN(C(=O)N2CCNC(=O)[C@@H]2CC(=O)NCCCNC(=O)c2ccc(-c3c4nc(c(-c5c(F)cc(S(=O)(=O)[O-])cc5F)c5ccc([nH]5)c(-c5c(F)cc(S(=O)(=O)[O-])cc5F)c5nc(c(-c6c(F)cc(S(=O)(=O)[O-])cc6F)c6ccc3[nH]6)C=C5)C=C4)cc2)CCO1
REMARK SMILES IDX 19 1 18 2 16 3 17 4 15 6 14 7 8 8 9 9 10 10 12 11 11 12
REMARK SMILES IDX 13 13 6 15 7 16 5 17 3 18 4 19 93 20 92 21 91 22 2 23 1 24
REMARK SMILES IDX 20 25 21 26 22 27 23 28 24 30 25 31 26 32 90 33 27 34 89 35
REMARK SMILES IDX 28 36 29 37 30 38 83 39 31 40 88 41 82 42 84 43 32 44 87 45
REMARK SMILES IDX 81 46 80 47 33 49 67 50 46 51 66 52 47 53 50 54 65 55 85 56
REMARK SMILES IDX 48 57 49 58 64 60 86 61 51 62 34 63 35 64 44 65 36 66 37 67
REMARK SMILES IDX 43 68 45 69 38 70 39 71 40 72 41 73 42 74 68 75 69 76 78 77
REMARK SMILES IDX 70 78 71 79 77 80 79 81 72 82 73 83 74 84 75 85 76 86 52 87
REMARK SMILES IDX 53 88 62 89 54 90 55 91 61 92 63 93 56 94 57 95 58 96 59 97
REMARK SMILES IDX 60 98
REMARK H PARENT 18 5 11 14 22 29 84 48 50 59
REMARK Flexibility Score: inf
ROOT
ATOM      1  C   UNL A   1      36.709  22.435  25.437  1.00  0.00     0.117 C 
ENDROOT
BRANCH   1   2
ATOM      2  N   UNL A   1      35.776  22.487  26.550  1.00  0.00    -0.356 N 
ATOM      3  C   UNL A   1      34.420  22.585  26.545  1.00  0.00     0.222 C 
ATOM      4  O   UNL A   1      33.832  22.657  27.625  1.00  0.00    -0.275 OA
ATOM      5  H   UNL A   1      36.188  22.446  27.443  1.00  0.00     0.163 HD
BRANCH   3   6
ATOM      6  C   UNL A   1      33.660  22.500  25.250  1.00  0.00     0.135 C 
BRANCH   6   7
ATOM      7  C   UNL A   1      33.356  23.855  24.591  1.00  0.00     0.185 C 
ATOM      8  N   UNL A   1      32.105  24.496  25.046  1.00  0.00    -0.310 N 
ATOM      9  C   UNL A   1      30.877  23.798  24.685  1.00  0.00     0.143 C 
ATOM     10  C   UNL A   1      30.809  23.662  23.161  1.00  0.00     0.137 C 
ATOM     11  C   UNL A   1      33.302  23.579  23.079  1.00  0.00     0.243 C 
ATOM     12  N   UNL A   1      32.072  23.296  22.537  1.00  0.00    -0.353 N 
ATOM     13  O   UNL A   1      34.319  23.417  22.407  1.00  0.00    -0.273 OA
ATOM     14  H   UNL A   1      32.044  22.819  21.678  1.00  0.00     0.163 HD
BRANCH   8  15
ATOM     15  C   UNL A   1      32.014  25.648  25.796  1.00  0.00     0.320 C 
ATOM     16  O   UNL A   1      31.543  25.624  26.933  1.00  0.00    -0.248 OA
BRANCH  15  17
ATOM     17  N   UNL A   1      32.390  26.839  25.208  1.00  0.00    -0.319 N 
ATOM     18  C   UNL A   1      30.812  28.484  24.216  1.00  0.00     0.240 C 
ATOM     19  C   UNL A   1      31.826  27.352  23.948  1.00  0.00     0.169 C 
ATOM     20  O   UNL A   1      31.430  29.529  24.994  1.00  0.00    -0.360 OA
ATOM     21  C   UNL A   1      31.894  29.021  26.257  1.00  0.00     0.183 C 
ATOM     22  C   UNL A   1      32.935  27.911  26.053  1.00  0.00     0.150 C 
BRANCH  18  23
ATOM     23  C   UNL A   1      30.319  28.995  22.926  1.00  0.00     0.096 C 
ATOM     24  N   UNL A   1      30.025  29.425  21.886  1.00  0.00    -0.195 NA
ENDBRANCH  18  23
ENDBRANCH  15  17
ENDBRANCH   8  15
ENDBRANCH   6   7
ENDBRANCH   3   6
ENDBRANCH   1   2
BRANCH   1  25
ATOM     25  C   UNL A   1      37.542  23.710  25.359  1.00  0.00     0.042 C 
BRANCH  25  26
ATOM     26  C   UNL A   1      38.420  23.940  26.582  1.00  0.00     0.118 C 
BRANCH  26  27
ATOM     27  N   UNL A   1      39.835  23.798  26.280  1.00  0.00    -0.352 N 
ATOM     28  C   UNL A   1      40.886  24.619  26.603  1.00  0.00     0.251 C 
ATOM     29  H   UNL A   1      40.074  22.994  25.766  1.00  0.00     0.163 HD
ATOM     30  O   UNL A   1      41.976  24.445  26.065  1.00  0.00    -0.269 OA
BRANCH  28  31
ATOM     31  C   UNL A   1      40.700  25.716  27.577  1.00  0.00     0.039 A 
ATOM     32  C   UNL A   1      39.735  25.573  28.575  1.00  0.00     0.014 A 
ATOM     33  C   UNL A   1      41.467  26.883  27.506  1.00  0.00     0.014 A 
ATOM     34  C   UNL A   1      39.586  26.570  29.541  1.00  0.00     0.010 A 
ATOM     35  C   UNL A   1      41.380  27.832  28.520  1.00  0.00     0.010 A 
ATOM     36  C   UNL A   1      40.439  27.687  29.548  1.00  0.00    -0.014 A 
BRANCH  36  37
ATOM     37  C   UNL A   1      40.369  28.699  30.635  1.00  0.00     0.031 A 
ATOM     38  C   UNL A   1      41.266  28.588  31.838  1.00  0.00     0.074 A 
ATOM     39  C   UNL A   1      39.458  29.691  30.557  1.00  0.00     0.049 A 
ATOM     40  N   UNL A   1      41.305  29.339  32.909  1.00  0.00    -0.248 NA
ATOM     41  C   UNL A   1      42.232  27.476  31.853  1.00  0.00     0.031 C 
ATOM     42  C   UNL A   1      38.506  29.881  29.459  1.00  0.00     0.029 A 
ATOM     43  N   UNL A   1      39.175  30.723  31.417  1.00  0.00    -0.354 N 
ATOM     44  C   UNL A   1      42.293  28.794  33.720  1.00  0.00     0.074 A 
ATOM     45  C   UNL A   1      42.787  27.612  33.048  1.00  0.00     0.031 C 
ATOM     46  C   UNL A   1      37.767  30.975  29.699  1.00  0.00     0.029 A 
ATOM     47  C   UNL A   1      38.150  31.535  30.990  1.00  0.00     0.049 A 
ATOM     48  H   UNL A   1      39.661  30.868  32.261  1.00  0.00     0.167 HD
ATOM     49  C   UNL A   1      42.761  29.251  34.906  1.00  0.00     0.037 A 
ATOM     50  C   UNL A   1      37.571  32.600  31.580  1.00  0.00     0.037 A 
ATOM     51  C   UNL A   1      42.269  30.435  35.563  1.00  0.00     0.049 A 
ATOM     52  C   UNL A   1      38.084  33.059  32.920  1.00  0.00     0.074 A 
ATOM     53  C   UNL A   1      42.707  31.003  36.747  1.00  0.00     0.029 A 
ATOM     54  N   UNL A   1      41.230  31.229  35.101  1.00  0.00    -0.354 N 
ATOM     55  N   UNL A   1      39.063  32.568  33.641  1.00  0.00    -0.248 NA
ATOM     56  C   UNL A   1      37.416  34.220  33.526  1.00  0.00     0.031 C 
ATOM     57  C   UNL A   1      41.892  32.101  37.034  1.00  0.00     0.029 A 
ATOM     58  C   UNL A   1      40.992  32.263  35.992  1.00  0.00     0.049 A 
ATOM     59  H   UNL A   1      40.734  31.079  34.264  1.00  0.00     0.167 HD
ATOM     60  C   UNL A   1      39.148  33.380  34.768  1.00  0.00     0.074 A 
ATOM     61  C   UNL A   1      38.136  34.404  34.622  1.00  0.00     0.031 C 
ATOM     62  C   UNL A   1      39.988  33.285  35.829  1.00  0.00     0.037 A 
BRANCH  49  63
ATOM     63  C   UNL A   1      43.869  28.480  35.575  1.00  0.00     0.058 A 
ATOM     64  C   UNL A   1      45.221  28.761  35.318  1.00  0.00     0.135 A 
ATOM     65  C   UNL A   1      43.577  27.503  36.540  1.00  0.00     0.135 A 
ATOM     66  F   UNL A   1      45.560  29.672  34.392  1.00  0.00    -0.206 F 
ATOM     67  C   UNL A   1      46.242  28.091  35.984  1.00  0.00     0.059 A 
ATOM     68  C   UNL A   1      44.582  26.844  37.243  1.00  0.00     0.059 A 
ATOM     69  F   UNL A   1      42.302  27.192  36.823  1.00  0.00    -0.206 F 
ATOM     70  C   UNL A   1      45.912  27.140  36.952  1.00  0.00     0.060 A 
BRANCH  70  71
ATOM     71  S   UNL A   1      47.253  26.313  37.834  1.00  0.00     0.124 S 
ATOM     72  O   UNL A   1      46.515  25.552  38.838  1.00  0.00    -0.237 OA
ATOM     73  O   UNL A   1      47.880  25.527  36.776  1.00  0.00    -0.237 OA
ATOM     74  O   UNL A   1      48.055  27.418  38.351  1.00  0.00    -0.744 OA
ENDBRANCH  70  71
ENDBRANCH  49  63
BRANCH  50  75
ATOM     75  C   UNL A   1      36.439  33.307  30.916  1.00  0.00     0.058 A 
ATOM     76  C   UNL A   1      36.652  34.123  29.794  1.00  0.00     0.135 A 
ATOM     77  C   UNL A   1      35.127  33.203  31.406  1.00  0.00     0.135 A 
ATOM     78  F   UNL A   1      37.886  34.260  29.288  1.00  0.00    -0.206 F 
ATOM     79  C   UNL A   1      35.614  34.841  29.207  1.00  0.00     0.059 A 
ATOM     80  C   UNL A   1      34.067  33.881  30.812  1.00  0.00     0.059 A 
ATOM     81  F   UNL A   1      34.864  32.424  32.467  1.00  0.00    -0.206 F 
ATOM     82  C   UNL A   1      34.325  34.715  29.726  1.00  0.00     0.060 A 
BRANCH  82  83
ATOM     83  S   UNL A   1      32.990  35.654  28.954  1.00  0.00     0.124 S 
ATOM     84  O   UNL A   1      33.732  36.691  28.248  1.00  0.00    -0.237 OA
ATOM     85  O   UNL A   1      32.352  34.643  28.116  1.00  0.00    -0.237 OA
ATOM     86  O   UNL A   1      32.197  36.111  30.090  1.00  0.00    -0.744 OA
ENDBRANCH  82  83
ENDBRANCH  50  75
BRANCH  62  87
ATOM     87  C   UNL A   1      39.880  34.337  36.900  1.00  0.00     0.058 A 
ATOM     88  C   UNL A   1      40.624  35.526  36.852  1.00  0.00     0.135 A 
ATOM     89  C   UNL A   1      38.975  34.176  37.964  1.00  0.00     0.135 A 
ATOM     90  F   UNL A   1      41.508  35.731  35.862  1.00  0.00    -0.206 F 
ATOM     91  C   UNL A   1      40.494  36.507  37.830  1.00  0.00     0.059 A 
ATOM     92  C   UNL A   1      38.803  35.159  38.934  1.00  0.00     0.059 A 
ATOM     93  F   UNL A   1      38.231  33.063  38.056  1.00  0.00    -0.206 F 
ATOM     94  C   UNL A   1      39.576  36.316  38.865  1.00  0.00     0.060 A 
BRANCH  94  95
ATOM     95  S   UNL A   1      39.388  37.617  40.102  1.00  0.00     0.124 S 
ATOM     96  O   UNL A   1      38.278  38.389  39.553  1.00  0.00    -0.237 OA
ATOM     97  O   UNL A   1      39.093  36.854  41.311  1.00  0.00    -0.237 OA
ATOM     98  O   UNL A   1      40.685  38.287  40.092  1.00  0.00    -0.744 OA
ENDBRANCH  94  95
ENDBRANCH  62  87
ENDBRANCH  36  37
ENDBRANCH  28  31
ENDBRANCH  26  27
ENDBRANCH  25  26
ENDBRANCH   1  25
TORSDOF 17
ENDMDL
MODEL 2
REMARK VINA RESULT:     -11.8      6.524     11.987
REMARK SMILES N#C[C@H]1CN(C(=O)N2CCNC(=O)[C@@H]2CC(=O)NCCCNC(=O)c2ccc(-c3c4nc(c(-c5c(F)cc(S(=O)(=O)[O-])cc5F)c5ccc([nH]5)c(-c5c(F)cc(S(=O)(=O)[O-])cc5F)c5nc(c(-c6c(F)cc(S(=O)(=O)[O-])cc6F)c6ccc3[nH]6)C=C5)C=C4)cc2)CCO1
REMARK SMILES IDX 19 1 18 2 16 3 17 4 15 6 14 7 8 8 9 9 10 10 12 11 11 12
REMARK SMILES IDX 13 13 6 15 7 16 5 17 3 18 4 19 93 20 92 21 91 22 2 23 1 24
REMARK SMILES IDX 20 25 21 26 22 27 23 28 24 30 25 31 26 32 90 33 27 34 89 35
REMARK SMILES IDX 28 36 29 37 30 38 83 39 31 40 88 41 82 42 84 43 32 44 87 45
REMARK SMILES IDX 81 46 80 47 33 49 67 50 46 51 66 52 47 53 50 54 65 55 85 56
REMARK SMILES IDX 48 57 49 58 64 60 86 61 51 62 34 63 35 64 44 65 36 66 37 67
REMARK SMILES IDX 43 68 45 69 38 70 39 71 40 72 41 73 42 74 68 75 69 76 78 77
REMARK SMILES IDX 70 78 71 79 77 80 79 81 72 82 73 83 74 84 75 85 76 86 52 87
REMARK SMILES IDX 53 88 62 89 54 90 55 91 61 92 63 93 56 94 57 95 58 96 59 97
REMARK SMILES IDX 60 98
REMARK H PARENT 18 5 11 14 22 29 84 48 50 59
REMARK Flexibility Score: inf
ROOT
ATOM      1  C   UNL A   1      34.391  29.643  27.114  1.00  0.00     0.117 C 
ENDROOT
BRANCH   1   2
ATOM      2  N   UNL A   1      33.281  28.882  27.663  1.00  0.00    -0.356 N 
ATOM      3  C   UNL A   1      32.017  28.719  27.187  1.00  0.00     0.222 C 
ATOM      4  O   UNL A   1      31.220  28.056  27.852  1.00  0.00    -0.275 OA
ATOM      5  H   UNL A   1      33.472  28.415  28.508  1.00  0.00     0.163 HD
BRANCH   3   6
ATOM      6  C   UNL A   1      31.645  29.252  25.831  1.00  0.00     0.135 C 
BRANCH   6   7
ATOM      7  C   UNL A   1      31.408  28.176  24.759  1.00  0.00     0.185 C 
ATOM      8  N   UNL A   1      32.544  27.255  24.548  1.00  0.00    -0.310 N 
ATOM      9  C   UNL A   1      33.745  27.860  23.986  1.00  0.00     0.143 C 
ATOM     10  C   UNL A   1      33.400  28.499  22.638  1.00  0.00     0.137 C 
ATOM     11  C   UNL A   1      31.087  28.942  23.464  1.00  0.00     0.243 C 
ATOM     12  N   UNL A   1      32.138  29.224  22.626  1.00  0.00    -0.353 N 
ATOM     13  O   UNL A   1      29.990  29.460  23.267  1.00  0.00    -0.273 OA
ATOM     14  H   UNL A   1      32.031  29.958  21.980  1.00  0.00     0.163 HD
BRANCH   8  15
ATOM     15  C   UNL A   1      32.567  25.915  24.866  1.00  0.00     0.320 C 
ATOM     16  O   UNL A   1      32.173  25.522  25.964  1.00  0.00    -0.248 OA
BRANCH  15  17
ATOM     17  N   UNL A   1      33.117  25.037  23.953  1.00  0.00    -0.319 N 
ATOM     18  C   UNL A   1      33.677  22.663  24.436  1.00  0.00     0.240 C 
ATOM     19  C   UNL A   1      34.210  24.102  24.263  1.00  0.00     0.169 C 
ATOM     20  O   UNL A   1      32.942  22.263  23.261  1.00  0.00    -0.360 OA
ATOM     21  C   UNL A   1      31.826  23.141  23.031  1.00  0.00     0.183 C 
ATOM     22  C   UNL A   1      32.300  24.587  22.817  1.00  0.00     0.150 C 
BRANCH  18  23
ATOM     23  C   UNL A   1      34.813  21.763  24.691  1.00  0.00     0.096 C 
ATOM     24  N   UNL A   1      35.753  21.088  24.809  1.00  0.00    -0.195 NA
ENDBRANCH  18  23
ENDBRANCH  15  17
ENDBRANCH   8  15
ENDBRANCH   6   7
ENDBRANCH   3   6
ENDBRANCH   1   2
BRANCH   1  25
ATOM     25  C   UNL A   1      34.353  31.091  27.589  1.00  0.00     0.042 C 
BRANCH  25  26
ATOM     26  C   UNL A   1      35.586  31.504  28.381  1.00  0.00     0.118 C 
BRANCH  26  27
ATOM     27  N   UNL A   1      35.484  31.146  29.787  1.00  0.00    -0.352 N 
ATOM     28  C   UNL A   1      36.374  30.474  30.586  1.00  0.00     0.251 C 
ATOM     29  H   UNL A   1      34.651  31.426  30.230  1.00  0.00     0.163 HD
ATOM     30  O   UNL A   1      36.011  30.070  31.688  1.00  0.00    -0.269 OA
BRANCH  28  31
ATOM     31  C   UNL A   1      37.753  30.223  30.116  1.00  0.00     0.039 A 
ATOM     32  C   UNL A   1      38.779  30.128  31.057  1.00  0.00     0.014 A 
ATOM     33  C   UNL A   1      38.039  30.090  28.753  1.00  0.00     0.014 A 
ATOM     34  C   UNL A   1      40.077  29.831  30.639  1.00  0.00     0.010 A 
ATOM     35  C   UNL A   1      39.312  29.705  28.346  1.00  0.00     0.010 A 
ATOM     36  C   UNL A   1      40.346  29.572  29.284  1.00  0.00    -0.014 A 
BRANCH  36  37
ATOM     37  C   UNL A   1      41.698  29.143  28.837  1.00  0.00     0.031 A 
ATOM     38  C   UNL A   1      42.821  30.140  28.744  1.00  0.00     0.074 A 
ATOM     39  C   UNL A   1      41.896  27.861  28.467  1.00  0.00     0.049 A 
ATOM     40  N   UNL A   1      44.046  29.965  28.320  1.00  0.00    -0.248 NA
ATOM     41  C   UNL A   1      42.527  31.522  29.163  1.00  0.00     0.031 C 
ATOM     42  C   UNL A   1      40.874  26.811  28.474  1.00  0.00     0.029 A 
ATOM     43  N   UNL A   1      43.019  27.222  28.004  1.00  0.00    -0.354 N 
ATOM     44  C   UNL A   1      44.666  31.204  28.420  1.00  0.00     0.074 A 
ATOM     45  C   UNL A   1      43.666  32.139  28.886  1.00  0.00     0.031 C 
ATOM     46  C   UNL A   1      41.423  25.657  28.065  1.00  0.00     0.029 A 
ATOM     47  C   UNL A   1      42.819  25.892  27.713  1.00  0.00     0.049 A 
ATOM     48  H   UNL A   1      43.887  27.673  27.891  1.00  0.00     0.167 HD
ATOM     49  C   UNL A   1      45.957  31.527  28.168  1.00  0.00     0.037 A 
ATOM     50  C   UNL A   1      43.659  24.969  27.203  1.00  0.00     0.037 A 
ATOM     51  C   UNL A   1      46.949  30.586  27.714  1.00  0.00     0.049 A 
ATOM     52  C   UNL A   1      45.077  25.369  26.891  1.00  0.00     0.074 A 
ATOM     53  C   UNL A   1      48.293  30.808  27.470  1.00  0.00     0.029 A 
ATOM     54  N   UNL A   1      46.707  29.250  27.428  1.00  0.00    -0.354 N 
ATOM     55  N   UNL A   1      45.661  26.532  27.053  1.00  0.00    -0.248 NA
ATOM     56  C   UNL A   1      45.953  24.331  26.330  1.00  0.00     0.031 C 
ATOM     57  C   UNL A   1      48.849  29.625  26.976  1.00  0.00     0.029 A 
ATOM     58  C   UNL A   1      47.870  28.644  26.981  1.00  0.00     0.049 A 
ATOM     59  H   UNL A   1      45.837  28.800  27.529  1.00  0.00     0.167 HD
ATOM     60  C   UNL A   1      46.980  26.355  26.646  1.00  0.00     0.074 A 
ATOM     61  C   UNL A   1      47.111  24.969  26.248  1.00  0.00     0.031 C 
ATOM     62  C   UNL A   1      47.991  27.258  26.601  1.00  0.00     0.037 A 
BRANCH  49  63
ATOM     63  C   UNL A   1      46.385  32.955  28.384  1.00  0.00     0.058 A 
ATOM     64  C   UNL A   1      46.305  33.911  27.359  1.00  0.00     0.135 A 
ATOM     65  C   UNL A   1      46.806  33.391  29.651  1.00  0.00     0.135 A 
ATOM     66  F   UNL A   1      45.926  33.549  26.123  1.00  0.00    -0.206 F 
ATOM     67  C   UNL A   1      46.641  35.243  27.578  1.00  0.00     0.059 A 
ATOM     68  C   UNL A   1      47.116  34.725  29.902  1.00  0.00     0.059 A 
ATOM     69  F   UNL A   1      46.905  32.519  30.668  1.00  0.00    -0.206 F 
ATOM     70  C   UNL A   1      47.037  35.642  28.856  1.00  0.00     0.060 A 
BRANCH  70  71
ATOM     71  S   UNL A   1      47.428  37.383  29.129  1.00  0.00     0.124 S 
ATOM     72  O   UNL A   1      47.880  37.366  30.518  1.00  0.00    -0.237 OA
ATOM     73  O   UNL A   1      48.462  37.628  28.129  1.00  0.00    -0.237 OA
ATOM     74  O   UNL A   1      46.157  38.060  28.893  1.00  0.00    -0.744 OA
ENDBRANCH  70  71
ENDBRANCH  49  63
BRANCH  50  75
ATOM     75  C   UNL A   1      43.187  23.579  26.949  1.00  0.00     0.058 A 
ATOM     76  C   UNL A   1      43.031  22.662  28.001  1.00  0.00     0.135 A 
ATOM     77  C   UNL A   1      42.910  23.129  25.647  1.00  0.00     0.135 A 
ATOM     78  F   UNL A   1      43.286  23.039  29.262  1.00  0.00    -0.206 F 
ATOM     79  C   UNL A   1      42.657  21.342  27.768  1.00  0.00     0.059 A 
ATOM     80  C   UNL A   1      42.498  21.825  25.394  1.00  0.00     0.059 A 
ATOM     81  F   UNL A   1      43.028  23.968  24.606  1.00  0.00    -0.206 F 
ATOM     82  C   UNL A   1      42.395  20.932  26.460  1.00  0.00     0.060 A 
BRANCH  82  83
ATOM     83  S   UNL A   1      41.911  19.217  26.175  1.00  0.00     0.124 S 
ATOM     84  O   UNL A   1      42.290  18.592  27.438  1.00  0.00    -0.237 OA
ATOM     85  O   UNL A   1      40.478  19.341  25.929  1.00  0.00    -0.237 OA
ATOM     86  O   UNL A   1      42.711  18.828  25.018  1.00  0.00    -0.744 OA
ENDBRANCH  82  83
ENDBRANCH  50  75
BRANCH  62  87
ATOM     87  C   UNL A   1      49.341  26.772  26.147  1.00  0.00     0.058 A 
ATOM     88  C   UNL A   1      49.803  26.979  24.838  1.00  0.00     0.135 A 
ATOM     89  C   UNL A   1      50.209  26.138  27.053  1.00  0.00     0.135 A 
ATOM     90  F   UNL A   1      49.015  27.574  23.928  1.00  0.00    -0.206 F 
ATOM     91  C   UNL A   1      51.065  26.554  24.436  1.00  0.00     0.059 A 
ATOM     92  C   UNL A   1      51.489  25.737  26.683  1.00  0.00     0.059 A 
ATOM     93  F   UNL A   1      49.823  25.922  28.321  1.00  0.00    -0.206 F 
ATOM     94  C   UNL A   1      51.903  25.939  25.368  1.00  0.00     0.060 A 
BRANCH  94  95
ATOM     95  S   UNL A   1      53.554  25.432  24.842  1.00  0.00     0.124 S 
ATOM     96  O   UNL A   1      54.402  26.201  25.748  1.00  0.00    -0.237 OA
ATOM     97  O   UNL A   1      53.524  23.991  25.071  1.00  0.00    -0.237 OA
ATOM     98  O   UNL A   1      53.605  25.838  23.441  1.00  0.00    -0.744 OA
ENDBRANCH  94  95
ENDBRANCH  62  87
ENDBRANCH  36  37
ENDBRANCH  28  31
ENDBRANCH  26  27
ENDBRANCH  25  26
ENDBRANCH   1  25
TORSDOF 17
ENDMDL
MODEL 3
REMARK VINA RESULT:     -11.6      6.649     11.652
REMARK SMILES N#C[C@H]1CN(C(=O)N2CCNC(=O)[C@@H]2CC(=O)NCCCNC(=O)c2ccc(-c3c4nc(c(-c5c(F)cc(S(=O)(=O)[O-])cc5F)c5ccc([nH]5)c(-c5c(F)cc(S(=O)(=O)[O-])cc5F)c5nc(c(-c6c(F)cc(S(=O)(=O)[O-])cc6F)c6ccc3[nH]6)C=C5)C=C4)cc2)CCO1
REMARK SMILES IDX 19 1 18 2 16 3 17 4 15 6 14 7 8 8 9 9 10 10 12 11 11 12
REMARK SMILES IDX 13 13 6 15 7 16 5 17 3 18 4 19 93 20 92 21 91 22 2 23 1 24
REMARK SMILES IDX 20 25 21 26 22 27 23 28 24 30 25 31 26 32 90 33 27 34 89 35
REMARK SMILES IDX 28 36 29 37 30 38 83 39 31 40 88 41 82 42 84 43 32 44 87 45
REMARK SMILES IDX 81 46 80 47 33 49 67 50 46 51 66 52 47 53 50 54 65 55 85 56
REMARK SMILES IDX 48 57 49 58 64 60 86 61 51 62 34 63 35 64 44 65 36 66 37 67
REMARK SMILES IDX 43 68 45 69 38 70 39 71 40 72 41 73 42 74 68 75 69 76 78 77
REMARK SMILES IDX 70 78 71 79 77 80 79 81 72 82 73 83 74 84 75 85 76 86 52 87
REMARK SMILES IDX 53 88 62 89 54 90 55 91 61 92 63 93 56 94 57 95 58 96 59 97
REMARK SMILES IDX 60 98
REMARK H PARENT 18 5 11 14 22 29 84 48 50 59
REMARK Flexibility Score: inf
ROOT
ATOM      1  C   UNL A   1      33.940  30.694  27.128  1.00  0.00     0.117 C 
ENDROOT
BRANCH   1   2
ATOM      2  N   UNL A   1      33.069  29.654  27.650  1.00  0.00    -0.356 N 
ATOM      3  C   UNL A   1      31.954  29.097  27.105  1.00  0.00     0.222 C 
ATOM      4  O   UNL A   1      31.342  28.249  27.756  1.00  0.00    -0.275 OA
ATOM      5  H   UNL A   1      33.322  29.301  28.533  1.00  0.00     0.163 HD
BRANCH   3   6
ATOM      6  C   UNL A   1      31.550  29.438  25.697  1.00  0.00     0.135 C 
BRANCH   6   7
ATOM      7  C   UNL A   1      31.500  28.242  24.733  1.00  0.00     0.185 C 
ATOM      8  N   UNL A   1      32.761  27.480  24.631  1.00  0.00    -0.310 N 
ATOM      9  C   UNL A   1      33.880  28.197  24.030  1.00  0.00     0.143 C 
ATOM     10  C   UNL A   1      33.485  28.648  22.620  1.00  0.00     0.137 C 
ATOM     11  C   UNL A   1      31.110  28.827  23.365  1.00  0.00     0.243 C 
ATOM     12  N   UNL A   1      32.133  29.176  22.518  1.00  0.00    -0.353 N 
ATOM     13  O   UNL A   1      29.956  29.159  23.101  1.00  0.00    -0.273 OA
ATOM     14  H   UNL A   1      31.941  29.822  21.802  1.00  0.00     0.163 HD
BRANCH   8  15
ATOM     15  C   UNL A   1      32.967  26.193  25.079  1.00  0.00     0.320 C 
ATOM     16  O   UNL A   1      33.369  25.983  26.224  1.00  0.00    -0.248 OA
BRANCH  15  17
ATOM     17  N   UNL A   1      32.787  25.155  24.187  1.00  0.00    -0.319 N 
ATOM     18  C   UNL A   1      31.632  23.019  24.721  1.00  0.00     0.240 C 
ATOM     19  C   UNL A   1      32.985  23.735  24.523  1.00  0.00     0.169 C 
ATOM     20  O   UNL A   1      30.807  23.186  23.550  1.00  0.00    -0.360 OA
ATOM     21  C   UNL A   1      30.555  24.579  23.295  1.00  0.00     0.183 C 
ATOM     22  C   UNL A   1      31.868  25.340  23.055  1.00  0.00     0.150 C 
BRANCH  18  23
ATOM     23  C   UNL A   1      31.885  21.596  25.001  1.00  0.00     0.096 C 
ATOM     24  N   UNL A   1      32.027  20.450  25.142  1.00  0.00    -0.195 NA
ENDBRANCH  18  23
ENDBRANCH  15  17
ENDBRANCH   8  15
ENDBRANCH   6   7
ENDBRANCH   3   6
ENDBRANCH   1   2
BRANCH   1  25
ATOM     25  C   UNL A   1      34.322  31.689  28.219  1.00  0.00     0.042 C 
BRANCH  25  26
ATOM     26  C   UNL A   1      35.710  31.453  28.799  1.00  0.00     0.118 C 
BRANCH  26  27
ATOM     27  N   UNL A   1      35.660  30.932  30.155  1.00  0.00    -0.352 N 
ATOM     28  C   UNL A   1      36.587  30.188  30.842  1.00  0.00     0.251 C 
ATOM     29  H   UNL A   1      34.838  31.143  30.654  1.00  0.00     0.163 HD
ATOM     30  O   UNL A   1      36.266  29.652  31.900  1.00  0.00    -0.269 OA
BRANCH  28  31
ATOM     31  C   UNL A   1      37.953  30.020  30.303  1.00  0.00     0.039 A 
ATOM     32  C   UNL A   1      39.012  29.850  31.195  1.00  0.00     0.014 A 
ATOM     33  C   UNL A   1      38.193  30.036  28.925  1.00  0.00     0.014 A 
ATOM     34  C   UNL A   1      40.300  29.629  30.705  1.00  0.00     0.010 A 
ATOM     35  C   UNL A   1      39.458  29.726  28.438  1.00  0.00     0.010 A 
ATOM     36  C   UNL A   1      40.527  29.519  29.322  1.00  0.00    -0.014 A 
BRANCH  36  37
ATOM     37  C   UNL A   1      41.870  29.170  28.789  1.00  0.00     0.031 A 
ATOM     38  C   UNL A   1      42.167  27.767  28.332  1.00  0.00     0.074 A 
ATOM     39  C   UNL A   1      42.837  30.110  28.766  1.00  0.00     0.049 A 
ATOM     40  N   UNL A   1      43.293  27.263  27.896  1.00  0.00    -0.248 NA
ATOM     41  C   UNL A   1      41.061  26.796  28.390  1.00  0.00     0.031 C 
ATOM     42  C   UNL A   1      42.681  31.495  29.221  1.00  0.00     0.029 A 
ATOM     43  N   UNL A   1      44.145  30.047  28.353  1.00  0.00    -0.354 N 
ATOM     44  C   UNL A   1      43.034  25.924  27.630  1.00  0.00     0.074 A 
ATOM     45  C   UNL A   1      41.661  25.676  28.011  1.00  0.00     0.031 C 
ATOM     46  C   UNL A   1      43.836  32.153  29.035  1.00  0.00     0.029 A 
ATOM     47  C   UNL A   1      44.831  31.229  28.501  1.00  0.00     0.049 A 
ATOM     48  H   UNL A   1      44.553  29.230  27.984  1.00  0.00     0.167 HD
ATOM     49  C   UNL A   1      43.859  24.994  27.095  1.00  0.00     0.037 A 
ATOM     50  C   UNL A   1      46.120  31.533  28.253  1.00  0.00     0.037 A 
ATOM     51  C   UNL A   1      45.223  25.253  26.709  1.00  0.00     0.049 A 
ATOM     52  C   UNL A   1      47.027  30.465  27.699  1.00  0.00     0.074 A 
ATOM     53  C   UNL A   1      46.127  24.386  26.120  1.00  0.00     0.029 A 
ATOM     54  N   UNL A   1      45.882  26.462  26.877  1.00  0.00    -0.354 N 
ATOM     55  N   UNL A   1      46.745  29.220  27.394  1.00  0.00    -0.248 NA
ATOM     56  C   UNL A   1      48.425  30.841  27.453  1.00  0.00     0.031 C 
ATOM     57  C   UNL A   1      47.350  25.050  25.992  1.00  0.00     0.029 A 
ATOM     58  C   UNL A   1      47.190  26.353  26.432  1.00  0.00     0.049 A 
ATOM     59  H   UNL A   1      45.480  27.276  27.257  1.00  0.00     0.167 HD
ATOM     60  C   UNL A   1      47.922  28.678  26.889  1.00  0.00     0.074 A 
ATOM     61  C   UNL A   1      48.912  29.733  26.912  1.00  0.00     0.031 C 
ATOM     62  C   UNL A   1      48.163  27.418  26.448  1.00  0.00     0.037 A 
BRANCH  49  63
ATOM     63  C   UNL A   1      43.317  23.605  26.882  1.00  0.00     0.058 A 
ATOM     64  C   UNL A   1      43.010  23.123  25.599  1.00  0.00     0.135 A 
ATOM     65  C   UNL A   1      43.175  22.720  27.963  1.00  0.00     0.135 A 
ATOM     66  F   UNL A   1      43.109  23.929  24.530  1.00  0.00    -0.206 F 
ATOM     67  C   UNL A   1      42.569  21.819  25.398  1.00  0.00     0.059 A 
ATOM     68  C   UNL A   1      42.767  21.401  27.781  1.00  0.00     0.059 A 
ATOM     69  F   UNL A   1      43.450  23.128  29.212  1.00  0.00    -0.206 F 
ATOM     70  C   UNL A   1      42.459  20.962  26.495  1.00  0.00     0.060 A 
BRANCH  70  71
ATOM     71  S   UNL A   1      41.926  19.262  26.206  1.00  0.00     0.124 S 
ATOM     72  O   UNL A   1      42.717  18.904  25.032  1.00  0.00    -0.237 OA
ATOM     73  O   UNL A   1      42.306  18.603  27.452  1.00  0.00    -0.237 OA
ATOM     74  O   UNL A   1      40.489  19.389  25.979  1.00  0.00    -0.744 OA
ENDBRANCH  70  71
ENDBRANCH  49  63
BRANCH  50  75
ATOM     75  C   UNL A   1      46.640  32.903  28.528  1.00  0.00     0.058 A 
ATOM     76  C   UNL A   1      46.550  33.919  27.564  1.00  0.00     0.135 A 
ATOM     77  C   UNL A   1      47.261  33.216  29.749  1.00  0.00     0.135 A 
ATOM     78  F   UNL A   1      45.970  33.672  26.381  1.00  0.00    -0.206 F 
ATOM     79  C   UNL A   1      47.092  35.182  27.784  1.00  0.00     0.059 A 
ATOM     80  C   UNL A   1      47.775  34.483  30.005  1.00  0.00     0.059 A 
ATOM     81  F   UNL A   1      47.360  32.286  30.711  1.00  0.00    -0.206 F 
ATOM     82  C   UNL A   1      47.705  35.453  29.008  1.00  0.00     0.060 A 
BRANCH  82  83
ATOM     83  S   UNL A   1      48.403  37.096  29.276  1.00  0.00     0.124 S 
ATOM     84  O   UNL A   1      49.827  36.797  29.372  1.00  0.00    -0.237 OA
ATOM     85  O   UNL A   1      47.979  37.808  28.074  1.00  0.00    -0.237 OA
ATOM     86  O   UNL A   1      47.769  37.534  30.515  1.00  0.00    -0.744 OA
ENDBRANCH  82  83
ENDBRANCH  50  75
BRANCH  62  87
ATOM     87  C   UNL A   1      49.538  27.117  25.914  1.00  0.00     0.058 A 
ATOM     88  C   UNL A   1      50.563  26.623  26.735  1.00  0.00     0.135 A 
ATOM     89  C   UNL A   1      49.817  27.273  24.545  1.00  0.00     0.135 A 
ATOM     90  F   UNL A   1      50.355  26.460  28.052  1.00  0.00    -0.206 F 
ATOM     91  C   UNL A   1      51.821  26.318  26.226  1.00  0.00     0.059 A 
ATOM     92  C   UNL A   1      51.056  26.941  24.007  1.00  0.00     0.059 A 
ATOM     93  F   UNL A   1      48.872  27.733  23.710  1.00  0.00    -0.206 F 
ATOM     94  C   UNL A   1      52.056  26.475  24.859  1.00  0.00     0.060 A 
BRANCH  94  95
ATOM     95  S   UNL A   1      53.681  26.033  24.207  1.00  0.00     0.124 S 
ATOM     96  O   UNL A   1      53.429  26.023  22.769  1.00  0.00    -0.237 OA
ATOM     97  O   UNL A   1      54.517  27.125  24.696  1.00  0.00    -0.237 OA
ATOM     98  O   UNL A   1      53.947  24.730  24.807  1.00  0.00    -0.744 OA
ENDBRANCH  94  95
ENDBRANCH  62  87
ENDBRANCH  36  37
ENDBRANCH  28  31
ENDBRANCH  26  27
ENDBRANCH  25  26
ENDBRANCH   1  25
TORSDOF 17
ENDMDL
