MODEL 1
REMARK VINA RESULT:     -12.1      0.000      0.000
REMARK SMILES C[C@@H]1C(=O)NC(=O)CN1C(=O)NC1(CC(=O)NCCCNC(=O)c2ccc(-c3c4nc(c(-c5c(F)cc(S(=O)(=O)[O-])cc5F)c5ccc([nH]5)c(-c5c(F)cc(S(=O)(=O)[O-])cc5F)c5nc(c(-c6c(F)cc(S(=O)(=O)[O-])cc6F)c6ccc3[nH]6)C=C5)C=C4)cc2)CCC1
REMARK SMILES IDX 19 1 18 2 17 3 15 4 16 5 14 7 13 8 90 9 92 10 91 11 12 12
REMARK SMILES IDX 10 13 11 14 9 16 1 17 2 18 3 19 4 20 5 21 8 22 6 23 7 25
REMARK SMILES IDX 20 26 21 27 22 28 23 30 24 31 25 32 89 33 26 34 88 35 27 36
REMARK SMILES IDX 28 37 29 38 82 39 30 40 87 41 81 42 83 43 31 44 86 45 80 46
REMARK SMILES IDX 79 47 32 49 66 50 45 51 65 52 46 53 49 54 64 55 84 56 47 57
REMARK SMILES IDX 48 58 63 60 85 61 50 62 33 63 34 64 43 65 35 66 36 67 42 68
REMARK SMILES IDX 44 69 37 70 38 71 39 72 40 73 41 74 67 75 68 76 77 77 69 78
REMARK SMILES IDX 70 79 76 80 78 81 71 82 72 83 73 84 74 85 75 86 51 87 52 88
REMARK SMILES IDX 61 89 53 90 54 91 60 92 62 93 55 94 56 95 57 96 58 97 59 98
REMARK H PARENT 17 6 12 15 5 24 21 29 83 48 49 59
REMARK Flexibility Score: inf
ROOT
ATOM      1  C   UNL A   1      39.429  22.803  26.840  1.00  0.00     0.042 C 
ENDROOT
BRANCH   1   2
ATOM      2  C   UNL A   1      38.535  21.949  25.708  1.00  0.00     0.117 C 
BRANCH   2   3
ATOM      3  N   UNL A   1      37.535  22.431  24.515  1.00  0.00    -0.356 N 
ATOM      4  C   UNL A   1      36.394  22.986  23.973  1.00  0.00     0.222 C 
ATOM      5  O   UNL A   1      36.563  23.106  22.732  1.00  0.00    -0.275 OA
ATOM      6  H   UNL A   1      38.043  22.179  23.709  1.00  0.00     0.163 HD
BRANCH   4   7
ATOM      7  C   UNL A   1      34.979  23.608  24.485  1.00  0.00     0.128 C 
BRANCH   7   8
ATOM      8  C   UNL A   1      33.424  23.035  24.599  1.00  0.00     0.051 C 
ATOM      9  C   UNL A   1      33.461  21.476  24.262  1.00  0.00     0.029 C 
ATOM     10  C   UNL A   1      32.067  22.884  23.601  1.00  0.00     0.029 C 
ATOM     11  C   UNL A   1      32.860  21.821  22.870  1.00  0.00     0.005 C 
BRANCH   8  12
ATOM     12  N   UNL A   1      32.799  23.325  25.907  1.00  0.00    -0.332 N 
ATOM     13  C   UNL A   1      32.045  24.396  26.238  1.00  0.00     0.318 C 
ATOM     14  O   UNL A   1      31.387  24.371  27.275  1.00  0.00    -0.249 OA
ATOM     15  H   UNL A   1      32.952  22.662  26.618  1.00  0.00     0.165 HD
BRANCH  13  16
ATOM     16  N   UNL A   1      32.194  25.522  25.476  1.00  0.00    -0.304 N 
ATOM     17  C   UNL A   1      30.143  25.622  23.825  1.00  0.00     0.042 C 
ATOM     18  C   UNL A   1      31.030  26.247  24.901  1.00  0.00     0.174 C 
ATOM     19  C   UNL A   1      31.518  27.718  24.709  1.00  0.00     0.249 C 
ATOM     20  O   UNL A   1      31.727  28.356  23.675  1.00  0.00    -0.272 OA
ATOM     21  N   UNL A   1      31.837  28.286  25.894  1.00  0.00    -0.293 N 
ATOM     22  C   UNL A   1      33.314  26.358  25.953  1.00  0.00     0.222 C 
ATOM     23  C   UNL A   1      32.846  27.676  26.583  1.00  0.00     0.246 C 
ATOM     24  H   UNL A   1      31.375  29.085  26.236  1.00  0.00     0.173 HD
ATOM     25  O   UNL A   1      33.491  28.309  27.410  1.00  0.00    -0.273 OA
ENDBRANCH  13  16
ENDBRANCH   8  12
ENDBRANCH   7   8
ENDBRANCH   4   7
ENDBRANCH   2   3
ENDBRANCH   1   2
BRANCH   1  26
ATOM     26  C   UNL A   1      40.988  23.002  26.967  1.00  0.00     0.118 C 
BRANCH  26  27
ATOM     27  N   UNL A   1      41.546  23.948  26.026  1.00  0.00    -0.352 N 
ATOM     28  C   UNL A   1      41.508  25.324  26.085  1.00  0.00     0.251 C 
ATOM     29  H   UNL A   1      42.009  23.563  25.248  1.00  0.00     0.163 HD
ATOM     30  O   UNL A   1      41.573  25.975  25.045  1.00  0.00    -0.269 OA
BRANCH  28  31
ATOM     31  C   UNL A   1      41.427  26.046  27.382  1.00  0.00     0.039 A 
ATOM     32  C   UNL A   1      40.223  26.028  28.094  1.00  0.00     0.014 A 
ATOM     33  C   UNL A   1      42.456  26.903  27.793  1.00  0.00     0.014 A 
ATOM     34  C   UNL A   1      40.046  26.865  29.203  1.00  0.00     0.010 A 
ATOM     35  C   UNL A   1      42.284  27.725  28.919  1.00  0.00     0.010 A 
ATOM     36  C   UNL A   1      41.068  27.733  29.622  1.00  0.00    -0.014 A 
BRANCH  36  37
ATOM     37  C   UNL A   1      40.843  28.654  30.775  1.00  0.00     0.031 A 
ATOM     38  C   UNL A   1      41.686  28.551  32.022  1.00  0.00     0.074 A 
ATOM     39  C   UNL A   1      39.883  29.597  30.691  1.00  0.00     0.049 A 
ATOM     40  N   UNL A   1      41.657  29.286  33.105  1.00  0.00    -0.248 NA
ATOM     41  C   UNL A   1      42.685  27.471  32.063  1.00  0.00     0.031 C 
ATOM     42  C   UNL A   1      38.988  29.779  29.547  1.00  0.00     0.029 A 
ATOM     43  N   UNL A   1      39.500  30.579  31.570  1.00  0.00    -0.354 N 
ATOM     44  C   UNL A   1      42.628  28.762  33.954  1.00  0.00     0.074 A 
ATOM     45  C   UNL A   1      43.194  27.614  33.280  1.00  0.00     0.031 C 
ATOM     46  C   UNL A   1      38.178  30.822  29.783  1.00  0.00     0.029 A 
ATOM     47  C   UNL A   1      38.468  31.363  31.108  1.00  0.00     0.049 A 
ATOM     48  H   UNL A   1      39.923  30.710  32.450  1.00  0.00     0.167 HD
ATOM     49  C   UNL A   1      43.022  29.207  35.175  1.00  0.00     0.037 A 
ATOM     50  C   UNL A   1      37.825  32.399  31.684  1.00  0.00     0.037 A 
ATOM     51  C   UNL A   1      42.452  30.356  35.834  1.00  0.00     0.049 A 
ATOM     52  C   UNL A   1      38.267  32.862  33.047  1.00  0.00     0.074 A 
ATOM     53  C   UNL A   1      42.804  30.916  37.050  1.00  0.00     0.029 A 
ATOM     54  N   UNL A   1      41.404  31.118  35.335  1.00  0.00    -0.354 N 
ATOM     55  N   UNL A   1      39.229  32.390  33.806  1.00  0.00    -0.248 NA
ATOM     56  C   UNL A   1      37.546  34.002  33.630  1.00  0.00     0.031 C 
ATOM     57  C   UNL A   1      41.933  31.979  37.313  1.00  0.00     0.029 A 
ATOM     58  C   UNL A   1      41.079  32.125  36.231  1.00  0.00     0.049 A 
ATOM     59  H   UNL A   1      40.956  30.965  34.472  1.00  0.00     0.167 HD
ATOM     60  C   UNL A   1      39.245  33.193  34.942  1.00  0.00     0.074 A 
ATOM     61  C   UNL A   1      38.209  34.189  34.763  1.00  0.00     0.031 C 
ATOM     62  C   UNL A   1      40.046  33.113  36.034  1.00  0.00     0.037 A 
BRANCH  49  63
ATOM     63  C   UNL A   1      44.117  28.450  35.884  1.00  0.00     0.058 A 
ATOM     64  C   UNL A   1      43.837  27.389  36.760  1.00  0.00     0.135 A 
ATOM     65  C   UNL A   1      45.469  28.754  35.647  1.00  0.00     0.135 A 
ATOM     66  F   UNL A   1      42.565  27.056  37.034  1.00  0.00    -0.206 F 
ATOM     67  C   UNL A   1      44.850  26.681  37.400  1.00  0.00     0.059 A 
ATOM     68  C   UNL A   1      46.501  28.039  36.252  1.00  0.00     0.059 A 
ATOM     69  F   UNL A   1      45.801  29.752  34.814  1.00  0.00    -0.206 F 
ATOM     70  C   UNL A   1      46.181  27.012  37.138  1.00  0.00     0.060 A 
BRANCH  70  71
ATOM     71  S   UNL A   1      47.482  26.077  37.972  1.00  0.00     0.124 S 
ATOM     72  O   UNL A   1      46.814  25.688  39.210  1.00  0.00    -0.237 OA
ATOM     73  O   UNL A   1      47.742  24.997  37.026  1.00  0.00    -0.237 OA
ATOM     74  O   UNL A   1      48.561  27.049  38.119  1.00  0.00    -0.744 OA
ENDBRANCH  70  71
ENDBRANCH  49  63
BRANCH  50  75
ATOM     75  C   UNL A   1      36.706  33.073  30.969  1.00  0.00     0.058 A 
ATOM     76  C   UNL A   1      35.371  32.865  31.342  1.00  0.00     0.135 A 
ATOM     77  C   UNL A   1      36.953  33.954  29.902  1.00  0.00     0.135 A 
ATOM     78  F   UNL A   1      35.078  32.030  32.351  1.00  0.00    -0.206 F 
ATOM     79  C   UNL A   1      34.319  33.487  30.675  1.00  0.00     0.059 A 
ATOM     80  C   UNL A   1      35.922  34.611  29.239  1.00  0.00     0.059 A 
ATOM     81  F   UNL A   1      38.213  34.204  29.514  1.00  0.00    -0.206 F 
ATOM     82  C   UNL A   1      34.607  34.362  29.626  1.00  0.00     0.060 A 
BRANCH  82  83
ATOM     83  S   UNL A   1      33.238  35.201  28.797  1.00  0.00     0.124 S 
ATOM     84  O   UNL A   1      33.940  36.234  28.044  1.00  0.00    -0.237 OA
ATOM     85  O   UNL A   1      32.651  34.123  28.008  1.00  0.00    -0.237 OA
ATOM     86  O   UNL A   1      32.416  35.677  29.905  1.00  0.00    -0.744 OA
ENDBRANCH  82  83
ENDBRANCH  50  75
BRANCH  62  87
ATOM     87  C   UNL A   1      39.860  34.152  37.107  1.00  0.00     0.058 A 
ATOM     88  C   UNL A   1      39.069  33.913  38.242  1.00  0.00     0.135 A 
ATOM     89  C   UNL A   1      40.522  35.388  37.020  1.00  0.00     0.135 A 
ATOM     90  F   UNL A   1      38.408  32.752  38.373  1.00  0.00    -0.206 F 
ATOM     91  C   UNL A   1      38.920  34.872  39.239  1.00  0.00     0.059 A 
ATOM     92  C   UNL A   1      40.414  36.349  38.020  1.00  0.00     0.059 A 
ATOM     93  F   UNL A   1      41.299  35.666  35.959  1.00  0.00    -0.206 F 
ATOM     94  C   UNL A   1      39.601  36.086  39.120  1.00  0.00     0.060 A 
BRANCH  94  95
ATOM     95  S   UNL A   1      39.424  37.307  40.437  1.00  0.00     0.124 S 
ATOM     96  O   UNL A   1      38.749  36.528  41.471  1.00  0.00    -0.237 OA
ATOM     97  O   UNL A   1      40.810  37.667  40.717  1.00  0.00    -0.237 OA
ATOM     98  O   UNL A   1      38.620  38.359  39.821  1.00  0.00    -0.744 OA
ENDBRANCH  94  95
ENDBRANCH  62  87
ENDBRANCH  36  37
ENDBRANCH  28  31
ENDBRANCH  26  27
ENDBRANCH   1  26
TORSDOF 16
ENDMDL
MODEL 2
REMARK VINA RESULT:     -12.1      0.921      1.475
REMARK SMILES C[C@@H]1C(=O)NC(=O)CN1C(=O)NC1(CC(=O)NCCCNC(=O)c2ccc(-c3c4nc(c(-c5c(F)cc(S(=O)(=O)[O-])cc5F)c5ccc([nH]5)c(-c5c(F)cc(S(=O)(=O)[O-])cc5F)c5nc(c(-c6c(F)cc(S(=O)(=O)[O-])cc6F)c6ccc3[nH]6)C=C5)C=C4)cc2)CCC1
REMARK SMILES IDX 19 1 18 2 17 3 15 4 16 5 14 7 13 8 90 9 92 10 91 11 12 12
REMARK SMILES IDX 10 13 11 14 9 16 1 17 2 18 3 19 4 20 5 21 8 22 6 23 7 25
REMARK SMILES IDX 20 26 21 27 22 28 23 30 24 31 25 32 89 33 26 34 88 35 27 36
REMARK SMILES IDX 28 37 29 38 82 39 30 40 87 41 81 42 83 43 31 44 86 45 80 46
REMARK SMILES IDX 79 47 32 49 66 50 45 51 65 52 46 53 49 54 64 55 84 56 47 57
REMARK SMILES IDX 48 58 63 60 85 61 50 62 33 63 34 64 43 65 35 66 36 67 42 68
REMARK SMILES IDX 44 69 37 70 38 71 39 72 40 73 41 74 67 75 68 76 77 77 69 78
REMARK SMILES IDX 70 79 76 80 78 81 71 82 72 83 73 84 74 85 75 86 51 87 52 88
REMARK SMILES IDX 61 89 53 90 54 91 60 92 62 93 55 94 56 95 57 96 58 97 59 98
REMARK H PARENT 17 6 12 15 5 24 21 29 83 48 49 59
REMARK Flexibility Score: inf
ROOT
ATOM      1  C   UNL A   1      39.690  22.141  26.517  1.00  0.00     0.042 C 
ENDROOT
BRANCH   1   2
ATOM      2  C   UNL A   1      38.179  22.728  26.092  1.00  0.00     0.117 C 
BRANCH   2   3
ATOM      3  N   UNL A   1      37.428  22.874  24.653  1.00  0.00    -0.356 N 
ATOM      4  C   UNL A   1      36.375  22.788  23.765  1.00  0.00     0.222 C 
ATOM      5  O   UNL A   1      36.710  23.363  22.697  1.00  0.00    -0.275 OA
ATOM      6  H   UNL A   1      38.147  23.234  24.083  1.00  0.00     0.163 HD
BRANCH   4   7
ATOM      7  C   UNL A   1      34.834  22.264  23.748  1.00  0.00     0.128 C 
BRANCH   7   8
ATOM      8  C   UNL A   1      33.637  22.118  24.892  1.00  0.00     0.051 C 
ATOM      9  C   UNL A   1      33.891  20.755  25.681  1.00  0.00     0.029 C 
ATOM     10  C   UNL A   1      32.066  21.500  24.990  1.00  0.00     0.029 C 
ATOM     11  C   UNL A   1      32.714  20.136  24.876  1.00  0.00     0.005 C 
BRANCH   8  12
ATOM     12  N   UNL A   1      33.550  23.292  25.785  1.00  0.00    -0.332 N 
ATOM     13  C   UNL A   1      33.021  24.504  25.502  1.00  0.00     0.318 C 
ATOM     14  O   UNL A   1      32.788  25.287  26.419  1.00  0.00    -0.249 OA
ATOM     15  H   UNL A   1      33.921  23.179  26.690  1.00  0.00     0.165 HD
BRANCH  13  16
ATOM     16  N   UNL A   1      32.934  24.851  24.182  1.00  0.00    -0.304 N 
ATOM     17  C   UNL A   1      30.653  23.894  23.274  1.00  0.00     0.042 C 
ATOM     18  C   UNL A   1      31.626  25.050  23.502  1.00  0.00     0.174 C 
ATOM     19  C   UNL A   1      31.924  26.024  22.319  1.00  0.00     0.249 C 
ATOM     20  O   UNL A   1      31.904  25.824  21.102  1.00  0.00    -0.272 OA
ATOM     21  N   UNL A   1      32.362  27.221  22.769  1.00  0.00    -0.293 N 
ATOM     22  C   UNL A   1      34.021  25.769  23.788  1.00  0.00     0.222 C 
ATOM     23  C   UNL A   1      33.523  27.188  23.487  1.00  0.00     0.246 C 
ATOM     24  H   UNL A   1      31.878  28.060  22.590  1.00  0.00     0.173 HD
ATOM     25  O   UNL A   1      34.219  28.193  23.570  1.00  0.00    -0.273 OA
ENDBRANCH  13  16
ENDBRANCH   8  12
ENDBRANCH   7   8
ENDBRANCH   4   7
ENDBRANCH   2   3
ENDBRANCH   1   2
BRANCH   1  26
ATOM     26  C   UNL A   1      40.989  22.909  26.973  1.00  0.00     0.118 C 
BRANCH  26  27
ATOM     27  N   UNL A   1      41.488  23.862  26.005  1.00  0.00    -0.352 N 
ATOM     28  C   UNL A   1      41.415  25.237  26.053  1.00  0.00     0.251 C 
ATOM     29  H   UNL A   1      41.935  23.482  25.215  1.00  0.00     0.163 HD
ATOM     30  O   UNL A   1      41.425  25.879  25.006  1.00  0.00    -0.269 OA
BRANCH  28  31
ATOM     31  C   UNL A   1      41.358  25.968  27.346  1.00  0.00     0.039 A 
ATOM     32  C   UNL A   1      40.172  25.944  28.087  1.00  0.00     0.014 A 
ATOM     33  C   UNL A   1      42.387  26.839  27.724  1.00  0.00     0.014 A 
ATOM     34  C   UNL A   1      40.013  26.789  29.194  1.00  0.00     0.010 A 
ATOM     35  C   UNL A   1      42.235  27.669  28.847  1.00  0.00     0.010 A 
ATOM     36  C   UNL A   1      41.037  27.670  29.580  1.00  0.00    -0.014 A 
BRANCH  36  37
ATOM     37  C   UNL A   1      40.831  28.598  30.731  1.00  0.00     0.031 A 
ATOM     38  C   UNL A   1      41.685  28.494  31.970  1.00  0.00     0.074 A 
ATOM     39  C   UNL A   1      39.878  29.549  30.652  1.00  0.00     0.049 A 
ATOM     40  N   UNL A   1      41.673  29.236  33.050  1.00  0.00    -0.248 NA
ATOM     41  C   UNL A   1      42.675  27.406  32.007  1.00  0.00     0.031 C 
ATOM     42  C   UNL A   1      38.973  29.734  29.516  1.00  0.00     0.029 A 
ATOM     43  N   UNL A   1      39.511  30.539  31.530  1.00  0.00    -0.354 N 
ATOM     44  C   UNL A   1      42.648  28.707  33.892  1.00  0.00     0.074 A 
ATOM     45  C   UNL A   1      43.198  27.552  33.218  1.00  0.00     0.031 C 
ATOM     46  C   UNL A   1      38.174  30.785  29.755  1.00  0.00     0.029 A 
ATOM     47  C   UNL A   1      38.482  31.329  31.075  1.00  0.00     0.049 A 
ATOM     48  H   UNL A   1      39.944  30.670  32.405  1.00  0.00     0.167 HD
ATOM     49  C   UNL A   1      43.058  29.155  35.106  1.00  0.00     0.037 A 
ATOM     50  C   UNL A   1      37.853  32.373  31.652  1.00  0.00     0.037 A 
ATOM     51  C   UNL A   1      42.504  30.312  35.765  1.00  0.00     0.049 A 
ATOM     52  C   UNL A   1      38.312  32.839  33.008  1.00  0.00     0.074 A 
ATOM     53  C   UNL A   1      42.872  30.874  36.976  1.00  0.00     0.029 A 
ATOM     54  N   UNL A   1      41.457  31.080  35.273  1.00  0.00    -0.354 N 
ATOM     55  N   UNL A   1      39.277  32.363  33.760  1.00  0.00    -0.248 NA
ATOM     56  C   UNL A   1      37.606  33.987  33.593  1.00  0.00     0.031 C 
ATOM     57  C   UNL A   1      42.013  31.946  37.242  1.00  0.00     0.029 A 
ATOM     58  C   UNL A   1      41.150  32.094  36.167  1.00  0.00     0.049 A 
ATOM     59  H   UNL A   1      40.999  30.927  34.416  1.00  0.00     0.167 HD
ATOM     60  C   UNL A   1      39.312  33.170  34.892  1.00  0.00     0.074 A 
ATOM     61  C   UNL A   1      38.282  34.174  34.718  1.00  0.00     0.031 C 
ATOM     62  C   UNL A   1      40.123  33.089  35.976  1.00  0.00     0.037 A 
BRANCH  49  63
ATOM     63  C   UNL A   1      44.154  28.392  35.808  1.00  0.00     0.058 A 
ATOM     64  C   UNL A   1      43.874  27.327  36.680  1.00  0.00     0.135 A 
ATOM     65  C   UNL A   1      45.505  28.695  35.569  1.00  0.00     0.135 A 
ATOM     66  F   UNL A   1      42.602  26.995  36.956  1.00  0.00    -0.206 F 
ATOM     67  C   UNL A   1      44.888  26.614  37.314  1.00  0.00     0.059 A 
ATOM     68  C   UNL A   1      46.537  27.974  36.167  1.00  0.00     0.059 A 
ATOM     69  F   UNL A   1      45.837  29.696  34.740  1.00  0.00    -0.206 F 
ATOM     70  C   UNL A   1      46.218  26.944  37.049  1.00  0.00     0.060 A 
BRANCH  70  71
ATOM     71  S   UNL A   1      47.520  26.002  37.874  1.00  0.00     0.124 S 
ATOM     72  O   UNL A   1      48.346  27.070  38.429  1.00  0.00    -0.237 OA
ATOM     73  O   UNL A   1      46.767  25.215  38.844  1.00  0.00    -0.237 OA
ATOM     74  O   UNL A   1      48.129  25.239  36.789  1.00  0.00    -0.744 OA
ENDBRANCH  70  71
ENDBRANCH  49  63
BRANCH  50  75
ATOM     75  C   UNL A   1      36.733  33.053  30.945  1.00  0.00     0.058 A 
ATOM     76  C   UNL A   1      35.398  32.849  31.325  1.00  0.00     0.135 A 
ATOM     77  C   UNL A   1      36.977  33.935  29.878  1.00  0.00     0.135 A 
ATOM     78  F   UNL A   1      35.109  32.013  32.333  1.00  0.00    -0.206 F 
ATOM     79  C   UNL A   1      34.346  33.476  30.664  1.00  0.00     0.059 A 
ATOM     80  C   UNL A   1      35.944  34.598  29.223  1.00  0.00     0.059 A 
ATOM     81  F   UNL A   1      38.236  34.182  29.484  1.00  0.00    -0.206 F 
ATOM     82  C   UNL A   1      34.631  34.353  29.616  1.00  0.00     0.060 A 
BRANCH  82  83
ATOM     83  S   UNL A   1      33.261  35.199  28.797  1.00  0.00     0.124 S 
ATOM     84  O   UNL A   1      33.967  36.192  27.995  1.00  0.00    -0.237 OA
ATOM     85  O   UNL A   1      32.628  34.112  28.057  1.00  0.00    -0.237 OA
ATOM     86  O   UNL A   1      32.479  35.728  29.911  1.00  0.00    -0.744 OA
ENDBRANCH  82  83
ENDBRANCH  50  75
BRANCH  62  87
ATOM     87  C   UNL A   1      39.956  34.135  37.045  1.00  0.00     0.058 A 
ATOM     88  C   UNL A   1      40.516  35.417  36.923  1.00  0.00     0.135 A 
ATOM     89  C   UNL A   1      39.183  33.866  38.187  1.00  0.00     0.135 A 
ATOM     90  F   UNL A   1      41.271  35.726  35.857  1.00  0.00    -0.206 F 
ATOM     91  C   UNL A   1      40.339  36.384  37.907  1.00  0.00     0.059 A 
ATOM     92  C   UNL A   1      38.964  34.828  39.167  1.00  0.00     0.059 A 
ATOM     93  F   UNL A   1      38.615  32.659  38.350  1.00  0.00    -0.206 F 
ATOM     94  C   UNL A   1      39.557  36.081  39.024  1.00  0.00     0.060 A 
BRANCH  94  95
ATOM     95  S   UNL A   1      39.308  37.357  40.276  1.00  0.00     0.124 S 
ATOM     96  O   UNL A   1      38.484  38.321  39.552  1.00  0.00    -0.237 OA
ATOM     97  O   UNL A   1      38.636  36.622  41.342  1.00  0.00    -0.237 OA
ATOM     98  O   UNL A   1      40.664  37.800  40.585  1.00  0.00    -0.744 OA
ENDBRANCH  94  95
ENDBRANCH  62  87
ENDBRANCH  36  37
ENDBRANCH  28  31
ENDBRANCH  26  27
ENDBRANCH   1  26
TORSDOF 16
ENDMDL
MODEL 3
REMARK VINA RESULT:     -12.1      6.469     11.996
REMARK SMILES C[C@@H]1C(=O)NC(=O)CN1C(=O)NC1(CC(=O)NCCCNC(=O)c2ccc(-c3c4nc(c(-c5c(F)cc(S(=O)(=O)[O-])cc5F)c5ccc([nH]5)c(-c5c(F)cc(S(=O)(=O)[O-])cc5F)c5nc(c(-c6c(F)cc(S(=O)(=O)[O-])cc6F)c6ccc3[nH]6)C=C5)C=C4)cc2)CCC1
REMARK SMILES IDX 19 1 18 2 17 3 15 4 16 5 14 7 13 8 90 9 92 10 91 11 12 12
REMARK SMILES IDX 10 13 11 14 9 16 1 17 2 18 3 19 4 20 5 21 8 22 6 23 7 25
REMARK SMILES IDX 20 26 21 27 22 28 23 30 24 31 25 32 89 33 26 34 88 35 27 36
REMARK SMILES IDX 28 37 29 38 82 39 30 40 87 41 81 42 83 43 31 44 86 45 80 46
REMARK SMILES IDX 79 47 32 49 66 50 45 51 65 52 46 53 49 54 64 55 84 56 47 57
REMARK SMILES IDX 48 58 63 60 85 61 50 62 33 63 34 64 43 65 35 66 36 67 42 68
REMARK SMILES IDX 44 69 37 70 38 71 39 72 40 73 41 74 67 75 68 76 77 77 69 78
REMARK SMILES IDX 70 79 76 80 78 81 71 82 72 83 73 84 74 85 75 86 51 87 52 88
REMARK SMILES IDX 61 89 53 90 54 91 60 92 62 93 55 94 56 95 57 96 58 97 59 98
REMARK H PARENT 17 6 12 15 5 24 21 29 83 48 49 59
REMARK Flexibility Score: inf
ROOT
ATOM      1  C   UNL A   1      34.991  31.136  27.802  1.00  0.00     0.042 C 
ENDROOT
BRANCH   1   2
ATOM      2  C   UNL A   1      33.384  30.849  27.423  1.00  0.00     0.117 C 
BRANCH   2   3
ATOM      3  N   UNL A   1      32.446  29.525  27.573  1.00  0.00    -0.356 N 
ATOM      4  C   UNL A   1      31.825  28.365  27.157  1.00  0.00     0.222 C 
ATOM      5  O   UNL A   1      31.317  27.805  28.162  1.00  0.00    -0.275 OA
ATOM      6  H   UNL A   1      32.147  29.592  28.509  1.00  0.00     0.163 HD
BRANCH   4   7
ATOM      7  C   UNL A   1      31.663  27.491  25.792  1.00  0.00     0.128 C 
BRANCH   7   8
ATOM      8  C   UNL A   1      30.557  26.381  25.241  1.00  0.00     0.051 C 
ATOM      9  C   UNL A   1      31.072  25.850  23.827  1.00  0.00     0.029 C 
ATOM     10  C   UNL A   1      29.120  26.381  24.348  1.00  0.00     0.029 C 
ATOM     11  C   UNL A   1      29.987  26.743  23.160  1.00  0.00     0.005 C 
BRANCH   8  12
ATOM     12  N   UNL A   1      30.305  25.292  26.207  1.00  0.00    -0.332 N 
ATOM     13  C   UNL A   1      31.089  24.221  26.464  1.00  0.00     0.318 C 
ATOM     14  O   UNL A   1      30.875  23.546  27.467  1.00  0.00    -0.249 OA
ATOM     15  H   UNL A   1      29.467  25.352  26.721  1.00  0.00     0.165 HD
BRANCH  13  16
ATOM     16  N   UNL A   1      31.977  23.853  25.490  1.00  0.00    -0.304 N 
ATOM     17  C   UNL A   1      34.150  25.305  25.829  1.00  0.00     0.042 C 
ATOM     18  C   UNL A   1      33.448  23.955  25.684  1.00  0.00     0.174 C 
ATOM     19  C   UNL A   1      34.062  22.892  24.719  1.00  0.00     0.249 C 
ATOM     20  O   UNL A   1      34.738  23.041  23.700  1.00  0.00    -0.272 OA
ATOM     21  N   UNL A   1      33.669  21.642  25.056  1.00  0.00    -0.293 N 
ATOM     22  C   UNL A   1      31.497  22.681  24.732  1.00  0.00     0.222 C 
ATOM     23  C   UNL A   1      32.323  21.418  25.004  1.00  0.00     0.246 C 
ATOM     24  H   UNL A   1      34.309  20.942  25.319  1.00  0.00     0.173 HD
ATOM     25  O   UNL A   1      31.899  20.277  24.864  1.00  0.00    -0.273 OA
ENDBRANCH  13  16
ENDBRANCH   8  12
ENDBRANCH   7   8
ENDBRANCH   4   7
ENDBRANCH   2   3
ENDBRANCH   1   2
BRANCH   1  26
ATOM     26  C   UNL A   1      35.627  32.053  28.917  1.00  0.00     0.118 C 
BRANCH  26  27
ATOM     27  N   UNL A   1      35.633  31.465  30.239  1.00  0.00    -0.352 N 
ATOM     28  C   UNL A   1      36.494  30.513  30.740  1.00  0.00     0.251 C 
ATOM     29  H   UNL A   1      34.936  31.783  30.857  1.00  0.00     0.163 HD
ATOM     30  O   UNL A   1      36.116  29.775  31.647  1.00  0.00    -0.269 OA
BRANCH  28  31
ATOM     31  C   UNL A   1      37.885  30.378  30.233  1.00  0.00     0.039 A 
ATOM     32  C   UNL A   1      38.087  30.038  28.891  1.00  0.00     0.014 A 
ATOM     33  C   UNL A   1      38.973  30.380  31.113  1.00  0.00     0.014 A 
ATOM     34  C   UNL A   1      39.367  29.696  28.435  1.00  0.00     0.010 A 
ATOM     35  C   UNL A   1      40.259  30.058  30.650  1.00  0.00     0.010 A 
ATOM     36  C   UNL A   1      40.466  29.689  29.310  1.00  0.00    -0.014 A 
BRANCH  36  37
ATOM     37  C   UNL A   1      41.813  29.274  28.817  1.00  0.00     0.031 A 
ATOM     38  C   UNL A   1      42.949  30.263  28.747  1.00  0.00     0.074 A 
ATOM     39  C   UNL A   1      42.015  27.994  28.446  1.00  0.00     0.049 A 
ATOM     40  N   UNL A   1      44.192  30.073  28.381  1.00  0.00    -0.248 NA
ATOM     41  C   UNL A   1      42.646  31.653  29.125  1.00  0.00     0.031 C 
ATOM     42  C   UNL A   1      40.988  26.950  28.447  1.00  0.00     0.029 A 
ATOM     43  N   UNL A   1      43.142  27.347  28.003  1.00  0.00    -0.354 N 
ATOM     44  C   UNL A   1      44.819  31.312  28.483  1.00  0.00     0.074 A 
ATOM     45  C   UNL A   1      43.806  32.258  28.899  1.00  0.00     0.031 C 
ATOM     46  C   UNL A   1      41.536  25.791  28.049  1.00  0.00     0.029 A 
ATOM     47  C   UNL A   1      42.943  26.013  27.730  1.00  0.00     0.049 A 
ATOM     48  H   UNL A   1      44.011  27.795  27.890  1.00  0.00     0.167 HD
ATOM     49  C   UNL A   1      46.121  31.628  28.268  1.00  0.00     0.037 A 
ATOM     50  C   UNL A   1      43.795  25.073  27.271  1.00  0.00     0.037 A 
ATOM     51  C   UNL A   1      47.123  30.675  27.859  1.00  0.00     0.049 A 
ATOM     52  C   UNL A   1      45.230  25.452  27.020  1.00  0.00     0.074 A 
ATOM     53  C   UNL A   1      48.476  30.880  27.651  1.00  0.00     0.029 A 
ATOM     54  N   UNL A   1      46.878  29.336  27.585  1.00  0.00    -0.354 N 
ATOM     55  N   UNL A   1      45.816  26.616  27.183  1.00  0.00    -0.248 NA
ATOM     56  C   UNL A   1      46.124  24.393  26.534  1.00  0.00     0.031 C 
ATOM     57  C   UNL A   1      49.038  29.682  27.199  1.00  0.00     0.029 A 
ATOM     58  C   UNL A   1      48.049  28.710  27.186  1.00  0.00     0.049 A 
ATOM     59  H   UNL A   1      46.002  28.895  27.662  1.00  0.00     0.167 HD
ATOM     60  C   UNL A   1      47.151  26.421  26.845  1.00  0.00     0.074 A 
ATOM     61  C   UNL A   1      47.289  25.024  26.486  1.00  0.00     0.031 C 
ATOM     62  C   UNL A   1      48.170  27.316  26.835  1.00  0.00     0.037 A 
BRANCH  49  63
ATOM     63  C   UNL A   1      46.542  33.064  28.464  1.00  0.00     0.058 A 
ATOM     64  C   UNL A   1      47.063  33.523  29.685  1.00  0.00     0.135 A 
ATOM     65  C   UNL A   1      46.472  33.983  27.403  1.00  0.00     0.135 A 
ATOM     66  F   UNL A   1      47.148  32.695  30.739  1.00  0.00    -0.206 F 
ATOM     67  C   UNL A   1      47.466  34.844  29.857  1.00  0.00     0.059 A 
ATOM     68  C   UNL A   1      46.898  35.302  27.544  1.00  0.00     0.059 A 
ATOM     69  F   UNL A   1      45.990  33.603  26.210  1.00  0.00    -0.206 F 
ATOM     70  C   UNL A   1      47.382  35.727  28.780  1.00  0.00     0.060 A 
BRANCH  70  71
ATOM     71  S   UNL A   1      47.918  37.435  29.021  1.00  0.00     0.124 S 
ATOM     72  O   UNL A   1      49.310  37.368  28.589  1.00  0.00    -0.237 OA
ATOM     73  O   UNL A   1      47.017  38.171  28.140  1.00  0.00    -0.237 OA
ATOM     74  O   UNL A   1      47.715  37.659  30.449  1.00  0.00    -0.744 OA
ENDBRANCH  70  71
ENDBRANCH  49  63
BRANCH  50  75
ATOM     75  C   UNL A   1      43.315  23.684  27.033  1.00  0.00     0.058 A 
ATOM     76  C   UNL A   1      43.025  23.224  25.740  1.00  0.00     0.135 A 
ATOM     77  C   UNL A   1      43.146  22.781  28.096  1.00  0.00     0.135 A 
ATOM     78  F   UNL A   1      43.164  24.046  24.688  1.00  0.00    -0.206 F 
ATOM     79  C   UNL A   1      42.570  21.929  25.509  1.00  0.00     0.059 A 
ATOM     80  C   UNL A   1      42.722  21.473  27.889  1.00  0.00     0.059 A 
ATOM     81  F   UNL A   1      43.425  23.163  29.353  1.00  0.00    -0.206 F 
ATOM     82  C   UNL A   1      42.425  21.059  26.592  1.00  0.00     0.060 A 
BRANCH  82  83
ATOM     83  S   UNL A   1      41.880  19.366  26.278  1.00  0.00     0.124 S 
ATOM     84  O   UNL A   1      40.435  19.536  26.175  1.00  0.00    -0.237 OA
ATOM     85  O   UNL A   1      42.577  19.046  25.035  1.00  0.00    -0.237 OA
ATOM     86  O   UNL A   1      42.348  18.639  27.454  1.00  0.00    -0.744 OA
ENDBRANCH  82  83
ENDBRANCH  50  75
BRANCH  62  87
ATOM     87  C   UNL A   1      49.535  26.807  26.457  1.00  0.00     0.058 A 
ATOM     88  C   UNL A   1      50.355  26.131  27.374  1.00  0.00     0.135 A 
ATOM     89  C   UNL A   1      50.008  26.955  25.142  1.00  0.00     0.135 A 
ATOM     90  F   UNL A   1      49.956  25.968  28.645  1.00  0.00    -0.206 F 
ATOM     91  C   UNL A   1      51.606  25.644  27.009  1.00  0.00     0.059 A 
ATOM     92  C   UNL A   1      51.241  26.448  24.746  1.00  0.00     0.059 A 
ATOM     93  F   UNL A   1      49.260  27.586  24.221  1.00  0.00    -0.206 F 
ATOM     94  C   UNL A   1      52.039  25.805  25.691  1.00  0.00     0.060 A 
BRANCH  94  95
ATOM     95  S   UNL A   1      53.650  25.139  25.224  1.00  0.00     0.124 S 
ATOM     96  O   UNL A   1      54.514  25.716  26.249  1.00  0.00    -0.237 OA
ATOM     97  O   UNL A   1      53.431  23.700  25.315  1.00  0.00    -0.237 OA
ATOM     98  O   UNL A   1      53.852  25.653  23.872  1.00  0.00    -0.744 OA
ENDBRANCH  94  95
ENDBRANCH  62  87
ENDBRANCH  36  37
ENDBRANCH  28  31
ENDBRANCH  26  27
ENDBRANCH   1  26
TORSDOF 16
ENDMDL
