MODEL 1
REMARK VINA RESULT:     -10.9      0.000      0.000
REMARK SMILES C[C@H]1[C@H](C(=O)NCCCNC(=O)c2ccc(-c3c4nc(c(-c5c(F)cc(S(=O)(=O)[O-])cc5F)c5ccc([nH]5)c(-c5c(F)cc(S(=O)(=O)[O-])cc5F)c5nc(c(-c6c(F)cc(S(=O)(=O)[O-])cc6F)c6ccc3[nH]6)C=C5)C=C4)cc2)CCN1C(=O)N(C)CCS(C)(=O)=O
REMARK SMILES IDX 7 1 6 2 4 3 5 4 3 6 1 7 2 8 81 9 79 10 80 11 82 12 83 13
REMARK SMILES IDX 84 14 85 15 86 16 87 17 88 18 89 19 90 20 91 21 8 22 9 23
REMARK SMILES IDX 10 24 11 25 12 27 13 28 14 29 78 30 15 31 77 32 16 33 17 34
REMARK SMILES IDX 18 35 71 36 19 37 76 38 70 39 72 40 20 41 75 42 69 43 68 44
REMARK SMILES IDX 21 46 55 47 34 48 54 49 35 50 38 51 53 52 73 53 36 54 37 55
REMARK SMILES IDX 52 57 74 58 39 59 22 60 23 61 32 62 24 63 25 64 31 65 33 66
REMARK SMILES IDX 26 67 27 68 28 69 29 70 30 71 56 72 57 73 66 74 58 75 59 76
REMARK SMILES IDX 65 77 67 78 60 79 61 80 62 81 63 82 64 83 40 84 41 85 50 86
REMARK SMILES IDX 42 87 43 88 49 89 51 90 44 91 45 92 46 93 47 94 48 95
REMARK H PARENT 6 5 10 26 72 45 38 56
REMARK Flexibility Score: inf
ROOT
ATOM      1  C   UNL A   1      32.744  27.621  24.526  1.00  0.00     0.117 C 
ENDROOT
BRANCH   1   2
ATOM      2  N   UNL A   1      33.247  26.697  23.518  1.00  0.00    -0.356 N 
ATOM      3  C   UNL A   1      33.792  25.456  23.628  1.00  0.00     0.225 C 
ATOM      4  O   UNL A   1      34.121  24.886  22.584  1.00  0.00    -0.275 OA
ATOM      5  H   UNL A   1      33.179  27.030  22.594  1.00  0.00     0.163 HD
BRANCH   3   6
ATOM      6  C   UNL A   1      34.034  24.780  24.968  1.00  0.00     0.102 C 
ATOM      7  C   UNL A   1      32.146  23.931  26.401  1.00  0.00     0.032 C 
ATOM      8  C   UNL A   1      33.049  23.622  25.204  1.00  0.00     0.096 C 
ATOM      9  N   UNL A   1      33.864  22.446  25.478  1.00  0.00    -0.321 N 
ATOM     10  C   UNL A   1      35.438  24.220  25.148  1.00  0.00     0.037 C 
ATOM     11  C   UNL A   1      35.240  22.841  25.749  1.00  0.00     0.122 C 
BRANCH   9  12
ATOM     12  C   UNL A   1      33.562  21.120  25.638  1.00  0.00     0.320 C 
ATOM     13  O   UNL A   1      33.573  20.659  26.789  1.00  0.00    -0.248 OA
BRANCH  12  14
ATOM     14  N   UNL A   1      33.307  20.265  24.587  1.00  0.00    -0.327 N 
ATOM     15  C   UNL A   1      32.384  20.377  23.465  1.00  0.00     0.148 C 
BRANCH  14  16
ATOM     16  C   UNL A   1      34.089  19.012  24.573  1.00  0.00     0.137 C 
BRANCH  16  17
ATOM     17  C   UNL A   1      33.344  17.781  25.079  1.00  0.00     0.158 C 
BRANCH  17  18
ATOM     18  S   UNL A   1      33.888  16.196  24.468  1.00  0.00     0.149 S 
ATOM     19  C   UNL A   1      35.379  15.793  25.362  1.00  0.00     0.158 C 
ATOM     20  O   UNL A   1      32.892  15.223  24.896  1.00  0.00    -0.229 OA
ATOM     21  O   UNL A   1      34.179  16.305  23.052  1.00  0.00    -0.229 OA
ENDBRANCH  17  18
ENDBRANCH  16  17
ENDBRANCH  14  16
ENDBRANCH  12  14
ENDBRANCH   9  12
ENDBRANCH   3   6
ENDBRANCH   1   2
BRANCH   1  22
ATOM     22  C   UNL A   1      33.852  28.417  25.202  1.00  0.00     0.042 C 
BRANCH  22  23
ATOM     23  C   UNL A   1      33.780  28.430  26.722  1.00  0.00     0.118 C 
BRANCH  23  24
ATOM     24  N   UNL A   1      33.627  29.768  27.271  1.00  0.00    -0.352 N 
ATOM     25  C   UNL A   1      34.472  30.510  28.059  1.00  0.00     0.251 C 
ATOM     26  H   UNL A   1      32.780  30.215  27.041  1.00  0.00     0.163 HD
ATOM     27  O   UNL A   1      34.063  31.557  28.555  1.00  0.00    -0.269 OA
BRANCH  25  28
ATOM     28  C   UNL A   1      35.855  30.057  28.326  1.00  0.00     0.039 A 
ATOM     29  C   UNL A   1      36.791  30.113  27.289  1.00  0.00     0.014 A 
ATOM     30  C   UNL A   1      36.229  29.551  29.573  1.00  0.00     0.014 A 
ATOM     31  C   UNL A   1      38.111  29.720  27.523  1.00  0.00     0.010 A 
ATOM     32  C   UNL A   1      37.564  29.245  29.830  1.00  0.00     0.010 A 
ATOM     33  C   UNL A   1      38.519  29.320  28.806  1.00  0.00    -0.014 A 
BRANCH  33  34
ATOM     34  C   UNL A   1      39.939  28.983  29.087  1.00  0.00     0.031 A 
ATOM     35  C   UNL A   1      40.864  30.007  29.689  1.00  0.00     0.074 A 
ATOM     36  C   UNL A   1      40.409  27.764  28.753  1.00  0.00     0.049 A 
ATOM     37  N   UNL A   1      42.138  29.905  29.971  1.00  0.00    -0.248 NA
ATOM     38  C   UNL A   1      40.290  31.329  29.991  1.00  0.00     0.031 C 
ATOM     39  C   UNL A   1      39.628  26.704  28.110  1.00  0.00     0.029 A 
ATOM     40  N   UNL A   1      41.657  27.211  28.900  1.00  0.00    -0.354 N 
ATOM     41  C   UNL A   1      42.517  31.143  30.478  1.00  0.00     0.074 A 
ATOM     42  C   UNL A   1      41.355  32.001  30.403  1.00  0.00     0.031 C 
ATOM     43  C   UNL A   1      40.404  25.623  27.945  1.00  0.00     0.029 A 
ATOM     44  C   UNL A   1      41.749  25.922  28.428  1.00  0.00     0.049 A 
ATOM     45  H   UNL A   1      42.415  27.692  29.305  1.00  0.00     0.167 HD
ATOM     46  C   UNL A   1      43.714  31.522  30.987  1.00  0.00     0.037 A 
ATOM     47  C   UNL A   1      42.797  25.077  28.383  1.00  0.00     0.037 A 
ATOM     48  C   UNL A   1      44.864  30.658  31.071  1.00  0.00     0.049 A 
ATOM     49  C   UNL A   1      44.117  25.521  28.949  1.00  0.00     0.074 A 
ATOM     50  C   UNL A   1      46.109  30.931  31.610  1.00  0.00     0.029 A 
ATOM     51  N   UNL A   1      44.914  29.354  30.597  1.00  0.00    -0.354 N 
ATOM     52  N   UNL A   1      44.440  26.676  29.483  1.00  0.00    -0.248 NA
ATOM     53  C   UNL A   1      45.215  24.545  28.918  1.00  0.00     0.031 C 
ATOM     54  C   UNL A   1      46.926  29.812  31.416  1.00  0.00     0.029 A 
ATOM     55  C   UNL A   1      46.175  28.818  30.810  1.00  0.00     0.049 A 
ATOM     56  H   UNL A   1      44.164  28.880  30.172  1.00  0.00     0.167 HD
ATOM     57  C   UNL A   1      45.770  26.557  29.871  1.00  0.00     0.074 A 
ATOM     58  C   UNL A   1      46.184  25.212  29.530  1.00  0.00     0.031 C 
ATOM     59  C   UNL A   1      46.576  27.478  30.458  1.00  0.00     0.037 A 
BRANCH  46  60
ATOM     60  C   UNL A   1      43.839  32.933  31.500  1.00  0.00     0.058 A 
ATOM     61  C   UNL A   1      43.575  33.259  32.840  1.00  0.00     0.135 A 
ATOM     62  C   UNL A   1      44.257  33.970  30.649  1.00  0.00     0.135 A 
ATOM     63  F   UNL A   1      43.158  32.312  33.696  1.00  0.00    -0.206 F 
ATOM     64  C   UNL A   1      43.687  34.563  33.311  1.00  0.00     0.059 A 
ATOM     65  C   UNL A   1      44.407  35.277  31.106  1.00  0.00     0.059 A 
ATOM     66  F   UNL A   1      44.525  33.721  29.358  1.00  0.00    -0.206 F 
ATOM     67  C   UNL A   1      44.104  35.566  32.436  1.00  0.00     0.060 A 
BRANCH  67  68
ATOM     68  S   UNL A   1      44.244  37.253  33.064  1.00  0.00     0.124 S 
ATOM     69  O   UNL A   1      45.483  37.176  33.832  1.00  0.00    -0.237 OA
ATOM     70  O   UNL A   1      44.309  38.038  31.836  1.00  0.00    -0.237 OA
ATOM     71  O   UNL A   1      43.027  37.425  33.852  1.00  0.00    -0.744 OA
ENDBRANCH  67  68
ENDBRANCH  46  60
BRANCH  47  72
ATOM     72  C   UNL A   1      42.630  23.724  27.789  1.00  0.00     0.058 A 
ATOM     73  C   UNL A   1      42.684  23.526  26.401  1.00  0.00     0.135 A 
ATOM     74  C   UNL A   1      42.435  22.595  28.602  1.00  0.00     0.135 A 
ATOM     75  F   UNL A   1      42.862  24.573  25.581  1.00  0.00    -0.206 F 
ATOM     76  C   UNL A   1      42.538  22.261  25.839  1.00  0.00     0.059 A 
ATOM     77  C   UNL A   1      42.315  21.319  28.065  1.00  0.00     0.059 A 
ATOM     78  F   UNL A   1      42.395  22.726  29.937  1.00  0.00    -0.206 F 
ATOM     79  C   UNL A   1      42.357  21.163  26.680  1.00  0.00     0.060 A 
BRANCH  79  80
ATOM     80  S   UNL A   1      42.225  19.518  25.947  1.00  0.00     0.124 S 
ATOM     81  O   UNL A   1      43.132  19.629  24.810  1.00  0.00    -0.237 OA
ATOM     82  O   UNL A   1      42.670  18.658  27.039  1.00  0.00    -0.237 OA
ATOM     83  O   UNL A   1      40.807  19.413  25.615  1.00  0.00    -0.744 OA
ENDBRANCH  79  80
ENDBRANCH  47  72
BRANCH  59  84
ATOM     84  C   UNL A   1      47.981  27.053  30.789  1.00  0.00     0.058 A 
ATOM     85  C   UNL A   1      49.045  27.250  29.893  1.00  0.00     0.135 A 
ATOM     86  C   UNL A   1      48.273  26.465  32.031  1.00  0.00     0.135 A 
ATOM     87  F   UNL A   1      48.823  27.804  28.691  1.00  0.00    -0.206 F 
ATOM     88  C   UNL A   1      50.340  26.844  30.202  1.00  0.00     0.059 A 
ATOM     89  C   UNL A   1      49.567  26.082  32.373  1.00  0.00     0.059 A 
ATOM     90  F   UNL A   1      47.297  26.264  32.931  1.00  0.00    -0.206 F 
ATOM     91  C   UNL A   1      50.591  26.260  31.445  1.00  0.00     0.060 A 
BRANCH  91  92
ATOM     92  S   UNL A   1      52.276  25.748  31.835  1.00  0.00     0.124 S 
ATOM     93  O   UNL A   1      52.082  24.349  32.198  1.00  0.00    -0.237 OA
ATOM     94  O   UNL A   1      52.974  25.984  30.573  1.00  0.00    -0.237 OA
ATOM     95  O   UNL A   1      52.658  26.635  32.930  1.00  0.00    -0.744 OA
ENDBRANCH  91  92
ENDBRANCH  59  84
ENDBRANCH  33  34
ENDBRANCH  25  28
ENDBRANCH  23  24
ENDBRANCH  22  23
ENDBRANCH   1  22
TORSDOF 18
ENDMDL
MODEL 2
REMARK VINA RESULT:     -10.6      4.885     10.514
REMARK SMILES C[C@H]1[C@H](C(=O)NCCCNC(=O)c2ccc(-c3c4nc(c(-c5c(F)cc(S(=O)(=O)[O-])cc5F)c5ccc([nH]5)c(-c5c(F)cc(S(=O)(=O)[O-])cc5F)c5nc(c(-c6c(F)cc(S(=O)(=O)[O-])cc6F)c6ccc3[nH]6)C=C5)C=C4)cc2)CCN1C(=O)N(C)CCS(C)(=O)=O
REMARK SMILES IDX 7 1 6 2 4 3 5 4 3 6 1 7 2 8 81 9 79 10 80 11 82 12 83 13
REMARK SMILES IDX 84 14 85 15 86 16 87 17 88 18 89 19 90 20 91 21 8 22 9 23
REMARK SMILES IDX 10 24 11 25 12 27 13 28 14 29 78 30 15 31 77 32 16 33 17 34
REMARK SMILES IDX 18 35 71 36 19 37 76 38 70 39 72 40 20 41 75 42 69 43 68 44
REMARK SMILES IDX 21 46 55 47 34 48 54 49 35 50 38 51 53 52 73 53 36 54 37 55
REMARK SMILES IDX 52 57 74 58 39 59 22 60 23 61 32 62 24 63 25 64 31 65 33 66
REMARK SMILES IDX 26 67 27 68 28 69 29 70 30 71 56 72 57 73 66 74 58 75 59 76
REMARK SMILES IDX 65 77 67 78 60 79 61 80 62 81 63 82 64 83 40 84 41 85 50 86
REMARK SMILES IDX 42 87 43 88 49 89 51 90 44 91 45 92 46 93 47 94 48 95
REMARK H PARENT 6 5 10 26 72 45 38 56
REMARK Flexibility Score: inf
ROOT
ATOM      1  C   UNL A   1      39.332  21.334  26.181  1.00  0.00     0.117 C 
ENDROOT
BRANCH   1   2
ATOM      2  N   UNL A   1      38.607  22.326  25.397  1.00  0.00    -0.356 N 
ATOM      3  C   UNL A   1      37.276  22.504  25.183  1.00  0.00     0.225 C 
ATOM      4  O   UNL A   1      36.938  23.456  24.474  1.00  0.00    -0.275 OA
ATOM      5  H   UNL A   1      39.183  22.983  24.944  1.00  0.00     0.163 HD
BRANCH   3   6
ATOM      6  C   UNL A   1      36.219  21.569  25.749  1.00  0.00     0.102 C 
ATOM      7  C   UNL A   1      34.443  22.365  27.345  1.00  0.00     0.032 C 
ATOM      8  C   UNL A   1      34.855  22.267  25.874  1.00  0.00     0.096 C 
ATOM      9  N   UNL A   1      33.907  21.438  25.140  1.00  0.00    -0.321 N 
ATOM     10  C   UNL A   1      36.003  20.298  24.940  1.00  0.00     0.037 C 
ATOM     11  C   UNL A   1      34.496  20.137  24.850  1.00  0.00     0.122 C 
BRANCH   9  12
ATOM     12  C   UNL A   1      32.592  21.607  24.798  1.00  0.00     0.320 C 
ATOM     13  O   UNL A   1      31.793  20.712  25.110  1.00  0.00    -0.248 OA
BRANCH  12  14
ATOM     14  N   UNL A   1      32.125  22.686  24.077  1.00  0.00    -0.327 N 
ATOM     15  C   UNL A   1      32.581  23.265  22.819  1.00  0.00     0.148 C 
BRANCH  14  16
ATOM     16  C   UNL A   1      30.967  23.395  24.657  1.00  0.00     0.137 C 
BRANCH  16  17
ATOM     17  C   UNL A   1      30.936  24.898  24.398  1.00  0.00     0.158 C 
BRANCH  17  18
ATOM     18  S   UNL A   1      31.622  25.953  25.663  1.00  0.00     0.149 S 
ATOM     19  C   UNL A   1      31.923  27.535  24.893  1.00  0.00     0.158 C 
ATOM     20  O   UNL A   1      30.561  26.178  26.635  1.00  0.00    -0.229 OA
ATOM     21  O   UNL A   1      32.873  25.387  26.128  1.00  0.00    -0.229 OA
ENDBRANCH  17  18
ENDBRANCH  16  17
ENDBRANCH  14  16
ENDBRANCH  12  14
ENDBRANCH   9  12
ENDBRANCH   3   6
ENDBRANCH   1   2
BRANCH   1  22
ATOM     22  C   UNL A   1      40.699  21.827  26.635  1.00  0.00     0.042 C 
BRANCH  22  23
ATOM     23  C   UNL A   1      40.744  23.302  27.008  1.00  0.00     0.118 C 
BRANCH  23  24
ATOM     24  N   UNL A   1      41.388  24.123  25.994  1.00  0.00    -0.352 N 
ATOM     25  C   UNL A   1      41.684  25.464  25.991  1.00  0.00     0.251 C 
ATOM     26  H   UNL A   1      41.655  23.640  25.179  1.00  0.00     0.163 HD
ATOM     27  O   UNL A   1      42.077  25.988  24.951  1.00  0.00    -0.269 OA
BRANCH  25  28
ATOM     28  C   UNL A   1      41.524  26.280  27.214  1.00  0.00     0.039 A 
ATOM     29  C   UNL A   1      42.425  27.322  27.450  1.00  0.00     0.014 A 
ATOM     30  C   UNL A   1      40.515  26.012  28.144  1.00  0.00     0.014 A 
ATOM     31  C   UNL A   1      42.277  28.127  28.581  1.00  0.00     0.010 A 
ATOM     32  C   UNL A   1      40.314  26.870  29.223  1.00  0.00     0.010 A 
ATOM     33  C   UNL A   1      41.197  27.933  29.458  1.00  0.00    -0.014 A 
BRANCH  33  34
ATOM     34  C   UNL A   1      40.980  28.839  30.617  1.00  0.00     0.031 A 
ATOM     35  C   UNL A   1      41.809  28.696  31.866  1.00  0.00     0.074 A 
ATOM     36  C   UNL A   1      39.999  29.762  30.561  1.00  0.00     0.049 A 
ATOM     37  N   UNL A   1      41.739  29.369  32.985  1.00  0.00    -0.248 NA
ATOM     38  C   UNL A   1      42.834  27.639  31.869  1.00  0.00     0.031 C 
ATOM     39  C   UNL A   1      39.090  29.961  29.430  1.00  0.00     0.029 A 
ATOM     40  N   UNL A   1      39.597  30.702  31.476  1.00  0.00    -0.354 N 
ATOM     41  C   UNL A   1      42.703  28.820  33.823  1.00  0.00     0.074 A 
ATOM     42  C   UNL A   1      43.299  27.714  33.107  1.00  0.00     0.031 C 
ATOM     43  C   UNL A   1      38.257  30.976  29.706  1.00  0.00     0.029 A 
ATOM     44  C   UNL A   1      38.542  31.474  31.049  1.00  0.00     0.049 A 
ATOM     45  H   UNL A   1      40.024  30.813  32.357  1.00  0.00     0.167 HD
ATOM     46  C   UNL A   1      43.078  29.219  35.062  1.00  0.00     0.037 A 
ATOM     47  C   UNL A   1      37.873  32.466  31.667  1.00  0.00     0.037 A 
ATOM     48  C   UNL A   1      42.488  30.330  35.765  1.00  0.00     0.049 A 
ATOM     49  C   UNL A   1      38.304  32.888  33.045  1.00  0.00     0.074 A 
ATOM     50  C   UNL A   1      42.827  30.843  37.005  1.00  0.00     0.029 A 
ATOM     51  N   UNL A   1      41.432  31.098  35.292  1.00  0.00    -0.354 N 
ATOM     52  N   UNL A   1      39.261  32.398  33.797  1.00  0.00    -0.248 NA
ATOM     53  C   UNL A   1      37.572  34.007  33.656  1.00  0.00     0.031 C 
ATOM     54  C   UNL A   1      41.943  31.886  37.303  1.00  0.00     0.029 A 
ATOM     55  C   UNL A   1      41.091  32.064  36.225  1.00  0.00     0.049 A 
ATOM     56  H   UNL A   1      40.990  30.974  34.422  1.00  0.00     0.167 HD
ATOM     57  C   UNL A   1      39.261  33.162  34.959  1.00  0.00     0.074 A 
ATOM     58  C   UNL A   1      38.222  34.159  34.801  1.00  0.00     0.031 C 
ATOM     59  C   UNL A   1      40.049  33.047  36.058  1.00  0.00     0.037 A 
BRANCH  46  60
ATOM     60  C   UNL A   1      44.184  28.451  35.737  1.00  0.00     0.058 A 
ATOM     61  C   UNL A   1      45.536  28.785  35.552  1.00  0.00     0.135 A 
ATOM     62  C   UNL A   1      43.891  27.385  36.605  1.00  0.00     0.135 A 
ATOM     63  F   UNL A   1      45.877  29.785  34.723  1.00  0.00    -0.206 F 
ATOM     64  C   UNL A   1      46.557  28.072  36.172  1.00  0.00     0.059 A 
ATOM     65  C   UNL A   1      44.895  26.678  37.262  1.00  0.00     0.059 A 
ATOM     66  F   UNL A   1      42.618  27.019  36.822  1.00  0.00    -0.206 F 
ATOM     67  C   UNL A   1      46.226  27.019  37.026  1.00  0.00     0.060 A 
BRANCH  67  68
ATOM     68  S   UNL A   1      47.563  26.106  37.823  1.00  0.00     0.124 S 
ATOM     69  O   UNL A   1      47.480  24.817  37.144  1.00  0.00    -0.237 OA
ATOM     70  O   UNL A   1      48.731  26.918  37.500  1.00  0.00    -0.237 OA
ATOM     71  O   UNL A   1      47.179  26.099  39.232  1.00  0.00    -0.744 OA
ENDBRANCH  67  68
ENDBRANCH  46  60
BRANCH  47  72
ATOM     72  C   UNL A   1      36.735  33.132  30.979  1.00  0.00     0.058 A 
ATOM     73  C   UNL A   1      35.406  32.839  31.320  1.00  0.00     0.135 A 
ATOM     74  C   UNL A   1      36.955  34.093  29.980  1.00  0.00     0.135 A 
ATOM     75  F   UNL A   1      35.142  31.922  32.263  1.00  0.00    -0.206 F 
ATOM     76  C   UNL A   1      34.336  33.464  30.686  1.00  0.00     0.059 A 
ATOM     77  C   UNL A   1      35.904  34.752  29.353  1.00  0.00     0.059 A 
ATOM     78  F   UNL A   1      38.207  34.425  29.630  1.00  0.00    -0.206 F 
ATOM     79  C   UNL A   1      34.596  34.423  29.706  1.00  0.00     0.060 A 
BRANCH  79  80
ATOM     80  S   UNL A   1      33.204  35.271  28.928  1.00  0.00     0.124 S 
ATOM     81  O   UNL A   1      32.637  34.210  28.104  1.00  0.00    -0.237 OA
ATOM     82  O   UNL A   1      32.410  35.680  30.083  1.00  0.00    -0.237 OA
ATOM     83  O   UNL A   1      33.844  36.363  28.199  1.00  0.00    -0.744 OA
ENDBRANCH  79  80
ENDBRANCH  47  72
BRANCH  59  84
ATOM     84  C   UNL A   1      39.833  34.042  37.167  1.00  0.00     0.058 A 
ATOM     85  C   UNL A   1      38.967  33.779  38.241  1.00  0.00     0.135 A 
ATOM     86  C   UNL A   1      40.524  35.266  37.169  1.00  0.00     0.135 A 
ATOM     87  F   UNL A   1      38.279  32.627  38.287  1.00  0.00    -0.206 F 
ATOM     88  C   UNL A   1      38.765  34.708  39.256  1.00  0.00     0.059 A 
ATOM     89  C   UNL A   1      40.362  36.195  38.192  1.00  0.00     0.059 A 
ATOM     90  F   UNL A   1      41.374  35.566  36.174  1.00  0.00    -0.206 F 
ATOM     91  C   UNL A   1      39.467  35.915  39.223  1.00  0.00     0.060 A 
BRANCH  91  92
ATOM     92  S   UNL A   1      39.201  37.106  40.552  1.00  0.00     0.124 S 
ATOM     93  O   UNL A   1      38.657  36.256  41.604  1.00  0.00    -0.237 OA
ATOM     94  O   UNL A   1      40.548  37.619  40.784  1.00  0.00    -0.237 OA
ATOM     95  O   UNL A   1      38.265  38.063  39.969  1.00  0.00    -0.744 OA
ENDBRANCH  91  92
ENDBRANCH  59  84
ENDBRANCH  33  34
ENDBRANCH  25  28
ENDBRANCH  23  24
ENDBRANCH  22  23
ENDBRANCH   1  22
TORSDOF 18
ENDMDL
MODEL 3
REMARK VINA RESULT:     -10.6      5.003     10.580
REMARK SMILES C[C@H]1[C@H](C(=O)NCCCNC(=O)c2ccc(-c3c4nc(c(-c5c(F)cc(S(=O)(=O)[O-])cc5F)c5ccc([nH]5)c(-c5c(F)cc(S(=O)(=O)[O-])cc5F)c5nc(c(-c6c(F)cc(S(=O)(=O)[O-])cc6F)c6ccc3[nH]6)C=C5)C=C4)cc2)CCN1C(=O)N(C)CCS(C)(=O)=O
REMARK SMILES IDX 7 1 6 2 4 3 5 4 3 6 1 7 2 8 81 9 79 10 80 11 82 12 83 13
REMARK SMILES IDX 84 14 85 15 86 16 87 17 88 18 89 19 90 20 91 21 8 22 9 23
REMARK SMILES IDX 10 24 11 25 12 27 13 28 14 29 78 30 15 31 77 32 16 33 17 34
REMARK SMILES IDX 18 35 71 36 19 37 76 38 70 39 72 40 20 41 75 42 69 43 68 44
REMARK SMILES IDX 21 46 55 47 34 48 54 49 35 50 38 51 53 52 73 53 36 54 37 55
REMARK SMILES IDX 52 57 74 58 39 59 22 60 23 61 32 62 24 63 25 64 31 65 33 66
REMARK SMILES IDX 26 67 27 68 28 69 29 70 30 71 56 72 57 73 66 74 58 75 59 76
REMARK SMILES IDX 65 77 67 78 60 79 61 80 62 81 63 82 64 83 40 84 41 85 50 86
REMARK SMILES IDX 42 87 43 88 49 89 51 90 44 91 45 92 46 93 47 94 48 95
REMARK H PARENT 6 5 10 26 72 45 38 56
REMARK Flexibility Score: inf
ROOT
ATOM      1  C   UNL A   1      37.746  22.414  25.527  1.00  0.00     0.117 C 
ENDROOT
BRANCH   1   2
ATOM      2  N   UNL A   1      37.119  22.728  24.250  1.00  0.00    -0.356 N 
ATOM      3  C   UNL A   1      35.816  22.717  23.862  1.00  0.00     0.225 C 
ATOM      4  O   UNL A   1      35.566  23.051  22.700  1.00  0.00    -0.275 OA
ATOM      5  H   UNL A   1      37.750  22.995  23.543  1.00  0.00     0.163 HD
BRANCH   3   6
ATOM      6  C   UNL A   1      34.687  22.285  24.784  1.00  0.00     0.102 C 
ATOM      7  C   UNL A   1      34.394  23.253  27.089  1.00  0.00     0.032 C 
ATOM      8  C   UNL A   1      34.134  23.468  25.596  1.00  0.00     0.096 C 
ATOM      9  N   UNL A   1      32.701  23.506  25.334  1.00  0.00    -0.321 N 
ATOM     10  C   UNL A   1      33.507  21.636  24.074  1.00  0.00     0.037 C 
ATOM     11  C   UNL A   1      32.275  22.267  24.696  1.00  0.00     0.122 C 
BRANCH   9  12
ATOM     12  C   UNL A   1      31.716  24.395  25.671  1.00  0.00     0.320 C 
ATOM     13  O   UNL A   1      31.232  24.319  26.809  1.00  0.00    -0.248 OA
BRANCH  12  14
ATOM     14  N   UNL A   1      31.197  25.324  24.794  1.00  0.00    -0.327 N 
ATOM     15  C   UNL A   1      31.010  25.275  23.350  1.00  0.00     0.148 C 
BRANCH  14  16
ATOM     16  C   UNL A   1      30.747  26.596  25.396  1.00  0.00     0.137 C 
BRANCH  16  17
ATOM     17  C   UNL A   1      31.796  27.703  25.422  1.00  0.00     0.158 C 
BRANCH  17  18
ATOM     18  S   UNL A   1      32.043  28.549  26.973  1.00  0.00     0.149 S 
ATOM     19  C   UNL A   1      33.804  28.574  27.261  1.00  0.00     0.158 C 
ATOM     20  O   UNL A   1      31.656  29.936  26.754  1.00  0.00    -0.229 OA
ATOM     21  O   UNL A   1      31.382  27.809  28.030  1.00  0.00    -0.229 OA
ENDBRANCH  17  18
ENDBRANCH  16  17
ENDBRANCH  14  16
ENDBRANCH  12  14
ENDBRANCH   9  12
ENDBRANCH   3   6
ENDBRANCH   1   2
BRANCH   1  22
ATOM     22  C   UNL A   1      38.322  23.643  26.218  1.00  0.00     0.042 C 
BRANCH  22  23
ATOM     23  C   UNL A   1      39.606  23.383  26.993  1.00  0.00     0.118 C 
BRANCH  23  24
ATOM     24  N   UNL A   1      40.801  23.758  26.252  1.00  0.00    -0.352 N 
ATOM     25  C   UNL A   1      41.559  24.902  26.304  1.00  0.00     0.251 C 
ATOM     26  H   UNL A   1      41.118  23.082  25.610  1.00  0.00     0.163 HD
ATOM     27  O   UNL A   1      42.433  25.080  25.458  1.00  0.00    -0.269 OA
BRANCH  25  28
ATOM     28  C   UNL A   1      41.326  25.921  27.351  1.00  0.00     0.039 A 
ATOM     29  C   UNL A   1      40.324  25.692  28.298  1.00  0.00     0.014 A 
ATOM     30  C   UNL A   1      42.061  27.108  27.391  1.00  0.00     0.014 A 
ATOM     31  C   UNL A   1      40.104  26.624  29.315  1.00  0.00     0.010 A 
ATOM     32  C   UNL A   1      41.904  27.992  28.456  1.00  0.00     0.010 A 
ATOM     33  C   UNL A   1      40.918  27.763  29.427  1.00  0.00    -0.014 A 
BRANCH  33  34
ATOM     34  C   UNL A   1      40.750  28.716  30.556  1.00  0.00     0.031 A 
ATOM     35  C   UNL A   1      41.594  28.589  31.796  1.00  0.00     0.074 A 
ATOM     36  C   UNL A   1      39.800  29.669  30.481  1.00  0.00     0.049 A 
ATOM     37  N   UNL A   1      41.564  29.305  32.892  1.00  0.00    -0.248 NA
ATOM     38  C   UNL A   1      42.583  27.499  31.822  1.00  0.00     0.031 C 
ATOM     39  C   UNL A   1      38.879  29.859  29.357  1.00  0.00     0.029 A 
ATOM     40  N   UNL A   1      39.444  30.655  31.368  1.00  0.00    -0.354 N 
ATOM     41  C   UNL A   1      42.522  28.753  33.734  1.00  0.00     0.074 A 
ATOM     42  C   UNL A   1      43.070  27.602  33.050  1.00  0.00     0.031 C 
ATOM     43  C   UNL A   1      38.086  30.911  29.609  1.00  0.00     0.029 A 
ATOM     44  C   UNL A   1      38.409  31.446  30.928  1.00  0.00     0.049 A 
ATOM     45  H   UNL A   1      39.889  30.782  32.238  1.00  0.00     0.167 HD
ATOM     46  C   UNL A   1      42.931  29.183  34.953  1.00  0.00     0.037 A 
ATOM     47  C   UNL A   1      37.784  32.482  31.521  1.00  0.00     0.037 A 
ATOM     48  C   UNL A   1      42.390  30.337  35.623  1.00  0.00     0.049 A 
ATOM     49  C   UNL A   1      38.250  32.938  32.876  1.00  0.00     0.074 A 
ATOM     50  C   UNL A   1      42.765  30.883  36.839  1.00  0.00     0.029 A 
ATOM     51  N   UNL A   1      41.352  31.123  35.139  1.00  0.00    -0.354 N 
ATOM     52  N   UNL A   1      39.202  32.442  33.631  1.00  0.00    -0.248 NA
ATOM     53  C   UNL A   1      37.566  34.102  33.457  1.00  0.00     0.031 C 
ATOM     54  C   UNL A   1      41.922  31.965  37.113  1.00  0.00     0.029 A 
ATOM     55  C   UNL A   1      41.059  32.134  36.042  1.00  0.00     0.049 A 
ATOM     56  H   UNL A   1      40.892  30.983  34.280  1.00  0.00     0.167 HD
ATOM     57  C   UNL A   1      39.246  33.247  34.764  1.00  0.00     0.074 A 
ATOM     58  C   UNL A   1      38.239  34.272  34.586  1.00  0.00     0.031 C 
ATOM     59  C   UNL A   1      40.048  33.145  35.854  1.00  0.00     0.037 A 
BRANCH  46  60
ATOM     60  C   UNL A   1      44.022  28.402  35.638  1.00  0.00     0.058 A 
ATOM     61  C   UNL A   1      43.733  27.362  36.538  1.00  0.00     0.135 A 
ATOM     62  C   UNL A   1      45.374  28.674  35.371  1.00  0.00     0.135 A 
ATOM     63  F   UNL A   1      42.459  27.067  36.842  1.00  0.00    -0.206 F 
ATOM     64  C   UNL A   1      44.741  26.645  37.173  1.00  0.00     0.059 A 
ATOM     65  C   UNL A   1      46.400  27.946  35.971  1.00  0.00     0.059 A 
ATOM     66  F   UNL A   1      45.712  29.655  34.520  1.00  0.00    -0.206 F 
ATOM     67  C   UNL A   1      46.072  26.944  36.883  1.00  0.00     0.060 A 
BRANCH  67  68
ATOM     68  S   UNL A   1      47.367  26.002  37.716  1.00  0.00     0.124 S 
ATOM     69  O   UNL A   1      47.147  26.374  39.110  1.00  0.00    -0.237 OA
ATOM     70  O   UNL A   1      47.027  24.628  37.365  1.00  0.00    -0.237 OA
ATOM     71  O   UNL A   1      48.598  26.512  37.118  1.00  0.00    -0.744 OA
ENDBRANCH  67  68
ENDBRANCH  46  60
BRANCH  47  72
ATOM     72  C   UNL A   1      36.657  33.161  30.825  1.00  0.00     0.058 A 
ATOM     73  C   UNL A   1      35.324  32.914  31.186  1.00  0.00     0.135 A 
ATOM     74  C   UNL A   1      36.894  34.090  29.800  1.00  0.00     0.135 A 
ATOM     75  F   UNL A   1      35.044  32.029  32.155  1.00  0.00    -0.206 F 
ATOM     76  C   UNL A   1      34.265  33.552  30.546  1.00  0.00     0.059 A 
ATOM     77  C   UNL A   1      35.855  34.761  29.166  1.00  0.00     0.059 A 
ATOM     78  F   UNL A   1      38.151  34.378  29.430  1.00  0.00    -0.206 F 
ATOM     79  C   UNL A   1      34.542  34.478  29.539  1.00  0.00     0.060 A 
BRANCH  79  80
ATOM     80  S   UNL A   1      33.166  35.344  28.752  1.00  0.00     0.124 S 
ATOM     81  O   UNL A   1      33.868  36.315  27.920  1.00  0.00    -0.237 OA
ATOM     82  O   UNL A   1      32.489  34.263  28.043  1.00  0.00    -0.237 OA
ATOM     83  O   UNL A   1      32.429  35.899  29.885  1.00  0.00    -0.744 OA
ENDBRANCH  79  80
ENDBRANCH  47  72
BRANCH  59  84
ATOM     84  C   UNL A   1      39.884  34.185  36.930  1.00  0.00     0.058 A 
ATOM     85  C   UNL A   1      40.493  35.447  36.839  1.00  0.00     0.135 A 
ATOM     86  C   UNL A   1      39.083  33.926  38.055  1.00  0.00     0.135 A 
ATOM     87  F   UNL A   1      41.272  35.748  35.788  1.00  0.00    -0.206 F 
ATOM     88  C   UNL A   1      40.345  36.400  37.842  1.00  0.00     0.059 A 
ATOM     89  C   UNL A   1      38.895  34.876  39.054  1.00  0.00     0.059 A 
ATOM     90  F   UNL A   1      38.466  32.741  38.188  1.00  0.00    -0.206 F 
ATOM     91  C   UNL A   1      39.545  36.104  38.947  1.00  0.00     0.060 A 
BRANCH  91  92
ATOM     92  S   UNL A   1      39.355  37.353  40.236  1.00  0.00     0.124 S 
ATOM     93  O   UNL A   1      40.741  37.736  40.481  1.00  0.00    -0.237 OA
ATOM     94  O   UNL A   1      38.527  38.359  39.576  1.00  0.00    -0.237 OA
ATOM     95  O   UNL A   1      38.702  36.627  41.321  1.00  0.00    -0.744 OA
ENDBRANCH  91  92
ENDBRANCH  59  84
ENDBRANCH  33  34
ENDBRANCH  25  28
ENDBRANCH  23  24
ENDBRANCH  22  23
ENDBRANCH   1  22
TORSDOF 18
ENDMDL
