MODEL 1
REMARK VINA RESULT:     -11.2      0.000      0.000
REMARK SMILES O=C(C[C@H](c1ccsc1)n1cccc1)NCCCNC(=O)c1ccc(-c2c3nc(c(-c4c(F)cc(S(=O)(=O)[O-])cc4F)c4ccc([nH]4)c(-c4c(F)cc(S(=O)(=O)[O-])cc4F)c4nc(c(-c5c(F)cc(S(=O)(=O)[O-])cc5F)c5ccc2[nH]5)C=C4)C=C3)cc1
REMARK SMILES IDX 17 1 16 2 15 3 1 4 2 5 3 7 4 8 10 9 11 10 14 11 12 12 13 13
REMARK SMILES IDX 5 14 6 15 9 16 7 17 8 18 18 19 19 20 20 21 21 23 22 24 23 25
REMARK SMILES IDX 87 26 24 27 86 28 25 29 26 30 27 31 80 32 28 33 85 34 79 35
REMARK SMILES IDX 81 36 29 37 84 38 78 39 77 40 30 42 64 43 43 44 63 45 44 46
REMARK SMILES IDX 47 47 62 48 82 49 45 50 46 51 61 53 83 54 48 55 31 56 32 57
REMARK SMILES IDX 41 58 33 59 34 60 40 61 42 62 35 63 36 64 37 65 38 66 39 67
REMARK SMILES IDX 65 68 66 69 75 70 67 71 68 72 74 73 76 74 69 75 70 76 71 77
REMARK SMILES IDX 72 78 73 79 49 80 50 81 59 82 51 83 52 84 58 85 60 86 53 87
REMARK SMILES IDX 54 88 55 89 56 90 57 91
REMARK H PARENT 15 6 19 22 81 41 47 52
REMARK Flexibility Score: inf
ROOT
ATOM      1  C   UNL A   1      33.904  28.673  25.497  1.00  0.00     0.042 C 
ENDROOT
BRANCH   1   2
ATOM      2  C   UNL A   1      33.080  27.387  25.379  1.00  0.00     0.117 C 
BRANCH   2   3
ATOM      3  N   UNL A   1      33.774  26.207  25.856  1.00  0.00    -0.356 N 
ATOM      4  O   UNL A   1      31.903  24.923  26.266  1.00  0.00    -0.275 OA
ATOM      5  C   UNL A   1      33.119  25.032  26.156  1.00  0.00     0.222 C 
ATOM      6  H   UNL A   1      34.751  26.247  25.969  1.00  0.00     0.163 HD
BRANCH   5   7
ATOM      7  C   UNL A   1      34.058  23.854  26.271  1.00  0.00     0.130 C 
BRANCH   7   8
ATOM      8  C   UNL A   1      34.756  23.459  24.945  1.00  0.00     0.127 C 
BRANCH   8   9
ATOM      9  N   UNL A   1      36.079  22.812  25.075  1.00  0.00    -0.346 N 
ATOM     10  C   UNL A   1      36.608  21.790  24.322  1.00  0.00     0.086 A 
ATOM     11  C   UNL A   1      37.048  23.212  25.975  1.00  0.00     0.086 A 
ATOM     12  C   UNL A   1      37.839  21.450  24.837  1.00  0.00     0.019 A 
ATOM     13  C   UNL A   1      38.107  22.334  25.901  1.00  0.00     0.019 A 
ENDBRANCH   8   9
BRANCH   8  14
ATOM     14  C   UNL A   1      33.815  22.631  24.072  1.00  0.00    -0.014 A 
ATOM     15  C   UNL A   1      33.424  22.961  22.722  1.00  0.00     0.017 A 
ATOM     16  C   UNL A   1      33.189  21.462  24.473  1.00  0.00     0.070 A 
ATOM     17  C   UNL A   1      32.527  22.066  22.185  1.00  0.00     0.065 A 
ATOM     18  S   UNL A   1      32.158  20.808  23.276  1.00  0.00    -0.152 S 
ENDBRANCH   8  14
ENDBRANCH   7   8
ENDBRANCH   5   7
ENDBRANCH   2   3
ENDBRANCH   1   2
BRANCH   1  19
ATOM     19  C   UNL A   1      34.674  28.844  26.809  1.00  0.00     0.118 C 
BRANCH  19  20
ATOM     20  N   UNL A   1      34.962  30.221  27.162  1.00  0.00    -0.352 N 
ATOM     21  C   UNL A   1      36.028  30.704  27.899  1.00  0.00     0.251 C 
ATOM     22  H   UNL A   1      34.321  30.894  26.837  1.00  0.00     0.163 HD
ATOM     23  O   UNL A   1      36.006  31.850  28.315  1.00  0.00    -0.269 OA
BRANCH  21  24
ATOM     24  C   UNL A   1      37.182  29.821  28.220  1.00  0.00     0.039 A 
ATOM     25  C   UNL A   1      38.286  29.833  27.360  1.00  0.00     0.014 A 
ATOM     26  C   UNL A   1      37.169  28.958  29.323  1.00  0.00     0.014 A 
ATOM     27  C   UNL A   1      39.401  29.049  27.653  1.00  0.00     0.010 A 
ATOM     28  C   UNL A   1      38.295  28.200  29.638  1.00  0.00     0.010 A 
ATOM     29  C   UNL A   1      39.422  28.259  28.812  1.00  0.00    -0.014 A 
BRANCH  29  30
ATOM     30  C   UNL A   1      40.705  27.625  29.213  1.00  0.00     0.031 A 
ATOM     31  C   UNL A   1      41.000  26.367  28.361  1.00  0.00     0.074 A 
ATOM     32  C   UNL A   1      41.377  28.182  30.269  1.00  0.00     0.049 A 
ATOM     33  N   UNL A   1      41.540  25.232  28.690  1.00  0.00    -0.248 NA
ATOM     34  C   UNL A   1      40.518  26.331  26.951  1.00  0.00     0.031 C 
ATOM     35  C   UNL A   1      40.979  29.437  30.947  1.00  0.00     0.029 A 
ATOM     36  N   UNL A   1      42.503  27.836  30.993  1.00  0.00    -0.354 N 
ATOM     37  C   UNL A   1      41.635  24.437  27.519  1.00  0.00     0.074 A 
ATOM     38  C   UNL A   1      40.875  25.119  26.514  1.00  0.00     0.031 C 
ATOM     39  C   UNL A   1      41.778  29.692  32.005  1.00  0.00     0.029 A 
ATOM     40  C   UNL A   1      42.771  28.646  32.135  1.00  0.00     0.049 A 
ATOM     41  H   UNL A   1      43.081  27.082  30.736  1.00  0.00     0.167 HD
ATOM     42  C   UNL A   1      42.435  23.329  27.419  1.00  0.00     0.037 A 
ATOM     43  C   UNL A   1      43.679  28.450  33.148  1.00  0.00     0.037 A 
ATOM     44  C   UNL A   1      43.149  23.154  28.640  1.00  0.00     0.049 A 
ATOM     45  C   UNL A   1      44.426  27.243  32.761  1.00  0.00     0.074 A 
ATOM     46  C   UNL A   1      42.779  22.699  29.875  1.00  0.00     0.029 A 
ATOM     47  N   UNL A   1      44.362  23.791  28.736  1.00  0.00    -0.354 N 
ATOM     48  N   UNL A   1      45.317  27.183  31.819  1.00  0.00    -0.248 NA
ATOM     49  C   UNL A   1      44.067  25.971  33.402  1.00  0.00     0.031 C 
ATOM     50  C   UNL A   1      43.544  23.490  30.755  1.00  0.00     0.029 A 
ATOM     51  C   UNL A   1      44.479  24.236  30.027  1.00  0.00     0.049 A 
ATOM     52  H   UNL A   1      45.022  23.905  28.013  1.00  0.00     0.167 HD
ATOM     53  C   UNL A   1      45.375  25.836  31.552  1.00  0.00     0.074 A 
ATOM     54  C   UNL A   1      44.868  25.157  32.723  1.00  0.00     0.031 C 
ATOM     55  C   UNL A   1      45.308  25.397  30.271  1.00  0.00     0.037 A 
BRANCH  42  56
ATOM     56  C   UNL A   1      42.883  22.452  26.270  1.00  0.00     0.058 A 
ATOM     57  C   UNL A   1      42.551  21.071  26.325  1.00  0.00     0.135 A 
ATOM     58  C   UNL A   1      43.879  22.802  25.351  1.00  0.00     0.135 A 
ATOM     59  F   UNL A   1      41.547  20.634  27.107  1.00  0.00    -0.206 F 
ATOM     60  C   UNL A   1      43.273  20.092  25.650  1.00  0.00     0.059 A 
ATOM     61  C   UNL A   1      44.589  21.835  24.624  1.00  0.00     0.059 A 
ATOM     62  F   UNL A   1      44.246  24.080  25.186  1.00  0.00    -0.206 F 
ATOM     63  C   UNL A   1      44.323  20.482  24.833  1.00  0.00     0.060 A 
BRANCH  63  64
ATOM     64  S   UNL A   1      45.350  19.193  24.091  1.00  0.00     0.124 S 
ATOM     65  O   UNL A   1      46.668  19.819  24.107  1.00  0.00    -0.237 OA
ATOM     66  O   UNL A   1      45.170  18.078  25.017  1.00  0.00    -0.237 OA
ATOM     67  O   UNL A   1      44.751  19.004  22.774  1.00  0.00    -0.744 OA
ENDBRANCH  63  64
ENDBRANCH  42  56
BRANCH  43  68
ATOM     68  C   UNL A   1      43.965  29.009  34.537  1.00  0.00     0.058 A 
ATOM     69  C   UNL A   1      43.244  28.746  35.709  1.00  0.00     0.135 A 
ATOM     70  C   UNL A   1      45.126  29.812  34.751  1.00  0.00     0.135 A 
ATOM     71  F   UNL A   1      42.040  28.164  35.663  1.00  0.00    -0.206 F 
ATOM     72  C   UNL A   1      43.729  29.084  36.991  1.00  0.00     0.059 A 
ATOM     73  C   UNL A   1      45.650  30.117  36.005  1.00  0.00     0.059 A 
ATOM     74  F   UNL A   1      45.830  30.328  33.735  1.00  0.00    -0.206 F 
ATOM     75  C   UNL A   1      44.964  29.715  37.131  1.00  0.00     0.060 A 
BRANCH  75  76
ATOM     76  S   UNL A   1      45.740  29.908  38.750  1.00  0.00     0.124 S 
ATOM     77  O   UNL A   1      45.312  31.247  39.137  1.00  0.00    -0.237 OA
ATOM     78  O   UNL A   1      45.157  28.807  39.511  1.00  0.00    -0.237 OA
ATOM     79  O   UNL A   1      47.164  29.763  38.456  1.00  0.00    -0.744 OA
ENDBRANCH  75  76
ENDBRANCH  43  68
BRANCH  55  80
ATOM     80  C   UNL A   1      45.784  26.394  29.231  1.00  0.00     0.058 A 
ATOM     81  C   UNL A   1      47.147  26.718  29.140  1.00  0.00     0.135 A 
ATOM     82  C   UNL A   1      44.928  27.105  28.371  1.00  0.00     0.135 A 
ATOM     83  F   UNL A   1      48.035  26.090  29.928  1.00  0.00    -0.206 F 
ATOM     84  C   UNL A   1      47.631  27.678  28.244  1.00  0.00     0.059 A 
ATOM     85  C   UNL A   1      45.383  28.060  27.457  1.00  0.00     0.059 A 
ATOM     86  F   UNL A   1      43.613  26.899  28.405  1.00  0.00    -0.206 F 
ATOM     87  C   UNL A   1      46.741  28.341  27.400  1.00  0.00     0.060 A 
BRANCH  87  88
ATOM     88  S   UNL A   1      47.381  29.557  26.224  1.00  0.00     0.124 S 
ATOM     89  O   UNL A   1      48.617  28.929  25.768  1.00  0.00    -0.237 OA
ATOM     90  O   UNL A   1      46.306  29.624  25.240  1.00  0.00    -0.237 OA
ATOM     91  O   UNL A   1      47.561  30.761  27.032  1.00  0.00    -0.744 OA
ENDBRANCH  87  88
ENDBRANCH  55  80
ENDBRANCH  29  30
ENDBRANCH  21  24
ENDBRANCH  19  20
ENDBRANCH   1  19
TORSDOF 16
ENDMDL
MODEL 2
REMARK VINA RESULT:     -11.1      3.365      9.423
REMARK SMILES O=C(C[C@H](c1ccsc1)n1cccc1)NCCCNC(=O)c1ccc(-c2c3nc(c(-c4c(F)cc(S(=O)(=O)[O-])cc4F)c4ccc([nH]4)c(-c4c(F)cc(S(=O)(=O)[O-])cc4F)c4nc(c(-c5c(F)cc(S(=O)(=O)[O-])cc5F)c5ccc2[nH]5)C=C4)C=C3)cc1
REMARK SMILES IDX 17 1 16 2 15 3 1 4 2 5 3 7 4 8 10 9 11 10 14 11 12 12 13 13
REMARK SMILES IDX 5 14 6 15 9 16 7 17 8 18 18 19 19 20 20 21 21 23 22 24 23 25
REMARK SMILES IDX 87 26 24 27 86 28 25 29 26 30 27 31 80 32 28 33 85 34 79 35
REMARK SMILES IDX 81 36 29 37 84 38 78 39 77 40 30 42 64 43 43 44 63 45 44 46
REMARK SMILES IDX 47 47 62 48 82 49 45 50 46 51 61 53 83 54 48 55 31 56 32 57
REMARK SMILES IDX 41 58 33 59 34 60 40 61 42 62 35 63 36 64 37 65 38 66 39 67
REMARK SMILES IDX 65 68 66 69 75 70 67 71 68 72 74 73 76 74 69 75 70 76 71 77
REMARK SMILES IDX 72 78 73 79 49 80 50 81 59 82 51 83 52 84 58 85 60 86 53 87
REMARK SMILES IDX 54 88 55 89 56 90 57 91
REMARK H PARENT 15 6 19 22 81 41 47 52
REMARK Flexibility Score: inf
ROOT
ATOM      1  C   UNL A   1      32.427  28.018  26.154  1.00  0.00     0.042 C 
ENDROOT
BRANCH   1   2
ATOM      2  C   UNL A   1      31.655  26.736  26.478  1.00  0.00     0.117 C 
BRANCH   2   3
ATOM      3  N   UNL A   1      32.151  25.567  25.778  1.00  0.00    -0.356 N 
ATOM      4  O   UNL A   1      31.263  23.985  27.201  1.00  0.00    -0.275 OA
ATOM      5  C   UNL A   1      31.814  24.282  26.148  1.00  0.00     0.222 C 
ATOM      6  H   UNL A   1      32.750  25.696  25.009  1.00  0.00     0.163 HD
BRANCH   5   7
ATOM      7  C   UNL A   1      32.132  23.265  25.078  1.00  0.00     0.130 C 
BRANCH   7   8
ATOM      8  C   UNL A   1      33.083  22.130  25.534  1.00  0.00     0.127 C 
BRANCH   8   9
ATOM      9  N   UNL A   1      32.846  20.801  24.931  1.00  0.00    -0.346 N 
ATOM     10  C   UNL A   1      32.559  20.497  23.621  1.00  0.00     0.086 A 
ATOM     11  C   UNL A   1      32.954  19.610  25.622  1.00  0.00     0.086 A 
ATOM     12  C   UNL A   1      32.342  19.141  23.517  1.00  0.00     0.019 A 
ATOM     13  C   UNL A   1      32.568  18.582  24.791  1.00  0.00     0.019 A 
ENDBRANCH   8   9
BRANCH   8  14
ATOM     14  C   UNL A   1      34.541  22.560  25.377  1.00  0.00    -0.014 A 
ATOM     15  C   UNL A   1      35.010  23.613  24.508  1.00  0.00     0.017 A 
ATOM     16  C   UNL A   1      35.612  21.976  26.032  1.00  0.00     0.070 A 
ATOM     17  C   UNL A   1      36.378  23.759  24.524  1.00  0.00     0.065 A 
ATOM     18  S   UNL A   1      37.119  22.658  25.595  1.00  0.00    -0.152 S 
ENDBRANCH   8  14
ENDBRANCH   7   8
ENDBRANCH   5   7
ENDBRANCH   2   3
ENDBRANCH   1   2
BRANCH   1  19
ATOM     19  C   UNL A   1      33.303  28.564  27.285  1.00  0.00     0.118 C 
BRANCH  19  20
ATOM     20  N   UNL A   1      33.294  30.009  27.408  1.00  0.00    -0.352 N 
ATOM     21  C   UNL A   1      34.259  30.817  27.982  1.00  0.00     0.251 C 
ATOM     22  H   UNL A   1      32.507  30.470  27.040  1.00  0.00     0.163 HD
ATOM     23  O   UNL A   1      34.002  31.985  28.226  1.00  0.00    -0.269 OA
BRANCH  21  24
ATOM     24  C   UNL A   1      35.593  30.262  28.339  1.00  0.00     0.039 A 
ATOM     25  C   UNL A   1      36.572  30.198  27.341  1.00  0.00     0.014 A 
ATOM     26  C   UNL A   1      35.869  29.768  29.619  1.00  0.00     0.014 A 
ATOM     27  C   UNL A   1      37.846  29.721  27.651  1.00  0.00     0.010 A 
ATOM     28  C   UNL A   1      37.151  29.324  29.942  1.00  0.00     0.010 A 
ATOM     29  C   UNL A   1      38.147  29.317  28.961  1.00  0.00    -0.014 A 
BRANCH  29  30
ATOM     30  C   UNL A   1      39.566  29.040  29.307  1.00  0.00     0.031 A 
ATOM     31  C   UNL A   1      40.292  30.324  29.773  1.00  0.00     0.074 A 
ATOM     32  C   UNL A   1      40.020  27.762  29.112  1.00  0.00     0.049 A 
ATOM     33  N   UNL A   1      41.509  30.727  29.567  1.00  0.00    -0.248 NA
ATOM     34  C   UNL A   1      39.504  31.370  30.486  1.00  0.00     0.031 C 
ATOM     35  C   UNL A   1      39.167  26.621  28.707  1.00  0.00     0.029 A 
ATOM     36  N   UNL A   1      41.256  27.148  29.202  1.00  0.00    -0.354 N 
ATOM     37  C   UNL A   1      41.689  31.950  30.265  1.00  0.00     0.074 A 
ATOM     38  C   UNL A   1      40.385  32.352  30.702  1.00  0.00     0.031 C 
ATOM     39  C   UNL A   1      39.905  25.508  28.509  1.00  0.00     0.029 A 
ATOM     40  C   UNL A   1      41.303  25.794  28.758  1.00  0.00     0.049 A 
ATOM     41  H   UNL A   1      42.050  27.615  29.549  1.00  0.00     0.167 HD
ATOM     42  C   UNL A   1      42.917  32.490  30.543  1.00  0.00     0.037 A 
ATOM     43  C   UNL A   1      42.393  24.986  28.539  1.00  0.00     0.037 A 
ATOM     44  C   UNL A   1      43.934  31.618  30.057  1.00  0.00     0.049 A 
ATOM     45  C   UNL A   1      43.551  25.786  28.966  1.00  0.00     0.074 A 
ATOM     46  C   UNL A   1      44.405  31.348  28.801  1.00  0.00     0.029 A 
ATOM     47  N   UNL A   1      44.372  30.647  30.923  1.00  0.00    -0.354 N 
ATOM     48  N   UNL A   1      43.869  26.049  30.198  1.00  0.00    -0.248 NA
ATOM     49  C   UNL A   1      44.358  26.445  27.929  1.00  0.00     0.031 C 
ATOM     50  C   UNL A   1      44.709  29.974  28.857  1.00  0.00     0.029 A 
ATOM     51  C   UNL A   1      44.606  29.520  30.177  1.00  0.00     0.049 A 
ATOM     52  H   UNL A   1      44.496  30.742  31.896  1.00  0.00     0.167 HD
ATOM     53  C   UNL A   1      44.694  27.139  30.064  1.00  0.00     0.074 A 
ATOM     54  C   UNL A   1      45.196  27.119  28.709  1.00  0.00     0.031 C 
ATOM     55  C   UNL A   1      44.494  28.236  30.836  1.00  0.00     0.037 A 
BRANCH  42  56
ATOM     56  C   UNL A   1      43.396  33.622  31.424  1.00  0.00     0.058 A 
ATOM     57  C   UNL A   1      43.222  33.486  32.829  1.00  0.00     0.135 A 
ATOM     58  C   UNL A   1      43.666  34.918  30.968  1.00  0.00     0.135 A 
ATOM     59  F   UNL A   1      43.047  32.275  33.386  1.00  0.00    -0.206 F 
ATOM     60  C   UNL A   1      43.146  34.575  33.691  1.00  0.00     0.059 A 
ATOM     61  C   UNL A   1      43.642  36.027  31.828  1.00  0.00     0.059 A 
ATOM     62  F   UNL A   1      43.885  35.160  29.668  1.00  0.00    -0.206 F 
ATOM     63  C   UNL A   1      43.314  35.850  33.172  1.00  0.00     0.060 A 
BRANCH  63  64
ATOM     64  S   UNL A   1      43.053  37.259  34.273  1.00  0.00     0.124 S 
ATOM     65  O   UNL A   1      41.781  36.915  34.899  1.00  0.00    -0.237 OA
ATOM     66  O   UNL A   1      44.224  37.196  35.144  1.00  0.00    -0.237 OA
ATOM     67  O   UNL A   1      43.025  38.396  33.359  1.00  0.00    -0.744 OA
ENDBRANCH  63  64
ENDBRANCH  42  56
BRANCH  43  68
ATOM     68  C   UNL A   1      42.700  23.657  27.860  1.00  0.00     0.058 A 
ATOM     69  C   UNL A   1      43.190  22.497  28.474  1.00  0.00     0.135 A 
ATOM     70  C   UNL A   1      42.390  23.481  26.477  1.00  0.00     0.135 A 
ATOM     71  F   UNL A   1      43.695  22.532  29.712  1.00  0.00    -0.206 F 
ATOM     72  C   UNL A   1      43.191  21.240  27.831  1.00  0.00     0.059 A 
ATOM     73  C   UNL A   1      42.338  22.247  25.834  1.00  0.00     0.059 A 
ATOM     74  F   UNL A   1      42.097  24.516  25.678  1.00  0.00    -0.206 F 
ATOM     75  C   UNL A   1      42.705  21.116  26.531  1.00  0.00     0.060 A 
BRANCH  75  76
ATOM     76  S   UNL A   1      42.431  19.495  25.783  1.00  0.00     0.124 S 
ATOM     77  O   UNL A   1      42.762  18.592  26.879  1.00  0.00    -0.237 OA
ATOM     78  O   UNL A   1      41.021  19.555  25.410  1.00  0.00    -0.237 OA
ATOM     79  O   UNL A   1      43.363  19.486  24.658  1.00  0.00    -0.744 OA
ENDBRANCH  75  76
ENDBRANCH  43  68
BRANCH  55  80
ATOM     80  C   UNL A   1      43.809  27.965  32.163  1.00  0.00     0.058 A 
ATOM     81  C   UNL A   1      42.469  28.340  32.351  1.00  0.00     0.135 A 
ATOM     82  C   UNL A   1      44.455  27.420  33.287  1.00  0.00     0.135 A 
ATOM     83  F   UNL A   1      41.776  28.873  31.332  1.00  0.00    -0.206 F 
ATOM     84  C   UNL A   1      41.810  28.173  33.574  1.00  0.00     0.059 A 
ATOM     85  C   UNL A   1      43.820  27.229  34.517  1.00  0.00     0.059 A 
ATOM     86  F   UNL A   1      45.738  27.067  33.222  1.00  0.00    -0.206 F 
ATOM     87  C   UNL A   1      42.492  27.610  34.653  1.00  0.00     0.060 A 
BRANCH  87  88
ATOM     88  S   UNL A   1      41.621  27.370  36.219  1.00  0.00     0.124 S 
ATOM     89  O   UNL A   1      40.948  26.092  36.009  1.00  0.00    -0.237 OA
ATOM     90  O   UNL A   1      42.718  27.356  37.179  1.00  0.00    -0.237 OA
ATOM     91  O   UNL A   1      40.734  28.528  36.304  1.00  0.00    -0.744 OA
ENDBRANCH  87  88
ENDBRANCH  55  80
ENDBRANCH  29  30
ENDBRANCH  21  24
ENDBRANCH  19  20
ENDBRANCH   1  19
TORSDOF 16
ENDMDL
MODEL 3
REMARK VINA RESULT:     -10.9      3.287      9.299
REMARK SMILES O=C(C[C@H](c1ccsc1)n1cccc1)NCCCNC(=O)c1ccc(-c2c3nc(c(-c4c(F)cc(S(=O)(=O)[O-])cc4F)c4ccc([nH]4)c(-c4c(F)cc(S(=O)(=O)[O-])cc4F)c4nc(c(-c5c(F)cc(S(=O)(=O)[O-])cc5F)c5ccc2[nH]5)C=C4)C=C3)cc1
REMARK SMILES IDX 17 1 16 2 15 3 1 4 2 5 3 7 4 8 10 9 11 10 14 11 12 12 13 13
REMARK SMILES IDX 5 14 6 15 9 16 7 17 8 18 18 19 19 20 20 21 21 23 22 24 23 25
REMARK SMILES IDX 87 26 24 27 86 28 25 29 26 30 27 31 80 32 28 33 85 34 79 35
REMARK SMILES IDX 81 36 29 37 84 38 78 39 77 40 30 42 64 43 43 44 63 45 44 46
REMARK SMILES IDX 47 47 62 48 82 49 45 50 46 51 61 53 83 54 48 55 31 56 32 57
REMARK SMILES IDX 41 58 33 59 34 60 40 61 42 62 35 63 36 64 37 65 38 66 39 67
REMARK SMILES IDX 65 68 66 69 75 70 67 71 68 72 74 73 76 74 69 75 70 76 71 77
REMARK SMILES IDX 72 78 73 79 49 80 50 81 59 82 51 83 52 84 58 85 60 86 53 87
REMARK SMILES IDX 54 88 55 89 56 90 57 91
REMARK H PARENT 15 6 19 22 81 41 47 52
REMARK Flexibility Score: inf
ROOT
ATOM      1  C   UNL A   1      32.040  28.367  26.629  1.00  0.00     0.042 C 
ENDROOT
BRANCH   1   2
ATOM      2  C   UNL A   1      32.095  27.371  25.467  1.00  0.00     0.117 C 
BRANCH   2   3
ATOM      3  N   UNL A   1      33.015  26.272  25.687  1.00  0.00    -0.356 N 
ATOM      4  O   UNL A   1      33.790  26.113  23.521  1.00  0.00    -0.275 OA
ATOM      5  C   UNL A   1      33.867  25.811  24.706  1.00  0.00     0.222 C 
ATOM      6  H   UNL A   1      33.032  25.840  26.571  1.00  0.00     0.163 HD
BRANCH   5   7
ATOM      7  C   UNL A   1      34.969  24.935  25.255  1.00  0.00     0.130 C 
BRANCH   7   8
ATOM      8  C   UNL A   1      35.198  23.622  24.465  1.00  0.00     0.127 C 
BRANCH   8   9
ATOM      9  N   UNL A   1      36.369  22.815  24.870  1.00  0.00    -0.346 N 
ATOM     10  C   UNL A   1      37.364  23.143  25.762  1.00  0.00     0.086 A 
ATOM     11  C   UNL A   1      36.603  21.525  24.438  1.00  0.00     0.086 A 
ATOM     12  C   UNL A   1      38.294  22.128  25.780  1.00  0.00     0.019 A 
ATOM     13  C   UNL A   1      37.825  21.113  24.922  1.00  0.00     0.019 A 
ENDBRANCH   8   9
BRANCH   8  14
ATOM     14  C   UNL A   1      33.922  22.780  24.449  1.00  0.00    -0.014 A 
ATOM     15  C   UNL A   1      33.158  22.448  23.270  1.00  0.00     0.017 A 
ATOM     16  C   UNL A   1      33.313  22.247  25.572  1.00  0.00     0.070 A 
ATOM     17  C   UNL A   1      32.025  21.718  23.547  1.00  0.00     0.065 A 
ATOM     18  S   UNL A   1      31.870  21.400  25.215  1.00  0.00    -0.152 S 
ENDBRANCH   8  14
ENDBRANCH   7   8
ENDBRANCH   5   7
ENDBRANCH   2   3
ENDBRANCH   1   2
BRANCH   1  19
ATOM     19  C   UNL A   1      33.388  28.960  27.051  1.00  0.00     0.118 C 
BRANCH  19  20
ATOM     20  N   UNL A   1      33.341  30.367  27.401  1.00  0.00    -0.352 N 
ATOM     21  C   UNL A   1      34.260  31.088  28.142  1.00  0.00     0.251 C 
ATOM     22  H   UNL A   1      32.563  30.870  27.072  1.00  0.00     0.163 HD
ATOM     23  O   UNL A   1      33.968  32.198  28.555  1.00  0.00    -0.269 OA
BRANCH  21  24
ATOM     24  C   UNL A   1      35.588  30.502  28.472  1.00  0.00     0.039 A 
ATOM     25  C   UNL A   1      36.579  30.507  27.483  1.00  0.00     0.014 A 
ATOM     26  C   UNL A   1      35.849  29.913  29.715  1.00  0.00     0.014 A 
ATOM     27  C   UNL A   1      37.847  30.003  27.771  1.00  0.00     0.010 A 
ATOM     28  C   UNL A   1      37.125  29.441  30.018  1.00  0.00     0.010 A 
ATOM     29  C   UNL A   1      38.132  29.502  29.050  1.00  0.00    -0.014 A 
BRANCH  29  30
ATOM     30  C   UNL A   1      39.546  29.194  29.390  1.00  0.00     0.031 A 
ATOM     31  C   UNL A   1      40.293  30.455  29.885  1.00  0.00     0.074 A 
ATOM     32  C   UNL A   1      39.979  27.913  29.167  1.00  0.00     0.049 A 
ATOM     33  N   UNL A   1      41.517  30.843  29.689  1.00  0.00    -0.248 NA
ATOM     34  C   UNL A   1      39.522  31.497  30.621  1.00  0.00     0.031 C 
ATOM     35  C   UNL A   1      39.108  26.796  28.736  1.00  0.00     0.029 A 
ATOM     36  N   UNL A   1      41.205  27.277  29.243  1.00  0.00    -0.354 N 
ATOM     37  C   UNL A   1      41.716  32.047  30.414  1.00  0.00     0.074 A 
ATOM     38  C   UNL A   1      40.419  32.460  30.859  1.00  0.00     0.031 C 
ATOM     39  C   UNL A   1      39.828  25.676  28.514  1.00  0.00     0.029 A 
ATOM     40  C   UNL A   1      41.230  25.933  28.769  1.00  0.00     0.049 A 
ATOM     41  H   UNL A   1      42.006  27.723  29.601  1.00  0.00     0.167 HD
ATOM     42  C   UNL A   1      42.953  32.559  30.704  1.00  0.00     0.037 A 
ATOM     43  C   UNL A   1      42.306  25.112  28.533  1.00  0.00     0.037 A 
ATOM     44  C   UNL A   1      43.955  31.682  30.199  1.00  0.00     0.049 A 
ATOM     45  C   UNL A   1      43.477  25.883  28.978  1.00  0.00     0.074 A 
ATOM     46  C   UNL A   1      44.422  31.433  28.938  1.00  0.00     0.029 A 
ATOM     47  N   UNL A   1      44.377  30.685  31.044  1.00  0.00    -0.354 N 
ATOM     48  N   UNL A   1      43.798  26.113  30.215  1.00  0.00    -0.248 NA
ATOM     49  C   UNL A   1      44.296  26.552  27.956  1.00  0.00     0.031 C 
ATOM     50  C   UNL A   1      44.705  30.053  28.963  1.00  0.00     0.029 A 
ATOM     51  C   UNL A   1      44.592  29.571  30.273  1.00  0.00     0.049 A 
ATOM     52  H   UNL A   1      44.501  30.756  32.019  1.00  0.00     0.167 HD
ATOM     53  C   UNL A   1      44.641  27.192  30.106  1.00  0.00     0.074 A 
ATOM     54  C   UNL A   1      45.144  27.195  28.751  1.00  0.00     0.031 C 
ATOM     55  C   UNL A   1      44.459  28.275  30.902  1.00  0.00     0.037 A 
BRANCH  42  56
ATOM     56  C   UNL A   1      43.450  33.664  31.611  1.00  0.00     0.058 A 
ATOM     57  C   UNL A   1      43.262  33.505  33.011  1.00  0.00     0.135 A 
ATOM     58  C   UNL A   1      43.752  34.962  31.182  1.00  0.00     0.135 A 
ATOM     59  F   UNL A   1      43.056  32.287  33.544  1.00  0.00    -0.206 F 
ATOM     60  C   UNL A   1      43.203  34.578  33.894  1.00  0.00     0.059 A 
ATOM     61  C   UNL A   1      43.745  36.054  32.063  1.00  0.00     0.059 A 
ATOM     62  F   UNL A   1      43.986  35.223  29.889  1.00  0.00    -0.206 F 
ATOM     63  C   UNL A   1      43.403  35.859  33.401  1.00  0.00     0.060 A 
BRANCH  63  64
ATOM     64  S   UNL A   1      43.165  37.252  34.527  1.00  0.00     0.124 S 
ATOM     65  O   UNL A   1      41.859  36.948  35.102  1.00  0.00    -0.237 OA
ATOM     66  O   UNL A   1      44.301  37.118  35.435  1.00  0.00    -0.237 OA
ATOM     67  O   UNL A   1      43.216  38.410  33.641  1.00  0.00    -0.744 OA
ENDBRANCH  63  64
ENDBRANCH  42  56
BRANCH  43  68
ATOM     68  C   UNL A   1      42.592  23.794  27.824  1.00  0.00     0.058 A 
ATOM     69  C   UNL A   1      43.304  22.703  28.340  1.00  0.00     0.135 A 
ATOM     70  C   UNL A   1      42.024  23.545  26.538  1.00  0.00     0.135 A 
ATOM     71  F   UNL A   1      44.047  22.825  29.446  1.00  0.00    -0.206 F 
ATOM     72  C   UNL A   1      43.292  21.431  27.729  1.00  0.00     0.059 A 
ATOM     73  C   UNL A   1      41.958  22.290  25.937  1.00  0.00     0.059 A 
ATOM     74  F   UNL A   1      41.477  24.521  25.801  1.00  0.00    -0.206 F 
ATOM     75  C   UNL A   1      42.565  21.220  26.560  1.00  0.00     0.060 A 
BRANCH  75  76
ATOM     76  S   UNL A   1      42.298  19.557  25.908  1.00  0.00     0.124 S 
ATOM     77  O   UNL A   1      43.330  19.460  24.884  1.00  0.00    -0.237 OA
ATOM     78  O   UNL A   1      42.492  18.722  27.090  1.00  0.00    -0.237 OA
ATOM     79  O   UNL A   1      40.924  19.609  25.414  1.00  0.00    -0.744 OA
ENDBRANCH  75  76
ENDBRANCH  43  68
BRANCH  55  80
ATOM     80  C   UNL A   1      43.768  27.985  32.223  1.00  0.00     0.058 A 
ATOM     81  C   UNL A   1      44.443  27.271  33.226  1.00  0.00     0.135 A 
ATOM     82  C   UNL A   1      42.431  28.319  32.502  1.00  0.00     0.135 A 
ATOM     83  F   UNL A   1      45.722  26.907  33.041  1.00  0.00    -0.206 F 
ATOM     84  C   UNL A   1      43.831  26.921  34.435  1.00  0.00     0.059 A 
ATOM     85  C   UNL A   1      41.797  27.994  33.705  1.00  0.00     0.059 A 
ATOM     86  F   UNL A   1      41.694  28.964  31.600  1.00  0.00    -0.206 F 
ATOM     87  C   UNL A   1      42.507  27.292  34.669  1.00  0.00     0.060 A 
BRANCH  87  88
ATOM     88  S   UNL A   1      41.737  26.862  36.248  1.00  0.00     0.124 S 
ATOM     89  O   UNL A   1      41.158  28.133  36.670  1.00  0.00    -0.237 OA
ATOM     90  O   UNL A   1      40.783  25.833  35.851  1.00  0.00    -0.237 OA
ATOM     91  O   UNL A   1      42.856  26.392  37.063  1.00  0.00    -0.744 OA
ENDBRANCH  87  88
ENDBRANCH  55  80
ENDBRANCH  29  30
ENDBRANCH  21  24
ENDBRANCH  19  20
ENDBRANCH   1  19
TORSDOF 16
ENDMDL
