MODEL 1
REMARK VINA RESULT:     -11.2      0.000      0.000
REMARK SMILES CC(C)[C@H]1CC[C@@H](C)C/C1=C(\F)C(=O)NCCCNC(=O)c1ccc(-c2c3nc(c(-c4c(F)cc(S(=O)(=O)[O-])cc4F)c4ccc([nH]4)c(-c4c(F)cc(S(=O)(=O)[O-])cc4F)c4nc(c(-c5c(F)cc(S(=O)(=O)[O-])cc5F)c5ccc2[nH]5)C=C4)C=C3)cc1
REMARK SMILES IDX 18 1 17 2 16 3 15 4 13 5 14 6 11 8 4 9 5 10 10 11 6 12 9 13
REMARK SMILES IDX 7 14 12 15 8 16 2 17 1 18 3 19 19 20 20 21 21 23 22 24 23 25
REMARK SMILES IDX 87 26 24 27 86 28 25 29 26 30 27 31 80 32 28 33 85 34 79 35
REMARK SMILES IDX 81 36 29 37 84 38 78 39 77 40 30 42 64 43 43 44 63 45 44 46
REMARK SMILES IDX 47 47 62 48 82 49 45 50 46 51 61 53 83 54 48 55 31 56 32 57
REMARK SMILES IDX 41 58 33 59 34 60 40 61 42 62 35 63 36 64 37 65 38 66 39 67
REMARK SMILES IDX 65 68 66 69 75 70 67 71 68 72 74 73 76 74 69 75 70 76 71 77
REMARK SMILES IDX 72 78 73 79 49 80 50 81 59 82 51 83 52 84 58 85 60 86 53 87
REMARK SMILES IDX 54 88 55 89 56 90 57 91
REMARK H PARENT 15 7 19 22 81 41 47 52
REMARK Flexibility Score: inf
ROOT
ATOM      1  C   UNL A   1      33.675  28.092  27.251  1.00  0.00     0.118 C 
ENDROOT
BRANCH   1   2
ATOM      2  C   UNL A   1      33.693  27.692  25.776  1.00  0.00     0.042 C 
BRANCH   2   3
ATOM      3  C   UNL A   1      33.900  26.192  25.568  1.00  0.00     0.118 C 
BRANCH   3   4
ATOM      4  N   UNL A   1      32.795  25.469  26.168  1.00  0.00    -0.350 N 
ATOM      5  C   UNL A   1      32.623  24.120  26.256  1.00  0.00     0.279 C 
ATOM      6  O   UNL A   1      31.483  23.663  26.245  1.00  0.00    -0.267 OA
ATOM      7  H   UNL A   1      32.082  26.021  26.561  1.00  0.00     0.163 HD
BRANCH   5   8
ATOM      8  C   UNL A   1      33.821  23.264  26.418  1.00  0.00     0.187 C 
ATOM      9  C   UNL A   1      34.171  22.469  23.940  1.00  0.00     0.021 C 
ATOM     10  C   UNL A   1      35.279  23.302  23.246  1.00  0.00     0.009 C 
ATOM     11  C   UNL A   1      34.468  22.590  25.446  1.00  0.00    -0.025 C 
ATOM     12  C   UNL A   1      36.692  22.814  23.608  1.00  0.00     0.004 C 
ATOM     13  C   UNL A   1      35.788  21.922  25.793  1.00  0.00     0.038 C 
ATOM     14  C   UNL A   1      36.944  22.679  25.120  1.00  0.00    -0.010 C 
ATOM     15  F   UNL A   1      34.325  23.254  27.674  1.00  0.00    -0.201 F 
ATOM     16  C   UNL A   1      37.183  24.044  25.775  1.00  0.00     0.008 C 
BRANCH   9  17
ATOM     17  C   UNL A   1      32.750  22.783  23.374  1.00  0.00    -0.010 C 
ATOM     18  C   UNL A   1      32.730  24.017  22.454  1.00  0.00     0.008 C 
ATOM     19  C   UNL A   1      32.150  21.619  22.571  1.00  0.00     0.008 C 
ENDBRANCH   9  17
ENDBRANCH   5   8
ENDBRANCH   3   4
ENDBRANCH   2   3
ENDBRANCH   1   2
BRANCH   1  20
ATOM     20  N   UNL A   1      33.585  29.535  27.429  1.00  0.00    -0.352 N 
ATOM     21  C   UNL A   1      34.517  30.398  27.948  1.00  0.00     0.251 C 
ATOM     22  H   UNL A   1      32.741  29.948  27.137  1.00  0.00     0.163 HD
ATOM     23  O   UNL A   1      34.194  31.554  28.224  1.00  0.00    -0.269 OA
BRANCH  21  24
ATOM     24  C   UNL A   1      35.895  29.929  28.192  1.00  0.00     0.039 A 
ATOM     25  C   UNL A   1      36.826  29.986  27.153  1.00  0.00     0.014 A 
ATOM     26  C   UNL A   1      36.268  29.441  29.448  1.00  0.00     0.014 A 
ATOM     27  C   UNL A   1      38.149  29.609  27.391  1.00  0.00     0.010 A 
ATOM     28  C   UNL A   1      37.603  29.142  29.704  1.00  0.00     0.010 A 
ATOM     29  C   UNL A   1      38.556  29.219  28.677  1.00  0.00    -0.014 A 
BRANCH  29  30
ATOM     30  C   UNL A   1      39.976  28.892  28.969  1.00  0.00     0.031 A 
ATOM     31  C   UNL A   1      40.880  29.925  29.586  1.00  0.00     0.074 A 
ATOM     32  C   UNL A   1      40.465  27.686  28.620  1.00  0.00     0.049 A 
ATOM     33  N   UNL A   1      42.154  29.842  29.871  1.00  0.00    -0.248 NA
ATOM     34  C   UNL A   1      40.280  31.231  29.899  1.00  0.00     0.031 C 
ATOM     35  C   UNL A   1      39.700  26.618  27.974  1.00  0.00     0.029 A 
ATOM     36  N   UNL A   1      41.725  27.156  28.753  1.00  0.00    -0.354 N 
ATOM     37  C   UNL A   1      42.511  31.087  30.377  1.00  0.00     0.074 A 
ATOM     38  C   UNL A   1      41.332  31.922  30.312  1.00  0.00     0.031 C 
ATOM     39  C   UNL A   1      40.495  25.550  27.798  1.00  0.00     0.029 A 
ATOM     40  C   UNL A   1      41.836  25.871  28.275  1.00  0.00     0.049 A 
ATOM     41  H   UNL A   1      42.478  27.649  29.152  1.00  0.00     0.167 HD
ATOM     42  C   UNL A   1      43.708  31.490  30.870  1.00  0.00     0.037 A 
ATOM     43  C   UNL A   1      42.901  25.046  28.223  1.00  0.00     0.037 A 
ATOM     44  C   UNL A   1      44.870  30.644  30.948  1.00  0.00     0.049 A 
ATOM     45  C   UNL A   1      44.222  25.520  28.765  1.00  0.00     0.074 A 
ATOM     46  C   UNL A   1      46.108  30.933  31.494  1.00  0.00     0.029 A 
ATOM     47  N   UNL A   1      44.945  29.349  30.455  1.00  0.00    -0.354 N 
ATOM     48  N   UNL A   1      44.523  26.673  29.312  1.00  0.00    -0.248 NA
ATOM     49  C   UNL A   1      45.348  24.579  28.685  1.00  0.00     0.031 C 
ATOM     50  C   UNL A   1      46.949  29.836  31.278  1.00  0.00     0.029 A 
ATOM     51  C   UNL A   1      46.217  28.837  30.653  1.00  0.00     0.049 A 
ATOM     52  H   UNL A   1      44.203  28.864  30.026  1.00  0.00     0.167 HD
ATOM     53  C   UNL A   1      45.864  26.587  29.670  1.00  0.00     0.074 A 
ATOM     54  C   UNL A   1      46.312  25.263  29.286  1.00  0.00     0.031 C 
ATOM     55  C   UNL A   1      46.650  27.516  30.267  1.00  0.00     0.037 A 
BRANCH  42  56
ATOM     56  C   UNL A   1      43.821  32.913  31.350  1.00  0.00     0.058 A 
ATOM     57  C   UNL A   1      43.523  33.277  32.674  1.00  0.00     0.135 A 
ATOM     58  C   UNL A   1      44.252  33.927  30.478  1.00  0.00     0.135 A 
ATOM     59  F   UNL A   1      43.095  32.355  33.550  1.00  0.00    -0.206 F 
ATOM     60  C   UNL A   1      43.608  34.599  33.103  1.00  0.00     0.059 A 
ATOM     61  C   UNL A   1      44.376  35.249  30.894  1.00  0.00     0.059 A 
ATOM     62  F   UNL A   1      44.552  33.637  29.202  1.00  0.00    -0.206 F 
ATOM     63  C   UNL A   1      44.033  35.578  32.204  1.00  0.00     0.060 A 
BRANCH  63  64
ATOM     64  S   UNL A   1      44.124  37.289  32.773  1.00  0.00     0.124 S 
ATOM     65  O   UNL A   1      43.007  37.343  33.711  1.00  0.00    -0.237 OA
ATOM     66  O   UNL A   1      45.455  37.349  33.370  1.00  0.00    -0.237 OA
ATOM     67  O   UNL A   1      43.953  38.065  31.549  1.00  0.00    -0.744 OA
ENDBRANCH  63  64
ENDBRANCH  42  56
BRANCH  43  68
ATOM     68  C   UNL A   1      42.747  23.674  27.669  1.00  0.00     0.058 A 
ATOM     69  C   UNL A   1      42.462  22.588  28.510  1.00  0.00     0.135 A 
ATOM     70  C   UNL A   1      42.853  23.423  26.292  1.00  0.00     0.135 A 
ATOM     71  F   UNL A   1      42.358  22.775  29.834  1.00  0.00    -0.206 F 
ATOM     72  C   UNL A   1      42.295  21.301  28.009  1.00  0.00     0.059 A 
ATOM     73  C   UNL A   1      42.664  22.149  25.764  1.00  0.00     0.059 A 
ATOM     74  F   UNL A   1      43.110  24.430  25.442  1.00  0.00    -0.206 F 
ATOM     75  C   UNL A   1      42.392  21.093  26.632  1.00  0.00     0.060 A 
BRANCH  75  76
ATOM     76  S   UNL A   1      42.110  19.430  25.988  1.00  0.00     0.124 S 
ATOM     77  O   UNL A   1      42.927  19.439  24.780  1.00  0.00    -0.237 OA
ATOM     78  O   UNL A   1      42.595  18.594  27.081  1.00  0.00    -0.237 OA
ATOM     79  O   UNL A   1      40.666  19.392  25.774  1.00  0.00    -0.744 OA
ENDBRANCH  75  76
ENDBRANCH  43  68
BRANCH  55  80
ATOM     80  C   UNL A   1      48.071  27.128  30.579  1.00  0.00     0.058 A 
ATOM     81  C   UNL A   1      49.129  27.420  29.704  1.00  0.00     0.135 A 
ATOM     82  C   UNL A   1      48.384  26.501  31.796  1.00  0.00     0.135 A 
ATOM     83  F   UNL A   1      48.886  28.012  28.523  1.00  0.00    -0.206 F 
ATOM     84  C   UNL A   1      50.443  27.082  30.013  1.00  0.00     0.059 A 
ATOM     85  C   UNL A   1      49.694  26.182  32.141  1.00  0.00     0.059 A 
ATOM     86  F   UNL A   1      47.412  26.206  32.675  1.00  0.00    -0.206 F 
ATOM     87  C   UNL A   1      50.716  26.467  31.237  1.00  0.00     0.060 A 
BRANCH  87  88
ATOM     88  S   UNL A   1      52.429  26.068  31.641  1.00  0.00     0.124 S 
ATOM     89  O   UNL A   1      52.298  24.715  32.174  1.00  0.00    -0.237 OA
ATOM     90  O   UNL A   1      53.089  26.176  30.343  1.00  0.00    -0.237 OA
ATOM     91  O   UNL A   1      52.797  27.092  32.613  1.00  0.00    -0.744 OA
ENDBRANCH  87  88
ENDBRANCH  55  80
ENDBRANCH  29  30
ENDBRANCH  21  24
ENDBRANCH   1  20
TORSDOF 14
ENDMDL
MODEL 2
REMARK VINA RESULT:     -11.1      1.027      1.972
REMARK SMILES CC(C)[C@H]1CC[C@@H](C)C/C1=C(\F)C(=O)NCCCNC(=O)c1ccc(-c2c3nc(c(-c4c(F)cc(S(=O)(=O)[O-])cc4F)c4ccc([nH]4)c(-c4c(F)cc(S(=O)(=O)[O-])cc4F)c4nc(c(-c5c(F)cc(S(=O)(=O)[O-])cc5F)c5ccc2[nH]5)C=C4)C=C3)cc1
REMARK SMILES IDX 18 1 17 2 16 3 15 4 13 5 14 6 11 8 4 9 5 10 10 11 6 12 9 13
REMARK SMILES IDX 7 14 12 15 8 16 2 17 1 18 3 19 19 20 20 21 21 23 22 24 23 25
REMARK SMILES IDX 87 26 24 27 86 28 25 29 26 30 27 31 80 32 28 33 85 34 79 35
REMARK SMILES IDX 81 36 29 37 84 38 78 39 77 40 30 42 64 43 43 44 63 45 44 46
REMARK SMILES IDX 47 47 62 48 82 49 45 50 46 51 61 53 83 54 48 55 31 56 32 57
REMARK SMILES IDX 41 58 33 59 34 60 40 61 42 62 35 63 36 64 37 65 38 66 39 67
REMARK SMILES IDX 65 68 66 69 75 70 67 71 68 72 74 73 76 74 69 75 70 76 71 77
REMARK SMILES IDX 72 78 73 79 49 80 50 81 59 82 51 83 52 84 58 85 60 86 53 87
REMARK SMILES IDX 54 88 55 89 56 90 57 91
REMARK H PARENT 15 7 19 22 81 41 47 52
REMARK Flexibility Score: inf
ROOT
ATOM      1  C   UNL A   1      33.638  28.333  27.139  1.00  0.00     0.118 C 
ENDROOT
BRANCH   1   2
ATOM      2  C   UNL A   1      33.754  28.113  25.631  1.00  0.00     0.042 C 
BRANCH   2   3
ATOM      3  C   UNL A   1      33.332  26.709  25.199  1.00  0.00     0.118 C 
BRANCH   3   4
ATOM      4  N   UNL A   1      33.451  26.595  23.758  1.00  0.00    -0.350 N 
ATOM      5  C   UNL A   1      33.461  25.461  23.002  1.00  0.00     0.279 C 
ATOM      6  O   UNL A   1      34.107  25.447  21.958  1.00  0.00    -0.267 OA
ATOM      7  H   UNL A   1      33.533  27.443  23.264  1.00  0.00     0.163 HD
BRANCH   5   8
ATOM      8  C   UNL A   1      32.644  24.308  23.448  1.00  0.00     0.187 C 
ATOM      9  C   UNL A   1      34.354  23.103  25.034  1.00  0.00     0.021 C 
ATOM     10  C   UNL A   1      34.064  23.446  26.518  1.00  0.00     0.009 C 
ATOM     11  C   UNL A   1      33.019  23.337  24.305  1.00  0.00    -0.025 C 
ATOM     12  C   UNL A   1      32.919  22.602  27.102  1.00  0.00     0.004 C 
ATOM     13  C   UNL A   1      31.963  22.350  24.776  1.00  0.00     0.038 C 
ATOM     14  C   UNL A   1      31.635  22.610  26.255  1.00  0.00    -0.010 C 
ATOM     15  F   UNL A   1      31.374  24.321  22.980  1.00  0.00    -0.201 F 
ATOM     16  C   UNL A   1      30.847  23.913  26.438  1.00  0.00     0.008 C 
BRANCH   9  17
ATOM     17  C   UNL A   1      35.676  23.758  24.521  1.00  0.00    -0.010 C 
ATOM     18  C   UNL A   1      36.726  23.940  25.632  1.00  0.00     0.008 C 
ATOM     19  C   UNL A   1      36.350  22.956  23.398  1.00  0.00     0.008 C 
ENDBRANCH   9  17
ENDBRANCH   5   8
ENDBRANCH   3   4
ENDBRANCH   2   3
ENDBRANCH   1   2
BRANCH   1  20
ATOM     20  N   UNL A   1      33.522  29.743  27.482  1.00  0.00    -0.352 N 
ATOM     21  C   UNL A   1      34.425  30.548  28.130  1.00  0.00     0.251 C 
ATOM     22  H   UNL A   1      32.682  30.179  27.213  1.00  0.00     0.163 HD
ATOM     23  O   UNL A   1      34.077  31.660  28.529  1.00  0.00    -0.269 OA
BRANCH  21  24
ATOM     24  C   UNL A   1      35.800  30.068  28.362  1.00  0.00     0.039 A 
ATOM     25  C   UNL A   1      36.716  30.097  27.309  1.00  0.00     0.014 A 
ATOM     26  C   UNL A   1      36.187  29.598  29.621  1.00  0.00     0.014 A 
ATOM     27  C   UNL A   1      38.039  29.709  27.534  1.00  0.00     0.010 A 
ATOM     28  C   UNL A   1      37.523  29.289  29.862  1.00  0.00     0.010 A 
ATOM     29  C   UNL A   1      38.461  29.336  28.821  1.00  0.00    -0.014 A 
BRANCH  29  30
ATOM     30  C   UNL A   1      39.881  28.999  29.097  1.00  0.00     0.031 A 
ATOM     31  C   UNL A   1      40.798  30.023  29.709  1.00  0.00     0.074 A 
ATOM     32  C   UNL A   1      40.359  27.791  28.739  1.00  0.00     0.049 A 
ATOM     33  N   UNL A   1      42.075  29.931  29.981  1.00  0.00    -0.248 NA
ATOM     34  C   UNL A   1      40.210  31.332  30.032  1.00  0.00     0.031 C 
ATOM     35  C   UNL A   1      39.580  26.730  28.097  1.00  0.00     0.029 A 
ATOM     36  N   UNL A   1      41.616  27.252  28.858  1.00  0.00    -0.354 N 
ATOM     37  C   UNL A   1      42.445  31.172  30.488  1.00  0.00     0.074 A 
ATOM     38  C   UNL A   1      41.272  32.015  30.438  1.00  0.00     0.031 C 
ATOM     39  C   UNL A   1      40.365  25.658  27.910  1.00  0.00     0.029 A 
ATOM     40  C   UNL A   1      41.713  25.968  28.375  1.00  0.00     0.049 A 
ATOM     41  H   UNL A   1      42.376  27.738  29.251  1.00  0.00     0.167 HD
ATOM     42  C   UNL A   1      43.649  31.564  30.970  1.00  0.00     0.037 A 
ATOM     43  C   UNL A   1      42.772  25.136  28.310  1.00  0.00     0.037 A 
ATOM     44  C   UNL A   1      44.807  30.710  31.034  1.00  0.00     0.049 A 
ATOM     45  C   UNL A   1      44.101  25.598  28.840  1.00  0.00     0.074 A 
ATOM     46  C   UNL A   1      46.052  30.989  31.569  1.00  0.00     0.029 A 
ATOM     47  N   UNL A   1      44.868  29.416  30.536  1.00  0.00    -0.354 N 
ATOM     48  N   UNL A   1      44.416  26.748  29.387  1.00  0.00    -0.248 NA
ATOM     49  C   UNL A   1      45.220  24.650  28.746  1.00  0.00     0.031 C 
ATOM     50  C   UNL A   1      46.883  29.886  31.341  1.00  0.00     0.029 A 
ATOM     51  C   UNL A   1      46.138  28.895  30.720  1.00  0.00     0.049 A 
ATOM     52  H   UNL A   1      44.118  28.938  30.112  1.00  0.00     0.167 HD
ATOM     53  C   UNL A   1      45.760  26.650  29.732  1.00  0.00     0.074 A 
ATOM     54  C   UNL A   1      46.195  25.325  29.340  1.00  0.00     0.031 C 
ATOM     55  C   UNL A   1      46.558  27.572  30.325  1.00  0.00     0.037 A 
BRANCH  42  56
ATOM     56  C   UNL A   1      43.777  32.985  31.454  1.00  0.00     0.058 A 
ATOM     57  C   UNL A   1      43.523  33.342  32.789  1.00  0.00     0.135 A 
ATOM     58  C   UNL A   1      44.179  34.004  30.574  1.00  0.00     0.135 A 
ATOM     59  F   UNL A   1      43.123  32.414  33.674  1.00  0.00    -0.206 F 
ATOM     60  C   UNL A   1      43.620  34.661  33.222  1.00  0.00     0.059 A 
ATOM     61  C   UNL A   1      44.315  35.324  30.993  1.00  0.00     0.059 A 
ATOM     62  F   UNL A   1      44.438  33.721  29.287  1.00  0.00    -0.206 F 
ATOM     63  C   UNL A   1      44.015  35.645  32.315  1.00  0.00     0.060 A 
BRANCH  63  64
ATOM     64  S   UNL A   1      44.124  37.353  32.890  1.00  0.00     0.124 S 
ATOM     65  O   UNL A   1      45.463  37.381  33.469  1.00  0.00    -0.237 OA
ATOM     66  O   UNL A   1      43.952  38.110  31.654  1.00  0.00    -0.237 OA
ATOM     67  O   UNL A   1      43.026  37.461  33.846  1.00  0.00    -0.744 OA
ENDBRANCH  63  64
ENDBRANCH  42  56
BRANCH  43  68
ATOM     68  C   UNL A   1      42.603  23.767  27.752  1.00  0.00     0.058 A 
ATOM     69  C   UNL A   1      42.471  22.657  28.600  1.00  0.00     0.135 A 
ATOM     70  C   UNL A   1      42.541  23.541  26.368  1.00  0.00     0.135 A 
ATOM     71  F   UNL A   1      42.531  22.820  29.931  1.00  0.00    -0.206 F 
ATOM     72  C   UNL A   1      42.293  21.372  28.099  1.00  0.00     0.059 A 
ATOM     73  C   UNL A   1      42.338  22.268  25.843  1.00  0.00     0.059 A 
ATOM     74  F   UNL A   1      42.648  24.570  25.513  1.00  0.00    -0.206 F 
ATOM     75  C   UNL A   1      42.221  21.188  26.717  1.00  0.00     0.060 A 
BRANCH  75  76
ATOM     76  S   UNL A   1      41.925  19.525  26.082  1.00  0.00     0.124 S 
ATOM     77  O   UNL A   1      40.487  19.553  25.839  1.00  0.00    -0.237 OA
ATOM     78  O   UNL A   1      42.773  19.497  24.895  1.00  0.00    -0.237 OA
ATOM     79  O   UNL A   1      42.364  18.663  27.176  1.00  0.00    -0.744 OA
ENDBRANCH  75  76
ENDBRANCH  43  68
BRANCH  55  80
ATOM     80  C   UNL A   1      47.980  27.173  30.621  1.00  0.00     0.058 A 
ATOM     81  C   UNL A   1      49.004  27.318  29.673  1.00  0.00     0.135 A 
ATOM     82  C   UNL A   1      48.329  26.688  31.892  1.00  0.00     0.135 A 
ATOM     83  F   UNL A   1      48.724  27.771  28.440  1.00  0.00    -0.206 F 
ATOM     84  C   UNL A   1      50.320  26.972  29.965  1.00  0.00     0.059 A 
ATOM     85  C   UNL A   1      49.643  26.366  32.217  1.00  0.00     0.059 A 
ATOM     86  F   UNL A   1      47.391  26.538  32.841  1.00  0.00    -0.206 F 
ATOM     87  C   UNL A   1      50.630  26.501  31.242  1.00  0.00     0.060 A 
BRANCH  87  88
ATOM     88  S   UNL A   1      52.347  26.092  31.620  1.00  0.00     0.124 S 
ATOM     89  O   UNL A   1      52.991  26.308  30.329  1.00  0.00    -0.237 OA
ATOM     90  O   UNL A   1      52.676  27.059  32.662  1.00  0.00    -0.237 OA
ATOM     91  O   UNL A   1      52.277  24.703  32.062  1.00  0.00    -0.744 OA
ENDBRANCH  87  88
ENDBRANCH  55  80
ENDBRANCH  29  30
ENDBRANCH  21  24
ENDBRANCH   1  20
TORSDOF 14
ENDMDL
MODEL 3
REMARK VINA RESULT:     -10.9      3.073      9.428
REMARK SMILES CC(C)[C@H]1CC[C@@H](C)C/C1=C(\F)C(=O)NCCCNC(=O)c1ccc(-c2c3nc(c(-c4c(F)cc(S(=O)(=O)[O-])cc4F)c4ccc([nH]4)c(-c4c(F)cc(S(=O)(=O)[O-])cc4F)c4nc(c(-c5c(F)cc(S(=O)(=O)[O-])cc5F)c5ccc2[nH]5)C=C4)C=C3)cc1
REMARK SMILES IDX 18 1 17 2 16 3 15 4 13 5 14 6 11 8 4 9 5 10 10 11 6 12 9 13
REMARK SMILES IDX 7 14 12 15 8 16 2 17 1 18 3 19 19 20 20 21 21 23 22 24 23 25
REMARK SMILES IDX 87 26 24 27 86 28 25 29 26 30 27 31 80 32 28 33 85 34 79 35
REMARK SMILES IDX 81 36 29 37 84 38 78 39 77 40 30 42 64 43 43 44 63 45 44 46
REMARK SMILES IDX 47 47 62 48 82 49 45 50 46 51 61 53 83 54 48 55 31 56 32 57
REMARK SMILES IDX 41 58 33 59 34 60 40 61 42 62 35 63 36 64 37 65 38 66 39 67
REMARK SMILES IDX 65 68 66 69 75 70 67 71 68 72 74 73 76 74 69 75 70 76 71 77
REMARK SMILES IDX 72 78 73 79 49 80 50 81 59 82 51 83 52 84 58 85 60 86 53 87
REMARK SMILES IDX 54 88 55 89 56 90 57 91
REMARK H PARENT 15 7 19 22 81 41 47 52
REMARK Flexibility Score: inf
ROOT
ATOM      1  C   UNL A   1      36.745  23.989  24.956  1.00  0.00     0.118 C 
ENDROOT
BRANCH   1   2
ATOM      2  C   UNL A   1      35.447  23.926  25.761  1.00  0.00     0.042 C 
BRANCH   2   3
ATOM      3  C   UNL A   1      34.501  25.088  25.456  1.00  0.00     0.118 C 
BRANCH   3   4
ATOM      4  N   UNL A   1      34.239  25.130  24.031  1.00  0.00    -0.350 N 
ATOM      5  C   UNL A   1      33.480  26.030  23.342  1.00  0.00     0.279 C 
ATOM      6  O   UNL A   1      32.892  25.661  22.329  1.00  0.00    -0.267 OA
ATOM      7  H   UNL A   1      34.661  24.422  23.493  1.00  0.00     0.163 HD
BRANCH   5   8
ATOM      8  C   UNL A   1      33.443  27.432  23.817  1.00  0.00     0.187 C 
ATOM      9  C   UNL A   1      31.201  27.409  25.182  1.00  0.00     0.021 C 
ATOM     10  C   UNL A   1      31.481  27.261  26.700  1.00  0.00     0.009 C 
ATOM     11  C   UNL A   1      32.496  27.996  24.595  1.00  0.00    -0.025 C 
ATOM     12  C   UNL A   1      31.873  28.595  27.356  1.00  0.00     0.004 C 
ATOM     13  C   UNL A   1      32.746  29.399  25.124  1.00  0.00     0.038 C 
ATOM     14  C   UNL A   1      33.011  29.341  26.637  1.00  0.00    -0.010 C 
ATOM     15  F   UNL A   1      34.533  28.158  23.475  1.00  0.00    -0.201 F 
ATOM     16  C   UNL A   1      34.377  28.718  26.948  1.00  0.00     0.008 C 
BRANCH   9  17
ATOM     17  C   UNL A   1      30.549  26.128  24.571  1.00  0.00    -0.010 C 
ATOM     18  C   UNL A   1      30.625  24.910  25.510  1.00  0.00     0.008 C 
ATOM     19  C   UNL A   1      29.069  26.318  24.208  1.00  0.00     0.008 C 
ENDBRANCH   9  17
ENDBRANCH   5   8
ENDBRANCH   3   4
ENDBRANCH   2   3
ENDBRANCH   1   2
BRANCH   1  20
ATOM     20  N   UNL A   1      37.670  22.925  25.322  1.00  0.00    -0.352 N 
ATOM     21  C   UNL A   1      38.832  23.007  26.048  1.00  0.00     0.251 C 
ATOM     22  H   UNL A   1      37.430  22.025  25.004  1.00  0.00     0.163 HD
ATOM     23  O   UNL A   1      39.602  22.047  26.079  1.00  0.00    -0.269 OA
BRANCH  21  24
ATOM     24  C   UNL A   1      39.159  24.252  26.769  1.00  0.00     0.039 A 
ATOM     25  C   UNL A   1      38.634  24.454  28.047  1.00  0.00     0.014 A 
ATOM     26  C   UNL A   1      39.991  25.213  26.188  1.00  0.00     0.014 A 
ATOM     27  C   UNL A   1      38.991  25.596  28.766  1.00  0.00     0.010 A 
ATOM     28  C   UNL A   1      40.408  26.310  26.937  1.00  0.00     0.010 A 
ATOM     29  C   UNL A   1      39.909  26.515  28.232  1.00  0.00    -0.014 A 
BRANCH  29  30
ATOM     30  C   UNL A   1      40.364  27.693  29.015  1.00  0.00     0.031 A 
ATOM     31  C   UNL A   1      41.707  27.680  29.693  1.00  0.00     0.074 A 
ATOM     32  C   UNL A   1      39.540  28.748  29.166  1.00  0.00     0.049 A 
ATOM     33  N   UNL A   1      42.256  28.590  30.454  1.00  0.00    -0.248 NA
ATOM     34  C   UNL A   1      42.530  26.473  29.514  1.00  0.00     0.031 C 
ATOM     35  C   UNL A   1      38.196  28.859  28.595  1.00  0.00     0.029 A 
ATOM     36  N   UNL A   1      39.707  29.927  29.849  1.00  0.00    -0.354 N 
ATOM     37  C   UNL A   1      43.476  28.061  30.860  1.00  0.00     0.074 A 
ATOM     38  C   UNL A   1      43.564  26.730  30.302  1.00  0.00     0.031 C 
ATOM     39  C   UNL A   1      37.675  30.053  28.923  1.00  0.00     0.029 A 
ATOM     40  C   UNL A   1      38.626  30.773  29.763  1.00  0.00     0.049 A 
ATOM     41  H   UNL A   1      40.524  30.146  30.353  1.00  0.00     0.167 HD
ATOM     42  C   UNL A   1      44.444  28.641  31.611  1.00  0.00     0.037 A 
ATOM     43  C   UNL A   1      38.423  31.990  30.305  1.00  0.00     0.037 A 
ATOM     44  C   UNL A   1      44.355  29.975  32.146  1.00  0.00     0.049 A 
ATOM     45  C   UNL A   1      39.506  32.608  31.147  1.00  0.00     0.074 A 
ATOM     46  C   UNL A   1      45.308  30.680  32.859  1.00  0.00     0.029 A 
ATOM     47  N   UNL A   1      43.245  30.802  32.038  1.00  0.00    -0.354 N 
ATOM     48  N   UNL A   1      40.686  32.126  31.456  1.00  0.00    -0.248 NA
ATOM     49  C   UNL A   1      39.232  33.937  31.710  1.00  0.00     0.031 C 
ATOM     50  C   UNL A   1      44.753  31.909  33.233  1.00  0.00     0.029 A 
ATOM     51  C   UNL A   1      43.477  31.996  32.700  1.00  0.00     0.049 A 
ATOM     52  H   UNL A   1      42.414  30.572  31.561  1.00  0.00     0.167 HD
ATOM     53  C   UNL A   1      41.308  33.105  32.224  1.00  0.00     0.074 A 
ATOM     54  C   UNL A   1      40.376  34.209  32.323  1.00  0.00     0.031 C 
ATOM     55  C   UNL A   1      42.540  33.091  32.790  1.00  0.00     0.037 A 
BRANCH  42  56
ATOM     56  C   UNL A   1      45.676  27.827  31.910  1.00  0.00     0.058 A 
ATOM     57  C   UNL A   1      46.810  27.862  31.082  1.00  0.00     0.135 A 
ATOM     58  C   UNL A   1      45.731  27.013  33.055  1.00  0.00     0.135 A 
ATOM     59  F   UNL A   1      46.812  28.612  29.968  1.00  0.00    -0.206 F 
ATOM     60  C   UNL A   1      47.935  27.090  31.353  1.00  0.00     0.059 A 
ATOM     61  C   UNL A   1      46.858  26.258  33.363  1.00  0.00     0.059 A 
ATOM     62  F   UNL A   1      44.678  26.942  33.885  1.00  0.00    -0.206 F 
ATOM     63  C   UNL A   1      47.948  26.288  32.496  1.00  0.00     0.060 A 
BRANCH  63  64
ATOM     64  S   UNL A   1      49.410  25.282  32.825  1.00  0.00     0.124 S 
ATOM     65  O   UNL A   1      49.757  24.825  31.483  1.00  0.00    -0.237 OA
ATOM     66  O   UNL A   1      50.327  26.249  33.422  1.00  0.00    -0.237 OA
ATOM     67  O   UNL A   1      48.916  24.249  33.731  1.00  0.00    -0.744 OA
ENDBRANCH  63  64
ENDBRANCH  42  56
BRANCH  43  68
ATOM     68  C   UNL A   1      37.153  32.717  30.035  1.00  0.00     0.058 A 
ATOM     69  C   UNL A   1      37.085  33.697  29.033  1.00  0.00     0.135 A 
ATOM     70  C   UNL A   1      35.978  32.431  30.749  1.00  0.00     0.135 A 
ATOM     71  F   UNL A   1      38.184  34.011  28.329  1.00  0.00    -0.206 F 
ATOM     72  C   UNL A   1      35.903  34.373  28.753  1.00  0.00     0.059 A 
ATOM     73  C   UNL A   1      34.777  33.076  30.469  1.00  0.00     0.059 A 
ATOM     74  F   UNL A   1      35.985  31.492  31.708  1.00  0.00    -0.206 F 
ATOM     75  C   UNL A   1      34.752  34.051  29.472  1.00  0.00     0.060 A 
BRANCH  75  76
ATOM     76  S   UNL A   1      33.209  34.891  29.054  1.00  0.00     0.124 S 
ATOM     77  O   UNL A   1      32.637  33.982  28.068  1.00  0.00    -0.237 OA
ATOM     78  O   UNL A   1      32.531  34.942  30.345  1.00  0.00    -0.237 OA
ATOM     79  O   UNL A   1      33.657  36.182  28.540  1.00  0.00    -0.744 OA
ENDBRANCH  75  76
ENDBRANCH  43  68
BRANCH  55  80
ATOM     80  C   UNL A   1      42.973  34.321  33.542  1.00  0.00     0.058 A 
ATOM     81  C   UNL A   1      42.799  34.444  34.929  1.00  0.00     0.135 A 
ATOM     82  C   UNL A   1      43.621  35.370  32.869  1.00  0.00     0.135 A 
ATOM     83  F   UNL A   1      42.179  33.473  35.620  1.00  0.00    -0.206 F 
ATOM     84  C   UNL A   1      43.228  35.573  35.619  1.00  0.00     0.059 A 
ATOM     85  C   UNL A   1      44.087  36.495  33.543  1.00  0.00     0.059 A 
ATOM     86  F   UNL A   1      43.823  35.302  31.543  1.00  0.00    -0.206 F 
ATOM     87  C   UNL A   1      43.875  36.592  34.917  1.00  0.00     0.060 A 
BRANCH  87  88
ATOM     88  S   UNL A   1      44.460  38.035  35.830  1.00  0.00     0.124 S 
ATOM     89  O   UNL A   1      43.846  39.126  35.081  1.00  0.00    -0.237 OA
ATOM     90  O   UNL A   1      43.918  37.800  37.165  1.00  0.00    -0.237 OA
ATOM     91  O   UNL A   1      45.912  37.940  35.724  1.00  0.00    -0.744 OA
ENDBRANCH  87  88
ENDBRANCH  55  80
ENDBRANCH  29  30
ENDBRANCH  21  24
ENDBRANCH   1  20
TORSDOF 14
ENDMDL
