MODEL 1
REMARK VINA RESULT:     -12.6      0.000      0.000
REMARK SMILES Cc1cc(C(=O)N2[C@@H](C(=O)NCCCNC(=O)c3ccc(-c4c5nc(c(-c6c(F)cc(S(=O)(=O)[O-])cc6F)c6ccc([nH]6)c(-c6c(F)cc(S(=O)(=O)[O-])cc6F)c6nc(c(-c7c(F)cc(S(=O)(=O)[O-])cc7F)c7ccc4[nH]7)C=C6)C=C5)cc3)C[C@H]3CCCC[C@H]32)c(C)s1
REMARK SMILES IDX 13 1 12 2 11 3 9 4 10 5 8 7 7 8 90 9 84 10 85 11 89 12 86 13
REMARK SMILES IDX 88 14 87 15 5 16 6 17 4 18 1 19 2 20 3 21 93 22 91 23 92 24
REMARK SMILES IDX 14 25 15 26 16 27 17 29 18 30 19 31 83 32 20 33 82 34 21 35
REMARK SMILES IDX 22 36 23 37 76 38 24 39 81 40 75 41 77 42 25 43 80 44 74 45
REMARK SMILES IDX 73 46 26 48 60 49 39 50 59 51 40 52 43 53 58 54 78 55 41 56
REMARK SMILES IDX 42 57 57 59 79 60 44 61 27 62 28 63 37 64 29 65 30 66 36 67
REMARK SMILES IDX 38 68 31 69 32 70 33 71 34 72 35 73 61 74 62 75 71 76 63 77
REMARK SMILES IDX 64 78 70 79 72 80 65 81 66 82 67 83 68 84 69 85 45 86 46 87
REMARK SMILES IDX 55 88 47 89 48 90 54 91 56 92 49 93 50 94 51 95 52 96 53 97
REMARK H PARENT 11 6 15 28 77 47 43 58
REMARK Flexibility Score: inf
ROOT
ATOM      1  C   UNL A   1      33.367  28.046  25.824  1.00  0.00     0.042 C 
ENDROOT
BRANCH   1   2
ATOM      2  C   UNL A   1      32.588  26.855  25.265  1.00  0.00     0.117 C 
BRANCH   2   3
ATOM      3  N   UNL A   1      32.443  25.761  26.211  1.00  0.00    -0.354 N 
ATOM      4  C   UNL A   1      32.763  24.442  26.175  1.00  0.00     0.242 C 
ATOM      5  O   UNL A   1      32.601  23.829  27.241  1.00  0.00    -0.273 OA
ATOM      6  H   UNL A   1      32.023  26.034  27.058  1.00  0.00     0.163 HD
BRANCH   4   7
ATOM      7  C   UNL A   1      33.150  23.632  24.915  1.00  0.00     0.175 C 
ATOM      8  N   UNL A   1      33.254  22.168  24.914  1.00  0.00    -0.323 N 
ATOM      9  C   UNL A   1      34.589  21.729  24.507  1.00  0.00     0.089 C 
ATOM     10  C   UNL A   1      34.540  24.108  24.440  1.00  0.00     0.041 C 
ATOM     11  C   UNL A   1      35.076  22.907  23.656  1.00  0.00     0.014 C 
ATOM     12  C   UNL A   1      35.494  21.449  25.710  1.00  0.00     0.025 C 
ATOM     13  C   UNL A   1      36.575  22.921  23.383  1.00  0.00     0.006 C 
ATOM     14  C   UNL A   1      36.963  21.353  25.317  1.00  0.00     0.002 C 
ATOM     15  C   UNL A   1      37.426  22.625  24.613  1.00  0.00     0.000 C 
BRANCH   8  16
ATOM     16  C   UNL A   1      32.215  21.249  24.966  1.00  0.00     0.255 C 
ATOM     17  O   UNL A   1      31.158  21.502  25.543  1.00  0.00    -0.269 OA
BRANCH  16  18
ATOM     18  C   UNL A   1      32.422  19.946  24.333  1.00  0.00     0.053 A 
ATOM     19  C   UNL A   1      33.034  16.204  24.578  1.00  0.00     0.056 C 
ATOM     20  C   UNL A   1      32.780  17.626  24.208  1.00  0.00     0.003 A 
ATOM     21  C   UNL A   1      32.696  18.722  25.037  1.00  0.00     0.029 A 
ATOM     22  S   UNL A   1      32.509  18.056  22.581  1.00  0.00    -0.145 S 
ATOM     23  C   UNL A   1      32.245  19.703  22.979  1.00  0.00     0.014 A 
ATOM     24  C   UNL A   1      31.855  20.648  21.890  1.00  0.00     0.057 C 
ENDBRANCH  16  18
ENDBRANCH   8  16
ENDBRANCH   4   7
ENDBRANCH   2   3
ENDBRANCH   1   2
BRANCH   1  25
ATOM     25  C   UNL A   1      33.088  28.380  27.286  1.00  0.00     0.118 C 
BRANCH  25  26
ATOM     26  N   UNL A   1      33.204  29.799  27.577  1.00  0.00    -0.352 N 
ATOM     27  C   UNL A   1      34.240  30.561  28.058  1.00  0.00     0.251 C 
ATOM     28  H   UNL A   1      32.384  30.311  27.393  1.00  0.00     0.163 HD
ATOM     29  O   UNL A   1      33.987  31.719  28.391  1.00  0.00    -0.269 OA
BRANCH  27  30
ATOM     30  C   UNL A   1      35.630  30.055  28.202  1.00  0.00     0.039 A 
ATOM     31  C   UNL A   1      36.045  29.632  29.472  1.00  0.00     0.014 A 
ATOM     32  C   UNL A   1      36.571  30.105  27.170  1.00  0.00     0.014 A 
ATOM     33  C   UNL A   1      37.372  29.244  29.701  1.00  0.00     0.010 A 
ATOM     34  C   UNL A   1      37.882  29.656  27.382  1.00  0.00     0.010 A 
ATOM     35  C   UNL A   1      38.303  29.243  28.654  1.00  0.00    -0.014 A 
BRANCH  35  36
ATOM     36  C   UNL A   1      39.732  28.901  28.894  1.00  0.00     0.031 A 
ATOM     37  C   UNL A   1      40.653  29.917  29.522  1.00  0.00     0.074 A 
ATOM     38  C   UNL A   1      40.227  27.701  28.534  1.00  0.00     0.049 A 
ATOM     39  N   UNL A   1      41.951  29.870  29.682  1.00  0.00    -0.248 NA
ATOM     40  C   UNL A   1      40.033  31.157  30.013  1.00  0.00     0.031 C 
ATOM     41  C   UNL A   1      39.466  26.620  27.905  1.00  0.00     0.029 A 
ATOM     42  N   UNL A   1      41.496  27.190  28.651  1.00  0.00    -0.354 N 
ATOM     43  C   UNL A   1      42.313  31.100  30.221  1.00  0.00     0.074 A 
ATOM     44  C   UNL A   1      41.092  31.863  30.383  1.00  0.00     0.031 C 
ATOM     45  C   UNL A   1      40.278  25.565  27.719  1.00  0.00     0.029 A 
ATOM     46  C   UNL A   1      41.618  25.902  28.191  1.00  0.00     0.049 A 
ATOM     47  H   UNL A   1      42.248  27.700  29.030  1.00  0.00     0.167 HD
ATOM     48  C   UNL A   1      43.546  31.559  30.542  1.00  0.00     0.037 A 
ATOM     49  C   UNL A   1      42.687  25.084  28.154  1.00  0.00     0.037 A 
ATOM     50  C   UNL A   1      44.756  30.786  30.458  1.00  0.00     0.049 A 
ATOM     51  C   UNL A   1      44.018  25.560  28.661  1.00  0.00     0.074 A 
ATOM     52  C   UNL A   1      46.055  31.175  30.744  1.00  0.00     0.029 A 
ATOM     53  N   UNL A   1      44.809  29.451  30.098  1.00  0.00    -0.354 N 
ATOM     54  N   UNL A   1      44.349  26.747  29.109  1.00  0.00    -0.248 NA
ATOM     55  C   UNL A   1      45.119  24.585  28.661  1.00  0.00     0.031 C 
ATOM     56  C   UNL A   1      46.892  30.063  30.573  1.00  0.00     0.029 A 
ATOM     57  C   UNL A   1      46.111  28.987  30.185  1.00  0.00     0.049 A 
ATOM     58  H   UNL A   1      44.035  28.909  29.820  1.00  0.00     0.167 HD
ATOM     59  C   UNL A   1      45.696  26.662  29.444  1.00  0.00     0.074 A 
ATOM     60  C   UNL A   1      46.115  25.305  29.162  1.00  0.00     0.031 C 
ATOM     61  C   UNL A   1      46.511  27.629  29.928  1.00  0.00     0.037 A 
BRANCH  48  62
ATOM     62  C   UNL A   1      43.635  32.986  30.989  1.00  0.00     0.058 A 
ATOM     63  C   UNL A   1      43.788  34.036  30.073  1.00  0.00     0.135 A 
ATOM     64  C   UNL A   1      43.601  33.300  32.356  1.00  0.00     0.135 A 
ATOM     65  F   UNL A   1      43.847  33.781  28.757  1.00  0.00    -0.206 F 
ATOM     66  C   UNL A   1      43.939  35.352  30.499  1.00  0.00     0.059 A 
ATOM     67  C   UNL A   1      43.738  34.609  32.803  1.00  0.00     0.059 A 
ATOM     68  F   UNL A   1      43.463  32.328  33.269  1.00  0.00    -0.206 F 
ATOM     69  C   UNL A   1      43.930  35.626  31.868  1.00  0.00     0.060 A 
BRANCH  69  70
ATOM     70  S   UNL A   1      44.174  37.320  32.441  1.00  0.00     0.124 S 
ATOM     71  O   UNL A   1      43.898  38.077  31.224  1.00  0.00    -0.237 OA
ATOM     72  O   UNL A   1      43.186  37.453  33.507  1.00  0.00    -0.237 OA
ATOM     73  O   UNL A   1      45.566  37.319  32.880  1.00  0.00    -0.744 OA
ENDBRANCH  69  70
ENDBRANCH  48  62
BRANCH  49  74
ATOM     74  C   UNL A   1      42.534  23.702  27.641  1.00  0.00     0.058 A 
ATOM     75  C   UNL A   1      42.519  23.453  26.262  1.00  0.00     0.135 A 
ATOM     76  C   UNL A   1      42.419  22.612  28.513  1.00  0.00     0.135 A 
ATOM     77  F   UNL A   1      42.621  24.473  25.396  1.00  0.00    -0.206 F 
ATOM     78  C   UNL A   1      42.392  22.164  25.759  1.00  0.00     0.059 A 
ATOM     79  C   UNL A   1      42.301  21.312  28.034  1.00  0.00     0.059 A 
ATOM     80  F   UNL A   1      42.439  22.807  29.839  1.00  0.00    -0.206 F 
ATOM     81  C   UNL A   1      42.282  21.098  26.654  1.00  0.00     0.060 A 
BRANCH  81  82
ATOM     82  S   UNL A   1      42.183  19.411  26.017  1.00  0.00     0.124 S 
ATOM     83  O   UNL A   1      42.711  18.643  27.138  1.00  0.00    -0.237 OA
ATOM     84  O   UNL A   1      40.756  19.251  25.749  1.00  0.00    -0.237 OA
ATOM     85  O   UNL A   1      43.030  19.466  24.828  1.00  0.00    -0.744 OA
ENDBRANCH  81  82
ENDBRANCH  49  74
BRANCH  61  86
ATOM     86  C   UNL A   1      47.932  27.247  30.205  1.00  0.00     0.058 A 
ATOM     87  C   UNL A   1      48.914  27.331  29.206  1.00  0.00     0.135 A 
ATOM     88  C   UNL A   1      48.321  26.817  31.482  1.00  0.00     0.135 A 
ATOM     89  F   UNL A   1      48.586  27.733  27.969  1.00  0.00    -0.206 F 
ATOM     90  C   UNL A   1      50.237  26.989  29.462  1.00  0.00     0.059 A 
ATOM     91  C   UNL A   1      49.640  26.475  31.761  1.00  0.00     0.059 A 
ATOM     92  F   UNL A   1      47.414  26.720  32.466  1.00  0.00    -0.206 F 
ATOM     93  C   UNL A   1      50.591  26.556  30.741  1.00  0.00     0.060 A 
BRANCH  93  94
ATOM     94  S   UNL A   1      52.311  26.133  31.092  1.00  0.00     0.124 S 
ATOM     95  O   UNL A   1      52.710  27.233  31.963  1.00  0.00    -0.237 OA
ATOM     96  O   UNL A   1      52.200  24.825  31.732  1.00  0.00    -0.237 OA
ATOM     97  O   UNL A   1      52.924  26.121  29.767  1.00  0.00    -0.744 OA
ENDBRANCH  93  94
ENDBRANCH  61  86
ENDBRANCH  35  36
ENDBRANCH  27  30
ENDBRANCH  25  26
ENDBRANCH   1  25
TORSDOF 15
ENDMDL
MODEL 2
REMARK VINA RESULT:     -12.4      1.563      2.459
REMARK SMILES Cc1cc(C(=O)N2[C@@H](C(=O)NCCCNC(=O)c3ccc(-c4c5nc(c(-c6c(F)cc(S(=O)(=O)[O-])cc6F)c6ccc([nH]6)c(-c6c(F)cc(S(=O)(=O)[O-])cc6F)c6nc(c(-c7c(F)cc(S(=O)(=O)[O-])cc7F)c7ccc4[nH]7)C=C6)C=C5)cc3)C[C@H]3CCCC[C@H]32)c(C)s1
REMARK SMILES IDX 13 1 12 2 11 3 9 4 10 5 8 7 7 8 90 9 84 10 85 11 89 12 86 13
REMARK SMILES IDX 88 14 87 15 5 16 6 17 4 18 1 19 2 20 3 21 93 22 91 23 92 24
REMARK SMILES IDX 14 25 15 26 16 27 17 29 18 30 19 31 83 32 20 33 82 34 21 35
REMARK SMILES IDX 22 36 23 37 76 38 24 39 81 40 75 41 77 42 25 43 80 44 74 45
REMARK SMILES IDX 73 46 26 48 60 49 39 50 59 51 40 52 43 53 58 54 78 55 41 56
REMARK SMILES IDX 42 57 57 59 79 60 44 61 27 62 28 63 37 64 29 65 30 66 36 67
REMARK SMILES IDX 38 68 31 69 32 70 33 71 34 72 35 73 61 74 62 75 71 76 63 77
REMARK SMILES IDX 64 78 70 79 72 80 65 81 66 82 67 83 68 84 69 85 45 86 46 87
REMARK SMILES IDX 55 88 47 89 48 90 54 91 56 92 49 93 50 94 51 95 52 96 53 97
REMARK H PARENT 11 6 15 28 77 47 43 58
REMARK Flexibility Score: inf
ROOT
ATOM      1  C   UNL A   1      32.072  27.829  27.537  1.00  0.00     0.042 C 
ENDROOT
BRANCH   1   2
ATOM      2  C   UNL A   1      31.387  26.921  26.515  1.00  0.00     0.117 C 
BRANCH   2   3
ATOM      3  N   UNL A   1      31.535  25.504  26.806  1.00  0.00    -0.354 N 
ATOM      4  C   UNL A   1      32.445  24.563  26.449  1.00  0.00     0.242 C 
ATOM      5  O   UNL A   1      32.314  23.461  27.003  1.00  0.00    -0.273 OA
ATOM      6  H   UNL A   1      30.821  25.152  27.385  1.00  0.00     0.163 HD
BRANCH   4   7
ATOM      7  C   UNL A   1      33.502  24.697  25.327  1.00  0.00     0.175 C 
ATOM      8  N   UNL A   1      33.501  23.848  24.129  1.00  0.00    -0.323 N 
ATOM      9  C   UNL A   1      34.760  23.116  23.994  1.00  0.00     0.089 C 
ATOM     10  C   UNL A   1      34.899  24.470  25.947  1.00  0.00     0.041 C 
ATOM     11  C   UNL A   1      35.743  24.011  24.756  1.00  0.00     0.014 C 
ATOM     12  C   UNL A   1      34.668  21.702  24.576  1.00  0.00     0.025 C 
ATOM     13  C   UNL A   1      37.068  23.347  25.111  1.00  0.00     0.006 C 
ATOM     14  C   UNL A   1      36.040  21.071  24.777  1.00  0.00     0.002 C 
ATOM     15  C   UNL A   1      36.917  21.938  25.675  1.00  0.00     0.000 C 
BRANCH   8  16
ATOM     16  C   UNL A   1      32.619  23.903  23.059  1.00  0.00     0.255 C 
ATOM     17  O   UNL A   1      32.615  23.041  22.181  1.00  0.00    -0.269 OA
BRANCH  16  18
ATOM     18  C   UNL A   1      31.702  25.041  22.986  1.00  0.00     0.053 A 
ATOM     19  C   UNL A   1      28.366  26.663  23.807  1.00  0.00     0.056 C 
ATOM     20  C   UNL A   1      29.737  26.273  23.373  1.00  0.00     0.003 A 
ATOM     21  C   UNL A   1      30.362  25.055  23.511  1.00  0.00     0.029 A 
ATOM     22  S   UNL A   1      30.763  27.417  22.633  1.00  0.00    -0.145 S 
ATOM     23  C   UNL A   1      32.058  26.299  22.523  1.00  0.00     0.014 A 
ATOM     24  C   UNL A   1      33.370  26.775  21.987  1.00  0.00     0.057 C 
ENDBRANCH  16  18
ENDBRANCH   8  16
ENDBRANCH   4   7
ENDBRANCH   2   3
ENDBRANCH   1   2
BRANCH   1  25
ATOM     25  C   UNL A   1      33.269  28.615  27.013  1.00  0.00     0.118 C 
BRANCH  25  26
ATOM     26  N   UNL A   1      33.344  29.962  27.552  1.00  0.00    -0.352 N 
ATOM     27  C   UNL A   1      34.344  30.642  28.201  1.00  0.00     0.251 C 
ATOM     28  H   UNL A   1      32.520  30.486  27.428  1.00  0.00     0.163 HD
ATOM     29  O   UNL A   1      34.056  31.720  28.721  1.00  0.00    -0.269 OA
BRANCH  27  30
ATOM     30  C   UNL A   1      35.739  30.138  28.310  1.00  0.00     0.039 A 
ATOM     31  C   UNL A   1      36.190  29.726  29.572  1.00  0.00     0.014 A 
ATOM     32  C   UNL A   1      36.650  30.179  27.252  1.00  0.00     0.014 A 
ATOM     33  C   UNL A   1      37.523  29.341  29.767  1.00  0.00     0.010 A 
ATOM     34  C   UNL A   1      37.967  29.733  27.430  1.00  0.00     0.010 A 
ATOM     35  C   UNL A   1      38.424  29.331  28.694  1.00  0.00    -0.014 A 
BRANCH  35  36
ATOM     36  C   UNL A   1      39.860  28.993  28.896  1.00  0.00     0.031 A 
ATOM     37  C   UNL A   1      40.796  30.012  29.495  1.00  0.00     0.074 A 
ATOM     38  C   UNL A   1      40.346  27.792  28.528  1.00  0.00     0.049 A 
ATOM     39  N   UNL A   1      42.098  29.969  29.620  1.00  0.00    -0.248 NA
ATOM     40  C   UNL A   1      40.187  31.254  29.997  1.00  0.00     0.031 C 
ATOM     41  C   UNL A   1      39.571  26.708  27.924  1.00  0.00     0.029 A 
ATOM     42  N   UNL A   1      41.620  27.284  28.613  1.00  0.00    -0.354 N 
ATOM     43  C   UNL A   1      42.472  31.201  30.144  1.00  0.00     0.074 A 
ATOM     44  C   UNL A   1      41.255  31.963  30.336  1.00  0.00     0.031 C 
ATOM     45  C   UNL A   1      40.379  25.653  27.720  1.00  0.00     0.029 A 
ATOM     46  C   UNL A   1      41.731  25.994  28.154  1.00  0.00     0.049 A 
ATOM     47  H   UNL A   1      42.381  27.796  28.969  1.00  0.00     0.167 HD
ATOM     48  C   UNL A   1      43.713  31.663  30.430  1.00  0.00     0.037 A 
ATOM     49  C   UNL A   1      42.800  25.177  28.092  1.00  0.00     0.037 A 
ATOM     50  C   UNL A   1      44.921  30.892  30.317  1.00  0.00     0.049 A 
ATOM     51  C   UNL A   1      44.143  25.658  28.561  1.00  0.00     0.074 A 
ATOM     52  C   UNL A   1      46.226  31.283  30.565  1.00  0.00     0.029 A 
ATOM     53  N   UNL A   1      44.967  29.555  29.960  1.00  0.00    -0.354 N 
ATOM     54  N   UNL A   1      44.484  26.847  28.995  1.00  0.00    -0.248 NA
ATOM     55  C   UNL A   1      45.245  24.685  28.535  1.00  0.00     0.031 C 
ATOM     56  C   UNL A   1      47.060  30.172  30.376  1.00  0.00     0.029 A 
ATOM     57  C   UNL A   1      46.271  29.094  30.013  1.00  0.00     0.049 A 
ATOM     58  H   UNL A   1      44.186  29.011  29.706  1.00  0.00     0.167 HD
ATOM     59  C   UNL A   1      45.840  26.766  29.293  1.00  0.00     0.074 A 
ATOM     60  C   UNL A   1      46.254  25.408  29.005  1.00  0.00     0.031 C 
ATOM     61  C   UNL A   1      46.667  27.736  29.751  1.00  0.00     0.037 A 
BRANCH  48  62
ATOM     62  C   UNL A   1      43.811  33.092  30.868  1.00  0.00     0.058 A 
ATOM     63  C   UNL A   1      43.928  34.140  29.944  1.00  0.00     0.135 A 
ATOM     64  C   UNL A   1      43.823  33.411  32.235  1.00  0.00     0.135 A 
ATOM     65  F   UNL A   1      43.943  33.880  28.628  1.00  0.00    -0.206 F 
ATOM     66  C   UNL A   1      44.089  35.458  30.360  1.00  0.00     0.059 A 
ATOM     67  C   UNL A   1      43.971  34.722  32.672  1.00  0.00     0.059 A 
ATOM     68  F   UNL A   1      43.721  32.441  33.156  1.00  0.00    -0.206 F 
ATOM     69  C   UNL A   1      44.126  35.737  31.728  1.00  0.00     0.060 A 
BRANCH  69  70
ATOM     70  S   UNL A   1      44.383  37.434  32.286  1.00  0.00     0.124 S 
ATOM     71  O   UNL A   1      44.151  38.180  31.053  1.00  0.00    -0.237 OA
ATOM     72  O   UNL A   1      43.370  37.596  33.324  1.00  0.00    -0.237 OA
ATOM     73  O   UNL A   1      45.763  37.415  32.762  1.00  0.00    -0.744 OA
ENDBRANCH  69  70
ENDBRANCH  48  62
BRANCH  49  74
ATOM     74  C   UNL A   1      42.635  23.794  27.588  1.00  0.00     0.058 A 
ATOM     75  C   UNL A   1      42.693  23.524  26.214  1.00  0.00     0.135 A 
ATOM     76  C   UNL A   1      42.438  22.720  28.466  1.00  0.00     0.135 A 
ATOM     77  F   UNL A   1      42.876  24.528  25.343  1.00  0.00    -0.206 F 
ATOM     78  C   UNL A   1      42.557  22.232  25.721  1.00  0.00     0.059 A 
ATOM     79  C   UNL A   1      42.308  21.417  27.998  1.00  0.00     0.059 A 
ATOM     80  F   UNL A   1      42.386  22.934  29.789  1.00  0.00    -0.206 F 
ATOM     81  C   UNL A   1      42.363  21.184  26.623  1.00  0.00     0.060 A 
BRANCH  81  82
ATOM     82  S   UNL A   1      42.250  19.491  26.002  1.00  0.00     0.124 S 
ATOM     83  O   UNL A   1      43.153  19.539  24.858  1.00  0.00    -0.237 OA
ATOM     84  O   UNL A   1      42.705  18.699  27.141  1.00  0.00    -0.237 OA
ATOM     85  O   UNL A   1      40.830  19.358  25.687  1.00  0.00    -0.744 OA
ENDBRANCH  81  82
ENDBRANCH  49  74
BRANCH  61  86
ATOM     86  C   UNL A   1      48.095  27.357  29.991  1.00  0.00     0.058 A 
ATOM     87  C   UNL A   1      49.084  27.608  29.028  1.00  0.00     0.135 A 
ATOM     88  C   UNL A   1      48.484  26.760  31.199  1.00  0.00     0.135 A 
ATOM     89  F   UNL A   1      48.757  28.173  27.856  1.00  0.00    -0.206 F 
ATOM     90  C   UNL A   1      50.414  27.270  29.252  1.00  0.00     0.059 A 
ATOM     91  C   UNL A   1      49.809  26.418  31.446  1.00  0.00     0.059 A 
ATOM     92  F   UNL A   1      47.570  26.500  32.148  1.00  0.00    -0.206 F 
ATOM     93  C   UNL A   1      50.767  26.669  30.461  1.00  0.00     0.060 A 
BRANCH  93  94
ATOM     94  S   UNL A   1      52.495  26.248  30.773  1.00  0.00     0.124 S 
ATOM     95  O   UNL A   1      52.360  25.096  31.658  1.00  0.00    -0.237 OA
ATOM     96  O   UNL A   1      53.006  25.962  29.435  1.00  0.00    -0.237 OA
ATOM     97  O   UNL A   1      53.025  27.461  31.389  1.00  0.00    -0.744 OA
ENDBRANCH  93  94
ENDBRANCH  61  86
ENDBRANCH  35  36
ENDBRANCH  27  30
ENDBRANCH  25  26
ENDBRANCH   1  25
TORSDOF 15
ENDMDL
MODEL 3
REMARK VINA RESULT:     -12.3      4.524     10.171
REMARK SMILES Cc1cc(C(=O)N2[C@@H](C(=O)NCCCNC(=O)c3ccc(-c4c5nc(c(-c6c(F)cc(S(=O)(=O)[O-])cc6F)c6ccc([nH]6)c(-c6c(F)cc(S(=O)(=O)[O-])cc6F)c6nc(c(-c7c(F)cc(S(=O)(=O)[O-])cc7F)c7ccc4[nH]7)C=C6)C=C5)cc3)C[C@H]3CCCC[C@H]32)c(C)s1
REMARK SMILES IDX 13 1 12 2 11 3 9 4 10 5 8 7 7 8 90 9 84 10 85 11 89 12 86 13
REMARK SMILES IDX 88 14 87 15 5 16 6 17 4 18 1 19 2 20 3 21 93 22 91 23 92 24
REMARK SMILES IDX 14 25 15 26 16 27 17 29 18 30 19 31 83 32 20 33 82 34 21 35
REMARK SMILES IDX 22 36 23 37 76 38 24 39 81 40 75 41 77 42 25 43 80 44 74 45
REMARK SMILES IDX 73 46 26 48 60 49 39 50 59 51 40 52 43 53 58 54 78 55 41 56
REMARK SMILES IDX 42 57 57 59 79 60 44 61 27 62 28 63 37 64 29 65 30 66 36 67
REMARK SMILES IDX 38 68 31 69 32 70 33 71 34 72 35 73 61 74 62 75 71 76 63 77
REMARK SMILES IDX 64 78 70 79 72 80 65 81 66 82 67 83 68 84 69 85 45 86 46 87
REMARK SMILES IDX 55 88 47 89 48 90 54 91 56 92 49 93 50 94 51 95 52 96 53 97
REMARK H PARENT 11 6 15 28 77 47 43 58
REMARK Flexibility Score: inf
ROOT
ATOM      1  C   UNL A   1      37.988  24.044  25.866  1.00  0.00     0.042 C 
ENDROOT
BRANCH   1   2
ATOM      2  C   UNL A   1      36.514  23.711  26.098  1.00  0.00     0.117 C 
BRANCH   2   3
ATOM      3  N   UNL A   1      35.678  23.936  24.930  1.00  0.00    -0.354 N 
ATOM      4  C   UNL A   1      34.553  24.662  24.707  1.00  0.00     0.242 C 
ATOM      5  O   UNL A   1      34.183  24.716  23.524  1.00  0.00    -0.273 OA
ATOM      6  H   UNL A   1      35.996  23.459  24.130  1.00  0.00     0.163 HD
BRANCH   4   7
ATOM      7  C   UNL A   1      33.635  25.275  25.791  1.00  0.00     0.175 C 
ATOM      8  N   UNL A   1      32.220  24.910  25.932  1.00  0.00    -0.323 N 
ATOM      9  C   UNL A   1      31.353  26.083  25.811  1.00  0.00     0.089 C 
ATOM     10  C   UNL A   1      33.611  26.807  25.595  1.00  0.00     0.041 C 
ATOM     11  C   UNL A   1      32.284  27.223  26.236  1.00  0.00     0.014 C 
ATOM     12  C   UNL A   1      30.812  26.254  24.389  1.00  0.00     0.025 C 
ATOM     13  C   UNL A   1      31.792  28.619  25.871  1.00  0.00     0.006 C 
ATOM     14  C   UNL A   1      30.224  27.640  24.157  1.00  0.00     0.002 C 
ATOM     15  C   UNL A   1      31.254  28.728  24.448  1.00  0.00     0.000 C 
BRANCH   8  16
ATOM     16  C   UNL A   1      31.701  23.720  26.422  1.00  0.00     0.255 C 
ATOM     17  O   UNL A   1      30.899  23.701  27.354  1.00  0.00    -0.269 OA
BRANCH  16  18
ATOM     18  C   UNL A   1      32.160  22.472  25.810  1.00  0.00     0.053 A 
ATOM     19  C   UNL A   1      32.278  20.074  22.865  1.00  0.00     0.056 C 
ATOM     20  C   UNL A   1      32.409  20.837  24.139  1.00  0.00     0.003 A 
ATOM     21  C   UNL A   1      31.782  22.008  24.502  1.00  0.00     0.029 A 
ATOM     22  S   UNL A   1      33.474  20.300  25.357  1.00  0.00    -0.145 S 
ATOM     23  C   UNL A   1      33.127  21.645  26.362  1.00  0.00     0.014 A 
ATOM     24  C   UNL A   1      33.876  21.789  27.647  1.00  0.00     0.057 C 
ENDBRANCH  16  18
ENDBRANCH   8  16
ENDBRANCH   4   7
ENDBRANCH   2   3
ENDBRANCH   1   2
BRANCH   1  25
ATOM     25  C   UNL A   1      38.983  23.096  26.529  1.00  0.00     0.118 C 
BRANCH  25  26
ATOM     26  N   UNL A   1      40.355  23.330  26.112  1.00  0.00    -0.352 N 
ATOM     27  C   UNL A   1      41.229  24.362  26.349  1.00  0.00     0.251 C 
ATOM     28  H   UNL A   1      40.728  22.611  25.552  1.00  0.00     0.163 HD
ATOM     29  O   UNL A   1      42.274  24.383  25.700  1.00  0.00    -0.269 OA
BRANCH  27  30
ATOM     30  C   UNL A   1      40.968  25.444  27.334  1.00  0.00     0.039 A 
ATOM     31  C   UNL A   1      41.785  26.583  27.287  1.00  0.00     0.014 A 
ATOM     32  C   UNL A   1      40.045  25.322  28.376  1.00  0.00     0.014 A 
ATOM     33  C   UNL A   1      41.664  27.592  28.252  1.00  0.00     0.010 A 
ATOM     34  C   UNL A   1      39.879  26.360  29.303  1.00  0.00     0.010 A 
ATOM     35  C   UNL A   1      40.702  27.495  29.266  1.00  0.00    -0.014 A 
BRANCH  35  36
ATOM     36  C   UNL A   1      40.607  28.523  30.339  1.00  0.00     0.031 A 
ATOM     37  C   UNL A   1      41.577  28.497  31.493  1.00  0.00     0.074 A 
ATOM     38  C   UNL A   1      39.647  29.467  30.310  1.00  0.00     0.049 A 
ATOM     39  N   UNL A   1      41.574  29.206  32.593  1.00  0.00    -0.248 NA
ATOM     40  C   UNL A   1      42.680  27.528  31.407  1.00  0.00     0.031 C 
ATOM     41  C   UNL A   1      38.629  29.615  29.269  1.00  0.00     0.029 A 
ATOM     42  N   UNL A   1      39.375  30.488  31.188  1.00  0.00    -0.354 N 
ATOM     43  C   UNL A   1      42.625  28.721  33.362  1.00  0.00     0.074 A 
ATOM     44  C   UNL A   1      43.260  27.671  32.591  1.00  0.00     0.031 C 
ATOM     45  C   UNL A   1      37.863  30.682  29.554  1.00  0.00     0.029 A 
ATOM     46  C   UNL A   1      38.318  31.277  30.807  1.00  0.00     0.049 A 
ATOM     47  H   UNL A   1      39.890  30.639  32.013  1.00  0.00     0.167 HD
ATOM     48  C   UNL A   1      43.023  29.103  34.600  1.00  0.00     0.037 A 
ATOM     49  C   UNL A   1      37.777  32.359  31.400  1.00  0.00     0.037 A 
ATOM     50  C   UNL A   1      42.452  30.193  35.344  1.00  0.00     0.049 A 
ATOM     51  C   UNL A   1      38.333  32.864  32.700  1.00  0.00     0.074 A 
ATOM     52  C   UNL A   1      42.776  30.640  36.614  1.00  0.00     0.029 A 
ATOM     53  N   UNL A   1      41.462  31.035  34.865  1.00  0.00    -0.354 N 
ATOM     54  N   UNL A   1      39.288  32.352  33.437  1.00  0.00    -0.248 NA
ATOM     55  C   UNL A   1      37.742  34.095  33.245  1.00  0.00     0.031 C 
ATOM     56  C   UNL A   1      41.992  31.768  36.895  1.00  0.00     0.029 A 
ATOM     57  C   UNL A   1      41.185  32.020  35.798  1.00  0.00     0.049 A 
ATOM     58  H   UNL A   1      41.019  30.947  33.990  1.00  0.00     0.167 HD
ATOM     59  C   UNL A   1      39.411  33.197  34.535  1.00  0.00     0.074 A 
ATOM     60  C   UNL A   1      38.445  34.261  34.358  1.00  0.00     0.031 C 
ATOM     61  C   UNL A   1      40.243  33.089  35.599  1.00  0.00     0.037 A 
BRANCH  48  62
ATOM     62  C   UNL A   1      44.120  28.300  35.229  1.00  0.00     0.058 A 
ATOM     63  C   UNL A   1      45.470  28.643  35.067  1.00  0.00     0.135 A 
ATOM     64  C   UNL A   1      43.813  27.153  35.976  1.00  0.00     0.135 A 
ATOM     65  F   UNL A   1      45.810  29.719  34.342  1.00  0.00    -0.206 F 
ATOM     66  C   UNL A   1      46.486  27.853  35.597  1.00  0.00     0.059 A 
ATOM     67  C   UNL A   1      44.812  26.356  36.525  1.00  0.00     0.059 A 
ATOM     68  F   UNL A   1      42.536  26.783  36.153  1.00  0.00    -0.206 F 
ATOM     69  C   UNL A   1      46.146  26.702  36.310  1.00  0.00     0.060 A 
BRANCH  69  70
ATOM     70  S   UNL A   1      47.451  25.638  36.962  1.00  0.00     0.124 S 
ATOM     71  O   UNL A   1      48.646  26.382  36.577  1.00  0.00    -0.237 OA
ATOM     72  O   UNL A   1      47.162  25.602  38.393  1.00  0.00    -0.237 OA
ATOM     73  O   UNL A   1      47.234  24.382  36.252  1.00  0.00    -0.744 OA
ENDBRANCH  69  70
ENDBRANCH  48  62
BRANCH  49  74
ATOM     74  C   UNL A   1      36.651  33.066  30.744  1.00  0.00     0.058 A 
ATOM     75  C   UNL A   1      35.345  32.930  31.231  1.00  0.00     0.135 A 
ATOM     76  C   UNL A   1      36.863  33.899  29.638  1.00  0.00     0.135 A 
ATOM     77  F   UNL A   1      35.103  32.137  32.286  1.00  0.00    -0.206 F 
ATOM     78  C   UNL A   1      34.277  33.596  30.642  1.00  0.00     0.059 A 
ATOM     79  C   UNL A   1      35.812  34.583  29.036  1.00  0.00     0.059 A 
ATOM     80  F   UNL A   1      38.099  34.063  29.146  1.00  0.00    -0.206 F 
ATOM     81  C   UNL A   1      34.521  34.421  29.542  1.00  0.00     0.060 A 
BRANCH  81  82
ATOM     82  S   UNL A   1      33.154  35.344  28.806  1.00  0.00     0.124 S 
ATOM     83  O   UNL A   1      32.452  35.822  29.991  1.00  0.00    -0.237 OA
ATOM     84  O   UNL A   1      33.841  36.363  28.017  1.00  0.00    -0.237 OA
ATOM     85  O   UNL A   1      32.461  34.324  28.023  1.00  0.00    -0.744 OA
ENDBRANCH  81  82
ENDBRANCH  49  74
BRANCH  61  86
ATOM     86  C   UNL A   1      40.160  34.160  36.640  1.00  0.00     0.058 A 
ATOM     87  C   UNL A   1      41.012  35.275  36.604  1.00  0.00     0.135 A 
ATOM     88  C   UNL A   1      39.208  34.088  37.668  1.00  0.00     0.135 A 
ATOM     89  F   UNL A   1      41.941  35.384  35.642  1.00  0.00    -0.206 F 
ATOM     90  C   UNL A   1      40.930  36.280  37.562  1.00  0.00     0.059 A 
ATOM     91  C   UNL A   1      39.106  35.084  38.633  1.00  0.00     0.059 A 
ATOM     92  F   UNL A   1      38.374  33.039  37.742  1.00  0.00    -0.206 F 
ATOM     93  C   UNL A   1      39.978  36.173  38.577  1.00  0.00     0.060 A 
BRANCH  93  94
ATOM     94  S   UNL A   1      39.847  37.484  39.812  1.00  0.00     0.124 S 
ATOM     95  O   UNL A   1      39.908  36.723  41.055  1.00  0.00    -0.237 OA
ATOM     96  O   UNL A   1      41.009  38.320  39.524  1.00  0.00    -0.237 OA
ATOM     97  O   UNL A   1      38.556  38.096  39.507  1.00  0.00    -0.744 OA
ENDBRANCH  93  94
ENDBRANCH  61  86
ENDBRANCH  35  36
ENDBRANCH  27  30
ENDBRANCH  25  26
ENDBRANCH   1  25
TORSDOF 15
ENDMDL
