MODEL 1
REMARK VINA RESULT:     -12.4      0.000      0.000
REMARK SMILES O=C(NCCCNC(=O)c1cccc(OS(=O)(=O)c2cccc([N+](=O)[O-])c2)c1)c1ccc(-c2c3nc(c(-c4c(F)cc(S(=O)(=O)[O-])cc4F)c4ccc([nH]4)c(-c4c(F)cc(S(=O)(=O)[O-])cc4F)c4nc(c(-c5c(F)cc(S(=O)(=O)[O-])cc5F)c5ccc2[nH]5)C=C4)C=C3)cc1
REMARK SMILES IDX 5 1 4 2 3 3 1 4 2 5 29 7 30 8 94 9 31 10 93 11 32 12 33 13
REMARK SMILES IDX 34 14 87 15 35 16 92 17 86 18 88 19 36 20 91 21 85 22 84 23
REMARK SMILES IDX 37 25 71 26 50 27 70 28 51 29 54 30 69 31 89 32 52 33 53 34
REMARK SMILES IDX 68 36 90 37 55 38 38 39 39 40 48 41 40 42 41 43 47 44 49 45
REMARK SMILES IDX 42 46 43 47 44 48 45 49 46 50 72 51 73 52 82 53 74 54 75 55
REMARK SMILES IDX 81 56 83 57 76 58 77 59 78 60 79 61 80 62 56 63 57 64 66 65
REMARK SMILES IDX 58 66 59 67 65 68 67 69 60 70 61 71 62 72 63 73 64 74 6 75
REMARK SMILES IDX 7 76 8 77 9 79 10 80 11 81 28 82 12 83 14 84 13 85 15 86
REMARK SMILES IDX 16 87 17 88 18 89 19 90 20 91 27 92 21 93 23 94 22 95 24 96
REMARK SMILES IDX 25 97 26 98
REMARK H PARENT 3 6 88 24 54 35 7 78
REMARK Flexibility Score: inf
ROOT
ATOM      1  C   UNL A   1      39.474  22.173  26.439  1.00  0.00     0.042 C 
ENDROOT
BRANCH   1   2
ATOM      2  C   UNL A   1      40.111  23.433  26.999  1.00  0.00     0.118 C 
BRANCH   2   3
ATOM      3  N   UNL A   1      40.878  24.167  26.001  1.00  0.00    -0.352 N 
ATOM      4  O   UNL A   1      41.775  25.950  24.965  1.00  0.00    -0.269 OA
ATOM      5  C   UNL A   1      41.282  25.481  25.988  1.00  0.00     0.251 C 
ATOM      6  H   UNL A   1      41.149  23.640  25.215  1.00  0.00     0.163 HD
BRANCH   5   7
ATOM      7  C   UNL A   1      41.111  26.332  27.187  1.00  0.00     0.039 A 
ATOM      8  C   UNL A   1      41.949  27.424  27.416  1.00  0.00     0.014 A 
ATOM      9  C   UNL A   1      40.071  26.054  28.080  1.00  0.00     0.014 A 
ATOM     10  C   UNL A   1      41.848  28.140  28.603  1.00  0.00     0.010 A 
ATOM     11  C   UNL A   1      39.906  26.838  29.227  1.00  0.00     0.010 A 
ATOM     12  C   UNL A   1      40.810  27.872  29.511  1.00  0.00    -0.014 A 
BRANCH  12  13
ATOM     13  C   UNL A   1      40.649  28.752  30.696  1.00  0.00     0.031 A 
ATOM     14  C   UNL A   1      41.539  28.618  31.900  1.00  0.00     0.074 A 
ATOM     15  C   UNL A   1      39.697  29.707  30.656  1.00  0.00     0.049 A 
ATOM     16  N   UNL A   1      41.542  29.328  32.999  1.00  0.00    -0.248 NA
ATOM     17  C   UNL A   1      42.552  27.550  31.877  1.00  0.00     0.031 C 
ATOM     18  C   UNL A   1      38.756  29.910  29.548  1.00  0.00     0.029 A 
ATOM     19  N   UNL A   1      39.372  30.694  31.548  1.00  0.00    -0.354 N 
ATOM     20  C   UNL A   1      42.533  28.784  33.807  1.00  0.00     0.074 A 
ATOM     21  C   UNL A   1      43.106  27.672  33.076  1.00  0.00     0.031 C 
ATOM     22  C   UNL A   1      37.996  30.984  29.806  1.00  0.00     0.029 A 
ATOM     23  C   UNL A   1      38.353  31.510  31.117  1.00  0.00     0.049 A 
ATOM     24  H   UNL A   1      39.825  30.808  32.415  1.00  0.00     0.167 HD
ATOM     25  C   UNL A   1      42.928  29.180  35.041  1.00  0.00     0.037 A 
ATOM     26  C   UNL A   1      37.757  32.556  31.716  1.00  0.00     0.037 A 
ATOM     27  C   UNL A   1      42.374  30.308  35.746  1.00  0.00     0.049 A 
ATOM     28  C   UNL A   1      38.227  32.980  33.076  1.00  0.00     0.074 A 
ATOM     29  C   UNL A   1      42.744  30.819  36.978  1.00  0.00     0.029 A 
ATOM     30  N   UNL A   1      41.332  31.100  35.284  1.00  0.00    -0.354 N 
ATOM     31  N   UNL A   1      39.189  32.470  33.808  1.00  0.00    -0.248 NA
ATOM     32  C   UNL A   1      37.527  34.111  33.698  1.00  0.00     0.031 C 
ATOM     33  C   UNL A   1      41.907  31.899  37.276  1.00  0.00     0.029 A 
ATOM     34  C   UNL A   1      41.036  32.082  36.214  1.00  0.00     0.049 A 
ATOM     35  H   UNL A   1      40.872  30.981  34.422  1.00  0.00     0.167 HD
ATOM     36  C   UNL A   1      39.212  33.221  34.976  1.00  0.00     0.074 A 
ATOM     37  C   UNL A   1      38.185  34.235  34.843  1.00  0.00     0.031 C 
ATOM     38  C   UNL A   1      40.006  33.078  36.064  1.00  0.00     0.037 A 
BRANCH  25  39
ATOM     39  C   UNL A   1      44.011  28.393  35.723  1.00  0.00     0.058 A 
ATOM     40  C   UNL A   1      43.715  27.307  36.561  1.00  0.00     0.135 A 
ATOM     41  C   UNL A   1      45.363  28.677  35.469  1.00  0.00     0.135 A 
ATOM     42  F   UNL A   1      42.441  27.001  36.846  1.00  0.00    -0.206 F 
ATOM     43  C   UNL A   1      44.723  26.531  37.127  1.00  0.00     0.059 A 
ATOM     44  C   UNL A   1      46.386  27.904  36.011  1.00  0.00     0.059 A 
ATOM     45  F   UNL A   1      45.699  29.707  34.677  1.00  0.00    -0.206 F 
ATOM     46  C   UNL A   1      46.056  26.836  36.844  1.00  0.00     0.060 A 
BRANCH  46  47
ATOM     47  S   UNL A   1      47.351  25.799  37.558  1.00  0.00     0.124 S 
ATOM     48  O   UNL A   1      48.525  26.248  36.816  1.00  0.00    -0.237 OA
ATOM     49  O   UNL A   1      47.313  26.174  38.968  1.00  0.00    -0.237 OA
ATOM     50  O   UNL A   1      46.901  24.442  37.262  1.00  0.00    -0.744 OA
ENDBRANCH  46  47
ENDBRANCH  25  39
BRANCH  26  51
ATOM     51  C   UNL A   1      36.640  33.260  31.037  1.00  0.00     0.058 A 
ATOM     52  C   UNL A   1      36.880  34.165  29.994  1.00  0.00     0.135 A 
ATOM     53  C   UNL A   1      35.307  33.020  31.405  1.00  0.00     0.135 A 
ATOM     54  F   UNL A   1      38.139  34.426  29.609  1.00  0.00    -0.206 F 
ATOM     55  C   UNL A   1      35.839  34.823  29.349  1.00  0.00     0.059 A 
ATOM     56  C   UNL A   1      34.248  33.646  30.759  1.00  0.00     0.059 A 
ATOM     57  F   UNL A   1      35.026  32.145  32.383  1.00  0.00    -0.206 F 
ATOM     58  C   UNL A   1      34.524  34.558  29.741  1.00  0.00     0.060 A 
BRANCH  58  59
ATOM     59  S   UNL A   1      33.170  35.380  28.875  1.00  0.00     0.124 S 
ATOM     60  O   UNL A   1      32.532  34.256  28.198  1.00  0.00    -0.237 OA
ATOM     61  O   UNL A   1      32.414  35.977  29.972  1.00  0.00    -0.237 OA
ATOM     62  O   UNL A   1      33.860  36.332  28.010  1.00  0.00    -0.744 OA
ENDBRANCH  58  59
ENDBRANCH  26  51
BRANCH  38  63
ATOM     63  C   UNL A   1      39.793  34.046  37.190  1.00  0.00     0.058 A 
ATOM     64  C   UNL A   1      40.376  35.323  37.173  1.00  0.00     0.135 A 
ATOM     65  C   UNL A   1      38.982  33.705  38.282  1.00  0.00     0.135 A 
ATOM     66  F   UNL A   1      41.167  35.690  36.154  1.00  0.00    -0.206 F 
ATOM     67  C   UNL A   1      40.179  36.222  38.215  1.00  0.00     0.059 A 
ATOM     68  C   UNL A   1      38.755  34.596  39.325  1.00  0.00     0.059 A 
ATOM     69  F   UNL A   1      38.397  32.498  38.340  1.00  0.00    -0.206 F 
ATOM     70  C   UNL A   1      39.369  35.848  39.289  1.00  0.00     0.060 A 
BRANCH  70  71
ATOM     71  S   UNL A   1      39.102  37.028  40.628  1.00  0.00     0.124 S 
ATOM     72  O   UNL A   1      40.468  37.441  40.932  1.00  0.00    -0.237 OA
ATOM     73  O   UNL A   1      38.259  38.040  39.997  1.00  0.00    -0.237 OA
ATOM     74  O   UNL A   1      38.443  36.228  41.657  1.00  0.00    -0.744 OA
ENDBRANCH  70  71
ENDBRANCH  38  63
ENDBRANCH  12  13
ENDBRANCH   5   7
ENDBRANCH   2   3
ENDBRANCH   1   2
BRANCH   1  75
ATOM     75  C   UNL A   1      38.000  22.328  26.105  1.00  0.00     0.118 C 
BRANCH  75  76
ATOM     76  N   UNL A   1      37.777  22.736  24.719  1.00  0.00    -0.352 N 
ATOM     77  C   UNL A   1      36.649  22.593  23.944  1.00  0.00     0.251 C 
ATOM     78  H   UNL A   1      38.541  23.174  24.278  1.00  0.00     0.163 HD
ATOM     79  O   UNL A   1      36.667  22.845  22.744  1.00  0.00    -0.269 OA
BRANCH  77  80
ATOM     80  C   UNL A   1      35.402  22.125  24.579  1.00  0.00     0.043 A 
ATOM     81  C   UNL A   1      35.143  20.761  24.685  1.00  0.00     0.014 A 
ATOM     82  C   UNL A   1      34.521  23.063  25.123  1.00  0.00     0.062 A 
ATOM     83  C   UNL A   1      34.029  20.336  25.410  1.00  0.00     0.005 A 
ATOM     84  C   UNL A   1      33.466  22.641  25.926  1.00  0.00     0.143 A 
ATOM     85  C   UNL A   1      33.205  21.274  26.047  1.00  0.00     0.048 A 
BRANCH  84  86
ATOM     86  O   UNL A   1      32.679  23.502  26.656  1.00  0.00    -0.379 OA
BRANCH  86  87
ATOM     87  S   UNL A   1      31.580  24.450  25.891  1.00  0.00     0.339 S 
ATOM     88  O   UNL A   1      31.102  23.749  24.714  1.00  0.00    -0.181 OA
ATOM     89  O   UNL A   1      30.657  24.983  26.873  1.00  0.00    -0.181 OA
BRANCH  87  90
ATOM     90  C   UNL A   1      32.493  25.854  25.302  1.00  0.00     0.112 A 
ATOM     91  C   UNL A   1      32.824  26.885  26.186  1.00  0.00     0.024 A 
ATOM     92  C   UNL A   1      32.813  25.931  23.941  1.00  0.00     0.109 A 
ATOM     93  C   UNL A   1      33.472  28.021  25.699  1.00  0.00     0.009 A 
ATOM     94  C   UNL A   1      33.454  27.079  23.465  1.00  0.00     0.270 A 
ATOM     95  C   UNL A   1      33.784  28.125  24.340  1.00  0.00     0.086 A 
BRANCH  94  96
ATOM     96  N   UNL A   1      33.758  27.205  22.033  1.00  0.00     0.062 N 
ATOM     97  O   UNL A   1      34.267  28.267  21.646  1.00  0.00    -0.258 OA
ATOM     98  O   UNL A   1      33.481  26.249  21.300  1.00  0.00    -0.258 OA
ENDBRANCH  94  96
ENDBRANCH  87  90
ENDBRANCH  86  87
ENDBRANCH  84  86
ENDBRANCH  77  80
ENDBRANCH  75  76
ENDBRANCH   1  75
TORSDOF 17
ENDMDL
MODEL 2
REMARK VINA RESULT:     -12.4      6.168      8.563
REMARK SMILES O=C(NCCCNC(=O)c1cccc(OS(=O)(=O)c2cccc([N+](=O)[O-])c2)c1)c1ccc(-c2c3nc(c(-c4c(F)cc(S(=O)(=O)[O-])cc4F)c4ccc([nH]4)c(-c4c(F)cc(S(=O)(=O)[O-])cc4F)c4nc(c(-c5c(F)cc(S(=O)(=O)[O-])cc5F)c5ccc2[nH]5)C=C4)C=C3)cc1
REMARK SMILES IDX 5 1 4 2 3 3 1 4 2 5 29 7 30 8 94 9 31 10 93 11 32 12 33 13
REMARK SMILES IDX 34 14 87 15 35 16 92 17 86 18 88 19 36 20 91 21 85 22 84 23
REMARK SMILES IDX 37 25 71 26 50 27 70 28 51 29 54 30 69 31 89 32 52 33 53 34
REMARK SMILES IDX 68 36 90 37 55 38 38 39 39 40 48 41 40 42 41 43 47 44 49 45
REMARK SMILES IDX 42 46 43 47 44 48 45 49 46 50 72 51 73 52 82 53 74 54 75 55
REMARK SMILES IDX 81 56 83 57 76 58 77 59 78 60 79 61 80 62 56 63 57 64 66 65
REMARK SMILES IDX 58 66 59 67 65 68 67 69 60 70 61 71 62 72 63 73 64 74 6 75
REMARK SMILES IDX 7 76 8 77 9 79 10 80 11 81 28 82 12 83 14 84 13 85 15 86
REMARK SMILES IDX 16 87 17 88 18 89 19 90 20 91 27 92 21 93 23 94 22 95 24 96
REMARK SMILES IDX 25 97 26 98
REMARK H PARENT 3 6 88 24 54 35 7 78
REMARK Flexibility Score: inf
ROOT
ATOM      1  C   UNL A   1      37.996  19.841  25.009  1.00  0.00     0.042 C 
ENDROOT
BRANCH   1   2
ATOM      2  C   UNL A   1      39.175  20.341  25.826  1.00  0.00     0.118 C 
BRANCH   2   3
ATOM      3  N   UNL A   1      40.229  19.345  25.959  1.00  0.00    -0.352 N 
ATOM      4  O   UNL A   1      42.325  18.535  26.058  1.00  0.00    -0.269 OA
ATOM      5  C   UNL A   1      41.582  19.509  26.143  1.00  0.00     0.251 C 
ATOM      6  H   UNL A   1      39.926  18.409  25.911  1.00  0.00     0.163 HD
BRANCH   5   7
ATOM      7  C   UNL A   1      42.145  20.848  26.425  1.00  0.00     0.039 A 
ATOM      8  C   UNL A   1      42.403  21.749  25.391  1.00  0.00     0.014 A 
ATOM      9  C   UNL A   1      42.387  21.224  27.751  1.00  0.00     0.014 A 
ATOM     10  C   UNL A   1      43.039  22.955  25.662  1.00  0.00     0.010 A 
ATOM     11  C   UNL A   1      42.935  22.481  28.032  1.00  0.00     0.010 A 
ATOM     12  C   UNL A   1      43.289  23.346  26.988  1.00  0.00    -0.014 A 
BRANCH  12  13
ATOM     13  C   UNL A   1      43.837  24.702  27.244  1.00  0.00     0.031 A 
ATOM     14  C   UNL A   1      45.281  25.028  26.984  1.00  0.00     0.074 A 
ATOM     15  C   UNL A   1      42.993  25.656  27.689  1.00  0.00     0.049 A 
ATOM     16  N   UNL A   1      45.903  26.170  27.131  1.00  0.00    -0.248 NA
ATOM     17  C   UNL A   1      46.145  23.936  26.506  1.00  0.00     0.031 C 
ATOM     18  C   UNL A   1      41.575  25.446  28.002  1.00  0.00     0.029 A 
ATOM     19  N   UNL A   1      43.190  26.989  27.936  1.00  0.00    -0.354 N 
ATOM     20  C   UNL A   1      47.229  25.934  26.788  1.00  0.00     0.074 A 
ATOM     21  C   UNL A   1      47.328  24.533  26.436  1.00  0.00     0.031 C 
ATOM     22  C   UNL A   1      41.022  26.615  28.351  1.00  0.00     0.029 A 
ATOM     23  C   UNL A   1      42.053  27.645  28.343  1.00  0.00     0.049 A 
ATOM     24  H   UNL A   1      44.062  27.435  27.831  1.00  0.00     0.167 HD
ATOM     25  C   UNL A   1      48.263  26.809  26.767  1.00  0.00     0.037 A 
ATOM     26  C   UNL A   1      41.860  28.931  28.689  1.00  0.00     0.037 A 
ATOM     27  C   UNL A   1      48.147  28.209  27.088  1.00  0.00     0.049 A 
ATOM     28  C   UNL A   1      43.022  29.878  28.641  1.00  0.00     0.074 A 
ATOM     29  C   UNL A   1      49.127  29.185  27.044  1.00  0.00     0.029 A 
ATOM     30  N   UNL A   1      46.982  28.833  27.511  1.00  0.00    -0.354 N 
ATOM     31  N   UNL A   1      44.261  29.640  28.282  1.00  0.00    -0.248 NA
ATOM     32  C   UNL A   1      42.766  31.264  29.054  1.00  0.00     0.031 C 
ATOM     33  C   UNL A   1      48.564  30.393  27.471  1.00  0.00     0.029 A 
ATOM     34  C   UNL A   1      47.224  30.176  27.750  1.00  0.00     0.049 A 
ATOM     35  H   UNL A   1      46.112  28.387  27.625  1.00  0.00     0.167 HD
ATOM     36  C   UNL A   1      44.932  30.848  28.423  1.00  0.00     0.074 A 
ATOM     37  C   UNL A   1      43.957  31.820  28.875  1.00  0.00     0.031 C 
ATOM     38  C   UNL A   1      46.241  31.124  28.205  1.00  0.00     0.037 A 
BRANCH  25  39
ATOM     39  C   UNL A   1      49.621  26.289  26.388  1.00  0.00     0.058 A 
ATOM     40  C   UNL A   1      50.081  26.327  25.063  1.00  0.00     0.135 A 
ATOM     41  C   UNL A   1      50.504  25.826  27.377  1.00  0.00     0.135 A 
ATOM     42  F   UNL A   1      49.272  26.748  24.079  1.00  0.00    -0.206 F 
ATOM     43  C   UNL A   1      51.369  25.918  24.730  1.00  0.00     0.059 A 
ATOM     44  C   UNL A   1      51.803  25.429  27.068  1.00  0.00     0.059 A 
ATOM     45  F   UNL A   1      50.113  25.768  28.659  1.00  0.00    -0.206 F 
ATOM     46  C   UNL A   1      52.224  25.474  25.740  1.00  0.00     0.060 A 
BRANCH  46  47
ATOM     47  S   UNL A   1      53.905  24.981  25.297  1.00  0.00     0.124 S 
ATOM     48  O   UNL A   1      54.198  25.901  24.203  1.00  0.00    -0.237 OA
ATOM     49  O   UNL A   1      54.638  25.218  26.537  1.00  0.00    -0.237 OA
ATOM     50  O   UNL A   1      53.759  23.579  24.918  1.00  0.00    -0.744 OA
ENDBRANCH  46  47
ENDBRANCH  25  39
BRANCH  26  51
ATOM     51  C   UNL A   1      40.517  29.385  29.129  1.00  0.00     0.058 A 
ATOM     52  C   UNL A   1      40.243  29.638  30.479  1.00  0.00     0.135 A 
ATOM     53  C   UNL A   1      39.487  29.597  28.197  1.00  0.00     0.135 A 
ATOM     54  F   UNL A   1      41.196  29.448  31.404  1.00  0.00    -0.206 F 
ATOM     55  C   UNL A   1      38.989  30.070  30.897  1.00  0.00     0.059 A 
ATOM     56  C   UNL A   1      38.234  30.052  28.588  1.00  0.00     0.059 A 
ATOM     57  F   UNL A   1      39.709  29.389  26.890  1.00  0.00    -0.206 F 
ATOM     58  C   UNL A   1      37.989  30.272  29.943  1.00  0.00     0.060 A 
BRANCH  58  59
ATOM     59  S   UNL A   1      36.373  30.874  30.481  1.00  0.00     0.124 S 
ATOM     60  O   UNL A   1      35.570  30.660  29.283  1.00  0.00    -0.237 OA
ATOM     61  O   UNL A   1      36.077  30.003  31.614  1.00  0.00    -0.237 OA
ATOM     62  O   UNL A   1      36.638  32.267  30.826  1.00  0.00    -0.744 OA
ENDBRANCH  58  59
ENDBRANCH  26  51
BRANCH  38  63
ATOM     63  C   UNL A   1      46.684  32.536  28.451  1.00  0.00     0.058 A 
ATOM     64  C   UNL A   1      47.200  32.932  29.695  1.00  0.00     0.135 A 
ATOM     65  C   UNL A   1      46.615  33.495  27.429  1.00  0.00     0.135 A 
ATOM     66  F   UNL A   1      47.276  32.052  30.705  1.00  0.00    -0.206 F 
ATOM     67  C   UNL A   1      47.612  34.239  29.924  1.00  0.00     0.059 A 
ATOM     68  C   UNL A   1      47.040  34.803  27.630  1.00  0.00     0.059 A 
ATOM     69  F   UNL A   1      46.135  33.162  26.221  1.00  0.00    -0.206 F 
ATOM     70  C   UNL A   1      47.526  35.169  28.886  1.00  0.00     0.060 A 
BRANCH  70  71
ATOM     71  S   UNL A   1      48.082  36.860  29.186  1.00  0.00     0.124 S 
ATOM     72  O   UNL A   1      47.257  37.242  30.326  1.00  0.00    -0.237 OA
ATOM     73  O   UNL A   1      49.505  36.682  29.463  1.00  0.00    -0.237 OA
ATOM     74  O   UNL A   1      47.777  37.543  27.931  1.00  0.00    -0.744 OA
ENDBRANCH  70  71
ENDBRANCH  38  63
ENDBRANCH  12  13
ENDBRANCH   5   7
ENDBRANCH   2   3
ENDBRANCH   1   2
BRANCH   1  75
ATOM     75  C   UNL A   1      37.030  20.937  24.592  1.00  0.00     0.118 C 
BRANCH  75  76
ATOM     76  N   UNL A   1      36.327  21.530  25.729  1.00  0.00    -0.352 N 
ATOM     77  C   UNL A   1      35.123  22.194  25.752  1.00  0.00     0.251 C 
ATOM     78  H   UNL A   1      36.779  21.441  26.599  1.00  0.00     0.163 HD
ATOM     79  O   UNL A   1      34.737  22.773  26.761  1.00  0.00    -0.269 OA
BRANCH  77  80
ATOM     80  C   UNL A   1      34.290  22.204  24.534  1.00  0.00     0.043 A 
ATOM     81  C   UNL A   1      33.240  21.299  24.400  1.00  0.00     0.014 A 
ATOM     82  C   UNL A   1      34.532  23.167  23.552  1.00  0.00     0.062 A 
ATOM     83  C   UNL A   1      32.380  21.414  23.307  1.00  0.00     0.005 A 
ATOM     84  C   UNL A   1      33.622  23.345  22.514  1.00  0.00     0.143 A 
ATOM     85  C   UNL A   1      32.559  22.448  22.378  1.00  0.00     0.048 A 
BRANCH  84  86
ATOM     86  O   UNL A   1      33.682  24.394  21.626  1.00  0.00    -0.379 OA
BRANCH  86  87
ATOM     87  S   UNL A   1      32.875  25.784  21.949  1.00  0.00     0.339 S 
ATOM     88  O   UNL A   1      33.670  26.903  21.476  1.00  0.00    -0.181 OA
ATOM     89  O   UNL A   1      31.490  25.626  21.550  1.00  0.00    -0.181 OA
BRANCH  87  90
ATOM     90  C   UNL A   1      32.836  25.910  23.719  1.00  0.00     0.112 A 
ATOM     91  C   UNL A   1      33.896  26.524  24.393  1.00  0.00     0.024 A 
ATOM     92  C   UNL A   1      31.767  25.335  24.416  1.00  0.00     0.109 A 
ATOM     93  C   UNL A   1      33.896  26.549  25.788  1.00  0.00     0.009 A 
ATOM     94  C   UNL A   1      31.784  25.359  25.814  1.00  0.00     0.270 A 
ATOM     95  C   UNL A   1      32.846  25.963  26.503  1.00  0.00     0.086 A 
BRANCH  94  96
ATOM     96  N   UNL A   1      30.697  24.720  26.569  1.00  0.00     0.062 N 
ATOM     97  O   UNL A   1      30.977  23.713  27.236  1.00  0.00    -0.258 OA
ATOM     98  O   UNL A   1      29.569  25.220  26.487  1.00  0.00    -0.258 OA
ENDBRANCH  94  96
ENDBRANCH  87  90
ENDBRANCH  86  87
ENDBRANCH  84  86
ENDBRANCH  77  80
ENDBRANCH  75  76
ENDBRANCH   1  75
TORSDOF 17
ENDMDL
MODEL 3
REMARK VINA RESULT:     -12.3      6.369     12.009
REMARK SMILES O=C(NCCCNC(=O)c1cccc(OS(=O)(=O)c2cccc([N+](=O)[O-])c2)c1)c1ccc(-c2c3nc(c(-c4c(F)cc(S(=O)(=O)[O-])cc4F)c4ccc([nH]4)c(-c4c(F)cc(S(=O)(=O)[O-])cc4F)c4nc(c(-c5c(F)cc(S(=O)(=O)[O-])cc5F)c5ccc2[nH]5)C=C4)C=C3)cc1
REMARK SMILES IDX 5 1 4 2 3 3 1 4 2 5 29 7 30 8 94 9 31 10 93 11 32 12 33 13
REMARK SMILES IDX 34 14 87 15 35 16 92 17 86 18 88 19 36 20 91 21 85 22 84 23
REMARK SMILES IDX 37 25 71 26 50 27 70 28 51 29 54 30 69 31 89 32 52 33 53 34
REMARK SMILES IDX 68 36 90 37 55 38 38 39 39 40 48 41 40 42 41 43 47 44 49 45
REMARK SMILES IDX 42 46 43 47 44 48 45 49 46 50 72 51 73 52 82 53 74 54 75 55
REMARK SMILES IDX 81 56 83 57 76 58 77 59 78 60 79 61 80 62 56 63 57 64 66 65
REMARK SMILES IDX 58 66 59 67 65 68 67 69 60 70 61 71 62 72 63 73 64 74 6 75
REMARK SMILES IDX 7 76 8 77 9 79 10 80 11 81 28 82 12 83 14 84 13 85 15 86
REMARK SMILES IDX 16 87 17 88 18 89 19 90 20 91 27 92 21 93 23 94 22 95 24 96
REMARK SMILES IDX 25 97 26 98
REMARK H PARENT 3 6 88 24 54 35 7 78
REMARK Flexibility Score: inf
ROOT
ATOM      1  C   UNL A   1      34.369  30.945  27.518  1.00  0.00     0.042 C 
ENDROOT
BRANCH   1   2
ATOM      2  C   UNL A   1      35.569  31.451  28.300  1.00  0.00     0.118 C 
BRANCH   2   3
ATOM      3  N   UNL A   1      35.462  31.186  29.729  1.00  0.00    -0.352 N 
ATOM      4  O   UNL A   1      35.981  30.280  31.720  1.00  0.00    -0.269 OA
ATOM      5  C   UNL A   1      36.340  30.556  30.579  1.00  0.00     0.251 C 
ATOM      6  H   UNL A   1      34.632  31.507  30.150  1.00  0.00     0.163 HD
BRANCH   5   7
ATOM      7  C   UNL A   1      37.702  30.197  30.122  1.00  0.00     0.039 A 
ATOM      8  C   UNL A   1      38.038  30.242  28.768  1.00  0.00     0.014 A 
ATOM      9  C   UNL A   1      38.670  29.844  31.067  1.00  0.00     0.014 A 
ATOM     10  C   UNL A   1      39.283  29.790  28.346  1.00  0.00     0.010 A 
ATOM     11  C   UNL A   1      39.956  29.485  30.650  1.00  0.00     0.010 A 
ATOM     12  C   UNL A   1      40.265  29.430  29.283  1.00  0.00    -0.014 A 
BRANCH  12  13
ATOM     13  C   UNL A   1      41.628  29.092  28.799  1.00  0.00     0.031 A 
ATOM     14  C   UNL A   1      42.732  30.111  28.788  1.00  0.00     0.074 A 
ATOM     15  C   UNL A   1      41.864  27.827  28.395  1.00  0.00     0.049 A 
ATOM     16  N   UNL A   1      43.980  29.963  28.421  1.00  0.00    -0.248 NA
ATOM     17  C   UNL A   1      42.399  31.473  29.237  1.00  0.00     0.031 C 
ATOM     18  C   UNL A   1      40.859  26.760  28.337  1.00  0.00     0.029 A 
ATOM     19  N   UNL A   1      43.016  27.215  27.978  1.00  0.00    -0.354 N 
ATOM     20  C   UNL A   1      44.575  31.210  28.571  1.00  0.00     0.074 A 
ATOM     21  C   UNL A   1      43.548  32.111  29.051  1.00  0.00     0.031 C 
ATOM     22  C   UNL A   1      41.448  25.618  27.957  1.00  0.00     0.029 A 
ATOM     23  C   UNL A   1      42.856  25.880  27.690  1.00  0.00     0.049 A 
ATOM     24  H   UNL A   1      43.878  27.686  27.893  1.00  0.00     0.167 HD
ATOM     25  C   UNL A   1      45.861  31.564  28.333  1.00  0.00     0.037 A 
ATOM     26  C   UNL A   1      43.738  24.969  27.242  1.00  0.00     0.037 A 
ATOM     27  C   UNL A   1      46.884  30.653  27.886  1.00  0.00     0.049 A 
ATOM     28  C   UNL A   1      45.158  25.389  27.002  1.00  0.00     0.074 A 
ATOM     29  C   UNL A   1      48.227  30.907  27.666  1.00  0.00     0.029 A 
ATOM     30  N   UNL A   1      46.678  29.312  27.589  1.00  0.00    -0.354 N 
ATOM     31  N   UNL A   1      45.707  26.566  27.182  1.00  0.00    -0.248 NA
ATOM     32  C   UNL A   1      46.075  24.364  26.489  1.00  0.00     0.031 C 
ATOM     33  C   UNL A   1      48.828  29.729  27.207  1.00  0.00     0.029 A 
ATOM     34  C   UNL A   1      47.866  28.733  27.172  1.00  0.00     0.049 A 
ATOM     35  H   UNL A   1      45.817  28.843  27.664  1.00  0.00     0.167 HD
ATOM     36  C   UNL A   1      47.037  26.423  26.806  1.00  0.00     0.074 A 
ATOM     37  C   UNL A   1      47.215  25.039  26.414  1.00  0.00     0.031 C 
ATOM     38  C   UNL A   1      48.019  27.355  26.780  1.00  0.00     0.037 A 
BRANCH  25  39
ATOM     39  C   UNL A   1      46.249  33.000  28.542  1.00  0.00     0.058 A 
ATOM     40  C   UNL A   1      46.160  33.946  27.509  1.00  0.00     0.135 A 
ATOM     41  C   UNL A   1      46.635  33.453  29.814  1.00  0.00     0.135 A 
ATOM     42  F   UNL A   1      45.808  33.564  26.272  1.00  0.00    -0.206 F 
ATOM     43  C   UNL A   1      46.444  35.291  27.729  1.00  0.00     0.059 A 
ATOM     44  C   UNL A   1      46.908  34.796  30.061  1.00  0.00     0.059 A 
ATOM     45  F   UNL A   1      46.739  32.589  30.836  1.00  0.00    -0.206 F 
ATOM     46  C   UNL A   1      46.815  35.707  29.010  1.00  0.00     0.060 A 
BRANCH  46  47
ATOM     47  S   UNL A   1      47.145  37.461  29.287  1.00  0.00     0.124 S 
ATOM     48  O   UNL A   1      45.799  37.980  29.504  1.00  0.00    -0.237 OA
ATOM     49  O   UNL A   1      48.010  37.435  30.463  1.00  0.00    -0.237 OA
ATOM     50  O   UNL A   1      47.791  37.885  28.049  1.00  0.00    -0.744 OA
ENDBRANCH  46  47
ENDBRANCH  25  39
BRANCH  26  51
ATOM     51  C   UNL A   1      43.294  23.578  26.977  1.00  0.00     0.058 A 
ATOM     52  C   UNL A   1      43.071  23.124  25.670  1.00  0.00     0.135 A 
ATOM     53  C   UNL A   1      43.107  22.668  28.031  1.00  0.00     0.135 A 
ATOM     54  F   UNL A   1      43.236  23.959  24.633  1.00  0.00    -0.206 F 
ATOM     55  C   UNL A   1      42.661  21.820  25.414  1.00  0.00     0.059 A 
ATOM     56  C   UNL A   1      42.721  21.353  27.798  1.00  0.00     0.059 A 
ATOM     57  F   UNL A   1      43.329  23.050  29.298  1.00  0.00    -0.206 F 
ATOM     58  C   UNL A   1      42.487  20.942  26.486  1.00  0.00     0.060 A 
BRANCH  58  59
ATOM     59  S   UNL A   1      41.995  19.237  26.151  1.00  0.00     0.124 S 
ATOM     60  O   UNL A   1      42.830  18.915  24.999  1.00  0.00    -0.237 OA
ATOM     61  O   UNL A   1      42.340  18.561  27.398  1.00  0.00    -0.237 OA
ATOM     62  O   UNL A   1      40.565  19.351  25.885  1.00  0.00    -0.744 OA
ENDBRANCH  58  59
ENDBRANCH  26  51
BRANCH  38  63
ATOM     63  C   UNL A   1      49.372  26.901  26.316  1.00  0.00     0.058 A 
ATOM     64  C   UNL A   1      50.312  26.375  27.216  1.00  0.00     0.135 A 
ATOM     65  C   UNL A   1      49.722  26.972  24.960  1.00  0.00     0.135 A 
ATOM     66  F   UNL A   1      50.024  26.297  28.524  1.00  0.00    -0.206 F 
ATOM     67  C   UNL A   1      51.565  25.953  26.788  1.00  0.00     0.059 A 
ATOM     68  C   UNL A   1      50.963  26.537  24.507  1.00  0.00     0.059 A 
ATOM     69  F   UNL A   1      48.854  27.462  24.061  1.00  0.00    -0.206 F 
ATOM     70  C   UNL A   1      51.883  26.041  25.431  1.00  0.00     0.060 A 
BRANCH  70  71
ATOM     71  S   UNL A   1      53.505  25.472  24.881  1.00  0.00     0.124 S 
ATOM     72  O   UNL A   1      54.393  26.222  25.761  1.00  0.00    -0.237 OA
ATOM     73  O   UNL A   1      53.437  24.034  25.123  1.00  0.00    -0.237 OA
ATOM     74  O   UNL A   1      53.539  25.862  23.473  1.00  0.00    -0.744 OA
ENDBRANCH  70  71
ENDBRANCH  38  63
ENDBRANCH  12  13
ENDBRANCH   5   7
ENDBRANCH   2   3
ENDBRANCH   1   2
BRANCH   1  75
ATOM     75  C   UNL A   1      34.397  29.449  27.253  1.00  0.00     0.118 C 
BRANCH  75  76
ATOM     76  N   UNL A   1      33.276  28.747  27.875  1.00  0.00    -0.352 N 
ATOM     77  C   UNL A   1      32.142  28.235  27.288  1.00  0.00     0.251 C 
ATOM     78  H   UNL A   1      33.341  28.623  28.849  1.00  0.00     0.163 HD
ATOM     79  O   UNL A   1      31.213  27.809  27.965  1.00  0.00    -0.269 OA
BRANCH  77  80
ATOM     80  C   UNL A   1      32.052  28.205  25.815  1.00  0.00     0.043 A 
ATOM     81  C   UNL A   1      31.420  29.242  25.134  1.00  0.00     0.014 A 
ATOM     82  C   UNL A   1      32.660  27.159  25.117  1.00  0.00     0.062 A 
ATOM     83  C   UNL A   1      31.467  29.266  23.739  1.00  0.00     0.005 A 
ATOM     84  C   UNL A   1      32.792  27.231  23.733  1.00  0.00     0.143 A 
ATOM     85  C   UNL A   1      32.170  28.274  23.042  1.00  0.00     0.048 A 
BRANCH  84  86
ATOM     86  O   UNL A   1      33.547  26.347  22.997  1.00  0.00    -0.379 OA
BRANCH  86  87
ATOM     87  S   UNL A   1      32.823  25.081  22.249  1.00  0.00     0.339 S 
ATOM     88  O   UNL A   1      31.393  25.161  22.481  1.00  0.00    -0.181 OA
ATOM     89  O   UNL A   1      33.360  24.959  20.908  1.00  0.00    -0.181 OA
BRANCH  87  90
ATOM     90  C   UNL A   1      33.390  23.634  23.109  1.00  0.00     0.112 A 
ATOM     91  C   UNL A   1      32.630  22.462  23.068  1.00  0.00     0.024 A 
ATOM     92  C   UNL A   1      34.565  23.714  23.865  1.00  0.00     0.109 A 
ATOM     93  C   UNL A   1      33.041  21.354  23.810  1.00  0.00     0.009 A 
ATOM     94  C   UNL A   1      34.961  22.599  24.611  1.00  0.00     0.270 A 
ATOM     95  C   UNL A   1      34.202  21.419  24.587  1.00  0.00     0.086 A 
BRANCH  94  96
ATOM     96  N   UNL A   1      36.165  22.672  25.451  1.00  0.00     0.062 N 
ATOM     97  O   UNL A   1      36.354  23.715  26.094  1.00  0.00    -0.258 OA
ATOM     98  O   UNL A   1      36.920  21.692  25.460  1.00  0.00    -0.258 OA
ENDBRANCH  94  96
ENDBRANCH  87  90
ENDBRANCH  86  87
ENDBRANCH  84  86
ENDBRANCH  77  80
ENDBRANCH  75  76
ENDBRANCH   1  75
TORSDOF 17
ENDMDL
