MODEL 1
REMARK VINA RESULT:     -11.5      0.000      0.000
REMARK SMILES O=C(NCCCNC(=O)[C@H]1C[C@](F)(c2cccc(F)c2)C1)c1ccc(-c2c3nc(c(-c4c(F)cc(S(=O)(=O)[O-])cc4F)c4ccc([nH]4)c(-c4c(F)cc(S(=O)(=O)[O-])cc4F)c4nc(c(-c5c(F)cc(S(=O)(=O)[O-])cc5F)c5ccc2[nH]5)C=C4)C=C3)cc1
REMARK SMILES IDX 4 1 3 2 1 3 2 4 22 6 23 7 87 8 24 9 86 10 25 11 26 12 27 13
REMARK SMILES IDX 80 14 28 15 85 16 79 17 81 18 29 19 84 20 78 21 77 22 30 24
REMARK SMILES IDX 64 25 43 26 63 27 44 28 47 29 62 30 82 31 45 32 46 33 61 35
REMARK SMILES IDX 83 36 48 37 31 38 32 39 41 40 33 41 34 42 40 43 42 44 35 45
REMARK SMILES IDX 36 46 37 47 38 48 39 49 65 50 66 51 75 52 67 53 68 54 74 55
REMARK SMILES IDX 76 56 69 57 70 58 71 59 72 60 73 61 49 62 50 63 59 64 51 65
REMARK SMILES IDX 52 66 58 67 60 68 53 69 54 70 55 71 56 72 57 73 5 74 6 75
REMARK SMILES IDX 7 76 8 77 9 79 10 80 11 81 21 82 12 83 13 84 14 85 15 86
REMARK SMILES IDX 20 87 16 88 18 89 17 90 19 91
REMARK H PARENT 3 5 81 23 47 34 7 78
REMARK Flexibility Score: inf
ROOT
ATOM      1  C   UNL A   1      33.518  28.322  27.220  1.00  0.00     0.118 C 
ENDROOT
BRANCH   1   2
ATOM      2  N   UNL A   1      33.443  29.755  27.456  1.00  0.00    -0.352 N 
ATOM      3  O   UNL A   1      34.003  31.735  28.347  1.00  0.00    -0.269 OA
ATOM      4  C   UNL A   1      34.359  30.605  28.024  1.00  0.00     0.251 C 
ATOM      5  H   UNL A   1      32.606  30.181  27.163  1.00  0.00     0.163 HD
BRANCH   4   6
ATOM      6  C   UNL A   1      35.756  30.175  28.254  1.00  0.00     0.039 A 
ATOM      7  C   UNL A   1      36.720  30.266  27.244  1.00  0.00     0.014 A 
ATOM      8  C   UNL A   1      36.125  29.742  29.531  1.00  0.00     0.014 A 
ATOM      9  C   UNL A   1      38.022  29.829  27.481  1.00  0.00     0.010 A 
ATOM     10  C   UNL A   1      37.447  29.368  29.786  1.00  0.00     0.010 A 
ATOM     11  C   UNL A   1      38.402  29.393  28.758  1.00  0.00    -0.014 A 
BRANCH  11  12
ATOM     12  C   UNL A   1      39.812  29.021  29.034  1.00  0.00     0.031 A 
ATOM     13  C   UNL A   1      40.761  30.012  29.644  1.00  0.00     0.074 A 
ATOM     14  C   UNL A   1      40.238  27.784  28.709  1.00  0.00     0.049 A 
ATOM     15  N   UNL A   1      42.040  29.884  29.889  1.00  0.00    -0.248 NA
ATOM     16  C   UNL A   1      40.203  31.319  30.023  1.00  0.00     0.031 C 
ATOM     17  C   UNL A   1      39.403  26.737  28.117  1.00  0.00     0.029 A 
ATOM     18  N   UNL A   1      41.472  27.198  28.830  1.00  0.00    -0.354 N 
ATOM     19  C   UNL A   1      42.446  31.096  30.433  1.00  0.00     0.074 A 
ATOM     20  C   UNL A   1      41.281  31.956  30.462  1.00  0.00     0.031 C 
ATOM     21  C   UNL A   1      40.142  25.630  27.948  1.00  0.00     0.029 A 
ATOM     22  C   UNL A   1      41.513  25.906  28.363  1.00  0.00     0.049 A 
ATOM     23  H   UNL A   1      42.253  27.658  29.213  1.00  0.00     0.167 HD
ATOM     24  C   UNL A   1      43.677  31.454  30.872  1.00  0.00     0.037 A 
ATOM     25  C   UNL A   1      42.544  25.043  28.255  1.00  0.00     0.037 A 
ATOM     26  C   UNL A   1      44.826  30.585  30.845  1.00  0.00     0.049 A 
ATOM     27  C   UNL A   1      43.908  25.474  28.709  1.00  0.00     0.074 A 
ATOM     28  C   UNL A   1      46.110  30.845  31.288  1.00  0.00     0.029 A 
ATOM     29  N   UNL A   1      44.831  29.291  30.342  1.00  0.00    -0.354 N 
ATOM     30  N   UNL A   1      44.274  26.620  29.231  1.00  0.00    -0.248 NA
ATOM     31  C   UNL A   1      45.001  24.505  28.552  1.00  0.00     0.031 C 
ATOM     32  C   UNL A   1      46.903  29.726  31.015  1.00  0.00     0.029 A 
ATOM     33  C   UNL A   1      46.101  28.748  30.446  1.00  0.00     0.049 A 
ATOM     34  H   UNL A   1      44.048  28.827  29.967  1.00  0.00     0.167 HD
ATOM     35  C   UNL A   1      45.635  26.505  29.484  1.00  0.00     0.074 A 
ATOM     36  C   UNL A   1      46.029  25.176  29.060  1.00  0.00     0.031 C 
ATOM     37  C   UNL A   1      46.477  27.419  30.024  1.00  0.00     0.037 A 
BRANCH  24  38
ATOM     38  C   UNL A   1      43.853  32.850  31.401  1.00  0.00     0.058 A 
ATOM     39  C   UNL A   1      43.639  33.128  32.761  1.00  0.00     0.135 A 
ATOM     40  C   UNL A   1      44.198  33.920  30.562  1.00  0.00     0.135 A 
ATOM     41  F   UNL A   1      43.310  32.141  33.610  1.00  0.00    -0.206 F 
ATOM     42  C   UNL A   1      43.761  34.417  33.269  1.00  0.00     0.059 A 
ATOM     43  C   UNL A   1      44.349  35.215  31.053  1.00  0.00     0.059 A 
ATOM     44  F   UNL A   1      44.433  33.707  29.257  1.00  0.00    -0.206 F 
ATOM     45  C   UNL A   1      44.119  35.454  32.407  1.00  0.00     0.060 A 
BRANCH  45  46
ATOM     46  S   UNL A   1      44.344  37.111  33.093  1.00  0.00     0.124 S 
ATOM     47  O   UNL A   1      44.092  37.954  31.931  1.00  0.00    -0.237 OA
ATOM     48  O   UNL A   1      43.329  37.149  34.142  1.00  0.00    -0.237 OA
ATOM     49  O   UNL A   1      45.724  37.091  33.572  1.00  0.00    -0.744 OA
ENDBRANCH  45  46
ENDBRANCH  24  38
BRANCH  25  50
ATOM     50  C   UNL A   1      42.292  23.687  27.702  1.00  0.00     0.058 A 
ATOM     51  C   UNL A   1      42.197  22.567  28.543  1.00  0.00     0.135 A 
ATOM     52  C   UNL A   1      42.245  23.475  26.318  1.00  0.00     0.135 A 
ATOM     53  F   UNL A   1      42.247  22.719  29.876  1.00  0.00    -0.206 F 
ATOM     54  C   UNL A   1      42.111  21.278  28.030  1.00  0.00     0.059 A 
ATOM     55  C   UNL A   1      42.137  22.195  25.780  1.00  0.00     0.059 A 
ATOM     56  F   UNL A   1      42.321  24.517  25.477  1.00  0.00    -0.206 F 
ATOM     57  C   UNL A   1      42.097  21.102  26.645  1.00  0.00     0.060 A 
BRANCH  57  58
ATOM     58  S   UNL A   1      42.054  19.417  25.997  1.00  0.00     0.124 S 
ATOM     59  O   UNL A   1      42.895  19.539  24.811  1.00  0.00    -0.237 OA
ATOM     60  O   UNL A   1      42.619  18.650  27.102  1.00  0.00    -0.237 OA
ATOM     61  O   UNL A   1      40.635  19.191  25.740  1.00  0.00    -0.744 OA
ENDBRANCH  57  58
ENDBRANCH  25  50
BRANCH  37  62
ATOM     62  C   UNL A   1      47.914  27.023  30.217  1.00  0.00     0.058 A 
ATOM     63  C   UNL A   1      48.328  26.433  31.421  1.00  0.00     0.135 A 
ATOM     64  C   UNL A   1      48.894  27.335  29.264  1.00  0.00     0.135 A 
ATOM     65  F   UNL A   1      47.427  26.117  32.366  1.00  0.00    -0.206 F 
ATOM     66  C   UNL A   1      49.671  26.197  31.689  1.00  0.00     0.059 A 
ATOM     67  C   UNL A   1      50.243  27.087  29.502  1.00  0.00     0.059 A 
ATOM     68  F   UNL A   1      48.545  27.886  28.090  1.00  0.00    -0.206 F 
ATOM     69  C   UNL A   1      50.624  26.540  30.728  1.00  0.00     0.060 A 
BRANCH  69  70
ATOM     70  S   UNL A   1      52.366  26.261  31.108  1.00  0.00     0.124 S 
ATOM     71  O   UNL A   1      52.672  27.404  31.961  1.00  0.00    -0.237 OA
ATOM     72  O   UNL A   1      52.332  24.963  31.774  1.00  0.00    -0.237 OA
ATOM     73  O   UNL A   1      53.005  26.268  29.795  1.00  0.00    -0.744 OA
ENDBRANCH  69  70
ENDBRANCH  37  62
ENDBRANCH  11  12
ENDBRANCH   4   6
ENDBRANCH   1   2
BRANCH   1  74
ATOM     74  C   UNL A   1      32.189  27.624  27.486  1.00  0.00     0.042 C 
BRANCH  74  75
ATOM     75  C   UNL A   1      31.564  26.984  26.249  1.00  0.00     0.117 C 
BRANCH  75  76
ATOM     76  N   UNL A   1      30.812  25.786  26.573  1.00  0.00    -0.356 N 
ATOM     77  C   UNL A   1      31.209  24.485  26.742  1.00  0.00     0.223 C 
ATOM     78  H   UNL A   1      29.846  25.935  26.694  1.00  0.00     0.163 HD
ATOM     79  O   UNL A   1      30.305  23.680  27.015  1.00  0.00    -0.275 OA
BRANCH  77  80
ATOM     80  C   UNL A   1      32.674  24.037  26.631  1.00  0.00     0.085 C 
ATOM     81  C   UNL A   1      33.345  23.995  25.253  1.00  0.00     0.059 C 
ATOM     82  C   UNL A   1      33.142  22.607  26.906  1.00  0.00     0.059 C 
ATOM     83  C   UNL A   1      33.864  22.554  25.528  1.00  0.00     0.137 C 
ATOM     84  F   UNL A   1      33.337  21.633  24.680  1.00  0.00    -0.239 F 
BRANCH  83  85
ATOM     85  C   UNL A   1      35.443  22.323  25.508  1.00  0.00    -0.008 A 
ATOM     86  C   UNL A   1      36.341  23.330  25.930  1.00  0.00     0.007 A 
ATOM     87  C   UNL A   1      36.033  21.137  25.026  1.00  0.00     0.046 A 
ATOM     88  C   UNL A   1      37.730  23.159  25.899  1.00  0.00     0.003 A 
ATOM     89  C   UNL A   1      37.415  20.964  25.002  1.00  0.00     0.123 A 
ATOM     90  C   UNL A   1      38.269  21.965  25.437  1.00  0.00     0.039 A 
ATOM     91  F   UNL A   1      37.925  19.812  24.548  1.00  0.00    -0.207 F 
ENDBRANCH  83  85
ENDBRANCH  77  80
ENDBRANCH  75  76
ENDBRANCH  74  75
ENDBRANCH   1  74
TORSDOF 14
ENDMDL
MODEL 2
REMARK VINA RESULT:     -11.5      3.771     10.386
REMARK SMILES O=C(NCCCNC(=O)[C@H]1C[C@](F)(c2cccc(F)c2)C1)c1ccc(-c2c3nc(c(-c4c(F)cc(S(=O)(=O)[O-])cc4F)c4ccc([nH]4)c(-c4c(F)cc(S(=O)(=O)[O-])cc4F)c4nc(c(-c5c(F)cc(S(=O)(=O)[O-])cc5F)c5ccc2[nH]5)C=C4)C=C3)cc1
REMARK SMILES IDX 4 1 3 2 1 3 2 4 22 6 23 7 87 8 24 9 86 10 25 11 26 12 27 13
REMARK SMILES IDX 80 14 28 15 85 16 79 17 81 18 29 19 84 20 78 21 77 22 30 24
REMARK SMILES IDX 64 25 43 26 63 27 44 28 47 29 62 30 82 31 45 32 46 33 61 35
REMARK SMILES IDX 83 36 48 37 31 38 32 39 41 40 33 41 34 42 40 43 42 44 35 45
REMARK SMILES IDX 36 46 37 47 38 48 39 49 65 50 66 51 75 52 67 53 68 54 74 55
REMARK SMILES IDX 76 56 69 57 70 58 71 59 72 60 73 61 49 62 50 63 59 64 51 65
REMARK SMILES IDX 52 66 58 67 60 68 53 69 54 70 55 71 56 72 57 73 5 74 6 75
REMARK SMILES IDX 7 76 8 77 9 79 10 80 11 81 21 82 12 83 13 84 14 85 15 86
REMARK SMILES IDX 20 87 16 88 18 89 17 90 19 91
REMARK H PARENT 3 5 81 23 47 34 7 78
REMARK Flexibility Score: inf
ROOT
ATOM      1  C   UNL A   1      40.187  21.277  26.613  1.00  0.00     0.118 C 
ENDROOT
BRANCH   1   2
ATOM      2  N   UNL A   1      39.136  21.797  25.754  1.00  0.00    -0.352 N 
ATOM      3  O   UNL A   1      37.491  23.175  25.103  1.00  0.00    -0.269 OA
ATOM      4  C   UNL A   1      38.518  23.023  25.758  1.00  0.00     0.251 C 
ATOM      5  H   UNL A   1      38.818  21.174  25.062  1.00  0.00     0.163 HD
BRANCH   4   6
ATOM      6  C   UNL A   1      39.071  24.151  26.540  1.00  0.00     0.039 A 
ATOM      7  C   UNL A   1      39.943  25.079  25.962  1.00  0.00     0.014 A 
ATOM      8  C   UNL A   1      38.645  24.324  27.861  1.00  0.00     0.014 A 
ATOM      9  C   UNL A   1      40.468  26.116  26.730  1.00  0.00     0.010 A 
ATOM     10  C   UNL A   1      39.120  25.404  28.610  1.00  0.00     0.010 A 
ATOM     11  C   UNL A   1      40.048  26.298  28.056  1.00  0.00    -0.014 A 
BRANCH  11  12
ATOM     12  C   UNL A   1      40.534  27.460  28.842  1.00  0.00     0.031 A 
ATOM     13  C   UNL A   1      41.908  27.455  29.449  1.00  0.00     0.074 A 
ATOM     14  C   UNL A   1      39.717  28.516  29.022  1.00  0.00     0.049 A 
ATOM     15  N   UNL A   1      42.470  28.349  30.221  1.00  0.00    -0.248 NA
ATOM     16  C   UNL A   1      42.758  26.292  29.156  1.00  0.00     0.031 C 
ATOM     17  C   UNL A   1      38.363  28.634  28.474  1.00  0.00     0.029 A 
ATOM     18  N   UNL A   1      39.899  29.687  29.712  1.00  0.00    -0.354 N 
ATOM     19  C   UNL A   1      43.731  27.851  30.523  1.00  0.00     0.074 A 
ATOM     20  C   UNL A   1      43.844  26.565  29.867  1.00  0.00     0.031 C 
ATOM     21  C   UNL A   1      37.848  29.820  28.829  1.00  0.00     0.029 A 
ATOM     22  C   UNL A   1      38.807  30.521  29.677  1.00  0.00     0.049 A 
ATOM     23  H   UNL A   1      40.732  29.909  30.188  1.00  0.00     0.167 HD
ATOM     24  C   UNL A   1      44.706  28.421  31.273  1.00  0.00     0.037 A 
ATOM     25  C   UNL A   1      38.588  31.707  30.278  1.00  0.00     0.037 A 
ATOM     26  C   UNL A   1      44.583  29.706  31.912  1.00  0.00     0.049 A 
ATOM     27  C   UNL A   1      39.664  32.301  31.139  1.00  0.00     0.074 A 
ATOM     28  C   UNL A   1      45.521  30.380  32.673  1.00  0.00     0.029 A 
ATOM     29  N   UNL A   1      43.451  30.509  31.871  1.00  0.00    -0.354 N 
ATOM     30  N   UNL A   1      40.856  31.824  31.405  1.00  0.00    -0.248 NA
ATOM     31  C   UNL A   1      39.369  33.585  31.788  1.00  0.00     0.031 C 
ATOM     32  C   UNL A   1      44.944  31.569  33.128  1.00  0.00     0.029 A 
ATOM     33  C   UNL A   1      43.661  31.661  32.610  1.00  0.00     0.049 A 
ATOM     34  H   UNL A   1      42.621  30.291  31.387  1.00  0.00     0.167 HD
ATOM     35  C   UNL A   1      41.462  32.756  32.237  1.00  0.00     0.074 A 
ATOM     36  C   UNL A   1      40.507  33.829  32.429  1.00  0.00     0.031 C 
ATOM     37  C   UNL A   1      42.700  32.724  32.787  1.00  0.00     0.037 A 
BRANCH  24  38
ATOM     38  C   UNL A   1      45.984  27.651  31.461  1.00  0.00     0.058 A 
ATOM     39  C   UNL A   1      47.083  27.879  30.617  1.00  0.00     0.135 A 
ATOM     40  C   UNL A   1      46.113  26.664  32.451  1.00  0.00     0.135 A 
ATOM     41  F   UNL A   1      47.016  28.814  29.656  1.00  0.00    -0.206 F 
ATOM     42  C   UNL A   1      48.264  27.156  30.748  1.00  0.00     0.059 A 
ATOM     43  C   UNL A   1      47.294  25.945  32.615  1.00  0.00     0.059 A 
ATOM     44  F   UNL A   1      45.099  26.419  33.297  1.00  0.00    -0.206 F 
ATOM     45  C   UNL A   1      48.361  26.193  31.753  1.00  0.00     0.060 A 
BRANCH  45  46
ATOM     46  S   UNL A   1      49.925  25.311  31.958  1.00  0.00     0.124 S 
ATOM     47  O   UNL A   1      50.173  24.821  30.606  1.00  0.00    -0.237 OA
ATOM     48  O   UNL A   1      50.816  26.370  32.424  1.00  0.00    -0.237 OA
ATOM     49  O   UNL A   1      49.607  24.290  32.951  1.00  0.00    -0.744 OA
ENDBRANCH  45  46
ENDBRANCH  24  38
BRANCH  25  50
ATOM     50  C   UNL A   1      37.290  32.396  30.058  1.00  0.00     0.058 A 
ATOM     51  C   UNL A   1      37.174  33.450  29.138  1.00  0.00     0.135 A 
ATOM     52  C   UNL A   1      36.169  32.080  30.838  1.00  0.00     0.135 A 
ATOM     53  F   UNL A   1      38.224  33.798  28.377  1.00  0.00    -0.206 F 
ATOM     54  C   UNL A   1      36.007  34.199  29.032  1.00  0.00     0.059 A 
ATOM     55  C   UNL A   1      34.982  32.800  30.734  1.00  0.00     0.059 A 
ATOM     56  F   UNL A   1      36.230  31.073  31.721  1.00  0.00    -0.206 F 
ATOM     57  C   UNL A   1      34.920  33.874  29.847  1.00  0.00     0.060 A 
BRANCH  57  58
ATOM     58  S   UNL A   1      33.438  34.898  29.743  1.00  0.00     0.124 S 
ATOM     59  O   UNL A   1      33.978  36.138  29.194  1.00  0.00    -0.237 OA
ATOM     60  O   UNL A   1      32.590  34.122  28.845  1.00  0.00    -0.237 OA
ATOM     61  O   UNL A   1      32.981  34.972  31.127  1.00  0.00    -0.744 OA
ENDBRANCH  57  58
ENDBRANCH  25  50
BRANCH  37  62
ATOM     62  C   UNL A   1      43.123  33.891  33.635  1.00  0.00     0.058 A 
ATOM     63  C   UNL A   1      42.949  33.851  35.027  1.00  0.00     0.135 A 
ATOM     64  C   UNL A   1      43.585  35.084  33.062  1.00  0.00     0.135 A 
ATOM     65  F   UNL A   1      42.507  32.732  35.623  1.00  0.00    -0.206 F 
ATOM     66  C   UNL A   1      43.185  34.968  35.820  1.00  0.00     0.059 A 
ATOM     67  C   UNL A   1      43.850  36.209  33.839  1.00  0.00     0.059 A 
ATOM     68  F   UNL A   1      43.782  35.165  31.737  1.00  0.00    -0.206 F 
ATOM     69  C   UNL A   1      43.624  36.147  35.215  1.00  0.00     0.060 A 
BRANCH  69  70
ATOM     70  S   UNL A   1      43.890  37.598  36.255  1.00  0.00     0.124 S 
ATOM     71  O   UNL A   1      45.253  37.380  36.728  1.00  0.00    -0.237 OA
ATOM     72  O   UNL A   1      43.715  38.693  35.307  1.00  0.00    -0.237 OA
ATOM     73  O   UNL A   1      42.847  37.484  37.271  1.00  0.00    -0.744 OA
ENDBRANCH  69  70
ENDBRANCH  37  62
ENDBRANCH  11  12
ENDBRANCH   4   6
ENDBRANCH   1   2
BRANCH   1  74
ATOM     74  C   UNL A   1      41.579  21.621  26.095  1.00  0.00     0.042 C 
BRANCH  74  75
ATOM     75  C   UNL A   1      42.678  21.519  27.150  1.00  0.00     0.117 C 
BRANCH  75  76
ATOM     76  N   UNL A   1      44.004  21.544  26.561  1.00  0.00    -0.356 N 
ATOM     77  C   UNL A   1      44.846  22.585  26.266  1.00  0.00     0.223 C 
ATOM     78  H   UNL A   1      44.363  20.655  26.335  1.00  0.00     0.163 HD
ATOM     79  O   UNL A   1      45.930  22.268  25.753  1.00  0.00    -0.275 OA
BRANCH  77  80
ATOM     80  C   UNL A   1      44.498  24.051  26.566  1.00  0.00     0.085 C 
ATOM     81  C   UNL A   1      43.890  24.921  25.459  1.00  0.00     0.059 C 
ATOM     82  C   UNL A   1      45.549  25.128  26.840  1.00  0.00     0.059 C 
ATOM     83  C   UNL A   1      44.927  26.046  25.748  1.00  0.00     0.137 C 
ATOM     84  F   UNL A   1      45.761  26.276  24.701  1.00  0.00    -0.239 F 
BRANCH  83  85
ATOM     85  C   UNL A   1      44.362  27.472  26.189  1.00  0.00    -0.008 A 
ATOM     86  C   UNL A   1      45.146  28.374  26.944  1.00  0.00     0.007 A 
ATOM     87  C   UNL A   1      43.048  27.893  25.900  1.00  0.00     0.046 A 
ATOM     88  C   UNL A   1      44.664  29.620  27.362  1.00  0.00     0.003 A 
ATOM     89  C   UNL A   1      42.570  29.136  26.310  1.00  0.00     0.123 A 
ATOM     90  C   UNL A   1      43.369  30.004  27.036  1.00  0.00     0.039 A 
ATOM     91  F   UNL A   1      41.319  29.494  25.998  1.00  0.00    -0.207 F 
ENDBRANCH  83  85
ENDBRANCH  77  80
ENDBRANCH  75  76
ENDBRANCH  74  75
ENDBRANCH   1  74
TORSDOF 14
ENDMDL
MODEL 3
REMARK VINA RESULT:     -11.5      2.537      4.160
REMARK SMILES O=C(NCCCNC(=O)[C@H]1C[C@](F)(c2cccc(F)c2)C1)c1ccc(-c2c3nc(c(-c4c(F)cc(S(=O)(=O)[O-])cc4F)c4ccc([nH]4)c(-c4c(F)cc(S(=O)(=O)[O-])cc4F)c4nc(c(-c5c(F)cc(S(=O)(=O)[O-])cc5F)c5ccc2[nH]5)C=C4)C=C3)cc1
REMARK SMILES IDX 4 1 3 2 1 3 2 4 22 6 23 7 87 8 24 9 86 10 25 11 26 12 27 13
REMARK SMILES IDX 80 14 28 15 85 16 79 17 81 18 29 19 84 20 78 21 77 22 30 24
REMARK SMILES IDX 64 25 43 26 63 27 44 28 47 29 62 30 82 31 45 32 46 33 61 35
REMARK SMILES IDX 83 36 48 37 31 38 32 39 41 40 33 41 34 42 40 43 42 44 35 45
REMARK SMILES IDX 36 46 37 47 38 48 39 49 65 50 66 51 75 52 67 53 68 54 74 55
REMARK SMILES IDX 76 56 69 57 70 58 71 59 72 60 73 61 49 62 50 63 59 64 51 65
REMARK SMILES IDX 52 66 58 67 60 68 53 69 54 70 55 71 56 72 57 73 5 74 6 75
REMARK SMILES IDX 7 76 8 77 9 79 10 80 11 81 21 82 12 83 13 84 14 85 15 86
REMARK SMILES IDX 20 87 16 88 18 89 17 90 19 91
REMARK H PARENT 3 5 81 23 47 34 7 78
REMARK Flexibility Score: inf
ROOT
ATOM      1  C   UNL A   1      33.437  28.071  27.263  1.00  0.00     0.118 C 
ENDROOT
BRANCH   1   2
ATOM      2  N   UNL A   1      33.335  29.513  27.418  1.00  0.00    -0.352 N 
ATOM      3  O   UNL A   1      33.862  31.551  28.193  1.00  0.00    -0.269 OA
ATOM      4  C   UNL A   1      34.237  30.412  27.932  1.00  0.00     0.251 C 
ATOM      5  H   UNL A   1      32.488  29.906  27.108  1.00  0.00     0.163 HD
BRANCH   4   6
ATOM      6  C   UNL A   1      35.644  30.022  28.176  1.00  0.00     0.039 A 
ATOM      7  C   UNL A   1      36.611  30.121  27.169  1.00  0.00     0.014 A 
ATOM      8  C   UNL A   1      36.017  29.620  29.463  1.00  0.00     0.014 A 
ATOM      9  C   UNL A   1      37.922  29.722  27.421  1.00  0.00     0.010 A 
ATOM     10  C   UNL A   1      37.346  29.285  29.731  1.00  0.00     0.010 A 
ATOM     11  C   UNL A   1      38.306  29.318  28.708  1.00  0.00    -0.014 A 
BRANCH  11  12
ATOM     12  C   UNL A   1      39.724  28.987  28.997  1.00  0.00     0.031 A 
ATOM     13  C   UNL A   1      40.637  30.004  29.619  1.00  0.00     0.074 A 
ATOM     14  C   UNL A   1      40.190  27.764  28.675  1.00  0.00     0.049 A 
ATOM     15  N   UNL A   1      41.916  29.914  29.876  1.00  0.00    -0.248 NA
ATOM     16  C   UNL A   1      40.036  31.293  29.995  1.00  0.00     0.031 C 
ATOM     17  C   UNL A   1      39.393  26.693  28.071  1.00  0.00     0.029 A 
ATOM     18  N   UNL A   1      41.439  27.215  28.806  1.00  0.00    -0.354 N 
ATOM     19  C   UNL A   1      42.280  31.136  30.427  1.00  0.00     0.074 A 
ATOM     20  C   UNL A   1      41.090  31.961  30.445  1.00  0.00     0.031 C 
ATOM     21  C   UNL A   1      40.166  25.610  27.908  1.00  0.00     0.029 A 
ATOM     22  C   UNL A   1      41.524  25.925  28.337  1.00  0.00     0.049 A 
ATOM     23  H   UNL A   1      42.203  27.697  29.198  1.00  0.00     0.167 HD
ATOM     24  C   UNL A   1      43.496  31.529  30.879  1.00  0.00     0.037 A 
ATOM     25  C   UNL A   1      42.581  25.094  28.239  1.00  0.00     0.037 A 
ATOM     26  C   UNL A   1      44.670  30.696  30.862  1.00  0.00     0.049 A 
ATOM     27  C   UNL A   1      43.927  25.564  28.707  1.00  0.00     0.074 A 
ATOM     28  C   UNL A   1      45.941  30.993  31.319  1.00  0.00     0.029 A 
ATOM     29  N   UNL A   1      44.719  29.403  30.357  1.00  0.00    -0.354 N 
ATOM     30  N   UNL A   1      44.253  26.719  29.235  1.00  0.00    -0.248 NA
ATOM     31  C   UNL A   1      45.049  24.629  28.560  1.00  0.00     0.031 C 
ATOM     32  C   UNL A   1      46.770  29.898  31.052  1.00  0.00     0.029 A 
ATOM     33  C   UNL A   1      46.004  28.898  30.472  1.00  0.00     0.049 A 
ATOM     34  H   UNL A   1      43.954  28.917  29.973  1.00  0.00     0.167 HD
ATOM     35  C   UNL A   1      45.614  26.644  29.503  1.00  0.00     0.074 A 
ATOM     36  C   UNL A   1      46.052  25.329  29.080  1.00  0.00     0.031 C 
ATOM     37  C   UNL A   1      46.423  27.582  30.052  1.00  0.00     0.037 A 
BRANCH  24  38
ATOM     38  C   UNL A   1      43.624  32.929  31.413  1.00  0.00     0.058 A 
ATOM     39  C   UNL A   1      43.441  33.189  32.781  1.00  0.00     0.135 A 
ATOM     40  C   UNL A   1      43.895  34.019  30.571  1.00  0.00     0.135 A 
ATOM     41  F   UNL A   1      43.183  32.184  33.632  1.00  0.00    -0.206 F 
ATOM     42  C   UNL A   1      43.520  34.480  33.294  1.00  0.00     0.059 A 
ATOM     43  C   UNL A   1      44.002  35.316  31.066  1.00  0.00     0.059 A 
ATOM     44  F   UNL A   1      44.099  33.824  29.258  1.00  0.00    -0.206 F 
ATOM     45  C   UNL A   1      43.804  35.537  32.429  1.00  0.00     0.060 A 
BRANCH  45  46
ATOM     46  S   UNL A   1      43.975  37.198  33.120  1.00  0.00     0.124 S 
ATOM     47  O   UNL A   1      42.810  37.281  33.994  1.00  0.00    -0.237 OA
ATOM     48  O   UNL A   1      45.270  37.121  33.789  1.00  0.00    -0.237 OA
ATOM     49  O   UNL A   1      43.941  38.057  31.940  1.00  0.00    -0.744 OA
ENDBRANCH  45  46
ENDBRANCH  24  38
BRANCH  25  50
ATOM     50  C   UNL A   1      42.376  23.733  27.681  1.00  0.00     0.058 A 
ATOM     51  C   UNL A   1      42.310  22.608  28.518  1.00  0.00     0.135 A 
ATOM     52  C   UNL A   1      42.344  23.522  26.296  1.00  0.00     0.135 A 
ATOM     53  F   UNL A   1      42.347  22.757  29.852  1.00  0.00    -0.206 F 
ATOM     54  C   UNL A   1      42.268  21.318  28.001  1.00  0.00     0.059 A 
ATOM     55  C   UNL A   1      42.279  22.242  25.754  1.00  0.00     0.059 A 
ATOM     56  F   UNL A   1      42.392  24.569  25.458  1.00  0.00    -0.206 F 
ATOM     57  C   UNL A   1      42.268  21.145  26.616  1.00  0.00     0.060 A 
BRANCH  57  58
ATOM     58  S   UNL A   1      42.282  19.462  25.964  1.00  0.00     0.124 S 
ATOM     59  O   UNL A   1      43.196  19.594  24.834  1.00  0.00    -0.237 OA
ATOM     60  O   UNL A   1      42.782  18.696  27.101  1.00  0.00    -0.237 OA
ATOM     61  O   UNL A   1      40.885  19.224  25.615  1.00  0.00    -0.744 OA
ENDBRANCH  57  58
ENDBRANCH  25  50
BRANCH  37  62
ATOM     62  C   UNL A   1      47.869  27.229  30.260  1.00  0.00     0.058 A 
ATOM     63  C   UNL A   1      48.273  26.566  31.429  1.00  0.00     0.135 A 
ATOM     64  C   UNL A   1      48.861  27.649  29.362  1.00  0.00     0.135 A 
ATOM     65  F   UNL A   1      47.361  26.146  32.320  1.00  0.00    -0.206 F 
ATOM     66  C   UNL A   1      49.617  26.363  31.719  1.00  0.00     0.059 A 
ATOM     67  C   UNL A   1      50.213  27.436  29.622  1.00  0.00     0.059 A 
ATOM     68  F   UNL A   1      48.523  28.272  28.223  1.00  0.00    -0.206 F 
ATOM     69  C   UNL A   1      50.581  26.813  30.816  1.00  0.00     0.060 A 
BRANCH  69  70
ATOM     70  S   UNL A   1      52.323  26.575  31.227  1.00  0.00     0.124 S 
ATOM     71  O   UNL A   1      52.717  27.915  31.646  1.00  0.00    -0.237 OA
ATOM     72  O   UNL A   1      52.254  25.574  32.287  1.00  0.00    -0.237 OA
ATOM     73  O   UNL A   1      52.907  26.111  29.972  1.00  0.00    -0.744 OA
ENDBRANCH  69  70
ENDBRANCH  37  62
ENDBRANCH  11  12
ENDBRANCH   4   6
ENDBRANCH   1   2
BRANCH   1  74
ATOM     74  C   UNL A   1      33.896  27.673  25.864  1.00  0.00     0.042 C 
BRANCH  74  75
ATOM     75  C   UNL A   1      33.126  26.496  25.269  1.00  0.00     0.117 C 
BRANCH  75  76
ATOM     76  N   UNL A   1      33.615  26.134  23.952  1.00  0.00    -0.356 N 
ATOM     77  C   UNL A   1      33.211  26.515  22.698  1.00  0.00     0.223 C 
ATOM     78  H   UNL A   1      34.370  25.502  23.960  1.00  0.00     0.163 HD
ATOM     79  O   UNL A   1      33.843  26.013  21.756  1.00  0.00    -0.275 OA
BRANCH  77  80
ATOM     80  C   UNL A   1      32.073  27.518  22.456  1.00  0.00     0.085 C 
ATOM     81  C   UNL A   1      32.250  28.977  22.895  1.00  0.00     0.059 C 
ATOM     82  C   UNL A   1      30.729  27.459  23.186  1.00  0.00     0.059 C 
ATOM     83  C   UNL A   1      30.867  28.950  23.610  1.00  0.00     0.137 C 
ATOM     84  F   UNL A   1      30.966  29.119  24.954  1.00  0.00    -0.239 F 
BRANCH  83  85
ATOM     85  C   UNL A   1      29.760  29.986  23.111  1.00  0.00    -0.008 A 
ATOM     86  C   UNL A   1      29.309  31.038  23.941  1.00  0.00     0.007 A 
ATOM     87  C   UNL A   1      29.136  29.885  21.851  1.00  0.00     0.046 A 
ATOM     88  C   UNL A   1      28.322  31.944  23.534  1.00  0.00     0.003 A 
ATOM     89  C   UNL A   1      28.160  30.791  21.443  1.00  0.00     0.123 A 
ATOM     90  C   UNL A   1      27.750  31.822  22.274  1.00  0.00     0.039 A 
ATOM     91  F   UNL A   1      27.608  30.661  20.231  1.00  0.00    -0.207 F 
ENDBRANCH  83  85
ENDBRANCH  77  80
ENDBRANCH  75  76
ENDBRANCH  74  75
ENDBRANCH   1  74
TORSDOF 14
ENDMDL
