MODEL 1
REMARK VINA RESULT:     -14.0      0.000      0.000
REMARK SMILES CCC(=O)N1CCC[C@](C[C@H]2CC(c3ccc(C)cc3)=NO2)(C(=O)NCCCNC(=O)c2ccc(-c3c4nc(c(-c5c(F)cc(S(=O)(=O)[O-])cc5F)c5ccc([nH]5)c(-c5c(F)cc(S(=O)(=O)[O-])cc5F)c5nc(c(-c6c(F)cc(S(=O)(=O)[O-])cc6F)c6ccc3[nH]6)C=C5)C=C4)cc2)C1
REMARK SMILES IDX 27 1 26 2 25 3 23 4 24 5 9 7 5 8 6 9 98 10 7 11 8 12 3 13
REMARK SMILES IDX 4 14 2 15 1 16 10 17 11 18 12 19 22 20 13 21 21 22 14 23
REMARK SMILES IDX 15 24 20 25 16 26 19 27 17 28 18 29 28 30 29 31 30 32 31 34
REMARK SMILES IDX 32 35 33 36 97 37 34 38 96 39 35 40 36 41 37 42 90 43 38 44
REMARK SMILES IDX 95 45 89 46 91 47 39 48 94 49 88 50 87 51 40 53 74 54 53 55
REMARK SMILES IDX 73 56 54 57 57 58 72 59 92 60 55 61 56 62 71 64 93 65 58 66
REMARK SMILES IDX 41 67 42 68 51 69 43 70 44 71 50 72 52 73 45 74 46 75 47 76
REMARK SMILES IDX 48 77 49 78 75 79 76 80 85 81 77 82 78 83 84 84 86 85 79 86
REMARK SMILES IDX 80 87 81 88 82 89 83 90 59 91 60 92 69 93 61 94 62 95 68 96
REMARK SMILES IDX 70 97 63 98 64 99 65 100 66 101 67 102
REMARK H PARENT 25 6 29 33 91 52 57 63
REMARK Flexibility Score: inf
ROOT
ATOM      1  C   UNL A   1      38.870  21.608  25.910  1.00  0.00     0.042 C 
ENDROOT
BRANCH   1   2
ATOM      2  C   UNL A   1      37.403  21.476  25.542  1.00  0.00     0.117 C 
BRANCH   2   3
ATOM      3  N   UNL A   1      37.131  21.992  24.208  1.00  0.00    -0.355 N 
ATOM      4  C   UNL A   1      36.136  22.641  23.575  1.00  0.00     0.228 C 
ATOM      5  O   UNL A   1      36.431  22.935  22.404  1.00  0.00    -0.274 OA
ATOM      6  H   UNL A   1      37.885  21.818  23.599  1.00  0.00     0.163 HD
BRANCH   4   7
ATOM      7  C   UNL A   1      34.706  22.986  24.131  1.00  0.00     0.070 C 
ATOM      8  N   UNL A   1      33.305  20.866  24.231  1.00  0.00    -0.342 N 
ATOM      9  C   UNL A   1      32.268  21.454  23.395  1.00  0.00     0.119 C 
ATOM     10  C   UNL A   1      34.152  21.804  24.955  1.00  0.00     0.136 C 
ATOM     11  C   UNL A   1      32.759  22.513  22.433  1.00  0.00     0.023 C 
ATOM     12  C   UNL A   1      33.812  23.461  22.973  1.00  0.00     0.021 C 
BRANCH   8  13
ATOM     13  C   UNL A   1      33.218  19.494  24.447  1.00  0.00     0.222 C 
ATOM     14  O   UNL A   1      32.183  19.022  24.935  1.00  0.00    -0.275 OA
BRANCH  13  15
ATOM     15  C   UNL A   1      34.414  18.555  24.278  1.00  0.00     0.097 C 
ATOM     16  C   UNL A   1      34.333  17.075  24.583  1.00  0.00     0.014 C 
ENDBRANCH  13  15
ENDBRANCH   8  13
BRANCH   7  17
ATOM     17  C   UNL A   1      35.005  24.227  25.091  1.00  0.00     0.067 C 
BRANCH  17  18
ATOM     18  C   UNL A   1      33.952  25.066  25.837  1.00  0.00     0.211 C 
ATOM     19  C   UNL A   1      33.449  26.345  25.204  1.00  0.00     0.108 C 
ATOM     20  O   UNL A   1      32.803  24.304  26.201  1.00  0.00    -0.392 OA
ATOM     21  C   UNL A   1      32.029  25.960  25.007  1.00  0.00     0.091 C 
ATOM     22  N   UNL A   1      31.666  24.858  25.576  1.00  0.00    -0.090 NA
BRANCH  21  23
ATOM     23  C   UNL A   1      31.080  26.853  24.330  1.00  0.00    -0.001 A 
ATOM     24  C   UNL A   1      31.451  28.129  23.906  1.00  0.00     0.010 A 
ATOM     25  C   UNL A   1      29.776  26.392  24.134  1.00  0.00     0.010 A 
ATOM     26  C   UNL A   1      30.502  28.950  23.288  1.00  0.00     0.004 A 
ATOM     27  C   UNL A   1      28.828  27.220  23.536  1.00  0.00     0.004 A 
ATOM     28  C   UNL A   1      29.185  28.504  23.104  1.00  0.00    -0.051 A 
ATOM     29  C   UNL A   1      28.147  29.388  22.476  1.00  0.00     0.044 C 
ENDBRANCH  21  23
ENDBRANCH  17  18
ENDBRANCH   7  17
ENDBRANCH   4   7
ENDBRANCH   2   3
ENDBRANCH   1   2
BRANCH   1  30
ATOM     30  C   UNL A   1      39.267  23.018  26.311  1.00  0.00     0.118 C 
BRANCH  30  31
ATOM     31  N   UNL A   1      40.681  23.227  26.609  1.00  0.00    -0.352 N 
ATOM     32  C   UNL A   1      41.265  24.439  26.977  1.00  0.00     0.251 C 
ATOM     33  H   UNL A   1      41.274  22.444  26.544  1.00  0.00     0.163 HD
ATOM     34  O   UNL A   1      42.469  24.592  27.093  1.00  0.00    -0.269 OA
BRANCH  32  35
ATOM     35  C   UNL A   1      40.325  25.555  27.242  1.00  0.00     0.039 A 
ATOM     36  C   UNL A   1      40.505  26.725  26.499  1.00  0.00     0.014 A 
ATOM     37  C   UNL A   1      39.695  25.577  28.483  1.00  0.00     0.014 A 
ATOM     38  C   UNL A   1      40.292  27.956  27.116  1.00  0.00     0.010 A 
ATOM     39  C   UNL A   1      39.598  26.798  29.127  1.00  0.00     0.010 A 
ATOM     40  C   UNL A   1      39.970  27.987  28.472  1.00  0.00    -0.014 A 
BRANCH  40  41
ATOM     41  C   UNL A   1      40.155  29.167  29.325  1.00  0.00     0.031 A 
ATOM     42  C   UNL A   1      39.162  30.271  29.281  1.00  0.00     0.074 A 
ATOM     43  C   UNL A   1      41.170  29.231  30.220  1.00  0.00     0.049 A 
ATOM     44  N   UNL A   1      39.278  31.394  29.905  1.00  0.00    -0.248 NA
ATOM     45  C   UNL A   1      37.973  30.219  28.434  1.00  0.00     0.031 C 
ATOM     46  C   UNL A   1      41.287  30.132  31.365  1.00  0.00     0.029 A 
ATOM     47  N   UNL A   1      42.427  28.627  30.139  1.00  0.00    -0.354 N 
ATOM     48  C   UNL A   1      38.111  32.102  29.747  1.00  0.00     0.074 A 
ATOM     49  C   UNL A   1      37.373  31.368  28.753  1.00  0.00     0.031 C 
ATOM     50  C   UNL A   1      42.575  30.227  31.724  1.00  0.00     0.029 A 
ATOM     51  C   UNL A   1      43.358  29.502  30.742  1.00  0.00     0.049 A 
ATOM     52  H   UNL A   1      42.628  27.753  29.735  1.00  0.00     0.167 HD
ATOM     53  C   UNL A   1      37.882  33.181  30.549  1.00  0.00     0.037 A 
ATOM     54  C   UNL A   1      44.374  30.046  30.008  1.00  0.00     0.037 A 
ATOM     55  C   UNL A   1      39.148  33.670  31.108  1.00  0.00     0.049 A 
ATOM     56  C   UNL A   1      44.258  31.542  29.780  1.00  0.00     0.074 A 
ATOM     57  C   UNL A   1      39.793  33.608  32.332  1.00  0.00     0.029 A 
ATOM     58  N   UNL A   1      40.096  34.142  30.211  1.00  0.00    -0.354 N 
ATOM     59  N   UNL A   1      43.356  32.315  30.320  1.00  0.00    -0.248 NA
ATOM     60  C   UNL A   1      45.116  32.266  28.837  1.00  0.00     0.031 C 
ATOM     61  C   UNL A   1      41.169  33.940  32.123  1.00  0.00     0.029 A 
ATOM     62  C   UNL A   1      41.349  34.232  30.782  1.00  0.00     0.049 A 
ATOM     63  H   UNL A   1      39.897  34.383  29.278  1.00  0.00     0.167 HD
ATOM     64  C   UNL A   1      43.412  33.549  29.727  1.00  0.00     0.074 A 
ATOM     65  C   UNL A   1      44.558  33.488  28.839  1.00  0.00     0.031 C 
ATOM     66  C   UNL A   1      42.485  34.529  29.923  1.00  0.00     0.037 A 
BRANCH  53  67
ATOM     67  C   UNL A   1      36.510  33.723  30.927  1.00  0.00     0.058 A 
ATOM     68  C   UNL A   1      35.654  34.249  29.930  1.00  0.00     0.135 A 
ATOM     69  C   UNL A   1      36.020  33.888  32.242  1.00  0.00     0.135 A 
ATOM     70  F   UNL A   1      35.975  34.181  28.630  1.00  0.00    -0.206 F 
ATOM     71  C   UNL A   1      34.451  34.910  30.220  1.00  0.00     0.059 A 
ATOM     72  C   UNL A   1      34.816  34.520  32.553  1.00  0.00     0.059 A 
ATOM     73  F   UNL A   1      36.688  33.484  33.323  1.00  0.00    -0.206 F 
ATOM     74  C   UNL A   1      34.045  35.052  31.539  1.00  0.00     0.060 A 
BRANCH  74  75
ATOM     75  S   UNL A   1      32.542  35.965  31.928  1.00  0.00     0.124 S 
ATOM     76  O   UNL A   1      33.030  36.960  32.876  1.00  0.00    -0.237 OA
ATOM     77  O   UNL A   1      32.141  36.470  30.620  1.00  0.00    -0.237 OA
ATOM     78  O   UNL A   1      31.661  34.947  32.497  1.00  0.00    -0.744 OA
ENDBRANCH  74  75
ENDBRANCH  53  67
BRANCH  54  79
ATOM     79  C   UNL A   1      44.962  29.070  29.050  1.00  0.00     0.058 A 
ATOM     80  C   UNL A   1      44.571  29.173  27.701  1.00  0.00     0.135 A 
ATOM     81  C   UNL A   1      46.152  28.388  29.338  1.00  0.00     0.135 A 
ATOM     82  F   UNL A   1      43.430  29.805  27.377  1.00  0.00    -0.206 F 
ATOM     83  C   UNL A   1      45.412  28.779  26.671  1.00  0.00     0.059 A 
ATOM     84  C   UNL A   1      47.005  27.970  28.320  1.00  0.00     0.059 A 
ATOM     85  F   UNL A   1      46.576  28.268  30.605  1.00  0.00    -0.206 F 
ATOM     86  C   UNL A   1      46.657  28.243  26.997  1.00  0.00     0.060 A 
BRANCH  86  87
ATOM     87  S   UNL A   1      47.896  28.161  25.685  1.00  0.00     0.124 S 
ATOM     88  O   UNL A   1      48.857  29.170  26.115  1.00  0.00    -0.237 OA
ATOM     89  O   UNL A   1      48.320  26.770  25.808  1.00  0.00    -0.237 OA
ATOM     90  O   UNL A   1      47.130  28.482  24.486  1.00  0.00    -0.744 OA
ENDBRANCH  86  87
ENDBRANCH  54  79
BRANCH  66  91
ATOM     91  C   UNL A   1      42.607  35.863  29.255  1.00  0.00     0.058 A 
ATOM     92  C   UNL A   1      43.342  36.904  29.842  1.00  0.00     0.135 A 
ATOM     93  C   UNL A   1      41.895  36.171  28.079  1.00  0.00     0.135 A 
ATOM     94  F   UNL A   1      44.047  36.688  30.965  1.00  0.00    -0.206 F 
ATOM     95  C   UNL A   1      43.366  38.187  29.298  1.00  0.00     0.059 A 
ATOM     96  C   UNL A   1      41.873  37.454  27.541  1.00  0.00     0.059 A 
ATOM     97  F   UNL A   1      41.213  35.222  27.419  1.00  0.00    -0.206 F 
ATOM     98  C   UNL A   1      42.619  38.456  28.153  1.00  0.00     0.060 A 
BRANCH  98  99
ATOM     99  S   UNL A   1      42.581  40.132  27.487  1.00  0.00     0.124 S 
ATOM    100  O   UNL A   1      43.688  40.783  28.179  1.00  0.00    -0.237 OA
ATOM    101  O   UNL A   1      42.785  39.884  26.064  1.00  0.00    -0.237 OA
ATOM    102  O   UNL A   1      41.252  40.606  27.861  1.00  0.00    -0.744 OA
ENDBRANCH  98  99
ENDBRANCH  66  91
ENDBRANCH  40  41
ENDBRANCH  32  35
ENDBRANCH  30  31
ENDBRANCH   1  30
TORSDOF 18
ENDMDL
MODEL 2
REMARK VINA RESULT:     -13.7      2.055      2.711
REMARK SMILES CCC(=O)N1CCC[C@](C[C@H]2CC(c3ccc(C)cc3)=NO2)(C(=O)NCCCNC(=O)c2ccc(-c3c4nc(c(-c5c(F)cc(S(=O)(=O)[O-])cc5F)c5ccc([nH]5)c(-c5c(F)cc(S(=O)(=O)[O-])cc5F)c5nc(c(-c6c(F)cc(S(=O)(=O)[O-])cc6F)c6ccc3[nH]6)C=C5)C=C4)cc2)C1
REMARK SMILES IDX 27 1 26 2 25 3 23 4 24 5 9 7 5 8 6 9 98 10 7 11 8 12 3 13
REMARK SMILES IDX 4 14 2 15 1 16 10 17 11 18 12 19 22 20 13 21 21 22 14 23
REMARK SMILES IDX 15 24 20 25 16 26 19 27 17 28 18 29 28 30 29 31 30 32 31 34
REMARK SMILES IDX 32 35 33 36 97 37 34 38 96 39 35 40 36 41 37 42 90 43 38 44
REMARK SMILES IDX 95 45 89 46 91 47 39 48 94 49 88 50 87 51 40 53 74 54 53 55
REMARK SMILES IDX 73 56 54 57 57 58 72 59 92 60 55 61 56 62 71 64 93 65 58 66
REMARK SMILES IDX 41 67 42 68 51 69 43 70 44 71 50 72 52 73 45 74 46 75 47 76
REMARK SMILES IDX 48 77 49 78 75 79 76 80 85 81 77 82 78 83 84 84 86 85 79 86
REMARK SMILES IDX 80 87 81 88 82 89 83 90 59 91 60 92 69 93 61 94 62 95 68 96
REMARK SMILES IDX 70 97 63 98 64 99 65 100 66 101 67 102
REMARK H PARENT 25 6 29 33 91 52 57 63
REMARK Flexibility Score: inf
ROOT
ATOM      1  C   UNL A   1      37.234  21.218  25.483  1.00  0.00     0.042 C 
ENDROOT
BRANCH   1   2
ATOM      2  C   UNL A   1      35.805  21.728  25.442  1.00  0.00     0.117 C 
BRANCH   2   3
ATOM      3  N   UNL A   1      35.519  22.439  24.203  1.00  0.00    -0.355 N 
ATOM      4  C   UNL A   1      34.437  22.779  23.477  1.00  0.00     0.228 C 
ATOM      5  O   UNL A   1      34.729  23.481  22.494  1.00  0.00    -0.274 OA
ATOM      6  H   UNL A   1      36.347  22.760  23.779  1.00  0.00     0.163 HD
BRANCH   4   7
ATOM      7  C   UNL A   1      32.944  22.350  23.718  1.00  0.00     0.070 C 
ATOM      8  N   UNL A   1      32.859  19.871  24.279  1.00  0.00    -0.342 N 
ATOM      9  C   UNL A   1      31.942  19.604  23.180  1.00  0.00     0.119 C 
ATOM     10  C   UNL A   1      32.871  21.236  24.785  1.00  0.00     0.136 C 
ATOM     11  C   UNL A   1      32.064  20.557  22.012  1.00  0.00     0.023 C 
ATOM     12  C   UNL A   1      32.289  22.014  22.366  1.00  0.00     0.021 C 
BRANCH   8  13
ATOM     13  C   UNL A   1      33.430  18.758  24.889  1.00  0.00     0.222 C 
ATOM     14  O   UNL A   1      33.084  18.452  26.037  1.00  0.00    -0.275 OA
BRANCH  13  15
ATOM     15  C   UNL A   1      34.604  17.993  24.276  1.00  0.00     0.097 C 
ATOM     16  C   UNL A   1      34.834  16.519  24.529  1.00  0.00     0.014 C 
ENDBRANCH  13  15
ENDBRANCH   8  13
BRANCH   7  17
ATOM     17  C   UNL A   1      32.290  23.693  24.284  1.00  0.00     0.067 C 
BRANCH  17  18
ATOM     18  C   UNL A   1      32.460  24.247  25.709  1.00  0.00     0.211 C 
ATOM     19  C   UNL A   1      33.414  25.400  25.940  1.00  0.00     0.108 C 
ATOM     20  O   UNL A   1      31.217  24.612  26.307  1.00  0.00    -0.392 OA
ATOM     21  C   UNL A   1      32.432  26.425  26.377  1.00  0.00     0.091 C 
ATOM     22  N   UNL A   1      31.237  25.991  26.606  1.00  0.00    -0.090 NA
BRANCH  21  23
ATOM     23  C   UNL A   1      32.843  27.805  26.663  1.00  0.00    -0.001 A 
ATOM     24  C   UNL A   1      34.187  28.167  26.745  1.00  0.00     0.010 A 
ATOM     25  C   UNL A   1      31.839  28.755  26.870  1.00  0.00     0.010 A 
ATOM     26  C   UNL A   1      34.526  29.491  27.044  1.00  0.00     0.004 A 
ATOM     27  C   UNL A   1      32.180  30.069  27.187  1.00  0.00     0.004 A 
ATOM     28  C   UNL A   1      33.526  30.448  27.273  1.00  0.00    -0.051 A 
ATOM     29  C   UNL A   1      33.874  31.863  27.630  1.00  0.00     0.044 C 
ENDBRANCH  21  23
ENDBRANCH  17  18
ENDBRANCH   7  17
ENDBRANCH   4   7
ENDBRANCH   2   3
ENDBRANCH   1   2
BRANCH   1  30
ATOM     30  C   UNL A   1      38.270  22.327  25.527  1.00  0.00     0.118 C 
BRANCH  30  31
ATOM     31  N   UNL A   1      39.509  22.021  26.236  1.00  0.00    -0.352 N 
ATOM     32  C   UNL A   1      40.413  22.958  26.738  1.00  0.00     0.251 C 
ATOM     33  H   UNL A   1      39.726  21.071  26.371  1.00  0.00     0.163 HD
ATOM     34  O   UNL A   1      41.495  22.655  27.211  1.00  0.00    -0.269 OA
BRANCH  32  35
ATOM     35  C   UNL A   1      39.975  24.374  26.681  1.00  0.00     0.039 A 
ATOM     36  C   UNL A   1      40.886  25.299  26.164  1.00  0.00     0.014 A 
ATOM     37  C   UNL A   1      38.966  24.765  27.558  1.00  0.00     0.014 A 
ATOM     38  C   UNL A   1      40.952  26.569  26.731  1.00  0.00     0.010 A 
ATOM     39  C   UNL A   1      39.114  25.985  28.195  1.00  0.00     0.010 A 
ATOM     40  C   UNL A   1      40.156  26.859  27.837  1.00  0.00    -0.014 A 
BRANCH  40  41
ATOM     41  C   UNL A   1      40.438  27.952  28.778  1.00  0.00     0.031 A 
ATOM     42  C   UNL A   1      39.548  29.141  28.812  1.00  0.00     0.074 A 
ATOM     43  C   UNL A   1      41.445  27.858  29.679  1.00  0.00     0.049 A 
ATOM     44  N   UNL A   1      39.758  30.199  29.519  1.00  0.00    -0.248 NA
ATOM     45  C   UNL A   1      38.368  29.259  27.959  1.00  0.00     0.031 C 
ATOM     46  C   UNL A   1      41.630  28.657  30.889  1.00  0.00     0.029 A 
ATOM     47  N   UNL A   1      42.644  27.150  29.557  1.00  0.00    -0.354 N 
ATOM     48  C   UNL A   1      38.660  31.019  29.410  1.00  0.00     0.074 A 
ATOM     49  C   UNL A   1      37.871  30.431  28.361  1.00  0.00     0.031 C 
ATOM     50  C   UNL A   1      42.918  28.609  31.258  1.00  0.00     0.029 A 
ATOM     51  C   UNL A   1      43.643  27.891  30.228  1.00  0.00     0.049 A 
ATOM     52  H   UNL A   1      42.770  26.294  29.089  1.00  0.00     0.167 HD
ATOM     53  C   UNL A   1      38.521  32.052  30.289  1.00  0.00     0.037 A 
ATOM     54  C   UNL A   1      44.711  28.394  29.540  1.00  0.00     0.037 A 
ATOM     55  C   UNL A   1      39.820  32.383  30.889  1.00  0.00     0.049 A 
ATOM     56  C   UNL A   1      44.731  29.907  29.424  1.00  0.00     0.074 A 
ATOM     57  C   UNL A   1      40.443  32.172  32.107  1.00  0.00     0.029 A 
ATOM     58  N   UNL A   1      40.815  32.832  30.033  1.00  0.00    -0.354 N 
ATOM     59  N   UNL A   1      43.896  30.716  30.018  1.00  0.00    -0.248 NA
ATOM     60  C   UNL A   1      45.661  30.619  28.542  1.00  0.00     0.031 C 
ATOM     61  C   UNL A   1      41.845  32.393  31.928  1.00  0.00     0.029 A 
ATOM     62  C   UNL A   1      42.065  32.766  30.614  1.00  0.00     0.049 A 
ATOM     63  H   UNL A   1      40.649  33.159  29.120  1.00  0.00     0.167 HD
ATOM     64  C   UNL A   1      44.070  31.980  29.519  1.00  0.00     0.074 A 
ATOM     65  C   UNL A   1      45.215  31.882  28.634  1.00  0.00     0.031 C 
ATOM     66  C   UNL A   1      43.232  33.023  29.785  1.00  0.00     0.037 A 
BRANCH  53  67
ATOM     67  C   UNL A   1      37.199  32.686  30.701  1.00  0.00     0.058 A 
ATOM     68  C   UNL A   1      36.471  33.476  29.780  1.00  0.00     0.135 A 
ATOM     69  C   UNL A   1      36.650  32.682  32.004  1.00  0.00     0.135 A 
ATOM     70  F   UNL A   1      36.861  33.593  28.502  1.00  0.00    -0.206 F 
ATOM     71  C   UNL A   1      35.335  34.220  30.133  1.00  0.00     0.059 A 
ATOM     72  C   UNL A   1      35.509  33.396  32.373  1.00  0.00     0.059 A 
ATOM     73  F   UNL A   1      37.200  32.021  33.023  1.00  0.00    -0.206 F 
ATOM     74  C   UNL A   1      34.868  34.184  31.439  1.00  0.00     0.060 A 
BRANCH  74  75
ATOM     75  S   UNL A   1      33.457  35.194  31.922  1.00  0.00     0.124 S 
ATOM     76  O   UNL A   1      32.777  35.393  30.646  1.00  0.00    -0.237 OA
ATOM     77  O   UNL A   1      32.777  34.333  32.882  1.00  0.00    -0.237 OA
ATOM     78  O   UNL A   1      34.073  36.392  32.489  1.00  0.00    -0.744 OA
ENDBRANCH  74  75
ENDBRANCH  53  67
BRANCH  54  79
ATOM     79  C   UNL A   1      45.220  27.443  28.515  1.00  0.00     0.058 A 
ATOM     80  C   UNL A   1      46.047  26.394  28.960  1.00  0.00     0.135 A 
ATOM     81  C   UNL A   1      44.586  27.298  27.273  1.00  0.00     0.135 A 
ATOM     82  F   UNL A   1      46.687  26.494  30.137  1.00  0.00    -0.206 F 
ATOM     83  C   UNL A   1      46.098  25.179  28.293  1.00  0.00     0.059 A 
ATOM     84  C   UNL A   1      44.636  26.092  26.578  1.00  0.00     0.059 A 
ATOM     85  F   UNL A   1      43.781  28.263  26.805  1.00  0.00    -0.206 F 
ATOM     86  C   UNL A   1      45.330  25.021  27.140  1.00  0.00     0.060 A 
BRANCH  86  87
ATOM     87  S   UNL A   1      45.053  23.336  26.551  1.00  0.00     0.124 S 
ATOM     88  O   UNL A   1      46.400  22.927  26.164  1.00  0.00    -0.237 OA
ATOM     89  O   UNL A   1      44.511  22.718  27.757  1.00  0.00    -0.237 OA
ATOM     90  O   UNL A   1      44.106  23.519  25.457  1.00  0.00    -0.744 OA
ENDBRANCH  86  87
ENDBRANCH  54  79
BRANCH  66  91
ATOM     91  C   UNL A   1      43.480  34.387  29.218  1.00  0.00     0.058 A 
ATOM     92  C   UNL A   1      43.658  35.498  30.056  1.00  0.00     0.135 A 
ATOM     93  C   UNL A   1      43.422  34.637  27.833  1.00  0.00     0.135 A 
ATOM     94  F   UNL A   1      43.724  35.341  31.389  1.00  0.00    -0.206 F 
ATOM     95  C   UNL A   1      43.768  36.792  29.551  1.00  0.00     0.059 A 
ATOM     96  C   UNL A   1      43.489  35.923  27.309  1.00  0.00     0.059 A 
ATOM     97  F   UNL A   1      43.312  33.627  26.956  1.00  0.00    -0.206 F 
ATOM     98  C   UNL A   1      43.670  36.997  28.175  1.00  0.00     0.060 A 
BRANCH  98  99
ATOM     99  S   UNL A   1      43.731  38.675  27.518  1.00  0.00     0.124 S 
ATOM    100  O   UNL A   1      42.410  38.838  26.918  1.00  0.00    -0.237 OA
ATOM    101  O   UNL A   1      43.974  39.453  28.728  1.00  0.00    -0.237 OA
ATOM    102  O   UNL A   1      44.838  38.620  26.569  1.00  0.00    -0.744 OA
ENDBRANCH  98  99
ENDBRANCH  66  91
ENDBRANCH  40  41
ENDBRANCH  32  35
ENDBRANCH  30  31
ENDBRANCH   1  30
TORSDOF 18
ENDMDL
MODEL 3
REMARK VINA RESULT:     -12.0      1.853      2.493
REMARK SMILES CCC(=O)N1CCC[C@](C[C@H]2CC(c3ccc(C)cc3)=NO2)(C(=O)NCCCNC(=O)c2ccc(-c3c4nc(c(-c5c(F)cc(S(=O)(=O)[O-])cc5F)c5ccc([nH]5)c(-c5c(F)cc(S(=O)(=O)[O-])cc5F)c5nc(c(-c6c(F)cc(S(=O)(=O)[O-])cc6F)c6ccc3[nH]6)C=C5)C=C4)cc2)C1
REMARK SMILES IDX 27 1 26 2 25 3 23 4 24 5 9 7 5 8 6 9 98 10 7 11 8 12 3 13
REMARK SMILES IDX 4 14 2 15 1 16 10 17 11 18 12 19 22 20 13 21 21 22 14 23
REMARK SMILES IDX 15 24 20 25 16 26 19 27 17 28 18 29 28 30 29 31 30 32 31 34
REMARK SMILES IDX 32 35 33 36 97 37 34 38 96 39 35 40 36 41 37 42 90 43 38 44
REMARK SMILES IDX 95 45 89 46 91 47 39 48 94 49 88 50 87 51 40 53 74 54 53 55
REMARK SMILES IDX 73 56 54 57 57 58 72 59 92 60 55 61 56 62 71 64 93 65 58 66
REMARK SMILES IDX 41 67 42 68 51 69 43 70 44 71 50 72 52 73 45 74 46 75 47 76
REMARK SMILES IDX 48 77 49 78 75 79 76 80 85 81 77 82 78 83 84 84 86 85 79 86
REMARK SMILES IDX 80 87 81 88 82 89 83 90 59 91 60 92 69 93 61 94 62 95 68 96
REMARK SMILES IDX 70 97 63 98 64 99 65 100 66 101 67 102
REMARK H PARENT 25 6 29 33 91 52 57 63
REMARK Flexibility Score: inf
ROOT
ATOM      1  C   UNL A   1      37.101  22.653  24.760  1.00  0.00     0.042 C 
ENDROOT
BRANCH   1   2
ATOM      2  C   UNL A   1      35.588  22.527  24.788  1.00  0.00     0.117 C 
BRANCH   2   3
ATOM      3  N   UNL A   1      34.993  22.868  23.503  1.00  0.00    -0.355 N 
ATOM      4  C   UNL A   1      33.809  22.711  22.881  1.00  0.00     0.228 C 
ATOM      5  O   UNL A   1      33.779  23.271  21.772  1.00  0.00    -0.274 OA
ATOM      6  H   UNL A   1      35.635  23.346  22.930  1.00  0.00     0.163 HD
BRANCH   4   7
ATOM      7  C   UNL A   1      32.564  21.888  23.376  1.00  0.00     0.070 C 
ATOM      8  N   UNL A   1      33.290  19.517  23.943  1.00  0.00    -0.342 N 
ATOM      9  C   UNL A   1      32.320  18.948  23.020  1.00  0.00     0.119 C 
ATOM     10  C   UNL A   1      32.993  20.854  24.440  1.00  0.00     0.136 C 
ATOM     11  C   UNL A   1      31.966  19.837  21.849  1.00  0.00     0.023 C 
ATOM     12  C   UNL A   1      31.819  21.314  22.159  1.00  0.00     0.021 C 
BRANCH   8  13
ATOM     13  C   UNL A   1      34.250  18.644  24.445  1.00  0.00     0.222 C 
ATOM     14  O   UNL A   1      35.316  19.099  24.879  1.00  0.00    -0.275 OA
BRANCH  13  15
ATOM     15  C   UNL A   1      34.127  17.124  24.323  1.00  0.00     0.097 C 
ATOM     16  C   UNL A   1      33.598  16.259  25.446  1.00  0.00     0.014 C 
ENDBRANCH  13  15
ENDBRANCH   8  13
BRANCH   7  17
ATOM     17  C   UNL A   1      31.656  23.017  24.048  1.00  0.00     0.067 C 
BRANCH  17  18
ATOM     18  C   UNL A   1      32.061  24.485  24.274  1.00  0.00     0.211 C 
ATOM     19  C   UNL A   1      31.745  25.507  23.204  1.00  0.00     0.108 C 
ATOM     20  O   UNL A   1      31.564  25.007  25.505  1.00  0.00    -0.392 OA
ATOM     21  C   UNL A   1      30.792  26.351  23.967  1.00  0.00     0.091 C 
ATOM     22  N   UNL A   1      30.712  26.098  25.232  1.00  0.00    -0.090 NA
BRANCH  21  23
ATOM     23  C   UNL A   1      30.101  27.485  23.341  1.00  0.00    -0.001 A 
ATOM     24  C   UNL A   1      30.801  28.484  22.664  1.00  0.00     0.010 A 
ATOM     25  C   UNL A   1      28.710  27.548  23.456  1.00  0.00     0.010 A 
ATOM     26  C   UNL A   1      30.098  29.557  22.105  1.00  0.00     0.004 A 
ATOM     27  C   UNL A   1      28.016  28.628  22.915  1.00  0.00     0.004 A 
ATOM     28  C   UNL A   1      28.704  29.639  22.232  1.00  0.00    -0.051 A 
ATOM     29  C   UNL A   1      27.940  30.802  21.670  1.00  0.00     0.044 C 
ENDBRANCH  21  23
ENDBRANCH  17  18
ENDBRANCH   7  17
ENDBRANCH   4   7
ENDBRANCH   2   3
ENDBRANCH   1   2
BRANCH   1  30
ATOM     30  C   UNL A   1      37.703  22.994  26.112  1.00  0.00     0.118 C 
BRANCH  30  31
ATOM     31  N   UNL A   1      38.969  22.342  26.434  1.00  0.00    -0.352 N 
ATOM     32  C   UNL A   1      40.218  22.962  26.469  1.00  0.00     0.251 C 
ATOM     33  H   UNL A   1      38.939  21.381  26.645  1.00  0.00     0.163 HD
ATOM     34  O   UNL A   1      41.263  22.352  26.619  1.00  0.00    -0.269 OA
BRANCH  32  35
ATOM     35  C   UNL A   1      40.211  24.439  26.327  1.00  0.00     0.039 A 
ATOM     36  C   UNL A   1      41.445  25.061  26.117  1.00  0.00     0.014 A 
ATOM     37  C   UNL A   1      39.140  25.128  26.887  1.00  0.00     0.014 A 
ATOM     38  C   UNL A   1      41.687  26.296  26.713  1.00  0.00     0.010 A 
ATOM     39  C   UNL A   1      39.423  26.297  27.572  1.00  0.00     0.010 A 
ATOM     40  C   UNL A   1      40.719  26.845  27.552  1.00  0.00    -0.014 A 
BRANCH  40  41
ATOM     41  C   UNL A   1      41.005  27.872  28.563  1.00  0.00     0.031 A 
ATOM     42  C   UNL A   1      40.061  29.003  28.750  1.00  0.00     0.074 A 
ATOM     43  C   UNL A   1      42.071  27.760  29.391  1.00  0.00     0.049 A 
ATOM     44  N   UNL A   1      40.263  30.011  29.529  1.00  0.00    -0.248 NA
ATOM     45  C   UNL A   1      38.825  29.125  27.981  1.00  0.00     0.031 C 
ATOM     46  C   UNL A   1      42.294  28.468  30.650  1.00  0.00     0.029 A 
ATOM     47  N   UNL A   1      43.294  27.132  29.139  1.00  0.00    -0.354 N 
ATOM     48  C   UNL A   1      39.121  30.775  29.556  1.00  0.00     0.074 A 
ATOM     49  C   UNL A   1      38.296  30.231  28.509  1.00  0.00     0.031 C 
ATOM     50  C   UNL A   1      43.603  28.461  30.937  1.00  0.00     0.029 A 
ATOM     51  C   UNL A   1      44.296  27.870  29.809  1.00  0.00     0.049 A 
ATOM     52  H   UNL A   1      43.432  26.325  28.594  1.00  0.00     0.167 HD
ATOM     53  C   UNL A   1      38.987  31.725  30.525  1.00  0.00     0.037 A 
ATOM     54  C   UNL A   1      45.291  28.485  29.103  1.00  0.00     0.037 A 
ATOM     55  C   UNL A   1      40.303  32.077  31.071  1.00  0.00     0.049 A 
ATOM     56  C   UNL A   1      45.229  30.001  29.114  1.00  0.00     0.074 A 
ATOM     57  C   UNL A   1      41.013  31.803  32.228  1.00  0.00     0.029 A 
ATOM     58  N   UNL A   1      41.218  32.648  30.198  1.00  0.00    -0.354 N 
ATOM     59  N   UNL A   1      44.394  30.712  29.822  1.00  0.00    -0.248 NA
ATOM     60  C   UNL A   1      46.063  30.832  28.240  1.00  0.00     0.031 C 
ATOM     61  C   UNL A   1      42.389  32.114  31.985  1.00  0.00     0.029 A 
ATOM     62  C   UNL A   1      42.505  32.604  30.696  1.00  0.00     0.049 A 
ATOM     63  H   UNL A   1      40.978  33.037  29.328  1.00  0.00     0.167 HD
ATOM     64  C   UNL A   1      44.472  32.020  29.421  1.00  0.00     0.074 A 
ATOM     65  C   UNL A   1      45.562  32.057  28.464  1.00  0.00     0.031 C 
ATOM     66  C   UNL A   1      43.602  32.990  29.823  1.00  0.00     0.037 A 
BRANCH  53  67
ATOM     67  C   UNL A   1      37.664  32.250  31.067  1.00  0.00     0.058 A 
ATOM     68  C   UNL A   1      36.931  33.216  30.339  1.00  0.00     0.135 A 
ATOM     69  C   UNL A   1      37.120  31.964  32.340  1.00  0.00     0.135 A 
ATOM     70  F   UNL A   1      37.316  33.606  29.115  1.00  0.00    -0.206 F 
ATOM     71  C   UNL A   1      35.793  33.863  30.847  1.00  0.00     0.059 A 
ATOM     72  C   UNL A   1      35.978  32.576  32.857  1.00  0.00     0.059 A 
ATOM     73  F   UNL A   1      37.676  31.100  33.191  1.00  0.00    -0.206 F 
ATOM     74  C   UNL A   1      35.330  33.544  32.115  1.00  0.00     0.060 A 
BRANCH  74  75
ATOM     75  S   UNL A   1      33.918  34.421  32.808  1.00  0.00     0.124 S 
ATOM     76  O   UNL A   1      33.139  33.330  33.385  1.00  0.00    -0.237 OA
ATOM     77  O   UNL A   1      34.554  35.326  33.758  1.00  0.00    -0.237 OA
ATOM     78  O   UNL A   1      33.312  35.067  31.645  1.00  0.00    -0.744 OA
ENDBRANCH  74  75
ENDBRANCH  53  67
BRANCH  54  79
ATOM     79  C   UNL A   1      45.780  27.649  27.973  1.00  0.00     0.058 A 
ATOM     80  C   UNL A   1      46.640  26.578  28.285  1.00  0.00     0.135 A 
ATOM     81  C   UNL A   1      45.106  27.613  26.745  1.00  0.00     0.135 A 
ATOM     82  F   UNL A   1      47.319  26.575  29.445  1.00  0.00    -0.206 F 
ATOM     83  C   UNL A   1      46.688  25.435  27.500  1.00  0.00     0.059 A 
ATOM     84  C   UNL A   1      45.152  26.482  25.933  1.00  0.00     0.059 A 
ATOM     85  F   UNL A   1      44.269  28.603  26.400  1.00  0.00    -0.206 F 
ATOM     86  C   UNL A   1      45.883  25.375  26.363  1.00  0.00     0.060 A 
BRANCH  86  87
ATOM     87  S   UNL A   1      45.615  23.751  25.621  1.00  0.00     0.124 S 
ATOM     88  O   UNL A   1      44.191  23.542  25.862  1.00  0.00    -0.237 OA
ATOM     89  O   UNL A   1      46.004  24.022  24.240  1.00  0.00    -0.237 OA
ATOM     90  O   UNL A   1      46.519  22.889  26.373  1.00  0.00    -0.744 OA
ENDBRANCH  86  87
ENDBRANCH  54  79
BRANCH  66  91
ATOM     91  C   UNL A   1      43.744  34.407  29.359  1.00  0.00     0.058 A 
ATOM     92  C   UNL A   1      44.093  35.431  30.254  1.00  0.00     0.135 A 
ATOM     93  C   UNL A   1      43.419  34.794  28.045  1.00  0.00     0.135 A 
ATOM     94  F   UNL A   1      44.417  35.141  31.525  1.00  0.00    -0.206 F 
ATOM     95  C   UNL A   1      44.111  36.770  29.869  1.00  0.00     0.059 A 
ATOM     96  C   UNL A   1      43.392  36.127  27.650  1.00  0.00     0.059 A 
ATOM     97  F   UNL A   1      43.130  33.876  27.109  1.00  0.00    -0.206 F 
ATOM     98  C   UNL A   1      43.748  37.110  28.567  1.00  0.00     0.060 A 
BRANCH  98  99
ATOM     99  S   UNL A   1      43.691  38.847  28.083  1.00  0.00     0.124 S 
ATOM    100  O   UNL A   1      44.831  39.421  28.793  1.00  0.00    -0.237 OA
ATOM    101  O   UNL A   1      43.835  38.750  26.634  1.00  0.00    -0.237 OA
ATOM    102  O   UNL A   1      42.382  39.282  28.560  1.00  0.00    -0.744 OA
ENDBRANCH  98  99
ENDBRANCH  66  91
ENDBRANCH  40  41
ENDBRANCH  32  35
ENDBRANCH  30  31
ENDBRANCH   1  30
TORSDOF 18
ENDMDL
