MODEL 1
REMARK VINA RESULT:     -12.0      0.000      0.000
REMARK SMILES C[C@H](Oc1ccc(/C=C2/SC(=S)N(c3ccc(F)cc3)C2=O)cc1)C(=O)NCCCNC(=O)c1ccc(-c2c3nc(c(-c4c(F)cc(S(=O)(=O)[O-])cc4F)c4ccc([nH]4)c(-c4c(F)cc(S(=O)(=O)[O-])cc4F)c4nc(c(-c5c(F)cc(S(=O)(=O)[O-])cc5F)c5ccc2[nH]5)C=C4)C=C3)cc1
REMARK SMILES IDX 28 1 27 2 25 3 26 4 2 6 1 7 3 8 4 9 5 10 24 11 6 12 23 13
REMARK SMILES IDX 7 14 8 15 9 16 10 17 21 18 11 19 13 20 22 21 12 22 14 23
REMARK SMILES IDX 15 24 20 25 16 26 19 27 17 28 18 29 29 30 30 31 31 32 32 33
REMARK SMILES IDX 33 35 34 36 35 37 99 38 36 39 98 40 37 41 38 42 39 43 92 44
REMARK SMILES IDX 40 45 97 46 91 47 93 48 41 49 96 50 90 51 89 52 42 54 76 55
REMARK SMILES IDX 55 56 75 57 56 58 59 59 74 60 94 61 57 62 58 63 73 65 95 66
REMARK SMILES IDX 60 67 43 68 44 69 53 70 45 71 46 72 52 73 54 74 47 75 48 76
REMARK SMILES IDX 49 77 50 78 51 79 77 80 78 81 87 82 79 83 80 84 86 85 88 86
REMARK SMILES IDX 81 87 82 88 83 89 84 90 85 91 61 92 62 93 71 94 63 95 64 96
REMARK SMILES IDX 70 97 72 98 65 99 66 100 67 101 68 102 69 103
REMARK H PARENT 27 5 31 34 93 53 59 64
REMARK Flexibility Score: inf
ROOT
ATOM      1  C   UNL A   1      42.292  23.227  25.755  1.00  0.00     0.118 C 
ENDROOT
BRANCH   1   2
ATOM      2  N   UNL A   1      41.709  22.203  26.612  1.00  0.00    -0.353 N 
ATOM      3  C   UNL A   1      40.388  21.907  26.831  1.00  0.00     0.260 C 
ATOM      4  O   UNL A   1      40.119  20.944  27.555  1.00  0.00    -0.271 OA
ATOM      5  H   UNL A   1      42.355  21.644  27.102  1.00  0.00     0.163 HD
BRANCH   3   6
ATOM      6  C   UNL A   1      39.280  22.723  26.142  1.00  0.00     0.258 C 
ATOM      7  C   UNL A   1      39.108  24.044  26.896  1.00  0.00     0.064 C 
BRANCH   6   8
ATOM      8  O   UNL A   1      38.180  21.817  26.088  1.00  0.00    -0.481 OA
BRANCH   8   9
ATOM      9  C   UNL A   1      37.087  21.990  25.305  1.00  0.00     0.120 A 
ATOM     10  C   UNL A   1      37.019  22.624  24.071  1.00  0.00     0.047 A 
ATOM     11  C   UNL A   1      35.915  21.498  25.882  1.00  0.00     0.047 A 
ATOM     12  C   UNL A   1      35.771  22.887  23.486  1.00  0.00     0.012 A 
ATOM     13  C   UNL A   1      34.675  21.721  25.285  1.00  0.00     0.012 A 
ATOM     14  C   UNL A   1      34.591  22.479  24.115  1.00  0.00    -0.024 A 
BRANCH  14  15
ATOM     15  C   UNL A   1      33.286  22.849  23.557  1.00  0.00     0.029 C 
ATOM     16  C   UNL A   1      32.688  24.043  23.703  1.00  0.00     0.081 C 
ATOM     17  S   UNL A   1      31.099  24.355  23.125  1.00  0.00    -0.054 SA
ATOM     18  C   UNL A   1      33.218  25.256  24.401  1.00  0.00     0.270 C 
ATOM     19  C   UNL A   1      31.019  25.940  23.902  1.00  0.00     0.152 C 
ATOM     20  N   UNL A   1      32.200  26.192  24.587  1.00  0.00    -0.261 N 
ATOM     21  O   UNL A   1      34.390  25.363  24.733  1.00  0.00    -0.268 OA
ATOM     22  S   UNL A   1      29.693  26.927  23.635  1.00  0.00    -0.051 S 
BRANCH  20  23
ATOM     23  C   UNL A   1      32.424  27.324  25.440  1.00  0.00     0.051 A 
ATOM     24  C   UNL A   1      33.252  28.385  25.031  1.00  0.00     0.030 A 
ATOM     25  C   UNL A   1      31.899  27.362  26.745  1.00  0.00     0.030 A 
ATOM     26  C   UNL A   1      33.539  29.448  25.891  1.00  0.00     0.041 A 
ATOM     27  C   UNL A   1      32.193  28.424  27.608  1.00  0.00     0.041 A 
ATOM     28  C   UNL A   1      33.012  29.456  27.174  1.00  0.00     0.123 A 
ATOM     29  F   UNL A   1      33.312  30.465  28.000  1.00  0.00    -0.207 F 
ENDBRANCH  20  23
ENDBRANCH  14  15
ENDBRANCH   8   9
ENDBRANCH   6   8
ENDBRANCH   3   6
ENDBRANCH   1   2
BRANCH   1  30
ATOM     30  C   UNL A   1      43.796  23.381  25.935  1.00  0.00     0.042 C 
BRANCH  30  31
ATOM     31  C   UNL A   1      44.269  24.811  26.166  1.00  0.00     0.118 C 
BRANCH  31  32
ATOM     32  N   UNL A   1      43.795  25.742  25.150  1.00  0.00    -0.352 N 
ATOM     33  C   UNL A   1      43.066  26.900  25.268  1.00  0.00     0.251 C 
ATOM     34  H   UNL A   1      44.037  25.501  24.227  1.00  0.00     0.163 HD
ATOM     35  O   UNL A   1      42.655  27.448  24.247  1.00  0.00    -0.269 OA
BRANCH  33  36
ATOM     36  C   UNL A   1      42.748  27.479  26.594  1.00  0.00     0.039 A 
ATOM     37  C   UNL A   1      43.390  28.661  26.977  1.00  0.00     0.014 A 
ATOM     38  C   UNL A   1      41.859  26.858  27.475  1.00  0.00     0.014 A 
ATOM     39  C   UNL A   1      43.090  29.251  28.208  1.00  0.00     0.010 A 
ATOM     40  C   UNL A   1      41.504  27.487  28.669  1.00  0.00     0.010 A 
ATOM     41  C   UNL A   1      42.117  28.688  29.049  1.00  0.00    -0.014 A 
BRANCH  41  42
ATOM     42  C   UNL A   1      41.724  29.362  30.315  1.00  0.00     0.031 A 
ATOM     43  C   UNL A   1      42.517  29.151  31.576  1.00  0.00     0.074 A 
ATOM     44  C   UNL A   1      40.615  30.127  30.338  1.00  0.00     0.049 A 
ATOM     45  N   UNL A   1      42.310  29.642  32.773  1.00  0.00    -0.248 NA
ATOM     46  C   UNL A   1      43.678  28.251  31.491  1.00  0.00     0.031 C 
ATOM     47  C   UNL A   1      39.720  30.354  29.199  1.00  0.00     0.029 A 
ATOM     48  N   UNL A   1      40.047  30.854  31.353  1.00  0.00    -0.354 N 
ATOM     49  C   UNL A   1      43.301  29.102  33.583  1.00  0.00     0.074 A 
ATOM     50  C   UNL A   1      44.081  28.209  32.754  1.00  0.00     0.031 C 
ATOM     51  C   UNL A   1      38.736  31.188  29.572  1.00  0.00     0.029 A 
ATOM     52  C   UNL A   1      38.913  31.535  30.978  1.00  0.00     0.049 A 
ATOM     53  H   UNL A   1      40.418  30.886  32.265  1.00  0.00     0.167 HD
ATOM     54  C   UNL A   1      43.555  29.344  34.892  1.00  0.00     0.037 A 
ATOM     55  C   UNL A   1      38.108  32.351  31.685  1.00  0.00     0.037 A 
ATOM     56  C   UNL A   1      42.797  30.259  35.708  1.00  0.00     0.049 A 
ATOM     57  C   UNL A   1      38.442  32.649  33.120  1.00  0.00     0.074 A 
ATOM     58  C   UNL A   1      43.008  30.616  37.028  1.00  0.00     0.029 A 
ATOM     59  N   UNL A   1      41.683  30.965  35.278  1.00  0.00    -0.354 N 
ATOM     60  N   UNL A   1      39.421  32.175  33.854  1.00  0.00    -0.248 NA
ATOM     61  C   UNL A   1      37.573  33.606  33.817  1.00  0.00     0.031 C 
ATOM     62  C   UNL A   1      42.008  31.521  37.405  1.00  0.00     0.029 A 
ATOM     63  C   UNL A   1      41.194  31.752  36.308  1.00  0.00     0.049 A 
ATOM     64  H   UNL A   1      41.297  30.915  34.374  1.00  0.00     0.167 HD
ATOM     65  C   UNL A   1      39.298  32.791  35.093  1.00  0.00     0.074 A 
ATOM     66  C   UNL A   1      38.159  33.683  35.004  1.00  0.00     0.031 C 
ATOM     67  C   UNL A   1      40.059  32.635  36.205  1.00  0.00     0.037 A 
BRANCH  54  68
ATOM     68  C   UNL A   1      44.711  28.617  35.520  1.00  0.00     0.058 A 
ATOM     69  C   UNL A   1      46.008  29.156  35.514  1.00  0.00     0.135 A 
ATOM     70  C   UNL A   1      44.520  27.381  36.159  1.00  0.00     0.135 A 
ATOM     71  F   UNL A   1      46.250  30.327  34.905  1.00  0.00    -0.206 F 
ATOM     72  C   UNL A   1      47.080  28.481  36.090  1.00  0.00     0.059 A 
ATOM     73  C   UNL A   1      45.573  26.700  36.763  1.00  0.00     0.059 A 
ATOM     74  F   UNL A   1      43.300  26.820  36.195  1.00  0.00    -0.206 F 
ATOM     75  C   UNL A   1      46.853  27.251  36.709  1.00  0.00     0.060 A 
BRANCH  75  76
ATOM     76  S   UNL A   1      48.252  26.385  37.452  1.00  0.00     0.124 S 
ATOM     77  O   UNL A   1      47.738  25.022  37.537  1.00  0.00    -0.237 OA
ATOM     78  O   UNL A   1      49.312  26.602  36.474  1.00  0.00    -0.237 OA
ATOM     79  O   UNL A   1      48.435  27.069  38.729  1.00  0.00    -0.744 OA
ENDBRANCH  75  76
ENDBRANCH  54  68
BRANCH  55  80
ATOM     80  C   UNL A   1      36.935  32.980  31.027  1.00  0.00     0.058 A 
ATOM     81  C   UNL A   1      35.629  32.574  31.341  1.00  0.00     0.135 A 
ATOM     82  C   UNL A   1      37.093  34.018  30.096  1.00  0.00     0.135 A 
ATOM     83  F   UNL A   1      35.431  31.580  32.221  1.00  0.00    -0.206 F 
ATOM     84  C   UNL A   1      34.520  33.167  30.749  1.00  0.00     0.059 A 
ATOM     85  C   UNL A   1      35.998  34.640  29.505  1.00  0.00     0.059 A 
ATOM     86  F   UNL A   1      38.322  34.454  29.776  1.00  0.00    -0.206 F 
ATOM     87  C   UNL A   1      34.715  34.202  29.832  1.00  0.00     0.060 A 
BRANCH  87  88
ATOM     88  S   UNL A   1      33.274  35.024  29.119  1.00  0.00     0.124 S 
ATOM     89  O   UNL A   1      33.877  36.210  28.524  1.00  0.00    -0.237 OA
ATOM     90  O   UNL A   1      32.771  34.022  28.184  1.00  0.00    -0.237 OA
ATOM     91  O   UNL A   1      32.420  35.261  30.281  1.00  0.00    -0.744 OA
ENDBRANCH  87  88
ENDBRANCH  55  80
BRANCH  67  92
ATOM     92  C   UNL A   1      39.698  33.467  37.401  1.00  0.00     0.058 A 
ATOM     93  C   UNL A   1      40.307  34.708  37.646  1.00  0.00     0.135 A 
ATOM     94  C   UNL A   1      38.724  33.022  38.310  1.00  0.00     0.135 A 
ATOM     95  F   UNL A   1      41.248  35.175  36.809  1.00  0.00    -0.206 F 
ATOM     96  C   UNL A   1      39.993  35.461  38.772  1.00  0.00     0.059 A 
ATOM     97  C   UNL A   1      38.377  33.771  39.429  1.00  0.00     0.059 A 
ATOM     98  F   UNL A   1      38.103  31.849  38.114  1.00  0.00    -0.206 F 
ATOM     99  C   UNL A   1      39.032  34.980  39.663  1.00  0.00     0.060 A 
BRANCH  99 100
ATOM    100  S   UNL A   1      38.632  35.959  41.126  1.00  0.00     0.124 S 
ATOM    101  O   UNL A   1      38.476  37.292  40.552  1.00  0.00    -0.237 OA
ATOM    102  O   UNL A   1      37.405  35.328  41.604  1.00  0.00    -0.237 OA
ATOM    103  O   UNL A   1      39.797  35.775  41.985  1.00  0.00    -0.744 OA
ENDBRANCH  99 100
ENDBRANCH  67  92
ENDBRANCH  41  42
ENDBRANCH  33  36
ENDBRANCH  31  32
ENDBRANCH  30  31
ENDBRANCH   1  30
TORSDOF 17
ENDMDL
MODEL 2
REMARK VINA RESULT:     -11.8      2.778      9.227
REMARK SMILES C[C@H](Oc1ccc(/C=C2/SC(=S)N(c3ccc(F)cc3)C2=O)cc1)C(=O)NCCCNC(=O)c1ccc(-c2c3nc(c(-c4c(F)cc(S(=O)(=O)[O-])cc4F)c4ccc([nH]4)c(-c4c(F)cc(S(=O)(=O)[O-])cc4F)c4nc(c(-c5c(F)cc(S(=O)(=O)[O-])cc5F)c5ccc2[nH]5)C=C4)C=C3)cc1
REMARK SMILES IDX 28 1 27 2 25 3 26 4 2 6 1 7 3 8 4 9 5 10 24 11 6 12 23 13
REMARK SMILES IDX 7 14 8 15 9 16 10 17 21 18 11 19 13 20 22 21 12 22 14 23
REMARK SMILES IDX 15 24 20 25 16 26 19 27 17 28 18 29 29 30 30 31 31 32 32 33
REMARK SMILES IDX 33 35 34 36 35 37 99 38 36 39 98 40 37 41 38 42 39 43 92 44
REMARK SMILES IDX 40 45 97 46 91 47 93 48 41 49 96 50 90 51 89 52 42 54 76 55
REMARK SMILES IDX 55 56 75 57 56 58 59 59 74 60 94 61 57 62 58 63 73 65 95 66
REMARK SMILES IDX 60 67 43 68 44 69 53 70 45 71 46 72 52 73 54 74 47 75 48 76
REMARK SMILES IDX 49 77 50 78 51 79 77 80 78 81 87 82 79 83 80 84 86 85 88 86
REMARK SMILES IDX 81 87 82 88 83 89 84 90 85 91 61 92 62 93 71 94 63 95 64 96
REMARK SMILES IDX 70 97 72 98 65 99 66 100 67 101 68 102 69 103
REMARK H PARENT 27 5 31 34 93 53 59 64
REMARK Flexibility Score: inf
ROOT
ATOM      1  C   UNL A   1      33.324  33.419  28.402  1.00  0.00     0.118 C 
ENDROOT
BRANCH   1   2
ATOM      2  N   UNL A   1      34.751  33.172  28.251  1.00  0.00    -0.353 N 
ATOM      3  C   UNL A   1      35.410  31.980  28.082  1.00  0.00     0.260 C 
ATOM      4  O   UNL A   1      36.632  32.009  27.908  1.00  0.00    -0.271 OA
ATOM      5  H   UNL A   1      35.323  33.972  28.273  1.00  0.00     0.163 HD
BRANCH   3   6
ATOM      6  C   UNL A   1      34.631  30.654  28.054  1.00  0.00     0.258 C 
ATOM      7  C   UNL A   1      35.632  29.499  28.128  1.00  0.00     0.064 C 
BRANCH   6   8
ATOM      8  O   UNL A   1      33.807  30.773  26.896  1.00  0.00    -0.481 OA
BRANCH   8   9
ATOM      9  C   UNL A   1      32.955  29.812  26.464  1.00  0.00     0.120 A 
ATOM     10  C   UNL A   1      32.140  28.992  27.234  1.00  0.00     0.047 A 
ATOM     11  C   UNL A   1      32.980  29.638  25.079  1.00  0.00     0.047 A 
ATOM     12  C   UNL A   1      31.464  27.916  26.638  1.00  0.00     0.012 A 
ATOM     13  C   UNL A   1      32.278  28.596  24.476  1.00  0.00     0.012 A 
ATOM     14  C   UNL A   1      31.570  27.685  25.263  1.00  0.00    -0.024 A 
BRANCH  14  15
ATOM     15  C   UNL A   1      30.951  26.500  24.660  1.00  0.00     0.029 C 
ATOM     16  C   UNL A   1      31.535  25.296  24.534  1.00  0.00     0.081 C 
ATOM     17  S   UNL A   1      30.789  23.992  23.700  1.00  0.00    -0.054 SA
ATOM     18  C   UNL A   1      32.890  24.879  25.015  1.00  0.00     0.270 C 
ATOM     19  C   UNL A   1      32.232  22.975  23.792  1.00  0.00     0.152 C 
ATOM     20  N   UNL A   1      33.248  23.654  24.451  1.00  0.00    -0.261 N 
ATOM     21  O   UNL A   1      33.546  25.552  25.798  1.00  0.00    -0.268 OA
ATOM     22  S   UNL A   1      32.169  21.396  23.239  1.00  0.00    -0.051 S 
BRANCH  20  23
ATOM     23  C   UNL A   1      34.595  23.179  24.583  1.00  0.00     0.051 A 
ATOM     24  C   UNL A   1      35.522  23.333  23.537  1.00  0.00     0.030 A 
ATOM     25  C   UNL A   1      35.002  22.463  25.724  1.00  0.00     0.030 A 
ATOM     26  C   UNL A   1      36.809  22.797  23.628  1.00  0.00     0.041 A 
ATOM     27  C   UNL A   1      36.289  21.920  25.813  1.00  0.00     0.041 A 
ATOM     28  C   UNL A   1      37.180  22.092  24.764  1.00  0.00     0.123 A 
ATOM     29  F   UNL A   1      38.407  21.561  24.834  1.00  0.00    -0.207 F 
ENDBRANCH  20  23
ENDBRANCH  14  15
ENDBRANCH   8   9
ENDBRANCH   6   8
ENDBRANCH   3   6
ENDBRANCH   1   2
BRANCH   1  30
ATOM     30  C   UNL A   1      32.941  34.881  28.220  1.00  0.00     0.042 C 
BRANCH  30  31
ATOM     31  C   UNL A   1      33.530  35.830  29.257  1.00  0.00     0.118 C 
BRANCH  31  32
ATOM     32  N   UNL A   1      32.734  35.913  30.475  1.00  0.00    -0.352 N 
ATOM     33  C   UNL A   1      32.925  35.341  31.709  1.00  0.00     0.251 C 
ATOM     34  H   UNL A   1      31.926  36.470  30.400  1.00  0.00     0.163 HD
ATOM     35  O   UNL A   1      32.034  35.437  32.550  1.00  0.00    -0.269 OA
BRANCH  33  36
ATOM     36  C   UNL A   1      34.164  34.595  32.029  1.00  0.00     0.039 A 
ATOM     37  C   UNL A   1      35.369  35.302  32.098  1.00  0.00     0.014 A 
ATOM     38  C   UNL A   1      34.162  33.212  32.226  1.00  0.00     0.014 A 
ATOM     39  C   UNL A   1      36.552  34.635  32.428  1.00  0.00     0.010 A 
ATOM     40  C   UNL A   1      35.329  32.561  32.630  1.00  0.00     0.010 A 
ATOM     41  C   UNL A   1      36.536  33.265  32.734  1.00  0.00    -0.014 A 
BRANCH  41  42
ATOM     42  C   UNL A   1      37.772  32.570  33.179  1.00  0.00     0.031 A 
ATOM     43  C   UNL A   1      38.447  32.953  34.469  1.00  0.00     0.074 A 
ATOM     44  C   UNL A   1      38.317  31.623  32.390  1.00  0.00     0.049 A 
ATOM     45  N   UNL A   1      39.540  32.468  35.003  1.00  0.00    -0.248 NA
ATOM     46  C   UNL A   1      37.832  34.040  35.246  1.00  0.00     0.031 C 
ATOM     47  C   UNL A   1      37.798  31.210  31.083  1.00  0.00     0.029 A 
ATOM     48  N   UNL A   1      39.427  30.838  32.567  1.00  0.00    -0.354 N 
ATOM     49  C   UNL A   1      39.751  33.198  36.168  1.00  0.00     0.074 A 
ATOM     50  C   UNL A   1      38.699  34.189  36.238  1.00  0.00     0.031 C 
ATOM     51  C   UNL A   1      38.570  30.227  30.594  1.00  0.00     0.029 A 
ATOM     52  C   UNL A   1      39.652  29.958  31.535  1.00  0.00     0.049 A 
ATOM     53  H   UNL A   1      40.007  30.898  33.361  1.00  0.00     0.167 HD
ATOM     54  C   UNL A   1      40.716  33.041  37.105  1.00  0.00     0.037 A 
ATOM     55  C   UNL A   1      40.617  29.033  31.368  1.00  0.00     0.037 A 
ATOM     56  C   UNL A   1      41.743  32.032  37.050  1.00  0.00     0.049 A 
ATOM     57  C   UNL A   1      41.645  28.840  32.447  1.00  0.00     0.074 A 
ATOM     58  C   UNL A   1      42.733  31.756  37.977  1.00  0.00     0.029 A 
ATOM     59  N   UNL A   1      41.909  31.129  36.010  1.00  0.00    -0.354 N 
ATOM     60  N   UNL A   1      41.792  29.500  33.572  1.00  0.00    -0.248 NA
ATOM     61  C   UNL A   1      42.626  27.767  32.244  1.00  0.00     0.031 C 
ATOM     62  C   UNL A   1      43.512  30.701  37.487  1.00  0.00     0.029 A 
ATOM     63  C   UNL A   1      42.987  30.298  36.270  1.00  0.00     0.049 A 
ATOM     64  H   UNL A   1      41.344  31.084  35.205  1.00  0.00     0.167 HD
ATOM     65  C   UNL A   1      42.869  28.908  34.220  1.00  0.00     0.074 A 
ATOM     66  C   UNL A   1      43.326  27.828  33.368  1.00  0.00     0.031 C 
ATOM     67  C   UNL A   1      43.430  29.228  35.413  1.00  0.00     0.037 A 
BRANCH  54  68
ATOM     68  C   UNL A   1      40.699  33.978  38.281  1.00  0.00     0.058 A 
ATOM     69  C   UNL A   1      39.926  33.709  39.423  1.00  0.00     0.135 A 
ATOM     70  C   UNL A   1      41.481  35.144  38.281  1.00  0.00     0.135 A 
ATOM     71  F   UNL A   1      39.148  32.617  39.469  1.00  0.00    -0.206 F 
ATOM     72  C   UNL A   1      39.904  34.578  40.509  1.00  0.00     0.059 A 
ATOM     73  C   UNL A   1      41.495  36.015  39.368  1.00  0.00     0.059 A 
ATOM     74  F   UNL A   1      42.240  35.450  37.217  1.00  0.00    -0.206 F 
ATOM     75  C   UNL A   1      40.689  35.732  40.471  1.00  0.00     0.060 A 
BRANCH  75  76
ATOM     76  S   UNL A   1      40.652  36.851  41.886  1.00  0.00     0.124 S 
ATOM     77  O   UNL A   1      41.443  37.973  41.389  1.00  0.00    -0.237 OA
ATOM     78  O   UNL A   1      39.225  37.106  42.048  1.00  0.00    -0.237 OA
ATOM     79  O   UNL A   1      41.270  36.070  42.953  1.00  0.00    -0.744 OA
ENDBRANCH  75  76
ENDBRANCH  54  68
BRANCH  55  80
ATOM     80  C   UNL A   1      40.625  28.190  30.145  1.00  0.00     0.058 A 
ATOM     81  C   UNL A   1      41.577  28.394  29.136  1.00  0.00     0.135 A 
ATOM     82  C   UNL A   1      39.703  27.146  29.977  1.00  0.00     0.135 A 
ATOM     83  F   UNL A   1      42.475  29.384  29.251  1.00  0.00    -0.206 F 
ATOM     84  C   UNL A   1      41.610  27.599  27.995  1.00  0.00     0.059 A 
ATOM     85  C   UNL A   1      39.729  26.325  28.854  1.00  0.00     0.059 A 
ATOM     86  F   UNL A   1      38.783  26.900  30.923  1.00  0.00    -0.206 F 
ATOM     87  C   UNL A   1      40.682  26.564  27.864  1.00  0.00     0.060 A 
BRANCH  87  88
ATOM     88  S   UNL A   1      40.771  25.484  26.420  1.00  0.00     0.124 S 
ATOM     89  O   UNL A   1      41.800  24.535  26.826  1.00  0.00    -0.237 OA
ATOM     90  O   UNL A   1      39.412  24.959  26.336  1.00  0.00    -0.237 OA
ATOM     91  O   UNL A   1      41.142  26.401  25.345  1.00  0.00    -0.744 OA
ENDBRANCH  87  88
ENDBRANCH  55  80
BRANCH  67  92
ATOM     92  C   UNL A   1      44.580  28.379  35.874  1.00  0.00     0.058 A 
ATOM     93  C   UNL A   1      45.906  28.688  35.535  1.00  0.00     0.135 A 
ATOM     94  C   UNL A   1      44.352  27.246  36.672  1.00  0.00     0.135 A 
ATOM     95  F   UNL A   1      46.175  29.759  34.769  1.00  0.00    -0.206 F 
ATOM     96  C   UNL A   1      46.965  27.882  35.938  1.00  0.00     0.059 A 
ATOM     97  C   UNL A   1      45.399  26.440  37.106  1.00  0.00     0.059 A 
ATOM     98  F   UNL A   1      43.104  26.913  37.035  1.00  0.00    -0.206 F 
ATOM     99  C   UNL A   1      46.701  26.755  36.716  1.00  0.00     0.060 A 
BRANCH  99 100
ATOM    100  S   UNL A   1      48.079  25.709  37.232  1.00  0.00     0.124 S 
ATOM    101  O   UNL A   1      47.824  25.573  38.662  1.00  0.00    -0.237 OA
ATOM    102  O   UNL A   1      47.877  24.503  36.435  1.00  0.00    -0.237 OA
ATOM    103  O   UNL A   1      49.254  26.498  36.874  1.00  0.00    -0.744 OA
ENDBRANCH  99 100
ENDBRANCH  67  92
ENDBRANCH  41  42
ENDBRANCH  33  36
ENDBRANCH  31  32
ENDBRANCH  30  31
ENDBRANCH   1  30
TORSDOF 17
ENDMDL
MODEL 3
REMARK VINA RESULT:     -11.6      4.873      8.666
REMARK SMILES C[C@H](Oc1ccc(/C=C2/SC(=S)N(c3ccc(F)cc3)C2=O)cc1)C(=O)NCCCNC(=O)c1ccc(-c2c3nc(c(-c4c(F)cc(S(=O)(=O)[O-])cc4F)c4ccc([nH]4)c(-c4c(F)cc(S(=O)(=O)[O-])cc4F)c4nc(c(-c5c(F)cc(S(=O)(=O)[O-])cc5F)c5ccc2[nH]5)C=C4)C=C3)cc1
REMARK SMILES IDX 28 1 27 2 25 3 26 4 2 6 1 7 3 8 4 9 5 10 24 11 6 12 23 13
REMARK SMILES IDX 7 14 8 15 9 16 10 17 21 18 11 19 13 20 22 21 12 22 14 23
REMARK SMILES IDX 15 24 20 25 16 26 19 27 17 28 18 29 29 30 30 31 31 32 32 33
REMARK SMILES IDX 33 35 34 36 35 37 99 38 36 39 98 40 37 41 38 42 39 43 92 44
REMARK SMILES IDX 40 45 97 46 91 47 93 48 41 49 96 50 90 51 89 52 42 54 76 55
REMARK SMILES IDX 55 56 75 57 56 58 59 59 74 60 94 61 57 62 58 63 73 65 95 66
REMARK SMILES IDX 60 67 43 68 44 69 53 70 45 71 46 72 52 73 54 74 47 75 48 76
REMARK SMILES IDX 49 77 50 78 51 79 77 80 78 81 87 82 79 83 80 84 86 85 88 86
REMARK SMILES IDX 81 87 82 88 83 89 84 90 85 91 61 92 62 93 71 94 63 95 64 96
REMARK SMILES IDX 70 97 72 98 65 99 66 100 67 101 68 102 69 103
REMARK H PARENT 27 5 31 34 93 53 59 64
REMARK Flexibility Score: inf
ROOT
ATOM      1  C   UNL A   1      42.226  22.683  25.750  1.00  0.00     0.118 C 
ENDROOT
BRANCH   1   2
ATOM      2  N   UNL A   1      43.367  22.500  24.865  1.00  0.00    -0.353 N 
ATOM      3  C   UNL A   1      44.548  23.198  24.819  1.00  0.00     0.260 C 
ATOM      4  O   UNL A   1      45.414  22.827  24.022  1.00  0.00    -0.271 OA
ATOM      5  H   UNL A   1      43.280  21.773  24.207  1.00  0.00     0.163 HD
BRANCH   3   6
ATOM      6  C   UNL A   1      44.797  24.374  25.780  1.00  0.00     0.258 C 
ATOM      7  C   UNL A   1      45.463  25.509  24.998  1.00  0.00     0.064 C 
BRANCH   6   8
ATOM      8  O   UNL A   1      45.509  23.778  26.862  1.00  0.00    -0.481 OA
BRANCH   8   9
ATOM      9  C   UNL A   1      45.303  24.077  28.168  1.00  0.00     0.120 A 
ATOM     10  C   UNL A   1      46.118  24.829  29.005  1.00  0.00     0.047 A 
ATOM     11  C   UNL A   1      44.148  23.493  28.690  1.00  0.00     0.047 A 
ATOM     12  C   UNL A   1      45.854  24.878  30.382  1.00  0.00     0.012 A 
ATOM     13  C   UNL A   1      43.858  23.572  30.051  1.00  0.00     0.012 A 
ATOM     14  C   UNL A   1      44.749  24.209  30.918  1.00  0.00    -0.024 A 
BRANCH  14  15
ATOM     15  C   UNL A   1      44.536  24.172  32.368  1.00  0.00     0.029 C 
ATOM     16  C   UNL A   1      44.084  25.195  33.114  1.00  0.00     0.081 C 
ATOM     17  S   UNL A   1      43.982  25.112  34.828  1.00  0.00    -0.054 SA
ATOM     18  C   UNL A   1      43.654  26.551  32.647  1.00  0.00     0.270 C 
ATOM     19  C   UNL A   1      43.570  26.823  34.987  1.00  0.00     0.152 C 
ATOM     20  N   UNL A   1      43.525  27.418  33.733  1.00  0.00    -0.261 N 
ATOM     21  O   UNL A   1      43.451  26.807  31.469  1.00  0.00    -0.268 OA
ATOM     22  S   UNL A   1      43.184  27.445  36.492  1.00  0.00    -0.051 S 
BRANCH  20  23
ATOM     23  C   UNL A   1      43.354  28.823  33.502  1.00  0.00     0.051 A 
ATOM     24  C   UNL A   1      44.461  29.689  33.459  1.00  0.00     0.030 A 
ATOM     25  C   UNL A   1      42.069  29.390  33.406  1.00  0.00     0.030 A 
ATOM     26  C   UNL A   1      44.293  31.069  33.318  1.00  0.00     0.041 A 
ATOM     27  C   UNL A   1      41.901  30.773  33.272  1.00  0.00     0.041 A 
ATOM     28  C   UNL A   1      43.014  31.600  33.231  1.00  0.00     0.123 A 
ATOM     29  F   UNL A   1      42.861  32.925  33.121  1.00  0.00    -0.207 F 
ENDBRANCH  20  23
ENDBRANCH  14  15
ENDBRANCH   8   9
ENDBRANCH   6   8
ENDBRANCH   3   6
ENDBRANCH   1   2
BRANCH   1  30
ATOM     30  C   UNL A   1      41.541  21.377  26.131  1.00  0.00     0.042 C 
BRANCH  30  31
ATOM     31  C   UNL A   1      40.411  21.519  27.143  1.00  0.00     0.118 C 
BRANCH  31  32
ATOM     32  N   UNL A   1      39.154  21.945  26.543  1.00  0.00    -0.352 N 
ATOM     33  C   UNL A   1      38.556  23.181  26.502  1.00  0.00     0.251 C 
ATOM     34  H   UNL A   1      38.649  21.229  26.095  1.00  0.00     0.163 HD
ATOM     35  O   UNL A   1      37.413  23.271  26.059  1.00  0.00    -0.269 OA
BRANCH  33  36
ATOM     36  C   UNL A   1      39.251  24.391  27.000  1.00  0.00     0.039 A 
ATOM     37  C   UNL A   1      39.976  25.167  26.090  1.00  0.00     0.014 A 
ATOM     38  C   UNL A   1      39.229  24.749  28.351  1.00  0.00     0.014 A 
ATOM     39  C   UNL A   1      40.617  26.331  26.521  1.00  0.00     0.010 A 
ATOM     40  C   UNL A   1      39.805  25.951  28.765  1.00  0.00     0.010 A 
ATOM     41  C   UNL A   1      40.507  26.753  27.855  1.00  0.00    -0.014 A 
BRANCH  41  42
ATOM     42  C   UNL A   1      41.106  28.039  28.298  1.00  0.00     0.031 A 
ATOM     43  C   UNL A   1      42.591  28.266  28.214  1.00  0.00     0.074 A 
ATOM     44  C   UNL A   1      40.309  28.989  28.828  1.00  0.00     0.049 A 
ATOM     45  N   UNL A   1      43.287  29.316  28.572  1.00  0.00    -0.248 NA
ATOM     46  C   UNL A   1      43.404  27.160  27.686  1.00  0.00     0.031 C 
ATOM     47  C   UNL A   1      38.863  28.865  29.029  1.00  0.00     0.029 A 
ATOM     48  N   UNL A   1      40.601  30.246  29.296  1.00  0.00    -0.354 N 
ATOM     49  C   UNL A   1      44.617  28.993  28.326  1.00  0.00     0.074 A 
ATOM     50  C   UNL A   1      44.635  27.633  27.834  1.00  0.00     0.031 C 
ATOM     51  C   UNL A   1      38.391  30.009  29.550  1.00  0.00     0.029 A 
ATOM     52  C   UNL A   1      39.501  30.937  29.744  1.00  0.00     0.049 A 
ATOM     53  H   UNL A   1      41.513  30.617  29.309  1.00  0.00     0.167 HD
ATOM     54  C   UNL A   1      45.720  29.766  28.473  1.00  0.00     0.037 A 
ATOM     55  C   UNL A   1      39.395  32.181  30.249  1.00  0.00     0.037 A 
ATOM     56  C   UNL A   1      45.696  31.131  28.933  1.00  0.00     0.049 A 
ATOM     57  C   UNL A   1      40.624  33.040  30.351  1.00  0.00     0.074 A 
ATOM     58  C   UNL A   1      46.753  32.017  29.064  1.00  0.00     0.029 A 
ATOM     59  N   UNL A   1      44.556  31.812  29.333  1.00  0.00    -0.354 N 
ATOM     60  N   UNL A   1      41.867  32.738  30.056  1.00  0.00    -0.248 NA
ATOM     61  C   UNL A   1      40.435  34.412  30.837  1.00  0.00     0.031 C 
ATOM     62  C   UNL A   1      46.254  33.225  29.564  1.00  0.00     0.029 A 
ATOM     63  C   UNL A   1      44.883  33.104  29.715  1.00  0.00     0.049 A 
ATOM     64  H   UNL A   1      43.647  31.434  29.344  1.00  0.00     0.167 HD
ATOM     65  C   UNL A   1      42.604  33.889  30.301  1.00  0.00     0.074 A 
ATOM     66  C   UNL A   1      41.667  34.897  30.754  1.00  0.00     0.031 C 
ATOM     67  C   UNL A   1      43.938  34.095  30.163  1.00  0.00     0.037 A 
BRANCH  54  68
ATOM     68  C   UNL A   1      47.047  29.154  28.121  1.00  0.00     0.058 A 
ATOM     69  C   UNL A   1      47.827  28.489  29.081  1.00  0.00     0.135 A 
ATOM     70  C   UNL A   1      47.536  29.209  26.806  1.00  0.00     0.135 A 
ATOM     71  F   UNL A   1      47.414  28.420  30.356  1.00  0.00    -0.206 F 
ATOM     72  C   UNL A   1      49.058  27.927  28.758  1.00  0.00     0.059 A 
ATOM     73  C   UNL A   1      48.754  28.632  26.454  1.00  0.00     0.059 A 
ATOM     74  F   UNL A   1      46.831  29.831  25.847  1.00  0.00    -0.206 F 
ATOM     75  C   UNL A   1      49.515  28.007  27.442  1.00  0.00     0.060 A 
BRANCH  75  76
ATOM     76  S   UNL A   1      51.114  27.276  27.035  1.00  0.00     0.124 S 
ATOM     77  O   UNL A   1      50.711  26.125  26.233  1.00  0.00    -0.237 OA
ATOM     78  O   UNL A   1      51.778  28.353  26.308  1.00  0.00    -0.237 OA
ATOM     79  O   UNL A   1      51.686  26.962  28.341  1.00  0.00    -0.744 OA
ENDBRANCH  75  76
ENDBRANCH  54  68
BRANCH  55  80
ATOM     80  C   UNL A   1      38.064  32.701  30.652  1.00  0.00     0.058 A 
ATOM     81  C   UNL A   1      37.628  32.612  31.983  1.00  0.00     0.135 A 
ATOM     82  C   UNL A   1      37.216  33.325  29.725  1.00  0.00     0.135 A 
ATOM     83  F   UNL A   1      38.404  32.018  32.903  1.00  0.00    -0.206 F 
ATOM     84  C   UNL A   1      36.393  33.113  32.381  1.00  0.00     0.059 A 
ATOM     85  C   UNL A   1      35.985  33.852  30.103  1.00  0.00     0.059 A 
ATOM     86  F   UNL A   1      37.595  33.451  28.444  1.00  0.00    -0.206 F 
ATOM     87  C   UNL A   1      35.579  33.734  31.432  1.00  0.00     0.060 A 
BRANCH  87  88
ATOM     88  S   UNL A   1      34.008  34.452  31.961  1.00  0.00     0.124 S 
ATOM     89  O   UNL A   1      33.309  34.597  30.691  1.00  0.00    -0.237 OA
ATOM     90  O   UNL A   1      33.487  33.434  32.868  1.00  0.00    -0.237 OA
ATOM     91  O   UNL A   1      34.416  35.698  32.607  1.00  0.00    -0.744 OA
ENDBRANCH  87  88
ENDBRANCH  55  80
BRANCH  67  92
ATOM     92  C   UNL A   1      44.451  35.470  30.480  1.00  0.00     0.058 A 
ATOM     93  C   UNL A   1      44.466  36.491  29.516  1.00  0.00     0.135 A 
ATOM     94  C   UNL A   1      44.929  35.773  31.765  1.00  0.00     0.135 A 
ATOM     95  F   UNL A   1      44.025  36.250  28.271  1.00  0.00    -0.206 F 
ATOM     96  C   UNL A   1      44.972  37.754  29.805  1.00  0.00     0.059 A 
ATOM     97  C   UNL A   1      45.417  37.036  32.082  1.00  0.00     0.059 A 
ATOM     98  F   UNL A   1      44.925  34.836  32.726  1.00  0.00    -0.206 F 
ATOM     99  C   UNL A   1      45.453  38.015  31.089  1.00  0.00     0.060 A 
BRANCH  99 100
ATOM    100  S   UNL A   1      46.113  39.655  31.456  1.00  0.00     0.124 S 
ATOM    101  O   UNL A   1      46.364  40.176  30.116  1.00  0.00    -0.237 OA
ATOM    102  O   UNL A   1      45.016  40.282  32.185  1.00  0.00    -0.237 OA
ATOM    103  O   UNL A   1      47.302  39.368  32.253  1.00  0.00    -0.744 OA
ENDBRANCH  99 100
ENDBRANCH  67  92
ENDBRANCH  41  42
ENDBRANCH  33  36
ENDBRANCH  31  32
ENDBRANCH  30  31
ENDBRANCH   1  30
TORSDOF 17
ENDMDL
