MODEL 1
REMARK VINA RESULT:     -12.8      0.000      0.000
REMARK SMILES CC(=O)Nc1ccc2sc(C(=O)NCCCNC(=O)c3ccc(-c4c5nc(c(-c6c(F)cc(S(=O)(=O)[O-])cc6F)c6ccc([nH]6)c(-c6c(F)cc(S(=O)(=O)[O-])cc6F)c6nc(c(-c7c(F)cc(S(=O)(=O)[O-])cc7F)c7ccc4[nH]7)C=C6)C=C5)cc3)cc2c1
REMARK SMILES IDX 16 1 15 2 14 3 13 4 11 5 12 6 10 8 5 9 6 10 88 11 7 12 87 13
REMARK SMILES IDX 8 14 86 15 9 16 4 17 1 18 2 19 3 20 17 22 18 23 19 25 20 26
REMARK SMILES IDX 21 27 85 28 22 29 84 30 23 31 24 32 25 33 78 34 26 35 83 36
REMARK SMILES IDX 77 37 79 38 27 39 82 40 76 41 75 42 28 44 62 45 41 46 61 47
REMARK SMILES IDX 42 48 45 49 60 50 80 51 43 52 44 53 59 55 81 56 46 57 29 58
REMARK SMILES IDX 30 59 39 60 31 61 32 62 38 63 40 64 33 65 34 66 35 67 36 68
REMARK SMILES IDX 37 69 63 70 64 71 73 72 65 73 66 74 72 75 74 76 67 77 68 78
REMARK SMILES IDX 69 79 70 80 71 81 47 82 48 83 57 84 49 85 50 86 56 87 58 88
REMARK SMILES IDX 51 89 52 90 53 91 54 92 55 93
REMARK H PARENT 13 7 4 21 17 24 79 43 45 54
REMARK Flexibility Score: inf
ROOT
ATOM      1  C   UNL A   1      38.282  24.164  26.373  1.00  0.00     0.118 C 
ENDROOT
BRANCH   1   2
ATOM      2  C   UNL A   1      37.409  23.109  25.692  1.00  0.00     0.042 C 
BRANCH   2   3
ATOM      3  C   UNL A   1      36.367  23.709  24.750  1.00  0.00     0.118 C 
BRANCH   3   4
ATOM      4  N   UNL A   1      35.214  24.212  25.475  1.00  0.00    -0.351 N 
ATOM      5  C   UNL A   1      33.962  23.705  25.717  1.00  0.00     0.261 C 
ATOM      6  O   UNL A   1      33.263  24.400  26.466  1.00  0.00    -0.268 OA
ATOM      7  H   UNL A   1      35.361  25.100  25.876  1.00  0.00     0.163 HD
BRANCH   5   8
ATOM      8  C   UNL A   1      33.475  22.429  25.211  1.00  0.00     0.093 A 
ATOM      9  C   UNL A   1      32.552  17.777  24.662  1.00  0.00     0.041 A 
ATOM     10  C   UNL A   1      32.315  18.142  23.341  1.00  0.00     0.027 A 
ATOM     11  C   UNL A   1      32.827  18.767  25.614  1.00  0.00     0.035 A 
ATOM     12  C   UNL A   1      32.376  19.482  22.944  1.00  0.00     0.022 A 
ATOM     13  C   UNL A   1      32.969  20.121  25.223  1.00  0.00    -0.005 A 
ATOM     14  C   UNL A   1      32.718  20.456  23.896  1.00  0.00     0.035 A 
ATOM     15  C   UNL A   1      33.374  21.274  25.970  1.00  0.00     0.034 A 
ATOM     16  S   UNL A   1      32.861  22.146  23.649  1.00  0.00    -0.130 S 
BRANCH   9  17
ATOM     17  N   UNL A   1      32.483  16.451  25.119  1.00  0.00    -0.326 N 
ATOM     18  C   UNL A   1      34.906  15.897  25.181  1.00  0.00     0.114 C 
ATOM     19  C   UNL A   1      33.455  15.499  25.241  1.00  0.00     0.221 C 
ATOM     20  O   UNL A   1      33.130  14.336  25.486  1.00  0.00    -0.275 OA
ATOM     21  H   UNL A   1      31.584  16.159  25.397  1.00  0.00     0.169 HD
ENDBRANCH   9  17
ENDBRANCH   5   8
ENDBRANCH   3   4
ENDBRANCH   2   3
ENDBRANCH   1   2
BRANCH   1  22
ATOM     22  N   UNL A   1      39.702  23.922  26.155  1.00  0.00    -0.352 N 
ATOM     23  C   UNL A   1      40.796  24.635  26.573  1.00  0.00     0.251 C 
ATOM     24  H   UNL A   1      39.909  23.120  25.624  1.00  0.00     0.163 HD
ATOM     25  O   UNL A   1      41.897  24.388  26.073  1.00  0.00    -0.269 OA
BRANCH  23  26
ATOM     26  C   UNL A   1      40.673  25.685  27.604  1.00  0.00     0.039 A 
ATOM     27  C   UNL A   1      39.659  25.579  28.561  1.00  0.00     0.014 A 
ATOM     28  C   UNL A   1      41.516  26.799  27.602  1.00  0.00     0.014 A 
ATOM     29  C   UNL A   1      39.525  26.561  29.545  1.00  0.00     0.010 A 
ATOM     30  C   UNL A   1      41.428  27.740  28.626  1.00  0.00     0.010 A 
ATOM     31  C   UNL A   1      40.428  27.634  29.603  1.00  0.00    -0.014 A 
BRANCH  31  32
ATOM     32  C   UNL A   1      40.343  28.658  30.677  1.00  0.00     0.031 A 
ATOM     33  C   UNL A   1      41.214  28.548  31.899  1.00  0.00     0.074 A 
ATOM     34  C   UNL A   1      39.431  29.644  30.583  1.00  0.00     0.049 A 
ATOM     35  N   UNL A   1      41.226  29.292  32.974  1.00  0.00    -0.248 NA
ATOM     36  C   UNL A   1      42.182  27.439  31.926  1.00  0.00     0.031 C 
ATOM     37  C   UNL A   1      38.497  29.828  29.469  1.00  0.00     0.029 A 
ATOM     38  N   UNL A   1      39.126  30.670  31.442  1.00  0.00    -0.354 N 
ATOM     39  C   UNL A   1      42.184  28.731  33.813  1.00  0.00     0.074 A 
ATOM     40  C   UNL A   1      42.696  27.558  33.141  1.00  0.00     0.031 C 
ATOM     41  C   UNL A   1      37.740  30.911  29.703  1.00  0.00     0.029 A 
ATOM     42  C   UNL A   1      38.106  31.477  30.998  1.00  0.00     0.049 A 
ATOM     43  H   UNL A   1      39.595  30.815  32.294  1.00  0.00     0.167 HD
ATOM     44  C   UNL A   1      42.611  29.167  35.023  1.00  0.00     0.037 A 
ATOM     45  C   UNL A   1      37.524  32.547  31.573  1.00  0.00     0.037 A 
ATOM     46  C   UNL A   1      42.113  30.353  35.672  1.00  0.00     0.049 A 
ATOM     47  C   UNL A   1      38.018  33.017  32.913  1.00  0.00     0.074 A 
ATOM     48  C   UNL A   1      42.522  30.915  36.869  1.00  0.00     0.029 A 
ATOM     49  N   UNL A   1      41.095  31.158  35.180  1.00  0.00    -0.354 N 
ATOM     50  N   UNL A   1      38.966  32.510  33.665  1.00  0.00    -0.248 NA
ATOM     51  C   UNL A   1      37.370  34.207  33.480  1.00  0.00     0.031 C 
ATOM     52  C   UNL A   1      41.724  32.038  37.120  1.00  0.00     0.029 A 
ATOM     53  C   UNL A   1      40.850  32.202  36.057  1.00  0.00     0.049 A 
ATOM     54  H   UNL A   1      40.618  31.010  34.331  1.00  0.00     0.167 HD
ATOM     55  C   UNL A   1      39.045  33.333  34.783  1.00  0.00     0.074 A 
ATOM     56  C   UNL A   1      38.055  34.377  34.602  1.00  0.00     0.031 C 
ATOM     57  C   UNL A   1      39.863  33.235  35.859  1.00  0.00     0.037 A 
BRANCH  44  58
ATOM     58  C   UNL A   1      43.670  28.357  35.721  1.00  0.00     0.058 A 
ATOM     59  C   UNL A   1      45.038  28.591  35.506  1.00  0.00     0.135 A 
ATOM     60  C   UNL A   1      43.314  27.347  36.629  1.00  0.00     0.135 A 
ATOM     61  F   UNL A   1      45.435  29.536  34.639  1.00  0.00    -0.206 F 
ATOM     62  C   UNL A   1      46.015  27.826  36.137  1.00  0.00     0.059 A 
ATOM     63  C   UNL A   1      44.275  26.589  37.292  1.00  0.00     0.059 A 
ATOM     64  F   UNL A   1      42.022  27.082  36.873  1.00  0.00    -0.206 F 
ATOM     65  C   UNL A   1      45.623  26.824  37.025  1.00  0.00     0.060 A 
BRANCH  65  66
ATOM     66  S   UNL A   1      46.903  25.832  37.825  1.00  0.00     0.124 S 
ATOM     67  O   UNL A   1      46.656  26.123  39.233  1.00  0.00    -0.237 OA
ATOM     68  O   UNL A   1      46.569  24.480  37.389  1.00  0.00    -0.237 OA
ATOM     69  O   UNL A   1      48.143  26.375  37.279  1.00  0.00    -0.744 OA
ENDBRANCH  65  66
ENDBRANCH  44  58
BRANCH  45  70
ATOM     70  C   UNL A   1      36.428  33.260  30.864  1.00  0.00     0.058 A 
ATOM     71  C   UNL A   1      35.100  33.151  31.302  1.00  0.00     0.135 A 
ATOM     72  C   UNL A   1      36.688  34.088  29.761  1.00  0.00     0.135 A 
ATOM     73  F   UNL A   1      34.801  32.368  32.349  1.00  0.00    -0.206 F 
ATOM     74  C   UNL A   1      34.066  33.831  30.668  1.00  0.00     0.059 A 
ATOM     75  C   UNL A   1      35.675  34.796  29.124  1.00  0.00     0.059 A 
ATOM     76  F   UNL A   1      37.945  34.239  29.315  1.00  0.00    -0.206 F 
ATOM     77  C   UNL A   1      34.364  34.655  29.581  1.00  0.00     0.060 A 
BRANCH  77  78
ATOM     78  S   UNL A   1      33.023  35.584  28.806  1.00  0.00     0.124 S 
ATOM     79  O   UNL A   1      33.760  36.596  28.058  1.00  0.00    -0.237 OA
ATOM     80  O   UNL A   1      32.359  34.558  28.008  1.00  0.00    -0.237 OA
ATOM     81  O   UNL A   1      32.254  36.075  29.945  1.00  0.00    -0.744 OA
ENDBRANCH  77  78
ENDBRANCH  45  70
BRANCH  57  82
ATOM     82  C   UNL A   1      39.747  34.300  36.915  1.00  0.00     0.058 A 
ATOM     83  C   UNL A   1      38.985  34.106  38.077  1.00  0.00     0.135 A 
ATOM     84  C   UNL A   1      40.449  35.509  36.783  1.00  0.00     0.135 A 
ATOM     85  F   UNL A   1      38.289  32.972  38.248  1.00  0.00    -0.206 F 
ATOM     86  C   UNL A   1      38.907  35.084  39.065  1.00  0.00     0.059 A 
ATOM     87  C   UNL A   1      40.406  36.489  37.769  1.00  0.00     0.059 A 
ATOM     88  F   UNL A   1      41.200  35.740  35.694  1.00  0.00    -0.206 F 
ATOM     89  C   UNL A   1      39.622  36.272  38.901  1.00  0.00     0.060 A 
BRANCH  89  90
ATOM     90  S   UNL A   1      39.540  37.518  40.205  1.00  0.00     0.124 S 
ATOM     91  O   UNL A   1      38.991  36.746  41.315  1.00  0.00    -0.237 OA
ATOM     92  O   UNL A   1      40.938  37.920  40.342  1.00  0.00    -0.237 OA
ATOM     93  O   UNL A   1      38.655  38.535  39.648  1.00  0.00    -0.744 OA
ENDBRANCH  89  90
ENDBRANCH  57  82
ENDBRANCH  31  32
ENDBRANCH  23  26
ENDBRANCH   1  22
TORSDOF 14
ENDMDL
MODEL 2
REMARK VINA RESULT:     -12.7      7.404     13.084
REMARK SMILES CC(=O)Nc1ccc2sc(C(=O)NCCCNC(=O)c3ccc(-c4c5nc(c(-c6c(F)cc(S(=O)(=O)[O-])cc6F)c6ccc([nH]6)c(-c6c(F)cc(S(=O)(=O)[O-])cc6F)c6nc(c(-c7c(F)cc(S(=O)(=O)[O-])cc7F)c7ccc4[nH]7)C=C6)C=C5)cc3)cc2c1
REMARK SMILES IDX 16 1 15 2 14 3 13 4 11 5 12 6 10 8 5 9 6 10 88 11 7 12 87 13
REMARK SMILES IDX 8 14 86 15 9 16 4 17 1 18 2 19 3 20 17 22 18 23 19 25 20 26
REMARK SMILES IDX 21 27 85 28 22 29 84 30 23 31 24 32 25 33 78 34 26 35 83 36
REMARK SMILES IDX 77 37 79 38 27 39 82 40 76 41 75 42 28 44 62 45 41 46 61 47
REMARK SMILES IDX 42 48 45 49 60 50 80 51 43 52 44 53 59 55 81 56 46 57 29 58
REMARK SMILES IDX 30 59 39 60 31 61 32 62 38 63 40 64 33 65 34 66 35 67 36 68
REMARK SMILES IDX 37 69 63 70 64 71 73 72 65 73 66 74 72 75 74 76 67 77 68 78
REMARK SMILES IDX 69 79 70 80 71 81 47 82 48 83 57 84 49 85 50 86 56 87 58 88
REMARK SMILES IDX 51 89 52 90 53 91 54 92 55 93
REMARK H PARENT 13 7 4 21 17 24 79 43 45 54
REMARK Flexibility Score: inf
ROOT
ATOM      1  C   UNL A   1      35.142  29.306  27.645  1.00  0.00     0.118 C 
ENDROOT
BRANCH   1   2
ATOM      2  C   UNL A   1      33.769  29.373  26.975  1.00  0.00     0.042 C 
BRANCH   2   3
ATOM      3  C   UNL A   1      33.050  28.026  26.944  1.00  0.00     0.118 C 
BRANCH   3   4
ATOM      4  N   UNL A   1      33.561  27.168  25.890  1.00  0.00    -0.351 N 
ATOM      5  C   UNL A   1      33.111  26.856  24.632  1.00  0.00     0.261 C 
ATOM      6  O   UNL A   1      33.877  26.138  23.976  1.00  0.00    -0.268 OA
ATOM      7  H   UNL A   1      34.404  26.717  26.127  1.00  0.00     0.163 HD
BRANCH   5   8
ATOM      8  C   UNL A   1      31.874  27.358  24.049  1.00  0.00     0.093 A 
ATOM      9  C   UNL A   1      28.597  30.131  21.958  1.00  0.00     0.041 A 
ATOM     10  C   UNL A   1      27.702  29.248  22.551  1.00  0.00     0.027 A 
ATOM     11  C   UNL A   1      29.973  29.888  22.053  1.00  0.00     0.035 A 
ATOM     12  C   UNL A   1      28.157  28.134  23.264  1.00  0.00     0.022 A 
ATOM     13  C   UNL A   1      30.462  28.810  22.832  1.00  0.00    -0.005 A 
ATOM     14  C   UNL A   1      29.540  27.939  23.406  1.00  0.00     0.035 A 
ATOM     15  C   UNL A   1      31.799  28.443  23.188  1.00  0.00     0.034 A 
ATOM     16  S   UNL A   1      30.332  26.663  24.233  1.00  0.00    -0.130 S 
BRANCH   9  17
ATOM     17  N   UNL A   1      28.195  31.251  21.213  1.00  0.00    -0.326 N 
ATOM     18  C   UNL A   1      28.809  33.061  22.805  1.00  0.00     0.114 C 
ATOM     19  C   UNL A   1      28.117  32.571  21.560  1.00  0.00     0.221 C 
ATOM     20  O   UNL A   1      27.551  33.359  20.801  1.00  0.00    -0.275 OA
ATOM     21  H   UNL A   1      27.924  31.053  20.287  1.00  0.00     0.169 HD
ENDBRANCH   9  17
ENDBRANCH   5   8
ENDBRANCH   3   4
ENDBRANCH   2   3
ENDBRANCH   1   2
BRANCH   1  22
ATOM     22  N   UNL A   1      35.219  30.161  28.822  1.00  0.00    -0.352 N 
ATOM     23  C   UNL A   1      36.253  30.374  29.696  1.00  0.00     0.251 C 
ATOM     24  H   UNL A   1      34.398  30.666  29.021  1.00  0.00     0.163 HD
ATOM     25  O   UNL A   1      36.025  30.952  30.763  1.00  0.00    -0.269 OA
BRANCH  23  26
ATOM     26  C   UNL A   1      37.623  29.922  29.380  1.00  0.00     0.039 A 
ATOM     27  C   UNL A   1      38.064  29.973  28.055  1.00  0.00     0.014 A 
ATOM     28  C   UNL A   1      38.456  29.400  30.373  1.00  0.00     0.014 A 
ATOM     29  C   UNL A   1      39.356  29.552  27.734  1.00  0.00     0.010 A 
ATOM     30  C   UNL A   1      39.769  29.047  30.065  1.00  0.00     0.010 A 
ATOM     31  C   UNL A   1      40.230  29.113  28.743  1.00  0.00    -0.014 A 
BRANCH  31  32
ATOM     32  C   UNL A   1      41.628  28.717  28.435  1.00  0.00     0.031 A 
ATOM     33  C   UNL A   1      42.721  29.751  28.411  1.00  0.00     0.074 A 
ATOM     34  C   UNL A   1      41.899  27.439  28.106  1.00  0.00     0.049 A 
ATOM     35  N   UNL A   1      43.979  29.616  28.085  1.00  0.00    -0.248 NA
ATOM     36  C   UNL A   1      42.340  31.126  28.778  1.00  0.00     0.031 C 
ATOM     37  C   UNL A   1      40.915  26.355  28.048  1.00  0.00     0.029 A 
ATOM     38  N   UNL A   1      43.078  26.836  27.746  1.00  0.00    -0.354 N 
ATOM     39  C   UNL A   1      44.537  30.886  28.186  1.00  0.00     0.074 A 
ATOM     40  C   UNL A   1      43.467  31.786  28.558  1.00  0.00     0.031 C 
ATOM     41  C   UNL A   1      41.534  25.218  27.694  1.00  0.00     0.029 A 
ATOM     42  C   UNL A   1      42.948  25.497  27.464  1.00  0.00     0.049 A 
ATOM     43  H   UNL A   1      43.934  27.317  27.695  1.00  0.00     0.167 HD
ATOM     44  C   UNL A   1      45.826  31.263  28.007  1.00  0.00     0.037 A 
ATOM     45  C   UNL A   1      43.864  24.596  27.056  1.00  0.00     0.037 A 
ATOM     46  C   UNL A   1      46.890  30.354  27.663  1.00  0.00     0.049 A 
ATOM     47  C   UNL A   1      45.289  25.035  26.869  1.00  0.00     0.074 A 
ATOM     48  C   UNL A   1      48.239  30.624  27.518  1.00  0.00     0.029 A 
ATOM     49  N   UNL A   1      46.723  29.000  27.408  1.00  0.00    -0.354 N 
ATOM     50  N   UNL A   1      45.811  26.229  27.028  1.00  0.00    -0.248 NA
ATOM     51  C   UNL A   1      46.252  24.006  26.455  1.00  0.00     0.031 C 
ATOM     52  C   UNL A   1      48.883  29.441  27.136  1.00  0.00     0.029 A 
ATOM     53  C   UNL A   1      47.942  28.424  27.089  1.00  0.00     0.049 A 
ATOM     54  H   UNL A   1      45.865  28.519  27.449  1.00  0.00     0.167 HD
ATOM     55  C   UNL A   1      47.168  26.090  26.757  1.00  0.00     0.074 A 
ATOM     56  C   UNL A   1      47.387  24.694  26.434  1.00  0.00     0.031 C 
ATOM     57  C   UNL A   1      48.143  27.031  26.774  1.00  0.00     0.037 A 
BRANCH  44  58
ATOM     58  C   UNL A   1      46.155  32.721  28.180  1.00  0.00     0.058 A 
ATOM     59  C   UNL A   1      46.049  33.632  27.116  1.00  0.00     0.135 A 
ATOM     60  C   UNL A   1      46.563  33.219  29.428  1.00  0.00     0.135 A 
ATOM     61  F   UNL A   1      45.676  33.209  25.898  1.00  0.00    -0.206 F 
ATOM     62  C   UNL A   1      46.374  34.976  27.273  1.00  0.00     0.059 A 
ATOM     63  C   UNL A   1      46.866  34.565  29.614  1.00  0.00     0.059 A 
ATOM     64  F   UNL A   1      46.680  32.394  30.480  1.00  0.00    -0.206 F 
ATOM     65  C   UNL A   1      46.786  35.432  28.526  1.00  0.00     0.060 A 
BRANCH  65  66
ATOM     66  S   UNL A   1      47.217  37.176  28.710  1.00  0.00     0.124 S 
ATOM     67  O   UNL A   1      46.372  37.792  27.691  1.00  0.00    -0.237 OA
ATOM     68  O   UNL A   1      46.841  37.447  30.094  1.00  0.00    -0.237 OA
ATOM     69  O   UNL A   1      48.650  37.202  28.436  1.00  0.00    -0.744 OA
ENDBRANCH  65  66
ENDBRANCH  44  58
BRANCH  45  70
ATOM     70  C   UNL A   1      43.458  23.184  26.828  1.00  0.00     0.058 A 
ATOM     71  C   UNL A   1      43.401  22.654  25.530  1.00  0.00     0.135 A 
ATOM     72  C   UNL A   1      43.153  22.329  27.898  1.00  0.00     0.135 A 
ATOM     73  F   UNL A   1      43.679  23.434  24.474  1.00  0.00    -0.206 F 
ATOM     74  C   UNL A   1      43.049  21.329  25.300  1.00  0.00     0.059 A 
ATOM     75  C   UNL A   1      42.820  20.994  27.695  1.00  0.00     0.059 A 
ATOM     76  F   UNL A   1      43.211  22.783  29.159  1.00  0.00    -0.206 F 
ATOM     77  C   UNL A   1      42.764  20.504  26.390  1.00  0.00     0.060 A 
BRANCH  77  78
ATOM     78  S   UNL A   1      42.372  18.769  26.082  1.00  0.00     0.124 S 
ATOM     79  O   UNL A   1      42.634  18.173  27.387  1.00  0.00    -0.237 OA
ATOM     80  O   UNL A   1      40.971  18.836  25.680  1.00  0.00    -0.237 OA
ATOM     81  O   UNL A   1      43.303  18.398  25.020  1.00  0.00    -0.744 OA
ENDBRANCH  77  78
ENDBRANCH  45  70
BRANCH  57  82
ATOM     82  C   UNL A   1      49.544  26.581  26.466  1.00  0.00     0.058 A 
ATOM     83  C   UNL A   1      50.349  25.960  27.434  1.00  0.00     0.135 A 
ATOM     84  C   UNL A   1      50.068  26.727  25.171  1.00  0.00     0.135 A 
ATOM     85  F   UNL A   1      49.899  25.805  28.689  1.00  0.00    -0.206 F 
ATOM     86  C   UNL A   1      51.634  25.518  27.133  1.00  0.00     0.059 A 
ATOM     87  C   UNL A   1      51.338  26.268  24.842  1.00  0.00     0.059 A 
ATOM     88  F   UNL A   1      49.334  27.305  24.206  1.00  0.00    -0.206 F 
ATOM     89  C   UNL A   1      52.119  25.675  25.834  1.00  0.00     0.060 A 
BRANCH  89  90
ATOM     90  S   UNL A   1      53.774  25.065  25.448  1.00  0.00     0.124 S 
ATOM     91  O   UNL A   1      53.550  23.624  25.392  1.00  0.00    -0.237 OA
ATOM     92  O   UNL A   1      54.056  25.714  24.170  1.00  0.00    -0.237 OA
ATOM     93  O   UNL A   1      54.579  25.534  26.571  1.00  0.00    -0.744 OA
ENDBRANCH  89  90
ENDBRANCH  57  82
ENDBRANCH  31  32
ENDBRANCH  23  26
ENDBRANCH   1  22
TORSDOF 14
ENDMDL
MODEL 3
REMARK VINA RESULT:     -12.5      5.701     11.459
REMARK SMILES CC(=O)Nc1ccc2sc(C(=O)NCCCNC(=O)c3ccc(-c4c5nc(c(-c6c(F)cc(S(=O)(=O)[O-])cc6F)c6ccc([nH]6)c(-c6c(F)cc(S(=O)(=O)[O-])cc6F)c6nc(c(-c7c(F)cc(S(=O)(=O)[O-])cc7F)c7ccc4[nH]7)C=C6)C=C5)cc3)cc2c1
REMARK SMILES IDX 16 1 15 2 14 3 13 4 11 5 12 6 10 8 5 9 6 10 88 11 7 12 87 13
REMARK SMILES IDX 8 14 86 15 9 16 4 17 1 18 2 19 3 20 17 22 18 23 19 25 20 26
REMARK SMILES IDX 21 27 85 28 22 29 84 30 23 31 24 32 25 33 78 34 26 35 83 36
REMARK SMILES IDX 77 37 79 38 27 39 82 40 76 41 75 42 28 44 62 45 41 46 61 47
REMARK SMILES IDX 42 48 45 49 60 50 80 51 43 52 44 53 59 55 81 56 46 57 29 58
REMARK SMILES IDX 30 59 39 60 31 61 32 62 38 63 40 64 33 65 34 66 35 67 36 68
REMARK SMILES IDX 37 69 63 70 64 71 73 72 65 73 66 74 72 75 74 76 67 77 68 78
REMARK SMILES IDX 69 79 70 80 71 81 47 82 48 83 57 84 49 85 50 86 56 87 58 88
REMARK SMILES IDX 51 89 52 90 53 91 54 92 55 93
REMARK H PARENT 13 7 4 21 17 24 79 43 45 54
REMARK Flexibility Score: inf
ROOT
ATOM      1  C   UNL A   1      33.700  28.294  26.851  1.00  0.00     0.118 C 
ENDROOT
BRANCH   1   2
ATOM      2  C   UNL A   1      32.354  27.568  26.857  1.00  0.00     0.042 C 
BRANCH   2   3
ATOM      3  C   UNL A   1      32.455  26.112  26.409  1.00  0.00     0.118 C 
BRANCH   3   4
ATOM      4  N   UNL A   1      33.160  25.986  25.146  1.00  0.00    -0.351 N 
ATOM      5  C   UNL A   1      32.867  26.375  23.863  1.00  0.00     0.261 C 
ATOM      6  O   UNL A   1      33.770  26.167  23.044  1.00  0.00    -0.268 OA
ATOM      7  H   UNL A   1      34.027  25.527  25.227  1.00  0.00     0.163 HD
BRANCH   5   8
ATOM      8  C   UNL A   1      31.634  27.041  23.463  1.00  0.00     0.093 A 
ATOM      9  C   UNL A   1      28.476  30.251  21.876  1.00  0.00     0.041 A 
ATOM     10  C   UNL A   1      27.567  29.470  22.580  1.00  0.00     0.027 A 
ATOM     11  C   UNL A   1      29.810  29.837  21.775  1.00  0.00     0.035 A 
ATOM     12  C   UNL A   1      27.972  28.289  23.212  1.00  0.00     0.022 A 
ATOM     13  C   UNL A   1      30.262  28.688  22.469  1.00  0.00    -0.005 A 
ATOM     14  C   UNL A   1      29.326  27.922  23.158  1.00  0.00     0.035 A 
ATOM     15  C   UNL A   1      31.578  28.148  22.632  1.00  0.00     0.034 A 
ATOM     16  S   UNL A   1      30.057  26.536  23.855  1.00  0.00    -0.130 S 
BRANCH   9  17
ATOM     17  N   UNL A   1      28.119  31.431  21.205  1.00  0.00    -0.326 N 
ATOM     18  C   UNL A   1      28.791  33.110  22.912  1.00  0.00     0.114 C 
ATOM     19  C   UNL A   1      28.089  32.727  21.636  1.00  0.00     0.221 C 
ATOM     20  O   UNL A   1      27.556  33.584  20.929  1.00  0.00    -0.275 OA
ATOM     21  H   UNL A   1      27.846  31.304  20.267  1.00  0.00     0.169 HD
ENDBRANCH   9  17
ENDBRANCH   5   8
ENDBRANCH   3   4
ENDBRANCH   2   3
ENDBRANCH   1   2
BRANCH   1  22
ATOM     22  N   UNL A   1      33.570  29.692  27.240  1.00  0.00    -0.352 N 
ATOM     23  C   UNL A   1      34.415  30.492  27.964  1.00  0.00     0.251 C 
ATOM     24  H   UNL A   1      32.744  30.132  26.934  1.00  0.00     0.163 HD
ATOM     25  O   UNL A   1      33.999  31.576  28.385  1.00  0.00    -0.269 OA
BRANCH  23  26
ATOM     26  C   UNL A   1      35.803  30.076  28.246  1.00  0.00     0.039 A 
ATOM     27  C   UNL A   1      36.756  30.162  27.226  1.00  0.00     0.014 A 
ATOM     28  C   UNL A   1      36.160  29.554  29.492  1.00  0.00     0.014 A 
ATOM     29  C   UNL A   1      38.075  29.774  27.472  1.00  0.00     0.010 A 
ATOM     30  C   UNL A   1      37.490  29.235  29.758  1.00  0.00     0.010 A 
ATOM     31  C   UNL A   1      38.459  29.336  28.749  1.00  0.00    -0.014 A 
BRANCH  31  32
ATOM     32  C   UNL A   1      39.869  28.976  29.051  1.00  0.00     0.031 A 
ATOM     33  C   UNL A   1      40.802  29.998  29.642  1.00  0.00     0.074 A 
ATOM     34  C   UNL A   1      40.326  27.752  28.725  1.00  0.00     0.049 A 
ATOM     35  N   UNL A   1      42.081  29.900  29.896  1.00  0.00    -0.248 NA
ATOM     36  C   UNL A   1      40.225  31.314  29.965  1.00  0.00     0.031 C 
ATOM     37  C   UNL A   1      39.530  26.690  28.104  1.00  0.00     0.029 A 
ATOM     38  N   UNL A   1      41.573  27.195  28.857  1.00  0.00    -0.354 N 
ATOM     39  C   UNL A   1      42.467  31.143  30.389  1.00  0.00     0.074 A 
ATOM     40  C   UNL A   1      41.296  31.991  30.352  1.00  0.00     0.031 C 
ATOM     41  C   UNL A   1      40.301  25.607  27.927  1.00  0.00     0.029 A 
ATOM     42  C   UNL A   1      41.654  25.906  28.386  1.00  0.00     0.049 A 
ATOM     43  H   UNL A   1      42.337  27.673  29.252  1.00  0.00     0.167 HD
ATOM     44  C   UNL A   1      43.680  31.532  30.849  1.00  0.00     0.037 A 
ATOM     45  C   UNL A   1      42.703  25.062  28.323  1.00  0.00     0.037 A 
ATOM     46  C   UNL A   1      44.833  30.671  30.907  1.00  0.00     0.049 A 
ATOM     47  C   UNL A   1      44.038  25.514  28.845  1.00  0.00     0.074 A 
ATOM     48  C   UNL A   1      46.091  30.950  31.412  1.00  0.00     0.029 A 
ATOM     49  N   UNL A   1      44.870  29.364  30.443  1.00  0.00    -0.354 N 
ATOM     50  N   UNL A   1      44.370  26.673  29.363  1.00  0.00    -0.248 NA
ATOM     51  C   UNL A   1      45.139  24.544  28.782  1.00  0.00     0.031 C 
ATOM     52  C   UNL A   1      46.900  29.825  31.216  1.00  0.00     0.029 A 
ATOM     53  C   UNL A   1      46.133  28.829  30.633  1.00  0.00     0.049 A 
ATOM     54  H   UNL A   1      44.109  28.886  30.039  1.00  0.00     0.167 HD
ATOM     55  C   UNL A   1      45.713  26.563  29.709  1.00  0.00     0.074 A 
ATOM     56  C   UNL A   1      46.127  25.221  29.352  1.00  0.00     0.031 C 
ATOM     57  C   UNL A   1      46.527  27.488  30.274  1.00  0.00     0.037 A 
BRANCH  44  58
ATOM     58  C   UNL A   1      43.819  32.953  31.326  1.00  0.00     0.058 A 
ATOM     59  C   UNL A   1      44.262  33.977  30.473  1.00  0.00     0.135 A 
ATOM     60  C   UNL A   1      43.489  33.300  32.646  1.00  0.00     0.135 A 
ATOM     61  F   UNL A   1      44.603  33.700  29.204  1.00  0.00    -0.206 F 
ATOM     62  C   UNL A   1      44.410  35.286  30.922  1.00  0.00     0.059 A 
ATOM     63  C   UNL A   1      43.603  34.608  33.108  1.00  0.00     0.059 A 
ATOM     64  F   UNL A   1      43.059  32.362  33.504  1.00  0.00    -0.206 F 
ATOM     65  C   UNL A   1      44.082  35.591  32.244  1.00  0.00     0.060 A 
BRANCH  65  66
ATOM     66  S   UNL A   1      44.292  37.291  32.814  1.00  0.00     0.124 S 
ATOM     67  O   UNL A   1      43.923  38.044  31.620  1.00  0.00    -0.237 OA
ATOM     68  O   UNL A   1      43.352  37.366  33.928  1.00  0.00    -0.237 OA
ATOM     69  O   UNL A   1      45.703  37.352  33.184  1.00  0.00    -0.744 OA
ENDBRANCH  65  66
ENDBRANCH  44  58
BRANCH  45  70
ATOM     70  C   UNL A   1      42.517  23.695  27.769  1.00  0.00     0.058 A 
ATOM     71  C   UNL A   1      42.530  23.474  26.383  1.00  0.00     0.135 A 
ATOM     72  C   UNL A   1      42.357  22.581  28.608  1.00  0.00     0.135 A 
ATOM     73  F   UNL A   1      42.675  24.508  25.541  1.00  0.00    -0.206 F 
ATOM     74  C   UNL A   1      42.383  22.199  25.848  1.00  0.00     0.059 A 
ATOM     75  C   UNL A   1      42.231  21.294  28.097  1.00  0.00     0.059 A 
ATOM     76  F   UNL A   1      42.355  22.738  29.940  1.00  0.00    -0.206 F 
ATOM     77  C   UNL A   1      42.238  21.113  26.714  1.00  0.00     0.060 A 
BRANCH  77  78
ATOM     78  S   UNL A   1      42.115  19.456  26.009  1.00  0.00     0.124 S 
ATOM     79  O   UNL A   1      42.678  18.639  27.078  1.00  0.00    -0.237 OA
ATOM     80  O   UNL A   1      40.678  19.320  25.792  1.00  0.00    -0.237 OA
ATOM     81  O   UNL A   1      42.918  19.548  24.793  1.00  0.00    -0.744 OA
ENDBRANCH  77  78
ENDBRANCH  45  70
BRANCH  57  82
ATOM     82  C   UNL A   1      47.943  27.075  30.569  1.00  0.00     0.058 A 
ATOM     83  C   UNL A   1      48.973  27.251  29.634  1.00  0.00     0.135 A 
ATOM     84  C   UNL A   1      48.278  26.542  31.825  1.00  0.00     0.135 A 
ATOM     85  F   UNL A   1      48.703  27.748  28.416  1.00  0.00    -0.206 F 
ATOM     86  C   UNL A   1      50.286  26.894  29.925  1.00  0.00     0.059 A 
ATOM     87  C   UNL A   1      49.588  26.203  32.147  1.00  0.00     0.059 A 
ATOM     88  F   UNL A   1      47.331  26.362  32.759  1.00  0.00    -0.206 F 
ATOM     89  C   UNL A   1      50.584  26.372  31.185  1.00  0.00     0.060 A 
BRANCH  89  90
ATOM     90  S   UNL A   1      52.297  25.946  31.563  1.00  0.00     0.124 S 
ATOM     91  O   UNL A   1      52.162  24.567  32.023  1.00  0.00    -0.237 OA
ATOM     92  O   UNL A   1      52.956  26.123  30.272  1.00  0.00    -0.237 OA
ATOM     93  O   UNL A   1      52.670  26.916  32.587  1.00  0.00    -0.744 OA
ENDBRANCH  89  90
ENDBRANCH  57  82
ENDBRANCH  31  32
ENDBRANCH  23  26
ENDBRANCH   1  22
TORSDOF 14
ENDMDL
