MODEL 1
REMARK VINA RESULT:     -12.0      0.000      0.000
REMARK SMILES CC1C[NH+]([C@@H](C(=O)NCCCNC(=O)c2ccc(-c3c4nc(c(-c5c(F)cc(S(=O)(=O)[O-])cc5F)c5ccc([nH]5)c(-c5c(F)cc(S(=O)(=O)[O-])cc5F)c5nc(c(-c6c(F)cc(S(=O)(=O)[O-])cc6F)c6ccc3[nH]6)C=C5)C=C4)cc2)C2CCCCC2)C1
REMARK SMILES IDX 11 1 10 2 9 3 8 4 6 5 7 6 5 8 4 9 1 10 2 11 3 12 87 13 81 15
REMARK SMILES IDX 82 16 86 17 83 18 85 19 84 20 12 21 13 22 14 24 15 25 16 26
REMARK SMILES IDX 80 27 17 28 79 29 18 30 19 31 20 32 73 33 21 34 78 35 72 36
REMARK SMILES IDX 74 37 22 38 77 39 71 40 70 41 23 43 57 44 36 45 56 46 37 47
REMARK SMILES IDX 40 48 55 49 75 50 38 51 39 52 54 54 76 55 41 56 24 57 25 58
REMARK SMILES IDX 34 59 26 60 27 61 33 62 35 63 28 64 29 65 30 66 31 67 32 68
REMARK SMILES IDX 58 69 59 70 68 71 60 72 61 73 67 74 69 75 62 76 63 77 64 78
REMARK SMILES IDX 65 79 66 80 42 81 43 82 52 83 44 84 45 85 51 86 53 87 46 88
REMARK SMILES IDX 47 89 48 90 49 91 50 92
REMARK H PARENT 8 7 4 14 12 23 74 42 40 53
REMARK Flexibility Score: inf
ROOT
ATOM      1  C   UNL A   1      38.323  24.189  26.422  1.00  0.00     0.118 C 
ENDROOT
BRANCH   1   2
ATOM      2  C   UNL A   1      37.438  23.476  25.400  1.00  0.00     0.042 C 
BRANCH   2   3
ATOM      3  C   UNL A   1      37.127  22.000  25.692  1.00  0.00     0.118 C 
BRANCH   3   4
ATOM      4  N   UNL A   1      35.927  21.790  26.489  1.00  0.00    -0.351 N 
ATOM      5  C   UNL A   1      34.643  21.429  26.192  1.00  0.00     0.278 C 
ATOM      6  O   UNL A   1      33.907  21.285  27.176  1.00  0.00    -0.268 OA
ATOM      7  H   UNL A   1      36.071  21.942  27.450  1.00  0.00     0.163 HD
BRANCH   5   8
ATOM      8  C   UNL A   1      34.138  21.198  24.742  1.00  0.00     0.277 C 
BRANCH   8   9
ATOM      9  N   UNL A   1      33.125  22.160  24.225  1.00  0.00    -0.324 N 
ATOM     10  C   UNL A   1      33.508  25.426  23.216  1.00  0.00     0.020 C 
ATOM     11  C   UNL A   1      33.923  24.068  23.738  1.00  0.00     0.096 C 
ATOM     12  C   UNL A   1      33.096  23.479  24.894  1.00  0.00     0.271 C 
ATOM     13  C   UNL A   1      33.472  22.809  22.954  1.00  0.00     0.271 C 
ATOM     14  H   UNL A   1      32.316  21.541  24.286  1.00  0.00     0.348 HD
ENDBRANCH   8   9
BRANCH   8  15
ATOM     15  C   UNL A   1      33.572  19.732  24.568  1.00  0.00     0.057 C 
ATOM     16  C   UNL A   1      32.677  19.536  23.317  1.00  0.00     0.010 C 
ATOM     17  C   UNL A   1      34.729  18.702  24.556  1.00  0.00     0.010 C 
ATOM     18  C   UNL A   1      32.223  18.094  23.117  1.00  0.00     0.001 C 
ATOM     19  C   UNL A   1      34.263  17.267  24.297  1.00  0.00     0.001 C 
ATOM     20  C   UNL A   1      33.423  17.163  23.031  1.00  0.00     0.000 C 
ENDBRANCH   8  15
ENDBRANCH   5   8
ENDBRANCH   3   4
ENDBRANCH   2   3
ENDBRANCH   1   2
BRANCH   1  21
ATOM     21  N   UNL A   1      39.737  23.945  26.196  1.00  0.00    -0.352 N 
ATOM     22  C   UNL A   1      40.833  24.667  26.609  1.00  0.00     0.251 C 
ATOM     23  H   UNL A   1      39.943  23.141  25.664  1.00  0.00     0.163 HD
ATOM     24  O   UNL A   1      41.933  24.412  26.122  1.00  0.00    -0.269 OA
BRANCH  22  25
ATOM     25  C   UNL A   1      40.711  25.754  27.612  1.00  0.00     0.039 A 
ATOM     26  C   UNL A   1      39.694  25.673  28.571  1.00  0.00     0.014 A 
ATOM     27  C   UNL A   1      41.543  26.878  27.587  1.00  0.00     0.014 A 
ATOM     28  C   UNL A   1      39.557  26.675  29.539  1.00  0.00     0.010 A 
ATOM     29  C   UNL A   1      41.439  27.851  28.587  1.00  0.00     0.010 A 
ATOM     30  C   UNL A   1      40.451  27.757  29.579  1.00  0.00    -0.014 A 
BRANCH  30  31
ATOM     31  C   UNL A   1      40.389  28.772  30.667  1.00  0.00     0.031 A 
ATOM     32  C   UNL A   1      41.260  28.649  31.889  1.00  0.00     0.074 A 
ATOM     33  C   UNL A   1      39.493  29.776  30.586  1.00  0.00     0.049 A 
ATOM     34  N   UNL A   1      41.276  29.388  32.970  1.00  0.00    -0.248 NA
ATOM     35  C   UNL A   1      42.228  27.542  31.907  1.00  0.00     0.031 C 
ATOM     36  C   UNL A   1      38.567  29.994  29.473  1.00  0.00     0.029 A 
ATOM     37  N   UNL A   1      39.200  30.793  31.463  1.00  0.00    -0.354 N 
ATOM     38  C   UNL A   1      42.241  28.832  33.800  1.00  0.00     0.074 A 
ATOM     39  C   UNL A   1      42.767  27.671  33.112  1.00  0.00     0.031 C 
ATOM     40  C   UNL A   1      37.815  31.076  29.730  1.00  0.00     0.029 A 
ATOM     41  C   UNL A   1      38.175  31.608  31.041  1.00  0.00     0.049 A 
ATOM     42  H   UNL A   1      39.678  30.927  32.313  1.00  0.00     0.167 HD
ATOM     43  C   UNL A   1      42.663  29.257  35.017  1.00  0.00     0.037 A 
ATOM     44  C   UNL A   1      37.575  32.652  31.647  1.00  0.00     0.037 A 
ATOM     45  C   UNL A   1      42.155  30.425  35.691  1.00  0.00     0.049 A 
ATOM     46  C   UNL A   1      38.041  33.088  33.008  1.00  0.00     0.074 A 
ATOM     47  C   UNL A   1      42.573  30.973  36.893  1.00  0.00     0.029 A 
ATOM     48  N   UNL A   1      41.116  31.220  35.233  1.00  0.00    -0.354 N 
ATOM     49  N   UNL A   1      38.998  32.586  33.749  1.00  0.00    -0.248 NA
ATOM     50  C   UNL A   1      37.342  34.229  33.618  1.00  0.00     0.031 C 
ATOM     51  C   UNL A   1      41.757  32.072  37.183  1.00  0.00     0.029 A 
ATOM     52  C   UNL A   1      40.858  32.234  36.142  1.00  0.00     0.049 A 
ATOM     53  H   UNL A   1      40.633  31.084  34.386  1.00  0.00     0.167 HD
ATOM     54  C   UNL A   1      39.027  33.357  34.906  1.00  0.00     0.074 A 
ATOM     55  C   UNL A   1      38.001  34.369  34.761  1.00  0.00     0.031 C 
ATOM     56  C   UNL A   1      39.829  33.234  35.992  1.00  0.00     0.037 A 
BRANCH  43  57
ATOM     57  C   UNL A   1      43.731  28.454  35.706  1.00  0.00     0.058 A 
ATOM     58  C   UNL A   1      45.096  28.706  35.492  1.00  0.00     0.135 A 
ATOM     59  C   UNL A   1      43.389  27.453  36.632  1.00  0.00     0.135 A 
ATOM     60  F   UNL A   1      45.479  29.644  34.612  1.00  0.00    -0.206 F 
ATOM     61  C   UNL A   1      46.083  27.977  36.148  1.00  0.00     0.059 A 
ATOM     62  C   UNL A   1      44.359  26.728  37.317  1.00  0.00     0.059 A 
ATOM     63  F   UNL A   1      42.099  27.173  36.877  1.00  0.00    -0.206 F 
ATOM     64  C   UNL A   1      45.704  26.988  37.057  1.00  0.00     0.060 A 
BRANCH  64  65
ATOM     65  S   UNL A   1      46.996  26.052  37.902  1.00  0.00     0.124 S 
ATOM     66  O   UNL A   1      47.151  24.904  37.012  1.00  0.00    -0.237 OA
ATOM     67  O   UNL A   1      48.109  26.996  37.916  1.00  0.00    -0.237 OA
ATOM     68  O   UNL A   1      46.410  25.760  39.206  1.00  0.00    -0.744 OA
ENDBRANCH  64  65
ENDBRANCH  43  57
BRANCH  44  69
ATOM     69  C   UNL A   1      36.457  33.357  30.964  1.00  0.00     0.058 A 
ATOM     70  C   UNL A   1      35.141  33.250  31.438  1.00  0.00     0.135 A 
ATOM     71  C   UNL A   1      36.685  34.167  29.841  1.00  0.00     0.135 A 
ATOM     72  F   UNL A   1      34.873  32.479  32.503  1.00  0.00    -0.206 F 
ATOM     73  C   UNL A   1      34.089  33.913  30.817  1.00  0.00     0.059 A 
ATOM     74  C   UNL A   1      35.652  34.859  29.217  1.00  0.00     0.059 A 
ATOM     75  F   UNL A   1      37.930  34.313  29.359  1.00  0.00    -0.206 F 
ATOM     76  C   UNL A   1      34.355  34.720  29.709  1.00  0.00     0.060 A 
BRANCH  76  77
ATOM     77  S   UNL A   1      32.992  35.629  28.949  1.00  0.00     0.124 S 
ATOM     78  O   UNL A   1      32.362  34.590  28.141  1.00  0.00    -0.237 OA
ATOM     79  O   UNL A   1      32.236  36.079  30.113  1.00  0.00    -0.237 OA
ATOM     80  O   UNL A   1      33.669  36.686  28.206  1.00  0.00    -0.744 OA
ENDBRANCH  76  77
ENDBRANCH  44  69
BRANCH  56  81
ATOM     81  C   UNL A   1      39.640  34.220  37.110  1.00  0.00     0.058 A 
ATOM     82  C   UNL A   1      38.924  33.882  38.269  1.00  0.00     0.135 A 
ATOM     83  C   UNL A   1      40.229  35.493  37.050  1.00  0.00     0.135 A 
ATOM     84  F   UNL A   1      38.333  32.681  38.372  1.00  0.00    -0.206 F 
ATOM     85  C   UNL A   1      38.788  34.777  39.326  1.00  0.00     0.059 A 
ATOM     86  C   UNL A   1      40.126  36.395  38.104  1.00  0.00     0.059 A 
ATOM     87  F   UNL A   1      40.930  35.863  35.967  1.00  0.00    -0.206 F 
ATOM     88  C   UNL A   1      39.397  36.031  39.236  1.00  0.00     0.060 A 
BRANCH  88  89
ATOM     89  S   UNL A   1      39.254  37.165  40.634  1.00  0.00     0.124 S 
ATOM     90  O   UNL A   1      38.366  38.189  40.093  1.00  0.00    -0.237 OA
ATOM     91  O   UNL A   1      38.681  36.313  41.672  1.00  0.00    -0.237 OA
ATOM     92  O   UNL A   1      40.631  37.587  40.869  1.00  0.00    -0.744 OA
ENDBRANCH  88  89
ENDBRANCH  56  81
ENDBRANCH  30  31
ENDBRANCH  22  25
ENDBRANCH   1  21
TORSDOF 15
ENDMDL
MODEL 2
REMARK VINA RESULT:     -11.9      5.193     10.685
REMARK SMILES CC1C[NH+]([C@@H](C(=O)NCCCNC(=O)c2ccc(-c3c4nc(c(-c5c(F)cc(S(=O)(=O)[O-])cc5F)c5ccc([nH]5)c(-c5c(F)cc(S(=O)(=O)[O-])cc5F)c5nc(c(-c6c(F)cc(S(=O)(=O)[O-])cc6F)c6ccc3[nH]6)C=C5)C=C4)cc2)C2CCCCC2)C1
REMARK SMILES IDX 11 1 10 2 9 3 8 4 6 5 7 6 5 8 4 9 1 10 2 11 3 12 87 13 81 15
REMARK SMILES IDX 82 16 86 17 83 18 85 19 84 20 12 21 13 22 14 24 15 25 16 26
REMARK SMILES IDX 80 27 17 28 79 29 18 30 19 31 20 32 73 33 21 34 78 35 72 36
REMARK SMILES IDX 74 37 22 38 77 39 71 40 70 41 23 43 57 44 36 45 56 46 37 47
REMARK SMILES IDX 40 48 55 49 75 50 38 51 39 52 54 54 76 55 41 56 24 57 25 58
REMARK SMILES IDX 34 59 26 60 27 61 33 62 35 63 28 64 29 65 30 66 31 67 32 68
REMARK SMILES IDX 58 69 59 70 68 71 60 72 61 73 67 74 69 75 62 76 63 77 64 78
REMARK SMILES IDX 65 79 66 80 42 81 43 82 52 83 44 84 45 85 51 86 53 87 46 88
REMARK SMILES IDX 47 89 48 90 49 91 50 92
REMARK H PARENT 8 7 4 14 12 23 74 42 40 53
REMARK Flexibility Score: inf
ROOT
ATOM      1  C   UNL A   1      33.465  28.263  27.236  1.00  0.00     0.118 C 
ENDROOT
BRANCH   1   2
ATOM      2  C   UNL A   1      33.933  27.913  25.824  1.00  0.00     0.042 C 
BRANCH   2   3
ATOM      3  C   UNL A   1      32.853  27.379  24.870  1.00  0.00     0.118 C 
BRANCH   3   4
ATOM      4  N   UNL A   1      33.377  26.625  23.740  1.00  0.00    -0.351 N 
ATOM      5  C   UNL A   1      33.480  25.293  23.455  1.00  0.00     0.278 C 
ATOM      6  O   UNL A   1      33.932  25.039  22.333  1.00  0.00    -0.268 OA
ATOM      7  H   UNL A   1      33.734  27.200  23.026  1.00  0.00     0.163 HD
BRANCH   5   8
ATOM      8  C   UNL A   1      33.052  24.176  24.445  1.00  0.00     0.277 C 
BRANCH   8   9
ATOM      9  N   UNL A   1      32.163  24.582  25.569  1.00  0.00    -0.324 N 
ATOM     10  C   UNL A   1      29.658  22.822  27.137  1.00  0.00     0.020 C 
ATOM     11  C   UNL A   1      30.780  23.080  26.155  1.00  0.00     0.096 C 
ATOM     12  C   UNL A   1      30.715  24.384  25.343  1.00  0.00     0.271 C 
ATOM     13  C   UNL A   1      32.117  23.645  26.699  1.00  0.00     0.271 C 
ATOM     14  H   UNL A   1      32.534  25.524  25.694  1.00  0.00     0.348 HD
ENDBRANCH   8   9
BRANCH   8  15
ATOM     15  C   UNL A   1      34.316  23.439  25.046  1.00  0.00     0.057 C 
ATOM     16  C   UNL A   1      34.836  22.258  24.186  1.00  0.00     0.010 C 
ATOM     17  C   UNL A   1      35.461  24.448  25.305  1.00  0.00     0.010 C 
ATOM     18  C   UNL A   1      36.111  21.625  24.734  1.00  0.00     0.001 C 
ATOM     19  C   UNL A   1      36.751  23.791  25.801  1.00  0.00     0.001 C 
ATOM     20  C   UNL A   1      37.207  22.669  24.877  1.00  0.00     0.000 C 
ENDBRANCH   8  15
ENDBRANCH   5   8
ENDBRANCH   3   4
ENDBRANCH   2   3
ENDBRANCH   1   2
BRANCH   1  21
ATOM     21  N   UNL A   1      33.408  29.697  27.461  1.00  0.00    -0.352 N 
ATOM     22  C   UNL A   1      34.336  30.537  28.032  1.00  0.00     0.251 C 
ATOM     23  H   UNL A   1      32.578  30.134  27.161  1.00  0.00     0.163 HD
ATOM     24  O   UNL A   1      34.000  31.682  28.331  1.00  0.00    -0.269 OA
BRANCH  22  25
ATOM     25  C   UNL A   1      35.722  30.085  28.312  1.00  0.00     0.039 A 
ATOM     26  C   UNL A   1      36.656  30.097  27.270  1.00  0.00     0.014 A 
ATOM     27  C   UNL A   1      36.099  29.595  29.567  1.00  0.00     0.014 A 
ATOM     28  C   UNL A   1      37.975  29.689  27.501  1.00  0.00     0.010 A 
ATOM     29  C   UNL A   1      37.429  29.239  29.810  1.00  0.00     0.010 A 
ATOM     30  C   UNL A   1      38.384  29.289  28.783  1.00  0.00    -0.014 A 
BRANCH  30  31
ATOM     31  C   UNL A   1      39.807  28.958  29.073  1.00  0.00     0.031 A 
ATOM     32  C   UNL A   1      40.746  29.997  29.625  1.00  0.00     0.074 A 
ATOM     33  C   UNL A   1      40.277  27.730  28.772  1.00  0.00     0.049 A 
ATOM     34  N   UNL A   1      42.032  29.910  29.854  1.00  0.00    -0.248 NA
ATOM     35  C   UNL A   1      40.167  31.311  29.948  1.00  0.00     0.031 C 
ATOM     36  C   UNL A   1      39.484  26.639  28.202  1.00  0.00     0.029 A 
ATOM     37  N   UNL A   1      41.538  27.195  28.887  1.00  0.00    -0.354 N 
ATOM     38  C   UNL A   1      42.421  31.156  30.334  1.00  0.00     0.074 A 
ATOM     39  C   UNL A   1      41.239  31.993  30.331  1.00  0.00     0.031 C 
ATOM     40  C   UNL A   1      40.272  25.567  28.023  1.00  0.00     0.029 A 
ATOM     41  C   UNL A   1      41.634  25.903  28.426  1.00  0.00     0.049 A 
ATOM     42  H   UNL A   1      42.301  27.691  29.263  1.00  0.00     0.167 HD
ATOM     43  C   UNL A   1      43.645  31.561  30.753  1.00  0.00     0.037 A 
ATOM     44  C   UNL A   1      42.699  25.084  28.318  1.00  0.00     0.037 A 
ATOM     45  C   UNL A   1      44.816  30.722  30.776  1.00  0.00     0.049 A 
ATOM     46  C   UNL A   1      44.052  25.565  28.763  1.00  0.00     0.074 A 
ATOM     47  C   UNL A   1      46.081  31.024  31.250  1.00  0.00     0.029 A 
ATOM     48  N   UNL A   1      44.872  29.421  30.298  1.00  0.00    -0.354 N 
ATOM     49  N   UNL A   1      44.386  26.726  29.272  1.00  0.00    -0.248 NA
ATOM     50  C   UNL A   1      45.176  24.628  28.614  1.00  0.00     0.031 C 
ATOM     51  C   UNL A   1      46.913  29.924  31.018  1.00  0.00     0.029 A 
ATOM     52  C   UNL A   1      46.157  28.920  30.437  1.00  0.00     0.049 A 
ATOM     53  H   UNL A   1      44.112  28.927  29.916  1.00  0.00     0.167 HD
ATOM     54  C   UNL A   1      45.753  26.655  29.517  1.00  0.00     0.074 A 
ATOM     55  C   UNL A   1      46.182  25.331  29.115  1.00  0.00     0.031 C 
ATOM     56  C   UNL A   1      46.577  27.602  30.027  1.00  0.00     0.037 A 
BRANCH  43  57
ATOM     57  C   UNL A   1      43.787  32.983  31.224  1.00  0.00     0.058 A 
ATOM     58  C   UNL A   1      44.077  34.028  30.332  1.00  0.00     0.135 A 
ATOM     59  C   UNL A   1      43.582  33.313  32.574  1.00  0.00     0.135 A 
ATOM     60  F   UNL A   1      44.291  33.767  29.033  1.00  0.00    -0.206 F 
ATOM     61  C   UNL A   1      44.185  35.345  30.766  1.00  0.00     0.059 A 
ATOM     62  C   UNL A   1      43.662  34.626  33.026  1.00  0.00     0.059 A 
ATOM     63  F   UNL A   1      43.299  32.352  33.469  1.00  0.00    -0.206 F 
ATOM     64  C   UNL A   1      43.978  35.634  32.116  1.00  0.00     0.060 A 
BRANCH  64  65
ATOM     65  S   UNL A   1      44.122  37.349  32.663  1.00  0.00     0.124 S 
ATOM     66  O   UNL A   1      43.035  37.435  33.635  1.00  0.00    -0.237 OA
ATOM     67  O   UNL A   1      45.471  37.390  33.217  1.00  0.00    -0.237 OA
ATOM     68  O   UNL A   1      43.928  38.116  31.436  1.00  0.00    -0.744 OA
ENDBRANCH  64  65
ENDBRANCH  43  57
BRANCH  44  69
ATOM     69  C   UNL A   1      42.525  23.717  27.757  1.00  0.00     0.058 A 
ATOM     70  C   UNL A   1      42.514  23.504  26.371  1.00  0.00     0.135 A 
ATOM     71  C   UNL A   1      42.388  22.599  28.594  1.00  0.00     0.135 A 
ATOM     72  F   UNL A   1      42.632  24.544  25.531  1.00  0.00    -0.206 F 
ATOM     73  C   UNL A   1      42.365  22.230  25.833  1.00  0.00     0.059 A 
ATOM     74  C   UNL A   1      42.261  21.313  28.080  1.00  0.00     0.059 A 
ATOM     75  F   UNL A   1      42.408  22.751  29.928  1.00  0.00    -0.206 F 
ATOM     76  C   UNL A   1      42.243  21.140  26.697  1.00  0.00     0.060 A 
BRANCH  76  77
ATOM     77  S   UNL A   1      42.114  19.483  25.989  1.00  0.00     0.124 S 
ATOM     78  O   UNL A   1      42.655  18.662  27.067  1.00  0.00    -0.237 OA
ATOM     79  O   UNL A   1      40.679  19.361  25.752  1.00  0.00    -0.237 OA
ATOM     80  O   UNL A   1      42.935  19.570  24.786  1.00  0.00    -0.744 OA
ENDBRANCH  76  77
ENDBRANCH  44  69
BRANCH  56  81
ATOM     81  C   UNL A   1      48.029  27.247  30.188  1.00  0.00     0.058 A 
ATOM     82  C   UNL A   1      48.965  27.524  29.181  1.00  0.00     0.135 A 
ATOM     83  C   UNL A   1      48.498  26.678  31.383  1.00  0.00     0.135 A 
ATOM     84  F   UNL A   1      48.566  28.059  28.015  1.00  0.00    -0.206 F 
ATOM     85  C   UNL A   1      50.317  27.239  29.347  1.00  0.00     0.059 A 
ATOM     86  C   UNL A   1      49.849  26.406  31.580  1.00  0.00     0.059 A 
ATOM     87  F   UNL A   1      47.645  26.399  32.380  1.00  0.00    -0.206 F 
ATOM     88  C   UNL A   1      50.750  26.683  30.552  1.00  0.00     0.060 A 
BRANCH  88  89
ATOM     89  S   UNL A   1      52.514  26.362  30.774  1.00  0.00     0.124 S 
ATOM     90  O   UNL A   1      52.962  26.218  29.393  1.00  0.00    -0.237 OA
ATOM     91  O   UNL A   1      52.967  27.566  31.465  1.00  0.00    -0.237 OA
ATOM     92  O   UNL A   1      52.538  25.141  31.574  1.00  0.00    -0.744 OA
ENDBRANCH  88  89
ENDBRANCH  56  81
ENDBRANCH  30  31
ENDBRANCH  22  25
ENDBRANCH   1  21
TORSDOF 15
ENDMDL
MODEL 3
REMARK VINA RESULT:     -11.9      5.532     11.121
REMARK SMILES CC1C[NH+]([C@@H](C(=O)NCCCNC(=O)c2ccc(-c3c4nc(c(-c5c(F)cc(S(=O)(=O)[O-])cc5F)c5ccc([nH]5)c(-c5c(F)cc(S(=O)(=O)[O-])cc5F)c5nc(c(-c6c(F)cc(S(=O)(=O)[O-])cc6F)c6ccc3[nH]6)C=C5)C=C4)cc2)C2CCCCC2)C1
REMARK SMILES IDX 11 1 10 2 9 3 8 4 6 5 7 6 5 8 4 9 1 10 2 11 3 12 87 13 81 15
REMARK SMILES IDX 82 16 86 17 83 18 85 19 84 20 12 21 13 22 14 24 15 25 16 26
REMARK SMILES IDX 80 27 17 28 79 29 18 30 19 31 20 32 73 33 21 34 78 35 72 36
REMARK SMILES IDX 74 37 22 38 77 39 71 40 70 41 23 43 57 44 36 45 56 46 37 47
REMARK SMILES IDX 40 48 55 49 75 50 38 51 39 52 54 54 76 55 41 56 24 57 25 58
REMARK SMILES IDX 34 59 26 60 27 61 33 62 35 63 28 64 29 65 30 66 31 67 32 68
REMARK SMILES IDX 58 69 59 70 68 71 60 72 61 73 67 74 69 75 62 76 63 77 64 78
REMARK SMILES IDX 65 79 66 80 42 81 43 82 52 83 44 84 45 85 51 86 53 87 46 88
REMARK SMILES IDX 47 89 48 90 49 91 50 92
REMARK H PARENT 8 7 4 14 12 23 74 42 40 53
REMARK Flexibility Score: inf
ROOT
ATOM      1  C   UNL A   1      33.623  28.339  27.002  1.00  0.00     0.118 C 
ENDROOT
BRANCH   1   2
ATOM      2  C   UNL A   1      33.742  28.157  25.489  1.00  0.00     0.042 C 
BRANCH   2   3
ATOM      3  C   UNL A   1      33.694  26.708  24.980  1.00  0.00     0.118 C 
BRANCH   3   4
ATOM      4  N   UNL A   1      33.147  26.567  23.638  1.00  0.00    -0.351 N 
ATOM      5  C   UNL A   1      31.895  26.694  23.107  1.00  0.00     0.278 C 
ATOM      6  O   UNL A   1      31.840  26.560  21.878  1.00  0.00    -0.268 OA
ATOM      7  H   UNL A   1      33.827  26.328  22.968  1.00  0.00     0.163 HD
BRANCH   5   8
ATOM      8  C   UNL A   1      30.635  26.998  23.962  1.00  0.00     0.277 C 
BRANCH   8   9
ATOM      9  N   UNL A   1      29.817  25.828  24.387  1.00  0.00    -0.324 N 
ATOM     10  C   UNL A   1      30.654  23.181  26.417  1.00  0.00     0.020 C 
ATOM     11  C   UNL A   1      30.845  24.482  25.669  1.00  0.00     0.096 C 
ATOM     12  C   UNL A   1      30.441  24.503  24.185  1.00  0.00     0.271 C 
ATOM     13  C   UNL A   1      29.774  25.590  25.835  1.00  0.00     0.271 C 
ATOM     14  H   UNL A   1      28.967  26.073  23.878  1.00  0.00     0.348 HD
ENDBRANCH   8   9
BRANCH   8  15
ATOM     15  C   UNL A   1      29.689  28.031  23.227  1.00  0.00     0.057 C 
ATOM     16  C   UNL A   1      28.178  27.830  23.511  1.00  0.00     0.010 C 
ATOM     17  C   UNL A   1      30.102  29.484  23.569  1.00  0.00     0.010 C 
ATOM     18  C   UNL A   1      27.294  28.896  22.871  1.00  0.00     0.001 C 
ATOM     19  C   UNL A   1      29.173  30.539  22.966  1.00  0.00     0.001 C 
ATOM     20  C   UNL A   1      27.715  30.284  23.327  1.00  0.00     0.000 C 
ENDBRANCH   8  15
ENDBRANCH   5   8
ENDBRANCH   3   4
ENDBRANCH   2   3
ENDBRANCH   1   2
BRANCH   1  21
ATOM     21  N   UNL A   1      33.515  29.736  27.385  1.00  0.00    -0.352 N 
ATOM     22  C   UNL A   1      34.400  30.531  28.077  1.00  0.00     0.251 C 
ATOM     23  H   UNL A   1      32.681  30.182  27.109  1.00  0.00     0.163 HD
ATOM     24  O   UNL A   1      34.021  31.624  28.492  1.00  0.00    -0.269 OA
BRANCH  22  25
ATOM     25  C   UNL A   1      35.791  30.087  28.348  1.00  0.00     0.039 A 
ATOM     26  C   UNL A   1      36.716  30.097  27.298  1.00  0.00     0.014 A 
ATOM     27  C   UNL A   1      36.180  29.608  29.604  1.00  0.00     0.014 A 
ATOM     28  C   UNL A   1      38.039  29.696  27.522  1.00  0.00     0.010 A 
ATOM     29  C   UNL A   1      37.514  29.260  29.839  1.00  0.00     0.010 A 
ATOM     30  C   UNL A   1      38.461  29.308  28.803  1.00  0.00    -0.014 A 
BRANCH  30  31
ATOM     31  C   UNL A   1      39.887  28.985  29.083  1.00  0.00     0.031 A 
ATOM     32  C   UNL A   1      40.823  30.030  29.630  1.00  0.00     0.074 A 
ATOM     33  C   UNL A   1      40.363  27.760  28.779  1.00  0.00     0.049 A 
ATOM     34  N   UNL A   1      42.112  29.952  29.850  1.00  0.00    -0.248 NA
ATOM     35  C   UNL A   1      40.238  31.340  29.958  1.00  0.00     0.031 C 
ATOM     36  C   UNL A   1      39.573  26.665  28.214  1.00  0.00     0.029 A 
ATOM     37  N   UNL A   1      41.628  27.234  28.885  1.00  0.00    -0.354 N 
ATOM     38  C   UNL A   1      42.495  31.200  30.329  1.00  0.00     0.074 A 
ATOM     39  C   UNL A   1      41.308  32.029  30.334  1.00  0.00     0.031 C 
ATOM     40  C   UNL A   1      40.367  25.598  28.029  1.00  0.00     0.029 A 
ATOM     41  C   UNL A   1      41.730  25.942  28.423  1.00  0.00     0.049 A 
ATOM     42  H   UNL A   1      42.390  27.734  29.256  1.00  0.00     0.167 HD
ATOM     43  C   UNL A   1      43.719  31.613  30.740  1.00  0.00     0.037 A 
ATOM     44  C   UNL A   1      42.799  25.131  28.308  1.00  0.00     0.037 A 
ATOM     45  C   UNL A   1      44.896  30.780  30.754  1.00  0.00     0.049 A 
ATOM     46  C   UNL A   1      44.152  25.620  28.744  1.00  0.00     0.074 A 
ATOM     47  C   UNL A   1      46.162  31.091  31.220  1.00  0.00     0.029 A 
ATOM     48  N   UNL A   1      44.957  29.480  30.275  1.00  0.00    -0.354 N 
ATOM     49  N   UNL A   1      44.482  26.783  29.252  1.00  0.00    -0.248 NA
ATOM     50  C   UNL A   1      45.281  24.690  28.587  1.00  0.00     0.031 C 
ATOM     51  C   UNL A   1      47.000  29.996  30.983  1.00  0.00     0.029 A 
ATOM     52  C   UNL A   1      46.246  28.987  30.406  1.00  0.00     0.049 A 
ATOM     53  H   UNL A   1      44.198  28.982  29.899  1.00  0.00     0.167 HD
ATOM     54  C   UNL A   1      45.850  26.720  29.488  1.00  0.00     0.074 A 
ATOM     55  C   UNL A   1      46.286  25.400  29.082  1.00  0.00     0.031 C 
ATOM     56  C   UNL A   1      46.672  27.673  29.992  1.00  0.00     0.037 A 
BRANCH  43  57
ATOM     57  C   UNL A   1      43.856  33.034  31.210  1.00  0.00     0.058 A 
ATOM     58  C   UNL A   1      43.755  33.373  32.569  1.00  0.00     0.135 A 
ATOM     59  C   UNL A   1      44.142  34.065  30.299  1.00  0.00     0.135 A 
ATOM     60  F   UNL A   1      43.475  32.429  33.481  1.00  0.00    -0.206 F 
ATOM     61  C   UNL A   1      43.904  34.686  33.005  1.00  0.00     0.059 A 
ATOM     62  C   UNL A   1      44.319  35.381  30.715  1.00  0.00     0.059 A 
ATOM     63  F   UNL A   1      44.252  33.796  28.988  1.00  0.00    -0.206 F 
ATOM     64  C   UNL A   1      44.184  35.684  32.070  1.00  0.00     0.060 A 
BRANCH  64  65
ATOM     65  S   UNL A   1      44.376  37.382  32.652  1.00  0.00     0.124 S 
ATOM     66  O   UNL A   1      45.699  37.329  33.268  1.00  0.00    -0.237 OA
ATOM     67  O   UNL A   1      44.284  38.150  31.414  1.00  0.00    -0.237 OA
ATOM     68  O   UNL A   1      43.260  37.554  33.576  1.00  0.00    -0.744 OA
ENDBRANCH  64  65
ENDBRANCH  43  57
BRANCH  44  69
ATOM     69  C   UNL A   1      42.630  23.763  27.747  1.00  0.00     0.058 A 
ATOM     70  C   UNL A   1      42.626  23.549  26.361  1.00  0.00     0.135 A 
ATOM     71  C   UNL A   1      42.491  22.645  28.584  1.00  0.00     0.135 A 
ATOM     72  F   UNL A   1      42.747  24.588  25.521  1.00  0.00    -0.206 F 
ATOM     73  C   UNL A   1      42.482  22.274  25.824  1.00  0.00     0.059 A 
ATOM     74  C   UNL A   1      42.368  21.359  28.070  1.00  0.00     0.059 A 
ATOM     75  F   UNL A   1      42.503  22.799  29.918  1.00  0.00    -0.206 F 
ATOM     76  C   UNL A   1      42.358  21.184  26.688  1.00  0.00     0.060 A 
BRANCH  76  77
ATOM     77  S   UNL A   1      42.235  19.526  25.981  1.00  0.00     0.124 S 
ATOM     78  O   UNL A   1      42.710  18.701  27.087  1.00  0.00    -0.237 OA
ATOM     79  O   UNL A   1      40.811  19.427  25.675  1.00  0.00    -0.237 OA
ATOM     80  O   UNL A   1      43.114  19.594  24.818  1.00  0.00    -0.744 OA
ENDBRANCH  76  77
ENDBRANCH  44  69
BRANCH  56  81
ATOM     81  C   UNL A   1      48.127  27.327  30.144  1.00  0.00     0.058 A 
ATOM     82  C   UNL A   1      49.076  27.727  29.192  1.00  0.00     0.135 A 
ATOM     83  C   UNL A   1      48.585  26.639  31.279  1.00  0.00     0.135 A 
ATOM     84  F   UNL A   1      48.689  28.378  28.083  1.00  0.00    -0.206 F 
ATOM     85  C   UNL A   1      50.430  27.449  29.354  1.00  0.00     0.059 A 
ATOM     86  C   UNL A   1      49.936  26.370  31.474  1.00  0.00     0.059 A 
ATOM     87  F   UNL A   1      47.718  26.240  32.224  1.00  0.00    -0.206 F 
ATOM     88  C   UNL A   1      50.851  26.772  30.501  1.00  0.00     0.060 A 
BRANCH  88  89
ATOM     89  S   UNL A   1      52.616  26.460  30.722  1.00  0.00     0.124 S 
ATOM     90  O   UNL A   1      53.075  27.736  31.263  1.00  0.00    -0.237 OA
ATOM     91  O   UNL A   1      52.621  25.337  31.655  1.00  0.00    -0.237 OA
ATOM     92  O   UNL A   1      53.077  26.147  29.373  1.00  0.00    -0.744 OA
ENDBRANCH  88  89
ENDBRANCH  56  81
ENDBRANCH  30  31
ENDBRANCH  22  25
ENDBRANCH   1  21
TORSDOF 15
ENDMDL
