MODEL 1
REMARK VINA RESULT:     -13.5      0.000      0.000
REMARK SMILES CSc1ccc(/C=C2\C(C)=C(CC(=O)NCCCNC(=O)c3ccc(-c4c5nc(c(-c6c(F)cc(S(=O)(=O)[O-])cc6F)c6ccc([nH]6)c(-c6c(F)cc(S(=O)(=O)[O-])cc6F)c6nc(c(-c7c(F)cc(S(=O)(=O)[O-])cc7F)c7ccc4[nH]7)C=C6)C=C5)cc3)c3cc(F)ccc32)cc1
REMARK SMILES IDX 17 1 16 2 15 3 13 4 14 5 12 7 11 8 7 9 8 10 9 11 94 12 10 13
REMARK SMILES IDX 88 14 93 15 89 16 92 17 90 18 91 19 6 20 3 21 4 22 96 23
REMARK SMILES IDX 5 24 95 25 2 26 1 27 18 28 19 29 20 30 21 32 22 33 23 34
REMARK SMILES IDX 87 35 24 36 86 37 25 38 26 39 27 40 80 41 28 42 85 43 79 44
REMARK SMILES IDX 81 45 29 46 84 47 78 48 77 49 30 51 64 52 43 53 63 54 44 55
REMARK SMILES IDX 47 56 62 57 82 58 45 59 46 60 61 62 83 63 48 64 31 65 32 66
REMARK SMILES IDX 41 67 33 68 34 69 40 70 42 71 35 72 36 73 37 74 38 75 39 76
REMARK SMILES IDX 65 77 66 78 75 79 67 80 68 81 74 82 76 83 69 84 70 85 71 86
REMARK SMILES IDX 72 87 73 88 49 89 50 90 59 91 51 92 52 93 58 94 60 95 53 96
REMARK SMILES IDX 54 97 55 98 56 99 57 100
REMARK H PARENT 15 6 19 31 81 50 47 61
REMARK Flexibility Score: inf
ROOT
ATOM      1  C   UNL A   1      40.991  21.734  26.681  1.00  0.00     0.042 C 
ENDROOT
BRANCH   1   2
ATOM      2  C   UNL A   1      39.568  21.462  26.211  1.00  0.00     0.117 C 
BRANCH   2   3
ATOM      3  N   UNL A   1      38.744  22.659  26.223  1.00  0.00    -0.356 N 
ATOM      4  C   UNL A   1      37.562  22.896  25.583  1.00  0.00     0.224 C 
ATOM      5  O   UNL A   1      37.077  24.028  25.640  1.00  0.00    -0.275 OA
ATOM      6  H   UNL A   1      39.086  23.403  26.769  1.00  0.00     0.163 HD
BRANCH   4   7
ATOM      7  C   UNL A   1      36.869  21.773  24.837  1.00  0.00     0.136 C 
BRANCH   7   8
ATOM      8  C   UNL A   1      35.679  21.249  25.617  1.00  0.00    -0.027 C 
ATOM      9  C   UNL A   1      33.166  23.574  24.948  1.00  0.00     0.017 C 
ATOM     10  C   UNL A   1      33.805  22.421  25.194  1.00  0.00    -0.014 C 
ATOM     11  C   UNL A   1      34.804  22.098  26.234  1.00  0.00    -0.039 C 
ATOM     12  C   UNL A   1      33.639  21.166  24.442  1.00  0.00    -0.010 A 
ATOM     13  C   UNL A   1      34.100  21.557  27.490  1.00  0.00     0.045 C 
ATOM     14  C   UNL A   1      34.771  20.405  24.798  1.00  0.00    -0.011 A 
ATOM     15  C   UNL A   1      32.496  20.572  23.937  1.00  0.00     0.012 A 
ATOM     16  C   UNL A   1      34.782  19.027  24.680  1.00  0.00     0.048 A 
ATOM     17  C   UNL A   1      32.493  19.177  23.832  1.00  0.00     0.040 A 
ATOM     18  C   UNL A   1      33.619  18.425  24.211  1.00  0.00     0.123 A 
ATOM     19  F   UNL A   1      33.533  17.088  24.207  1.00  0.00    -0.207 F 
BRANCH   9  20
ATOM     20  C   UNL A   1      33.041  24.797  25.773  1.00  0.00    -0.025 A 
ATOM     21  C   UNL A   1      32.489  27.504  26.402  1.00  0.00     0.007 A 
ATOM     22  C   UNL A   1      31.550  26.514  26.661  1.00  0.00     0.015 A 
ATOM     23  C   UNL A   1      33.771  27.104  26.001  1.00  0.00     0.015 A 
ATOM     24  C   UNL A   1      31.830  25.178  26.357  1.00  0.00     0.009 A 
ATOM     25  C   UNL A   1      34.048  25.764  25.695  1.00  0.00     0.009 A 
BRANCH  21  26
ATOM     26  S   UNL A   1      32.150  29.258  26.443  1.00  0.00    -0.130 SA
ATOM     27  C   UNL A   1      31.137  29.550  24.956  1.00  0.00     0.091 C 
ENDBRANCH  21  26
ENDBRANCH   9  20
ENDBRANCH   7   8
ENDBRANCH   4   7
ENDBRANCH   2   3
ENDBRANCH   1   2
BRANCH   1  28
ATOM     28  C   UNL A   1      41.236  23.144  27.197  1.00  0.00     0.118 C 
BRANCH  28  29
ATOM     29  N   UNL A   1      41.709  24.024  26.147  1.00  0.00    -0.352 N 
ATOM     30  C   UNL A   1      41.723  25.392  26.078  1.00  0.00     0.251 C 
ATOM     31  H   UNL A   1      42.079  23.567  25.359  1.00  0.00     0.163 HD
ATOM     32  O   UNL A   1      41.882  25.924  24.981  1.00  0.00    -0.269 OA
BRANCH  30  33
ATOM     33  C   UNL A   1      41.556  26.230  27.290  1.00  0.00     0.039 A 
ATOM     34  C   UNL A   1      40.424  26.025  28.084  1.00  0.00     0.014 A 
ATOM     35  C   UNL A   1      42.439  27.269  27.600  1.00  0.00     0.014 A 
ATOM     36  C   UNL A   1      40.189  26.846  29.188  1.00  0.00     0.010 A 
ATOM     37  C   UNL A   1      42.250  28.033  28.752  1.00  0.00     0.010 A 
ATOM     38  C   UNL A   1      41.107  27.850  29.539  1.00  0.00    -0.014 A 
BRANCH  38  39
ATOM     39  C   UNL A   1      40.846  28.732  30.705  1.00  0.00     0.031 A 
ATOM     40  C   UNL A   1      41.686  28.618  31.951  1.00  0.00     0.074 A 
ATOM     41  C   UNL A   1      39.845  29.631  30.643  1.00  0.00     0.049 A 
ATOM     42  N   UNL A   1      41.634  29.328  33.049  1.00  0.00    -0.248 NA
ATOM     43  C   UNL A   1      42.701  27.551  31.977  1.00  0.00     0.031 C 
ATOM     44  C   UNL A   1      38.921  29.790  29.517  1.00  0.00     0.029 A 
ATOM     45  N   UNL A   1      39.440  30.584  31.541  1.00  0.00    -0.354 N 
ATOM     46  C   UNL A   1      42.595  28.790  33.897  1.00  0.00     0.074 A 
ATOM     47  C   UNL A   1      43.178  27.659  33.210  1.00  0.00     0.031 C 
ATOM     48  C   UNL A   1      38.083  30.806  29.776  1.00  0.00     0.029 A 
ATOM     49  C   UNL A   1      38.396  31.357  31.091  1.00  0.00     0.049 A 
ATOM     50  H   UNL A   1      39.858  30.704  32.425  1.00  0.00     0.167 HD
ATOM     51  C   UNL A   1      42.977  29.215  35.125  1.00  0.00     0.037 A 
ATOM     52  C   UNL A   1      37.772  32.401  31.667  1.00  0.00     0.037 A 
ATOM     53  C   UNL A   1      42.415  30.361  35.791  1.00  0.00     0.049 A 
ATOM     54  C   UNL A   1      38.250  32.890  33.005  1.00  0.00     0.074 A 
ATOM     55  C   UNL A   1      42.771  30.913  37.010  1.00  0.00     0.029 A 
ATOM     56  N   UNL A   1      41.381  31.138  35.289  1.00  0.00    -0.354 N 
ATOM     57  N   UNL A   1      39.207  32.409  33.764  1.00  0.00    -0.248 NA
ATOM     58  C   UNL A   1      37.577  34.072  33.558  1.00  0.00     0.031 C 
ATOM     59  C   UNL A   1      41.932  32.006  37.257  1.00  0.00     0.029 A 
ATOM     60  C   UNL A   1      41.079  32.157  36.176  1.00  0.00     0.049 A 
ATOM     61  H   UNL A   1      40.929  30.987  34.428  1.00  0.00     0.167 HD
ATOM     62  C   UNL A   1      39.261  33.241  34.877  1.00  0.00     0.074 A 
ATOM     63  C   UNL A   1      38.256  34.266  34.680  1.00  0.00     0.031 C 
ATOM     64  C   UNL A   1      40.069  33.163  35.963  1.00  0.00     0.037 A 
BRANCH  51  65
ATOM     65  C   UNL A   1      44.063  28.441  35.822  1.00  0.00     0.058 A 
ATOM     66  C   UNL A   1      45.421  28.738  35.621  1.00  0.00     0.135 A 
ATOM     67  C   UNL A   1      43.746  27.407  36.717  1.00  0.00     0.135 A 
ATOM     68  F   UNL A   1      45.782  29.706  34.763  1.00  0.00    -0.206 F 
ATOM     69  C   UNL A   1      46.426  28.017  36.258  1.00  0.00     0.059 A 
ATOM     70  C   UNL A   1      44.735  26.689  37.385  1.00  0.00     0.059 A 
ATOM     71  F   UNL A   1      42.464  27.080  36.947  1.00  0.00    -0.206 F 
ATOM     72  C   UNL A   1      46.073  26.991  37.137  1.00  0.00     0.060 A 
BRANCH  72  73
ATOM     73  S   UNL A   1      47.388  26.066  37.957  1.00  0.00     0.124 S 
ATOM     74  O   UNL A   1      46.905  26.036  39.335  1.00  0.00    -0.237 OA
ATOM     75  O   UNL A   1      47.363  24.789  37.251  1.00  0.00    -0.237 OA
ATOM     76  O   UNL A   1      48.574  26.884  37.725  1.00  0.00    -0.744 OA
ENDBRANCH  72  73
ENDBRANCH  51  65
BRANCH  52  77
ATOM     77  C   UNL A   1      36.663  33.083  30.952  1.00  0.00     0.058 A 
ATOM     78  C   UNL A   1      35.330  32.905  31.352  1.00  0.00     0.135 A 
ATOM     79  C   UNL A   1      36.915  33.950  29.878  1.00  0.00     0.135 A 
ATOM     80  F   UNL A   1      35.041  32.084  32.372  1.00  0.00    -0.206 F 
ATOM     81  C   UNL A   1      34.283  33.553  30.705  1.00  0.00     0.059 A 
ATOM     82  C   UNL A   1      35.887  34.626  29.229  1.00  0.00     0.059 A 
ATOM     83  F   UNL A   1      38.176  34.169  29.472  1.00  0.00    -0.206 F 
ATOM     84  C   UNL A   1      34.573  34.415  29.646  1.00  0.00     0.060 A 
BRANCH  84  85
ATOM     85  S   UNL A   1      33.221  35.314  28.855  1.00  0.00     0.124 S 
ATOM     86  O   UNL A   1      33.949  36.347  28.119  1.00  0.00    -0.237 OA
ATOM     87  O   UNL A   1      32.595  34.275  28.038  1.00  0.00    -0.237 OA
ATOM     88  O   UNL A   1      32.425  35.777  29.979  1.00  0.00    -0.744 OA
ENDBRANCH  84  85
ENDBRANCH  52  77
BRANCH  64  89
ATOM     89  C   UNL A   1      39.900  34.227  37.010  1.00  0.00     0.058 A 
ATOM     90  C   UNL A   1      39.085  34.027  38.135  1.00  0.00     0.135 A 
ATOM     91  C   UNL A   1      40.563  35.458  36.888  1.00  0.00     0.135 A 
ATOM     92  F   UNL A   1      38.426  32.868  38.294  1.00  0.00    -0.206 F 
ATOM     93  C   UNL A   1      38.901  35.026  39.084  1.00  0.00     0.059 A 
ATOM     94  C   UNL A   1      40.413  36.463  37.838  1.00  0.00     0.059 A 
ATOM     95  F   UNL A   1      41.364  35.694  35.837  1.00  0.00    -0.206 F 
ATOM     96  C   UNL A   1      39.563  36.244  38.922  1.00  0.00     0.060 A 
BRANCH  96  97
ATOM     97  S   UNL A   1      39.312  37.541  40.152  1.00  0.00     0.124 S 
ATOM     98  O   UNL A   1      38.892  36.764  41.314  1.00  0.00    -0.237 OA
ATOM     99  O   UNL A   1      40.635  38.152  40.243  1.00  0.00    -0.237 OA
ATOM    100  O   UNL A   1      38.281  38.381  39.552  1.00  0.00    -0.744 OA
ENDBRANCH  96  97
ENDBRANCH  64  89
ENDBRANCH  38  39
ENDBRANCH  30  33
ENDBRANCH  28  29
ENDBRANCH   1  28
TORSDOF 16
ENDMDL
MODEL 2
REMARK VINA RESULT:     -13.2      6.477     12.235
REMARK SMILES CSc1ccc(/C=C2\C(C)=C(CC(=O)NCCCNC(=O)c3ccc(-c4c5nc(c(-c6c(F)cc(S(=O)(=O)[O-])cc6F)c6ccc([nH]6)c(-c6c(F)cc(S(=O)(=O)[O-])cc6F)c6nc(c(-c7c(F)cc(S(=O)(=O)[O-])cc7F)c7ccc4[nH]7)C=C6)C=C5)cc3)c3cc(F)ccc32)cc1
REMARK SMILES IDX 17 1 16 2 15 3 13 4 14 5 12 7 11 8 7 9 8 10 9 11 94 12 10 13
REMARK SMILES IDX 88 14 93 15 89 16 92 17 90 18 91 19 6 20 3 21 4 22 96 23
REMARK SMILES IDX 5 24 95 25 2 26 1 27 18 28 19 29 20 30 21 32 22 33 23 34
REMARK SMILES IDX 87 35 24 36 86 37 25 38 26 39 27 40 80 41 28 42 85 43 79 44
REMARK SMILES IDX 81 45 29 46 84 47 78 48 77 49 30 51 64 52 43 53 63 54 44 55
REMARK SMILES IDX 47 56 62 57 82 58 45 59 46 60 61 62 83 63 48 64 31 65 32 66
REMARK SMILES IDX 41 67 33 68 34 69 40 70 42 71 35 72 36 73 37 74 38 75 39 76
REMARK SMILES IDX 65 77 66 78 75 79 67 80 68 81 74 82 76 83 69 84 70 85 71 86
REMARK SMILES IDX 72 87 73 88 49 89 50 90 59 91 51 92 52 93 58 94 60 95 53 96
REMARK SMILES IDX 54 97 55 98 56 99 57 100
REMARK H PARENT 15 6 19 31 81 50 47 61
REMARK Flexibility Score: inf
ROOT
ATOM      1  C   UNL A   1      34.741  32.963  28.585  1.00  0.00     0.042 C 
ENDROOT
BRANCH   1   2
ATOM      2  C   UNL A   1      33.987  31.900  27.797  1.00  0.00     0.117 C 
BRANCH   2   3
ATOM      3  N   UNL A   1      34.799  30.724  27.537  1.00  0.00    -0.356 N 
ATOM      4  C   UNL A   1      34.415  29.497  27.081  1.00  0.00     0.224 C 
ATOM      5  O   UNL A   1      35.256  28.596  27.032  1.00  0.00    -0.275 OA
ATOM      6  H   UNL A   1      35.762  30.828  27.713  1.00  0.00     0.163 HD
BRANCH   4   7
ATOM      7  C   UNL A   1      32.983  29.271  26.636  1.00  0.00     0.136 C 
BRANCH   7   8
ATOM      8  C   UNL A   1      32.885  29.196  25.125  1.00  0.00    -0.027 C 
ATOM      9  C   UNL A   1      32.817  25.769  24.473  1.00  0.00     0.017 C 
ATOM     10  C   UNL A   1      32.580  27.087  24.399  1.00  0.00    -0.014 C 
ATOM     11  C   UNL A   1      33.529  28.220  24.419  1.00  0.00    -0.039 C 
ATOM     12  C   UNL A   1      31.257  27.720  24.277  1.00  0.00    -0.010 A 
ATOM     13  C   UNL A   1      33.946  28.581  22.982  1.00  0.00     0.045 C 
ATOM     14  C   UNL A   1      31.486  29.062  24.638  1.00  0.00    -0.011 A 
ATOM     15  C   UNL A   1      30.157  27.351  23.522  1.00  0.00     0.012 A 
ATOM     16  C   UNL A   1      30.636  30.076  24.236  1.00  0.00     0.048 A 
ATOM     17  C   UNL A   1      29.302  28.372  23.096  1.00  0.00     0.040 A 
ATOM     18  C   UNL A   1      29.553  29.711  23.443  1.00  0.00     0.123 A 
ATOM     19  F   UNL A   1      28.779  30.670  22.917  1.00  0.00    -0.207 F 
BRANCH   9  20
ATOM     20  C   UNL A   1      34.082  25.011  24.327  1.00  0.00    -0.025 A 
ATOM     21  C   UNL A   1      35.887  22.838  24.534  1.00  0.00     0.007 A 
ATOM     22  C   UNL A   1      35.194  23.070  23.353  1.00  0.00     0.015 A 
ATOM     23  C   UNL A   1      35.809  23.808  25.542  1.00  0.00     0.015 A 
ATOM     24  C   UNL A   1      34.311  24.150  23.252  1.00  0.00     0.009 A 
ATOM     25  C   UNL A   1      34.920  24.888  25.440  1.00  0.00     0.009 A 
BRANCH  21  26
ATOM     26  S   UNL A   1      36.789  21.340  24.901  1.00  0.00    -0.130 SA
ATOM     27  C   UNL A   1      38.333  21.927  25.673  1.00  0.00     0.091 C 
ENDBRANCH  21  26
ENDBRANCH   9  20
ENDBRANCH   7   8
ENDBRANCH   4   7
ENDBRANCH   2   3
ENDBRANCH   1   2
BRANCH   1  28
ATOM     28  C   UNL A   1      36.087  32.516  29.137  1.00  0.00     0.118 C 
BRANCH  28  29
ATOM     29  N   UNL A   1      35.948  31.862  30.423  1.00  0.00    -0.352 N 
ATOM     30  C   UNL A   1      36.613  30.785  30.945  1.00  0.00     0.251 C 
ATOM     31  H   UNL A   1      35.269  32.256  31.016  1.00  0.00     0.163 HD
ATOM     32  O   UNL A   1      36.129  30.212  31.919  1.00  0.00    -0.269 OA
BRANCH  30  33
ATOM     33  C   UNL A   1      37.890  30.307  30.364  1.00  0.00     0.039 A 
ATOM     34  C   UNL A   1      38.957  30.053  31.230  1.00  0.00     0.014 A 
ATOM     35  C   UNL A   1      38.079  30.197  28.982  1.00  0.00     0.014 A 
ATOM     36  C   UNL A   1      40.200  29.679  30.715  1.00  0.00     0.010 A 
ATOM     37  C   UNL A   1      39.296  29.740  28.473  1.00  0.00     0.010 A 
ATOM     38  C   UNL A   1      40.376  29.507  29.332  1.00  0.00    -0.014 A 
BRANCH  38  39
ATOM     39  C   UNL A   1      41.703  29.124  28.787  1.00  0.00     0.031 A 
ATOM     40  C   UNL A   1      42.816  30.137  28.706  1.00  0.00     0.074 A 
ATOM     41  C   UNL A   1      41.902  27.864  28.355  1.00  0.00     0.049 A 
ATOM     42  N   UNL A   1      44.049  29.977  28.299  1.00  0.00    -0.248 NA
ATOM     43  C   UNL A   1      42.496  31.516  29.110  1.00  0.00     0.031 C 
ATOM     44  C   UNL A   1      40.882  26.812  28.322  1.00  0.00     0.029 A 
ATOM     45  N   UNL A   1      43.027  27.250  27.870  1.00  0.00    -0.354 N 
ATOM     46  C   UNL A   1      44.646  31.229  28.388  1.00  0.00     0.074 A 
ATOM     47  C   UNL A   1      43.626  32.151  28.834  1.00  0.00     0.031 C 
ATOM     48  C   UNL A   1      41.438  25.674  27.877  1.00  0.00     0.029 A 
ATOM     49  C   UNL A   1      42.846  25.920  27.578  1.00  0.00     0.049 A 
ATOM     50  H   UNL A   1      43.885  27.718  27.744  1.00  0.00     0.167 HD
ATOM     51  C   UNL A   1      45.933  31.575  28.146  1.00  0.00     0.037 A 
ATOM     52  C   UNL A   1      43.719  24.997  27.133  1.00  0.00     0.037 A 
ATOM     53  C   UNL A   1      46.953  30.646  27.734  1.00  0.00     0.049 A 
ATOM     54  C   UNL A   1      45.155  25.391  26.926  1.00  0.00     0.074 A 
ATOM     55  C   UNL A   1      48.300  30.880  27.520  1.00  0.00     0.029 A 
ATOM     56  N   UNL A   1      46.737  29.300  27.479  1.00  0.00    -0.354 N 
ATOM     57  N   UNL A   1      45.717  26.567  27.080  1.00  0.00    -0.248 NA
ATOM     58  C   UNL A   1      46.078  24.331  26.502  1.00  0.00     0.031 C 
ATOM     59  C   UNL A   1      48.893  29.681  27.108  1.00  0.00     0.029 A 
ATOM     60  C   UNL A   1      47.923  28.692  27.101  1.00  0.00     0.049 A 
ATOM     61  H   UNL A   1      45.869  28.843  27.556  1.00  0.00     0.167 HD
ATOM     62  C   UNL A   1      47.064  26.384  26.787  1.00  0.00     0.074 A 
ATOM     63  C   UNL A   1      47.234  24.980  26.469  1.00  0.00     0.031 C 
ATOM     64  C   UNL A   1      48.069  27.294  26.781  1.00  0.00     0.037 A 
BRANCH  51  65
ATOM     65  C   UNL A   1      46.312  33.019  28.335  1.00  0.00     0.058 A 
ATOM     66  C   UNL A   1      46.759  33.505  29.575  1.00  0.00     0.135 A 
ATOM     67  C   UNL A   1      46.251  33.923  27.263  1.00  0.00     0.135 A 
ATOM     68  F   UNL A   1      46.821  32.688  30.639  1.00  0.00    -0.206 F 
ATOM     69  C   UNL A   1      47.101  34.843  29.753  1.00  0.00     0.059 A 
ATOM     70  C   UNL A   1      46.613  35.260  27.411  1.00  0.00     0.059 A 
ATOM     71  F   UNL A   1      45.831  33.513  26.055  1.00  0.00    -0.206 F 
ATOM     72  C   UNL A   1      47.022  35.713  28.665  1.00  0.00     0.060 A 
BRANCH  72  73
ATOM     73  S   UNL A   1      47.470  37.444  28.910  1.00  0.00     0.124 S 
ATOM     74  O   UNL A   1      47.319  37.977  27.559  1.00  0.00    -0.237 OA
ATOM     75  O   UNL A   1      46.478  37.893  29.881  1.00  0.00    -0.237 OA
ATOM     76  O   UNL A   1      48.840  37.372  29.407  1.00  0.00    -0.744 OA
ENDBRANCH  72  73
ENDBRANCH  51  65
BRANCH  52  77
ATOM     77  C   UNL A   1      43.266  23.600  26.906  1.00  0.00     0.058 A 
ATOM     78  C   UNL A   1      43.014  23.127  25.610  1.00  0.00     0.135 A 
ATOM     79  C   UNL A   1      43.108  22.705  27.975  1.00  0.00     0.135 A 
ATOM     80  F   UNL A   1      43.149  23.948  24.558  1.00  0.00    -0.206 F 
ATOM     81  C   UNL A   1      42.609  21.816  25.380  1.00  0.00     0.059 A 
ATOM     82  C   UNL A   1      42.725  21.384  27.769  1.00  0.00     0.059 A 
ATOM     83  F   UNL A   1      43.359  23.107  29.231  1.00  0.00    -0.206 F 
ATOM     84  C   UNL A   1      42.470  20.951  26.467  1.00  0.00     0.060 A 
BRANCH  84  85
ATOM     85  S   UNL A   1      42.017  19.229  26.163  1.00  0.00     0.124 S 
ATOM     86  O   UNL A   1      42.837  18.914  24.995  1.00  0.00    -0.237 OA
ATOM     87  O   UNL A   1      42.415  18.580  27.412  1.00  0.00    -0.237 OA
ATOM     88  O   UNL A   1      40.584  19.296  25.933  1.00  0.00    -0.744 OA
ENDBRANCH  84  85
ENDBRANCH  52  77
BRANCH  64  89
ATOM     89  C   UNL A   1      49.439  26.788  26.432  1.00  0.00     0.058 A 
ATOM     90  C   UNL A   1      49.939  26.867  25.123  1.00  0.00     0.135 A 
ATOM     91  C   UNL A   1      50.262  26.222  27.418  1.00  0.00     0.135 A 
ATOM     92  F   UNL A   1      49.188  27.397  24.144  1.00  0.00    -0.206 F 
ATOM     93  C   UNL A   1      51.193  26.366  24.794  1.00  0.00     0.059 A 
ATOM     94  C   UNL A   1      51.529  25.735  27.117  1.00  0.00     0.059 A 
ATOM     95  F   UNL A   1      49.835  26.135  28.688  1.00  0.00    -0.206 F 
ATOM     96  C   UNL A   1      51.978  25.793  25.797  1.00  0.00     0.060 A 
BRANCH  96  97
ATOM     97  S   UNL A   1      53.601  25.134  25.362  1.00  0.00     0.124 S 
ATOM     98  O   UNL A   1      53.818  25.736  24.051  1.00  0.00    -0.237 OA
ATOM     99  O   UNL A   1      54.447  25.639  26.439  1.00  0.00    -0.237 OA
ATOM    100  O   UNL A   1      53.391  23.690  25.363  1.00  0.00    -0.744 OA
ENDBRANCH  96  97
ENDBRANCH  64  89
ENDBRANCH  38  39
ENDBRANCH  30  33
ENDBRANCH  28  29
ENDBRANCH   1  28
TORSDOF 16
ENDMDL
MODEL 3
REMARK VINA RESULT:     -13.0      2.898      9.102
REMARK SMILES CSc1ccc(/C=C2\C(C)=C(CC(=O)NCCCNC(=O)c3ccc(-c4c5nc(c(-c6c(F)cc(S(=O)(=O)[O-])cc6F)c6ccc([nH]6)c(-c6c(F)cc(S(=O)(=O)[O-])cc6F)c6nc(c(-c7c(F)cc(S(=O)(=O)[O-])cc7F)c7ccc4[nH]7)C=C6)C=C5)cc3)c3cc(F)ccc32)cc1
REMARK SMILES IDX 17 1 16 2 15 3 13 4 14 5 12 7 11 8 7 9 8 10 9 11 94 12 10 13
REMARK SMILES IDX 88 14 93 15 89 16 92 17 90 18 91 19 6 20 3 21 4 22 96 23
REMARK SMILES IDX 5 24 95 25 2 26 1 27 18 28 19 29 20 30 21 32 22 33 23 34
REMARK SMILES IDX 87 35 24 36 86 37 25 38 26 39 27 40 80 41 28 42 85 43 79 44
REMARK SMILES IDX 81 45 29 46 84 47 78 48 77 49 30 51 64 52 43 53 63 54 44 55
REMARK SMILES IDX 47 56 62 57 82 58 45 59 46 60 61 62 83 63 48 64 31 65 32 66
REMARK SMILES IDX 41 67 33 68 34 69 40 70 42 71 35 72 36 73 37 74 38 75 39 76
REMARK SMILES IDX 65 77 66 78 75 79 67 80 68 81 74 82 76 83 69 84 70 85 71 86
REMARK SMILES IDX 72 87 73 88 49 89 50 90 59 91 51 92 52 93 58 94 60 95 53 96
REMARK SMILES IDX 54 97 55 98 56 99 57 100
REMARK H PARENT 15 6 19 31 81 50 47 61
REMARK Flexibility Score: inf
ROOT
ATOM      1  C   UNL A   1      31.690  32.462  26.879  1.00  0.00     0.042 C 
ENDROOT
BRANCH   1   2
ATOM      2  C   UNL A   1      31.782  30.972  26.576  1.00  0.00     0.117 C 
BRANCH   2   3
ATOM      3  N   UNL A   1      33.140  30.468  26.686  1.00  0.00    -0.356 N 
ATOM      4  C   UNL A   1      33.572  29.181  26.823  1.00  0.00     0.224 C 
ATOM      5  O   UNL A   1      34.774  28.979  27.010  1.00  0.00    -0.275 OA
ATOM      6  H   UNL A   1      33.848  31.151  26.657  1.00  0.00     0.163 HD
BRANCH   4   7
ATOM      7  C   UNL A   1      32.580  28.038  26.730  1.00  0.00     0.136 C 
BRANCH   7   8
ATOM      8  C   UNL A   1      32.424  27.563  25.299  1.00  0.00    -0.027 C 
ATOM      9  C   UNL A   1      31.099  24.353  25.634  1.00  0.00     0.017 C 
ATOM     10  C   UNL A   1      31.356  25.586  25.173  1.00  0.00    -0.014 C 
ATOM     11  C   UNL A   1      32.652  26.261  24.954  1.00  0.00    -0.039 C 
ATOM     12  C   UNL A   1      30.351  26.581  24.764  1.00  0.00    -0.010 A 
ATOM     13  C   UNL A   1      33.138  26.012  23.515  1.00  0.00     0.045 C 
ATOM     14  C   UNL A   1      31.062  27.797  24.752  1.00  0.00    -0.011 A 
ATOM     15  C   UNL A   1      29.175  26.422  24.054  1.00  0.00     0.012 A 
ATOM     16  C   UNL A   1      30.630  28.881  24.009  1.00  0.00     0.048 A 
ATOM     17  C   UNL A   1      28.740  27.506  23.285  1.00  0.00     0.040 A 
ATOM     18  C   UNL A   1      29.469  28.708  23.261  1.00  0.00     0.123 A 
ATOM     19  F   UNL A   1      29.085  29.680  22.422  1.00  0.00    -0.207 F 
BRANCH   9  20
ATOM     20  C   UNL A   1      31.997  23.189  25.817  1.00  0.00    -0.025 A 
ATOM     21  C   UNL A   1      34.350  21.623  25.626  1.00  0.00     0.007 A 
ATOM     22  C   UNL A   1      34.078  22.352  26.777  1.00  0.00     0.015 A 
ATOM     23  C   UNL A   1      33.346  21.539  24.652  1.00  0.00     0.015 A 
ATOM     24  C   UNL A   1      32.911  23.116  26.871  1.00  0.00     0.009 A 
ATOM     25  C   UNL A   1      32.178  22.308  24.747  1.00  0.00     0.009 A 
BRANCH  21  26
ATOM     26  S   UNL A   1      35.927  20.872  25.251  1.00  0.00    -0.130 SA
ATOM     27  C   UNL A   1      37.134  22.211  25.521  1.00  0.00     0.091 C 
ENDBRANCH  21  26
ENDBRANCH   9  20
ENDBRANCH   7   8
ENDBRANCH   4   7
ENDBRANCH   2   3
ENDBRANCH   1   2
BRANCH   1  28
ATOM     28  C   UNL A   1      32.968  33.084  27.422  1.00  0.00     0.118 C 
BRANCH  28  29
ATOM     29  N   UNL A   1      32.736  34.415  27.946  1.00  0.00    -0.352 N 
ATOM     30  C   UNL A   1      33.198  35.008  29.091  1.00  0.00     0.251 C 
ATOM     31  H   UNL A   1      32.155  34.983  27.392  1.00  0.00     0.163 HD
ATOM     32  O   UNL A   1      32.635  36.025  29.494  1.00  0.00    -0.269 OA
BRANCH  30  33
ATOM     33  C   UNL A   1      34.351  34.454  29.839  1.00  0.00     0.039 A 
ATOM     34  C   UNL A   1      35.624  34.569  29.273  1.00  0.00     0.014 A 
ATOM     35  C   UNL A   1      34.187  33.745  31.034  1.00  0.00     0.014 A 
ATOM     36  C   UNL A   1      36.725  33.990  29.907  1.00  0.00     0.010 A 
ATOM     37  C   UNL A   1      35.298  33.241  31.710  1.00  0.00     0.010 A 
ATOM     38  C   UNL A   1      36.573  33.331  31.138  1.00  0.00    -0.014 A 
BRANCH  38  39
ATOM     39  C   UNL A   1      37.743  32.703  31.803  1.00  0.00     0.031 A 
ATOM     40  C   UNL A   1      38.228  33.212  33.136  1.00  0.00     0.074 A 
ATOM     41  C   UNL A   1      38.374  31.677  31.199  1.00  0.00     0.049 A 
ATOM     42  N   UNL A   1      39.203  32.765  33.884  1.00  0.00    -0.248 NA
ATOM     43  C   UNL A   1      37.545  34.394  33.688  1.00  0.00     0.031 C 
ATOM     44  C   UNL A   1      38.038  31.139  29.879  1.00  0.00     0.029 A 
ATOM     45  N   UNL A   1      39.422  30.900  31.618  1.00  0.00    -0.354 N 
ATOM     46  C   UNL A   1      39.258  33.612  34.985  1.00  0.00     0.074 A 
ATOM     47  C   UNL A   1      38.256  34.634  34.782  1.00  0.00     0.031 C 
ATOM     48  C   UNL A   1      38.840  30.096  29.613  1.00  0.00     0.029 A 
ATOM     49  C   UNL A   1      39.756  29.903  30.733  1.00  0.00     0.049 A 
ATOM     50  H   UNL A   1      39.891  31.041  32.473  1.00  0.00     0.167 HD
ATOM     51  C   UNL A   1      40.053  33.532  36.080  1.00  0.00     0.037 A 
ATOM     52  C   UNL A   1      40.687  28.934  30.820  1.00  0.00     0.037 A 
ATOM     53  C   UNL A   1      41.028  32.493  36.292  1.00  0.00     0.049 A 
ATOM     54  C   UNL A   1      41.518  28.831  32.068  1.00  0.00     0.074 A 
ATOM     55  C   UNL A   1      41.842  32.285  37.392  1.00  0.00     0.029 A 
ATOM     56  N   UNL A   1      41.315  31.483  35.386  1.00  0.00    -0.354 N 
ATOM     57  N   UNL A   1      41.510  29.602  33.130  1.00  0.00    -0.248 NA
ATOM     58  C   UNL A   1      42.472  27.717  32.138  1.00  0.00     0.031 C 
ATOM     59  C   UNL A   1      42.642  31.164  37.138  1.00  0.00     0.029 A 
ATOM     60  C   UNL A   1      42.300  30.654  35.896  1.00  0.00     0.049 A 
ATOM     61  H   UNL A   1      40.881  31.371  34.510  1.00  0.00     0.167 HD
ATOM     62  C   UNL A   1      42.445  29.056  34.001  1.00  0.00     0.074 A 
ATOM     63  C   UNL A   1      42.983  27.878  33.350  1.00  0.00     0.031 C 
ATOM     64  C   UNL A   1      42.826  29.490  35.228  1.00  0.00     0.037 A 
BRANCH  51  65
ATOM     65  C   UNL A   1      39.890  34.591  37.136  1.00  0.00     0.058 A 
ATOM     66  C   UNL A   1      40.599  35.802  37.077  1.00  0.00     0.135 A 
ATOM     67  C   UNL A   1      39.001  34.406  38.207  1.00  0.00     0.135 A 
ATOM     68  F   UNL A   1      41.476  36.025  36.084  1.00  0.00    -0.206 F 
ATOM     69  C   UNL A   1      40.456  36.779  38.058  1.00  0.00     0.059 A 
ATOM     70  C   UNL A   1      38.823  35.380  39.186  1.00  0.00     0.059 A 
ATOM     71  F   UNL A   1      38.298  33.268  38.312  1.00  0.00    -0.206 F 
ATOM     72  C   UNL A   1      39.568  36.557  39.111  1.00  0.00     0.060 A 
BRANCH  72  73
ATOM     73  S   UNL A   1      39.391  37.833  40.376  1.00  0.00     0.124 S 
ATOM     74  O   UNL A   1      40.640  38.573  40.218  1.00  0.00    -0.237 OA
ATOM     75  O   UNL A   1      38.183  38.533  39.951  1.00  0.00    -0.237 OA
ATOM     76  O   UNL A   1      39.265  37.069  41.613  1.00  0.00    -0.744 OA
ENDBRANCH  72  73
ENDBRANCH  51  65
BRANCH  52  77
ATOM     77  C   UNL A   1      40.840  27.956  29.712  1.00  0.00     0.058 A 
ATOM     78  C   UNL A   1      39.914  26.917  29.536  1.00  0.00     0.135 A 
ATOM     79  C   UNL A   1      41.893  28.061  28.791  1.00  0.00     0.135 A 
ATOM     80  F   UNL A   1      38.893  26.776  30.394  1.00  0.00    -0.206 F 
ATOM     81  C   UNL A   1      40.033  26.006  28.491  1.00  0.00     0.059 A 
ATOM     82  C   UNL A   1      42.020  27.175  27.726  1.00  0.00     0.059 A 
ATOM     83  F   UNL A   1      42.790  29.052  28.906  1.00  0.00    -0.206 F 
ATOM     84  C   UNL A   1      41.089  26.146  27.590  1.00  0.00     0.060 A 
BRANCH  84  85
ATOM     85  S   UNL A   1      41.200  25.009  26.190  1.00  0.00     0.124 S 
ATOM     86  O   UNL A   1      42.287  24.129  26.615  1.00  0.00    -0.237 OA
ATOM     87  O   UNL A   1      39.867  24.409  26.173  1.00  0.00    -0.237 OA
ATOM     88  O   UNL A   1      41.495  25.887  25.070  1.00  0.00    -0.744 OA
ENDBRANCH  84  85
ENDBRANCH  52  77
BRANCH  64  89
ATOM     89  C   UNL A   1      43.864  28.674  35.944  1.00  0.00     0.058 A 
ATOM     90  C   UNL A   1      45.229  28.985  35.859  1.00  0.00     0.135 A 
ATOM     91  C   UNL A   1      43.487  27.570  36.725  1.00  0.00     0.135 A 
ATOM     92  F   UNL A   1      45.640  30.028  35.120  1.00  0.00    -0.206 F 
ATOM     93  C   UNL A   1      46.191  28.206  36.493  1.00  0.00     0.059 A 
ATOM     94  C   UNL A   1      44.430  26.792  37.388  1.00  0.00     0.059 A 
ATOM     95  F   UNL A   1      42.192  27.239  36.849  1.00  0.00    -0.206 F 
ATOM     96  C   UNL A   1      45.782  27.106  37.248  1.00  0.00     0.060 A 
BRANCH  96  97
ATOM     97  S   UNL A   1      47.036  26.093  38.059  1.00  0.00     0.124 S 
ATOM     98  O   UNL A   1      48.183  26.994  38.062  1.00  0.00    -0.237 OA
ATOM     99  O   UNL A   1      46.435  25.829  39.364  1.00  0.00    -0.237 OA
ATOM    100  O   UNL A   1      47.151  24.931  37.184  1.00  0.00    -0.744 OA
ENDBRANCH  96  97
ENDBRANCH  64  89
ENDBRANCH  38  39
ENDBRANCH  30  33
ENDBRANCH  28  29
ENDBRANCH   1  28
TORSDOF 16
ENDMDL
