MODEL 1
REMARK VINA RESULT:     -11.6      0.000      0.000
REMARK SMILES CC(C)(CC(=O)NCCCNC(=O)c1ccc(-c2c3nc(c(-c4c(F)cc(S(=O)(=O)[O-])cc4F)c4ccc([nH]4)c(-c4c(F)cc(S(=O)(=O)[O-])cc4F)c4nc(c(-c5c(F)cc(S(=O)(=O)[O-])cc5F)c5ccc2[nH]5)C=C4)C=C3)cc1)Cc1nc([C@@]2(C)CCCO2)no1
REMARK SMILES IDX 8 1 7 2 5 3 6 4 4 6 2 7 1 8 3 9 80 10 81 11 82 12 91 13
REMARK SMILES IDX 83 14 90 15 84 16 85 17 86 18 89 19 87 20 88 21 9 22 10 23
REMARK SMILES IDX 11 24 12 25 13 27 14 28 15 29 79 30 16 31 78 32 17 33 18 34
REMARK SMILES IDX 19 35 72 36 20 37 77 38 71 39 73 40 21 41 76 42 70 43 69 44
REMARK SMILES IDX 22 46 56 47 35 48 55 49 36 50 39 51 54 52 74 53 37 54 38 55
REMARK SMILES IDX 53 57 75 58 40 59 23 60 24 61 33 62 25 63 26 64 32 65 34 66
REMARK SMILES IDX 27 67 28 68 29 69 30 70 31 71 57 72 58 73 67 74 59 75 60 76
REMARK SMILES IDX 66 77 68 78 61 79 62 80 63 81 64 82 65 83 41 84 42 85 51 86
REMARK SMILES IDX 43 87 44 88 50 89 52 90 45 91 46 92 47 93 48 94 49 95
REMARK H PARENT 7 5 11 26 73 45 39 56
REMARK Flexibility Score: inf
ROOT
ATOM      1  C   UNL A   1      31.775  30.993  26.804  1.00  0.00     0.117 C 
ENDROOT
BRANCH   1   2
ATOM      2  N   UNL A   1      33.079  30.437  27.123  1.00  0.00    -0.356 N 
ATOM      3  C   UNL A   1      33.534  29.159  27.167  1.00  0.00     0.220 C 
ATOM      4  O   UNL A   1      34.754  28.971  27.137  1.00  0.00    -0.275 OA
ATOM      5  H   UNL A   1      33.759  31.114  27.348  1.00  0.00     0.163 HD
BRANCH   3   6
ATOM      6  C   UNL A   1      32.594  27.978  27.213  1.00  0.00     0.107 C 
BRANCH   6   7
ATOM      7  C   UNL A   1      32.501  27.053  25.971  1.00  0.00    -0.018 C 
ATOM      8  C   UNL A   1      33.375  25.805  26.118  1.00  0.00     0.012 C 
ATOM      9  C   UNL A   1      31.027  26.544  25.950  1.00  0.00     0.012 C 
BRANCH   7  10
ATOM     10  C   UNL A   1      32.752  27.717  24.590  1.00  0.00     0.107 C 
BRANCH  10  11
ATOM     11  C   UNL A   1      31.628  28.271  23.775  1.00  0.00     0.227 A 
ATOM     12  N   UNL A   1      30.821  29.306  23.903  1.00  0.00    -0.193 NA
ATOM     13  O   UNL A   1      31.407  27.570  22.621  1.00  0.00    -0.339 OA
ATOM     14  C   UNL A   1      29.968  29.149  22.813  1.00  0.00     0.203 A 
ATOM     15  N   UNL A   1      30.327  28.155  21.985  1.00  0.00    -0.059 NA
BRANCH  14  16
ATOM     16  C   UNL A   1      28.737  29.987  22.524  1.00  0.00     0.128 C 
ATOM     17  C   UNL A   1      27.455  29.373  23.092  1.00  0.00     0.051 C 
ATOM     18  C   UNL A   1      28.906  31.431  23.013  1.00  0.00     0.046 C 
ATOM     19  O   UNL A   1      28.484  30.113  21.094  1.00  0.00    -0.367 OA
ATOM     20  C   UNL A   1      27.980  32.210  22.110  1.00  0.00     0.032 C 
ATOM     21  C   UNL A   1      28.085  31.459  20.801  1.00  0.00     0.161 C 
ENDBRANCH  14  16
ENDBRANCH  10  11
ENDBRANCH   7  10
ENDBRANCH   6   7
ENDBRANCH   3   6
ENDBRANCH   1   2
BRANCH   1  22
ATOM     22  C   UNL A   1      31.656  32.518  26.897  1.00  0.00     0.042 C 
BRANCH  22  23
ATOM     23  C   UNL A   1      32.934  33.269  27.241  1.00  0.00     0.118 C 
BRANCH  23  24
ATOM     24  N   UNL A   1      32.670  34.559  27.858  1.00  0.00    -0.352 N 
ATOM     25  C   UNL A   1      33.173  35.058  29.033  1.00  0.00     0.251 C 
ATOM     26  H   UNL A   1      32.051  35.149  27.371  1.00  0.00     0.163 HD
ATOM     27  O   UNL A   1      32.660  36.057  29.538  1.00  0.00    -0.269 OA
BRANCH  25  28
ATOM     28  C   UNL A   1      34.325  34.405  29.696  1.00  0.00     0.039 A 
ATOM     29  C   UNL A   1      34.117  33.705  30.888  1.00  0.00     0.014 A 
ATOM     30  C   UNL A   1      35.617  34.533  29.180  1.00  0.00     0.014 A 
ATOM     31  C   UNL A   1      35.199  33.109  31.544  1.00  0.00     0.010 A 
ATOM     32  C   UNL A   1      36.692  33.902  29.813  1.00  0.00     0.010 A 
ATOM     33  C   UNL A   1      36.497  33.193  31.006  1.00  0.00    -0.014 A 
BRANCH  33  34
ATOM     34  C   UNL A   1      37.649  32.549  31.692  1.00  0.00     0.031 A 
ATOM     35  C   UNL A   1      38.144  33.074  33.014  1.00  0.00     0.074 A 
ATOM     36  C   UNL A   1      38.279  31.512  31.106  1.00  0.00     0.049 A 
ATOM     37  N   UNL A   1      39.139  32.651  33.750  1.00  0.00    -0.248 NA
ATOM     38  C   UNL A   1      37.440  34.239  33.569  1.00  0.00     0.031 C 
ATOM     39  C   UNL A   1      37.928  30.937  29.806  1.00  0.00     0.029 A 
ATOM     40  N   UNL A   1      39.349  30.760  31.523  1.00  0.00    -0.354 N 
ATOM     41  C   UNL A   1      39.188  33.499  34.852  1.00  0.00     0.074 A 
ATOM     42  C   UNL A   1      38.152  34.491  34.660  1.00  0.00     0.031 C 
ATOM     43  C   UNL A   1      38.752  29.911  29.543  1.00  0.00     0.029 A 
ATOM     44  C   UNL A   1      39.707  29.769  30.639  1.00  0.00     0.049 A 
ATOM     45  H   UNL A   1      39.816  30.915  32.376  1.00  0.00     0.167 HD
ATOM     46  C   UNL A   1      40.004  33.446  35.932  1.00  0.00     0.037 A 
ATOM     47  C   UNL A   1      40.689  28.850  30.703  1.00  0.00     0.037 A 
ATOM     48  C   UNL A   1      41.023  32.446  36.129  1.00  0.00     0.049 A 
ATOM     49  C   UNL A   1      41.581  28.804  31.914  1.00  0.00     0.074 A 
ATOM     50  C   UNL A   1      41.863  32.273  37.217  1.00  0.00     0.029 A 
ATOM     51  N   UNL A   1      41.346  31.451  35.216  1.00  0.00    -0.354 N 
ATOM     52  N   UNL A   1      41.568  29.574  32.975  1.00  0.00    -0.248 NA
ATOM     53  C   UNL A   1      42.614  27.760  31.939  1.00  0.00     0.031 C 
ATOM     54  C   UNL A   1      42.718  31.199  36.945  1.00  0.00     0.029 A 
ATOM     55  C   UNL A   1      42.382  30.674  35.707  1.00  0.00     0.049 A 
ATOM     56  H   UNL A   1      40.902  31.317  34.347  1.00  0.00     0.167 HD
ATOM     57  C   UNL A   1      42.574  29.092  33.806  1.00  0.00     0.074 A 
ATOM     58  C   UNL A   1      43.168  27.958  33.129  1.00  0.00     0.031 C 
ATOM     59  C   UNL A   1      42.966  29.546  35.023  1.00  0.00     0.037 A 
BRANCH  46  60
ATOM     60  C   UNL A   1      39.826  34.501  36.990  1.00  0.00     0.058 A 
ATOM     61  C   UNL A   1      39.028  34.278  38.124  1.00  0.00     0.135 A 
ATOM     62  C   UNL A   1      40.474  35.742  36.880  1.00  0.00     0.135 A 
ATOM     63  F   UNL A   1      38.377  33.114  38.275  1.00  0.00    -0.206 F 
ATOM     64  C   UNL A   1      38.848  35.262  39.091  1.00  0.00     0.059 A 
ATOM     65  C   UNL A   1      40.329  36.731  37.850  1.00  0.00     0.059 A 
ATOM     66  F   UNL A   1      41.252  36.008  35.820  1.00  0.00    -0.206 F 
ATOM     67  C   UNL A   1      39.496  36.488  38.943  1.00  0.00     0.060 A 
BRANCH  67  68
ATOM     68  S   UNL A   1      39.236  37.762  40.194  1.00  0.00     0.124 S 
ATOM     69  O   UNL A   1      38.901  36.955  41.363  1.00  0.00    -0.237 OA
ATOM     70  O   UNL A   1      40.534  38.429  40.238  1.00  0.00    -0.237 OA
ATOM     71  O   UNL A   1      38.143  38.559  39.647  1.00  0.00    -0.744 OA
ENDBRANCH  67  68
ENDBRANCH  46  60
BRANCH  47  72
ATOM     72  C   UNL A   1      40.854  27.872  29.596  1.00  0.00     0.058 A 
ATOM     73  C   UNL A   1      41.911  27.988  28.683  1.00  0.00     0.135 A 
ATOM     74  C   UNL A   1      39.979  26.783  29.449  1.00  0.00     0.135 A 
ATOM     75  F   UNL A   1      42.769  29.017  28.779  1.00  0.00    -0.206 F 
ATOM     76  C   UNL A   1      42.097  27.065  27.659  1.00  0.00     0.059 A 
ATOM     77  C   UNL A   1      40.156  25.834  28.447  1.00  0.00     0.059 A 
ATOM     78  F   UNL A   1      38.960  26.620  30.307  1.00  0.00    -0.206 F 
ATOM     79  C   UNL A   1      41.215  25.987  27.553  1.00  0.00     0.060 A 
BRANCH  79  80
ATOM     80  S   UNL A   1      41.506  24.754  26.267  1.00  0.00     0.124 S 
ATOM     81  O   UNL A   1      41.692  25.595  25.090  1.00  0.00    -0.237 OA
ATOM     82  O   UNL A   1      42.699  24.072  26.760  1.00  0.00    -0.237 OA
ATOM     83  O   UNL A   1      40.284  23.955  26.288  1.00  0.00    -0.744 OA
ENDBRANCH  79  80
ENDBRANCH  47  72
BRANCH  59  84
ATOM     84  C   UNL A   1      44.073  28.802  35.715  1.00  0.00     0.058 A 
ATOM     85  C   UNL A   1      45.421  29.153  35.536  1.00  0.00     0.135 A 
ATOM     86  C   UNL A   1      43.781  27.755  36.604  1.00  0.00     0.135 A 
ATOM     87  F   UNL A   1      45.755  30.142  34.692  1.00  0.00    -0.206 F 
ATOM     88  C   UNL A   1      46.442  28.478  36.200  1.00  0.00     0.059 A 
ATOM     89  C   UNL A   1      44.784  27.082  37.296  1.00  0.00     0.059 A 
ATOM     90  F   UNL A   1      42.507  27.386  36.818  1.00  0.00    -0.206 F 
ATOM     91  C   UNL A   1      46.113  27.443  37.078  1.00  0.00     0.060 A 
BRANCH  91  92
ATOM     92  S   UNL A   1      47.443  26.594  37.956  1.00  0.00     0.124 S 
ATOM     93  O   UNL A   1      48.264  27.717  38.399  1.00  0.00    -0.237 OA
ATOM     94  O   UNL A   1      46.721  25.883  39.006  1.00  0.00    -0.237 OA
ATOM     95  O   UNL A   1      48.040  25.746  36.929  1.00  0.00    -0.744 OA
ENDBRANCH  91  92
ENDBRANCH  59  84
ENDBRANCH  33  34
ENDBRANCH  25  28
ENDBRANCH  23  24
ENDBRANCH  22  23
ENDBRANCH   1  22
TORSDOF 17
ENDMDL
MODEL 2
REMARK VINA RESULT:     -11.2      7.089     12.642
REMARK SMILES CC(C)(CC(=O)NCCCNC(=O)c1ccc(-c2c3nc(c(-c4c(F)cc(S(=O)(=O)[O-])cc4F)c4ccc([nH]4)c(-c4c(F)cc(S(=O)(=O)[O-])cc4F)c4nc(c(-c5c(F)cc(S(=O)(=O)[O-])cc5F)c5ccc2[nH]5)C=C4)C=C3)cc1)Cc1nc([C@@]2(C)CCCO2)no1
REMARK SMILES IDX 8 1 7 2 5 3 6 4 4 6 2 7 1 8 3 9 80 10 81 11 82 12 91 13
REMARK SMILES IDX 83 14 90 15 84 16 85 17 86 18 89 19 87 20 88 21 9 22 10 23
REMARK SMILES IDX 11 24 12 25 13 27 14 28 15 29 79 30 16 31 78 32 17 33 18 34
REMARK SMILES IDX 19 35 72 36 20 37 77 38 71 39 73 40 21 41 76 42 70 43 69 44
REMARK SMILES IDX 22 46 56 47 35 48 55 49 36 50 39 51 54 52 74 53 37 54 38 55
REMARK SMILES IDX 53 57 75 58 40 59 23 60 24 61 33 62 25 63 26 64 32 65 34 66
REMARK SMILES IDX 27 67 28 68 29 69 30 70 31 71 57 72 58 73 67 74 59 75 60 76
REMARK SMILES IDX 66 77 68 78 61 79 62 80 63 81 64 82 65 83 41 84 42 85 51 86
REMARK SMILES IDX 43 87 44 88 50 89 52 90 45 91 46 92 47 93 48 94 49 95
REMARK H PARENT 7 5 11 26 73 45 39 56
REMARK Flexibility Score: inf
ROOT
ATOM      1  C   UNL A   1      37.264  20.509  24.970  1.00  0.00     0.117 C 
ENDROOT
BRANCH   1   2
ATOM      2  N   UNL A   1      37.609  21.919  24.950  1.00  0.00    -0.356 N 
ATOM      3  C   UNL A   1      37.043  23.000  25.545  1.00  0.00     0.220 C 
ATOM      4  O   UNL A   1      37.713  24.032  25.644  1.00  0.00    -0.275 OA
ATOM      5  H   UNL A   1      38.400  22.130  24.403  1.00  0.00     0.163 HD
BRANCH   3   6
ATOM      6  C   UNL A   1      35.645  22.957  26.116  1.00  0.00     0.107 C 
BRANCH   6   7
ATOM      7  C   UNL A   1      34.505  23.667  25.340  1.00  0.00    -0.018 C 
ATOM      8  C   UNL A   1      34.365  25.137  25.743  1.00  0.00     0.012 C 
ATOM      9  C   UNL A   1      34.967  23.674  23.850  1.00  0.00     0.012 C 
BRANCH   7  10
ATOM     10  C   UNL A   1      33.115  22.976  25.360  1.00  0.00     0.107 C 
BRANCH  10  11
ATOM     11  C   UNL A   1      32.925  21.589  24.835  1.00  0.00     0.227 A 
ATOM     12  N   UNL A   1      33.249  20.387  25.271  1.00  0.00    -0.193 NA
ATOM     13  O   UNL A   1      32.230  21.552  23.657  1.00  0.00    -0.339 OA
ATOM     14  C   UNL A   1      32.832  19.573  24.221  1.00  0.00     0.203 A 
ATOM     15  N   UNL A   1      32.159  20.229  23.263  1.00  0.00    -0.059 NA
BRANCH  14  16
ATOM     16  C   UNL A   1      33.076  18.080  24.109  1.00  0.00     0.128 C 
ATOM     17  C   UNL A   1      32.688  17.517  22.739  1.00  0.00     0.051 C 
ATOM     18  C   UNL A   1      34.527  17.714  24.450  1.00  0.00     0.046 C 
ATOM     19  O   UNL A   1      32.274  17.321  25.060  1.00  0.00    -0.367 OA
ATOM     20  C   UNL A   1      34.417  16.285  24.925  1.00  0.00     0.032 C 
ATOM     21  C   UNL A   1      33.073  16.268  25.618  1.00  0.00     0.161 C 
ENDBRANCH  14  16
ENDBRANCH  10  11
ENDBRANCH   7  10
ENDBRANCH   6   7
ENDBRANCH   3   6
ENDBRANCH   1   2
BRANCH   1  22
ATOM     22  C   UNL A   1      38.414  19.542  25.272  1.00  0.00     0.042 C 
BRANCH  22  23
ATOM     23  C   UNL A   1      39.579  20.115  26.065  1.00  0.00     0.118 C 
BRANCH  23  24
ATOM     24  N   UNL A   1      40.706  19.200  26.135  1.00  0.00    -0.352 N 
ATOM     25  C   UNL A   1      42.045  19.500  26.155  1.00  0.00     0.251 C 
ATOM     26  H   UNL A   1      40.480  18.243  26.173  1.00  0.00     0.163 HD
ATOM     27  O   UNL A   1      42.871  18.607  25.965  1.00  0.00    -0.269 OA
BRANCH  25  28
ATOM     28  C   UNL A   1      42.502  20.887  26.403  1.00  0.00     0.039 A 
ATOM     29  C   UNL A   1      42.823  21.702  25.314  1.00  0.00     0.014 A 
ATOM     30  C   UNL A   1      42.673  21.364  27.705  1.00  0.00     0.014 A 
ATOM     31  C   UNL A   1      43.286  23.004  25.531  1.00  0.00     0.010 A 
ATOM     32  C   UNL A   1      43.096  22.679  27.920  1.00  0.00     0.010 A 
ATOM     33  C   UNL A   1      43.416  23.509  26.838  1.00  0.00    -0.014 A 
BRANCH  33  34
ATOM     34  C   UNL A   1      43.895  24.898  27.074  1.00  0.00     0.031 A 
ATOM     35  C   UNL A   1      45.343  25.254  26.867  1.00  0.00     0.074 A 
ATOM     36  C   UNL A   1      43.033  25.835  27.515  1.00  0.00     0.049 A 
ATOM     37  N   UNL A   1      45.943  26.405  27.035  1.00  0.00    -0.248 NA
ATOM     38  C   UNL A   1      46.237  24.169  26.433  1.00  0.00     0.031 C 
ATOM     39  C   UNL A   1      41.614  25.607  27.800  1.00  0.00     0.029 A 
ATOM     40  N   UNL A   1      43.221  27.162  27.806  1.00  0.00    -0.354 N 
ATOM     41  C   UNL A   1      47.284  26.185  26.736  1.00  0.00     0.074 A 
ATOM     42  C   UNL A   1      47.416  24.777  26.424  1.00  0.00     0.031 C 
ATOM     43  C   UNL A   1      41.058  26.760  28.203  1.00  0.00     0.029 A 
ATOM     44  C   UNL A   1      42.081  27.802  28.233  1.00  0.00     0.049 A 
ATOM     45  H   UNL A   1      44.091  27.614  27.718  1.00  0.00     0.167 HD
ATOM     46  C   UNL A   1      48.306  27.074  26.703  1.00  0.00     0.037 A 
ATOM     47  C   UNL A   1      41.880  29.081  28.604  1.00  0.00     0.037 A 
ATOM     48  C   UNL A   1      48.167  28.478  26.996  1.00  0.00     0.049 A 
ATOM     49  C   UNL A   1      43.027  30.054  28.555  1.00  0.00     0.074 A 
ATOM     50  C   UNL A   1      49.132  29.470  26.935  1.00  0.00     0.029 A 
ATOM     51  N   UNL A   1      46.994  29.090  27.411  1.00  0.00    -0.354 N 
ATOM     52  N   UNL A   1      44.273  29.840  28.205  1.00  0.00    -0.248 NA
ATOM     53  C   UNL A   1      42.739  31.442  28.941  1.00  0.00     0.031 C 
ATOM     54  C   UNL A   1      48.550  30.674  27.349  1.00  0.00     0.029 A 
ATOM     55  C   UNL A   1      47.212  30.441  27.627  1.00  0.00     0.049 A 
ATOM     56  H   UNL A   1      46.131  28.632  27.534  1.00  0.00     0.167 HD
ATOM     57  C   UNL A   1      44.912  31.072  28.306  1.00  0.00     0.074 A 
ATOM     58  C   UNL A   1      43.912  32.027  28.739  1.00  0.00     0.031 C 
ATOM     59  C   UNL A   1      46.208  31.383  28.058  1.00  0.00     0.037 A 
BRANCH  46  60
ATOM     60  C   UNL A   1      49.668  26.553  26.332  1.00  0.00     0.058 A 
ATOM     61  C   UNL A   1      50.494  25.916  27.273  1.00  0.00     0.135 A 
ATOM     62  C   UNL A   1      50.148  26.674  25.018  1.00  0.00     0.135 A 
ATOM     63  F   UNL A   1      50.091  25.783  28.546  1.00  0.00    -0.206 F 
ATOM     64  C   UNL A   1      51.761  25.454  26.933  1.00  0.00     0.059 A 
ATOM     65  C   UNL A   1      51.402  26.194  24.650  1.00  0.00     0.059 A 
ATOM     66  F   UNL A   1      49.399  27.270  24.076  1.00  0.00    -0.206 F 
ATOM     67  C   UNL A   1      52.210  25.603  25.621  1.00  0.00     0.060 A 
BRANCH  67  68
ATOM     68  S   UNL A   1      53.865  25.017  25.200  1.00  0.00     0.124 S 
ATOM     69  O   UNL A   1      53.677  23.570  25.236  1.00  0.00    -0.237 OA
ATOM     70  O   UNL A   1      54.075  25.594  23.875  1.00  0.00    -0.237 OA
ATOM     71  O   UNL A   1      54.701  25.568  26.260  1.00  0.00    -0.744 OA
ENDBRANCH  67  68
ENDBRANCH  46  60
BRANCH  47  72
ATOM     72  C   UNL A   1      40.522  29.522  29.018  1.00  0.00     0.058 A 
ATOM     73  C   UNL A   1      39.502  29.697  28.072  1.00  0.00     0.135 A 
ATOM     74  C   UNL A   1      40.209  29.744  30.369  1.00  0.00     0.135 A 
ATOM     75  F   UNL A   1      39.757  29.503  26.769  1.00  0.00    -0.206 F 
ATOM     76  C   UNL A   1      38.218  30.080  28.447  1.00  0.00     0.059 A 
ATOM     77  C   UNL A   1      38.927  30.107  30.770  1.00  0.00     0.059 A 
ATOM     78  F   UNL A   1      41.147  29.575  31.313  1.00  0.00    -0.206 F 
ATOM     79  C   UNL A   1      37.939  30.278  29.800  1.00  0.00     0.060 A 
BRANCH  79  80
ATOM     80  S   UNL A   1      36.253  30.704  30.284  1.00  0.00     0.124 S 
ATOM     81  O   UNL A   1      35.514  30.418  29.059  1.00  0.00    -0.237 OA
ATOM     82  O   UNL A   1      36.015  29.794  31.400  1.00  0.00    -0.237 OA
ATOM     83  O   UNL A   1      36.355  32.114  30.648  1.00  0.00    -0.744 OA
ENDBRANCH  79  80
ENDBRANCH  47  72
BRANCH  59  84
ATOM     84  C   UNL A   1      46.619  32.819  28.223  1.00  0.00     0.058 A 
ATOM     85  C   UNL A   1      46.491  33.747  27.177  1.00  0.00     0.135 A 
ATOM     86  C   UNL A   1      47.102  33.285  29.457  1.00  0.00     0.135 A 
ATOM     87  F   UNL A   1      46.041  33.353  25.976  1.00  0.00    -0.206 F 
ATOM     88  C   UNL A   1      46.848  35.083  27.343  1.00  0.00     0.059 A 
ATOM     89  C   UNL A   1      47.442  34.620  29.652  1.00  0.00     0.059 A 
ATOM     90  F   UNL A   1      47.234  32.440  30.493  1.00  0.00    -0.206 F 
ATOM     91  C   UNL A   1      47.324  35.509  28.585  1.00  0.00     0.060 A 
BRANCH  91  92
ATOM     92  S   UNL A   1      47.755  37.250  28.797  1.00  0.00     0.124 S 
ATOM     93  O   UNL A   1      46.876  37.890  27.823  1.00  0.00    -0.237 OA
ATOM     94  O   UNL A   1      47.425  37.486  30.199  1.00  0.00    -0.237 OA
ATOM     95  O   UNL A   1      49.179  37.288  28.479  1.00  0.00    -0.744 OA
ENDBRANCH  91  92
ENDBRANCH  59  84
ENDBRANCH  33  34
ENDBRANCH  25  28
ENDBRANCH  23  24
ENDBRANCH  22  23
ENDBRANCH   1  22
TORSDOF 17
ENDMDL
MODEL 3
REMARK VINA RESULT:     -11.0      3.919      5.845
REMARK SMILES CC(C)(CC(=O)NCCCNC(=O)c1ccc(-c2c3nc(c(-c4c(F)cc(S(=O)(=O)[O-])cc4F)c4ccc([nH]4)c(-c4c(F)cc(S(=O)(=O)[O-])cc4F)c4nc(c(-c5c(F)cc(S(=O)(=O)[O-])cc5F)c5ccc2[nH]5)C=C4)C=C3)cc1)Cc1nc([C@@]2(C)CCCO2)no1
REMARK SMILES IDX 8 1 7 2 5 3 6 4 4 6 2 7 1 8 3 9 80 10 81 11 82 12 91 13
REMARK SMILES IDX 83 14 90 15 84 16 85 17 86 18 89 19 87 20 88 21 9 22 10 23
REMARK SMILES IDX 11 24 12 25 13 27 14 28 15 29 79 30 16 31 78 32 17 33 18 34
REMARK SMILES IDX 19 35 72 36 20 37 77 38 71 39 73 40 21 41 76 42 70 43 69 44
REMARK SMILES IDX 22 46 56 47 35 48 55 49 36 50 39 51 54 52 74 53 37 54 38 55
REMARK SMILES IDX 53 57 75 58 40 59 23 60 24 61 33 62 25 63 26 64 32 65 34 66
REMARK SMILES IDX 27 67 28 68 29 69 30 70 31 71 57 72 58 73 67 74 59 75 60 76
REMARK SMILES IDX 66 77 68 78 61 79 62 80 63 81 64 82 65 83 41 84 42 85 51 86
REMARK SMILES IDX 43 87 44 88 50 89 52 90 45 91 46 92 47 93 48 94 49 95
REMARK H PARENT 7 5 11 26 73 45 39 56
REMARK Flexibility Score: inf
ROOT
ATOM      1  C   UNL A   1      33.838  26.465  24.248  1.00  0.00     0.117 C 
ENDROOT
BRANCH   1   2
ATOM      2  N   UNL A   1      34.401  25.573  25.246  1.00  0.00    -0.356 N 
ATOM      3  C   UNL A   1      33.844  24.599  26.010  1.00  0.00     0.220 C 
ATOM      4  O   UNL A   1      34.591  23.767  26.533  1.00  0.00    -0.275 OA
ATOM      5  H   UNL A   1      35.367  25.699  25.397  1.00  0.00     0.163 HD
BRANCH   3   6
ATOM      6  C   UNL A   1      32.350  24.490  26.201  1.00  0.00     0.107 C 
BRANCH   6   7
ATOM      7  C   UNL A   1      31.533  23.638  25.194  1.00  0.00    -0.018 C 
ATOM      8  C   UNL A   1      30.688  22.573  25.897  1.00  0.00     0.012 C 
ATOM      9  C   UNL A   1      30.519  24.632  24.549  1.00  0.00     0.012 C 
BRANCH   7  10
ATOM     10  C   UNL A   1      32.324  23.000  24.021  1.00  0.00     0.107 C 
BRANCH  10  11
ATOM     11  C   UNL A   1      32.814  21.590  24.085  1.00  0.00     0.227 A 
ATOM     12  N   UNL A   1      32.319  20.425  23.714  1.00  0.00    -0.193 NA
ATOM     13  O   UNL A   1      34.070  21.482  24.617  1.00  0.00    -0.339 OA
ATOM     14  C   UNL A   1      33.291  19.536  24.167  1.00  0.00     0.203 A 
ATOM     15  N   UNL A   1      34.386  20.137  24.656  1.00  0.00    -0.059 NA
BRANCH  14  16
ATOM     16  C   UNL A   1      33.190  18.023  24.134  1.00  0.00     0.128 C 
ATOM     17  C   UNL A   1      32.800  17.484  22.756  1.00  0.00     0.051 C 
ATOM     18  C   UNL A   1      34.481  17.356  24.627  1.00  0.00     0.046 C 
ATOM     19  O   UNL A   1      32.155  17.524  25.032  1.00  0.00    -0.367 OA
ATOM     20  C   UNL A   1      34.003  16.021  25.143  1.00  0.00     0.032 C 
ATOM     21  C   UNL A   1      32.637  16.351  25.703  1.00  0.00     0.161 C 
ENDBRANCH  14  16
ENDBRANCH  10  11
ENDBRANCH   7  10
ENDBRANCH   6   7
ENDBRANCH   3   6
ENDBRANCH   1   2
BRANCH   1  22
ATOM     22  C   UNL A   1      33.392  27.841  24.753  1.00  0.00     0.042 C 
BRANCH  22  23
ATOM     23  C   UNL A   1      34.155  28.394  25.948  1.00  0.00     0.118 C 
BRANCH  23  24
ATOM     24  N   UNL A   1      33.775  29.761  26.264  1.00  0.00    -0.352 N 
ATOM     25  C   UNL A   1      34.279  30.579  27.244  1.00  0.00     0.251 C 
ATOM     26  H   UNL A   1      33.065  30.150  25.703  1.00  0.00     0.163 HD
ATOM     27  O   UNL A   1      33.680  31.614  27.540  1.00  0.00    -0.269 OA
BRANCH  25  28
ATOM     28  C   UNL A   1      35.534  30.227  27.946  1.00  0.00     0.039 A 
ATOM     29  C   UNL A   1      36.757  30.423  27.296  1.00  0.00     0.014 A 
ATOM     30  C   UNL A   1      35.507  29.647  29.217  1.00  0.00     0.014 A 
ATOM     31  C   UNL A   1      37.949  30.067  27.933  1.00  0.00     0.010 A 
ATOM     32  C   UNL A   1      36.702  29.330  29.870  1.00  0.00     0.010 A 
ATOM     33  C   UNL A   1      37.933  29.526  29.233  1.00  0.00    -0.014 A 
BRANCH  33  34
ATOM     34  C   UNL A   1      39.201  29.158  29.920  1.00  0.00     0.031 A 
ATOM     35  C   UNL A   1      39.635  29.885  31.166  1.00  0.00     0.074 A 
ATOM     36  C   UNL A   1      39.985  28.194  29.402  1.00  0.00     0.049 A 
ATOM     37  N   UNL A   1      40.710  29.712  31.891  1.00  0.00    -0.248 NA
ATOM     38  C   UNL A   1      38.753  30.960  31.647  1.00  0.00     0.031 C 
ATOM     39  C   UNL A   1      39.702  27.446  28.175  1.00  0.00     0.029 A 
ATOM     40  N   UNL A   1      41.182  27.680  29.835  1.00  0.00    -0.354 N 
ATOM     41  C   UNL A   1      40.641  30.658  32.909  1.00  0.00     0.074 A 
ATOM     42  C   UNL A   1      39.442  31.434  32.676  1.00  0.00     0.031 C 
ATOM     43  C   UNL A   1      40.685  26.556  27.967  1.00  0.00     0.029 A 
ATOM     44  C   UNL A   1      41.682  26.686  29.027  1.00  0.00     0.049 A 
ATOM     45  H   UNL A   1      41.639  27.994  30.648  1.00  0.00     0.167 HD
ATOM     46  C   UNL A   1      41.486  30.850  33.951  1.00  0.00     0.037 A 
ATOM     47  C   UNL A   1      42.812  25.960  29.128  1.00  0.00     0.037 A 
ATOM     48  C   UNL A   1      42.670  30.063  34.190  1.00  0.00     0.049 A 
ATOM     49  C   UNL A   1      43.733  26.184  30.296  1.00  0.00     0.074 A 
ATOM     50  C   UNL A   1      43.558  30.143  35.249  1.00  0.00     0.029 A 
ATOM     51  N   UNL A   1      43.134  29.056  33.356  1.00  0.00    -0.354 N 
ATOM     52  N   UNL A   1      43.616  27.038  31.284  1.00  0.00    -0.248 NA
ATOM     53  C   UNL A   1      44.933  25.340  30.368  1.00  0.00     0.031 C 
ATOM     54  C   UNL A   1      44.580  29.210  35.036  1.00  0.00     0.029 A 
ATOM     55  C   UNL A   1      44.305  28.518  33.866  1.00  0.00     0.049 A 
ATOM     56  H   UNL A   1      42.696  28.765  32.524  1.00  0.00     0.167 HD
ATOM     57  C   UNL A   1      44.715  26.818  32.108  1.00  0.00     0.074 A 
ATOM     58  C   UNL A   1      45.478  25.744  31.508  1.00  0.00     0.031 C 
ATOM     59  C   UNL A   1      45.057  27.448  33.260  1.00  0.00     0.037 A 
BRANCH  46  60
ATOM     60  C   UNL A   1      41.156  31.955  34.918  1.00  0.00     0.058 A 
ATOM     61  C   UNL A   1      41.689  33.245  34.770  1.00  0.00     0.135 A 
ATOM     62  C   UNL A   1      40.284  31.728  35.995  1.00  0.00     0.135 A 
ATOM     63  F   UNL A   1      42.537  33.516  33.766  1.00  0.00    -0.206 F 
ATOM     64  C   UNL A   1      41.400  34.260  35.677  1.00  0.00     0.059 A 
ATOM     65  C   UNL A   1      39.959  32.736  36.898  1.00  0.00     0.059 A 
ATOM     66  F   UNL A   1      39.742  30.514  36.182  1.00  0.00    -0.206 F 
ATOM     67  C   UNL A   1      40.539  33.995  36.742  1.00  0.00     0.060 A 
BRANCH  67  68
ATOM     68  S   UNL A   1      40.189  35.315  37.922  1.00  0.00     0.124 S 
ATOM     69  O   UNL A   1      40.006  36.457  37.031  1.00  0.00    -0.237 OA
ATOM     70  O   UNL A   1      38.983  34.832  38.586  1.00  0.00    -0.237 OA
ATOM     71  O   UNL A   1      41.387  35.354  38.754  1.00  0.00    -0.744 OA
ENDBRANCH  67  68
ENDBRANCH  46  60
BRANCH  47  72
ATOM     72  C   UNL A   1      43.112  24.922  28.107  1.00  0.00     0.058 A 
ATOM     73  C   UNL A   1      43.712  25.265  26.886  1.00  0.00     0.135 A 
ATOM     74  C   UNL A   1      42.838  23.566  28.343  1.00  0.00     0.135 A 
ATOM     75  F   UNL A   1      43.986  26.551  26.613  1.00  0.00    -0.206 F 
ATOM     76  C   UNL A   1      44.027  24.304  25.932  1.00  0.00     0.059 A 
ATOM     77  C   UNL A   1      43.163  22.583  27.413  1.00  0.00     0.059 A 
ATOM     78  F   UNL A   1      42.278  23.185  29.501  1.00  0.00    -0.206 F 
ATOM     79  C   UNL A   1      43.753  22.963  26.208  1.00  0.00     0.060 A 
BRANCH  79  80
ATOM     80  S   UNL A   1      44.231  21.713  24.995  1.00  0.00     0.124 S 
ATOM     81  O   UNL A   1      45.606  21.430  25.392  1.00  0.00    -0.237 OA
ATOM     82  O   UNL A   1      43.261  20.653  25.249  1.00  0.00    -0.237 OA
ATOM     83  O   UNL A   1      44.071  22.406  23.720  1.00  0.00    -0.744 OA
ENDBRANCH  79  80
ENDBRANCH  47  72
BRANCH  59  84
ATOM     84  C   UNL A   1      46.298  26.975  33.964  1.00  0.00     0.058 A 
ATOM     85  C   UNL A   1      47.553  27.551  33.712  1.00  0.00     0.135 A 
ATOM     86  C   UNL A   1      46.223  25.966  34.938  1.00  0.00     0.135 A 
ATOM     87  F   UNL A   1      47.681  28.514  32.786  1.00  0.00    -0.206 F 
ATOM     88  C   UNL A   1      48.696  27.127  34.386  1.00  0.00     0.059 A 
ATOM     89  C   UNL A   1      47.348  25.543  35.641  1.00  0.00     0.059 A 
ATOM     90  F   UNL A   1      45.045  25.389  35.224  1.00  0.00    -0.206 F 
ATOM     91  C   UNL A   1      48.582  26.122  35.349  1.00  0.00     0.060 A 
BRANCH  91  92
ATOM     92  S   UNL A   1      50.065  25.602  36.239  1.00  0.00     0.124 S 
ATOM     93  O   UNL A   1      50.088  26.549  37.349  1.00  0.00    -0.237 OA
ATOM     94  O   UNL A   1      49.752  24.221  36.590  1.00  0.00    -0.237 OA
ATOM     95  O   UNL A   1      51.128  25.766  35.251  1.00  0.00    -0.744 OA
ENDBRANCH  91  92
ENDBRANCH  59  84
ENDBRANCH  33  34
ENDBRANCH  25  28
ENDBRANCH  23  24
ENDBRANCH  22  23
ENDBRANCH   1  22
TORSDOF 17
ENDMDL
