MODEL 1
REMARK VINA RESULT:     -12.4      0.000      0.000
REMARK SMILES O=C(NCCCNC(=O)c1ccc(Cn2ccc3ccc(Br)cc32)nc1)c1ccc(-c2c3nc(c(-c4c(F)cc(S(=O)(=O)[O-])cc4F)c4ccc([nH]4)c(-c4c(F)cc(S(=O)(=O)[O-])cc4F)c4nc(c(-c5c(F)cc(S(=O)(=O)[O-])cc5F)c5ccc2[nH]5)C=C4)C=C3)cc1
REMARK SMILES IDX 4 1 3 2 1 3 2 4 27 6 28 7 92 8 29 9 91 10 30 11 31 12 32 13
REMARK SMILES IDX 85 14 33 15 90 16 84 17 86 18 34 19 89 20 83 21 82 22 35 24
REMARK SMILES IDX 69 25 48 26 68 27 49 28 52 29 67 30 87 31 50 32 51 33 66 35
REMARK SMILES IDX 88 36 53 37 36 38 37 39 46 40 38 41 39 42 45 43 47 44 40 45
REMARK SMILES IDX 41 46 42 47 43 48 44 49 70 50 71 51 80 52 72 53 73 54 79 55
REMARK SMILES IDX 81 56 74 57 75 58 76 59 77 60 78 61 54 62 55 63 64 64 56 65
REMARK SMILES IDX 57 66 63 67 65 68 58 69 59 70 60 71 61 72 62 73 5 74 6 75
REMARK SMILES IDX 7 76 8 77 9 79 10 80 11 81 26 82 12 83 25 84 13 85 14 86
REMARK SMILES IDX 15 87 16 88 24 89 17 90 18 91 23 92 19 93 21 94 20 95 22 96
REMARK H PARENT 3 5 86 23 52 34 7 78
REMARK Flexibility Score: inf
ROOT
ATOM      1  C   UNL A   1      40.482  23.006  26.693  1.00  0.00     0.118 C 
ENDROOT
BRANCH   1   2
ATOM      2  N   UNL A   1      41.907  22.720  26.433  1.00  0.00    -0.352 N 
ATOM      3  O   UNL A   1      43.970  23.246  25.616  1.00  0.00    -0.269 OA
ATOM      4  C   UNL A   1      42.922  23.621  26.094  1.00  0.00     0.251 C 
ATOM      5  H   UNL A   1      42.176  21.776  26.507  1.00  0.00     0.163 HD
BRANCH   4   6
ATOM      6  C   UNL A   1      42.663  25.050  26.367  1.00  0.00     0.039 A 
ATOM      7  C   UNL A   1      41.816  25.872  25.623  1.00  0.00     0.014 A 
ATOM      8  C   UNL A   1      43.213  25.504  27.545  1.00  0.00     0.014 A 
ATOM      9  C   UNL A   1      41.510  27.126  26.156  1.00  0.00     0.010 A 
ATOM     10  C   UNL A   1      42.512  26.435  28.231  1.00  0.00     0.010 A 
ATOM     11  C   UNL A   1      41.875  27.394  27.486  1.00  0.00    -0.014 A 
BRANCH  11  12
ATOM     12  C   UNL A   1      41.640  28.644  28.189  1.00  0.00     0.031 A 
ATOM     13  C   UNL A   1      42.701  29.650  28.002  1.00  0.00     0.074 A 
ATOM     14  C   UNL A   1      40.461  28.932  28.796  1.00  0.00     0.049 A 
ATOM     15  N   UNL A   1      43.624  29.969  28.843  1.00  0.00    -0.248 NA
ATOM     16  C   UNL A   1      42.885  30.226  26.662  1.00  0.00     0.031 C 
ATOM     17  C   UNL A   1      39.193  28.177  28.811  1.00  0.00     0.029 A 
ATOM     18  N   UNL A   1      40.129  30.045  29.500  1.00  0.00    -0.354 N 
ATOM     19  C   UNL A   1      44.361  30.972  28.230  1.00  0.00     0.074 A 
ATOM     20  C   UNL A   1      44.007  30.929  26.835  1.00  0.00     0.031 C 
ATOM     21  C   UNL A   1      38.192  28.952  29.285  1.00  0.00     0.029 A 
ATOM     22  C   UNL A   1      38.774  30.176  29.795  1.00  0.00     0.049 A 
ATOM     23  H   UNL A   1      40.797  30.710  29.781  1.00  0.00     0.167 HD
ATOM     24  C   UNL A   1      45.018  31.906  28.972  1.00  0.00     0.037 A 
ATOM     25  C   UNL A   1      38.183  31.217  30.433  1.00  0.00     0.037 A 
ATOM     26  C   UNL A   1      45.078  31.509  30.361  1.00  0.00     0.049 A 
ATOM     27  C   UNL A   1      39.266  31.902  31.192  1.00  0.00     0.074 A 
ATOM     28  C   UNL A   1      45.638  30.440  31.033  1.00  0.00     0.029 A 
ATOM     29  N   UNL A   1      44.133  32.033  31.213  1.00  0.00    -0.354 N 
ATOM     30  N   UNL A   1      39.911  31.348  32.185  1.00  0.00    -0.248 NA
ATOM     31  C   UNL A   1      39.966  32.988  30.524  1.00  0.00     0.031 C 
ATOM     32  C   UNL A   1      44.681  30.086  32.029  1.00  0.00     0.029 A 
ATOM     33  C   UNL A   1      43.629  31.003  31.970  1.00  0.00     0.049 A 
ATOM     34  H   UNL A   1      43.867  32.979  31.271  1.00  0.00     0.167 HD
ATOM     35  C   UNL A   1      41.238  31.719  32.006  1.00  0.00     0.074 A 
ATOM     36  C   UNL A   1      41.196  32.785  31.005  1.00  0.00     0.031 C 
ATOM     37  C   UNL A   1      42.265  30.941  32.463  1.00  0.00     0.037 A 
BRANCH  24  38
ATOM     38  C   UNL A   1      45.297  33.318  28.524  1.00  0.00     0.058 A 
ATOM     39  C   UNL A   1      46.625  33.788  28.520  1.00  0.00     0.135 A 
ATOM     40  C   UNL A   1      44.301  34.303  28.346  1.00  0.00     0.135 A 
ATOM     41  F   UNL A   1      47.652  32.938  28.684  1.00  0.00    -0.206 F 
ATOM     42  C   UNL A   1      46.936  35.143  28.418  1.00  0.00     0.059 A 
ATOM     43  C   UNL A   1      44.592  35.653  28.186  1.00  0.00     0.059 A 
ATOM     44  F   UNL A   1      42.994  34.023  28.412  1.00  0.00    -0.206 F 
ATOM     45  C   UNL A   1      45.910  36.070  28.266  1.00  0.00     0.060 A 
BRANCH  45  46
ATOM     46  S   UNL A   1      46.303  37.826  28.243  1.00  0.00     0.124 S 
ATOM     47  O   UNL A   1      47.711  37.813  28.622  1.00  0.00    -0.237 OA
ATOM     48  O   UNL A   1      46.015  38.179  26.856  1.00  0.00    -0.237 OA
ATOM     49  O   UNL A   1      45.388  38.389  29.231  1.00  0.00    -0.744 OA
ENDBRANCH  45  46
ENDBRANCH  24  38
BRANCH  25  50
ATOM     50  C   UNL A   1      36.888  31.872  30.096  1.00  0.00     0.058 A 
ATOM     51  C   UNL A   1      35.803  31.839  30.992  1.00  0.00     0.135 A 
ATOM     52  C   UNL A   1      36.783  32.794  29.032  1.00  0.00     0.135 A 
ATOM     53  F   UNL A   1      35.821  31.000  32.038  1.00  0.00    -0.206 F 
ATOM     54  C   UNL A   1      34.715  32.714  30.883  1.00  0.00     0.059 A 
ATOM     55  C   UNL A   1      35.706  33.672  28.900  1.00  0.00     0.059 A 
ATOM     56  F   UNL A   1      37.776  32.937  28.142  1.00  0.00    -0.206 F 
ATOM     57  C   UNL A   1      34.689  33.649  29.848  1.00  0.00     0.060 A 
BRANCH  57  58
ATOM     58  S   UNL A   1      33.390  34.908  29.823  1.00  0.00     0.124 S 
ATOM     59  O   UNL A   1      32.934  34.903  31.208  1.00  0.00    -0.237 OA
ATOM     60  O   UNL A   1      34.124  36.096  29.399  1.00  0.00    -0.237 OA
ATOM     61  O   UNL A   1      32.433  34.391  28.847  1.00  0.00    -0.744 OA
ENDBRANCH  57  58
ENDBRANCH  25  50
BRANCH  37  62
ATOM     62  C   UNL A   1      41.937  29.793  33.394  1.00  0.00     0.058 A 
ATOM     63  C   UNL A   1      41.708  28.467  32.981  1.00  0.00     0.135 A 
ATOM     64  C   UNL A   1      42.028  30.017  34.776  1.00  0.00     0.135 A 
ATOM     65  F   UNL A   1      41.699  28.142  31.683  1.00  0.00    -0.206 F 
ATOM     66  C   UNL A   1      41.549  27.421  33.897  1.00  0.00     0.059 A 
ATOM     67  C   UNL A   1      41.902  28.987  35.707  1.00  0.00     0.059 A 
ATOM     68  F   UNL A   1      42.304  31.247  35.238  1.00  0.00    -0.206 F 
ATOM     69  C   UNL A   1      41.653  27.692  35.261  1.00  0.00     0.060 A 
BRANCH  69  70
ATOM     70  S   UNL A   1      41.521  26.331  36.443  1.00  0.00     0.124 S 
ATOM     71  O   UNL A   1      40.763  26.939  37.531  1.00  0.00    -0.237 OA
ATOM     72  O   UNL A   1      40.814  25.310  35.674  1.00  0.00    -0.237 OA
ATOM     73  O   UNL A   1      42.912  26.012  36.754  1.00  0.00    -0.744 OA
ENDBRANCH  69  70
ENDBRANCH  37  62
ENDBRANCH  11  12
ENDBRANCH   4   6
ENDBRANCH   1   2
BRANCH   1  74
ATOM     74  C   UNL A   1      39.563  21.820  26.514  1.00  0.00     0.042 C 
BRANCH  74  75
ATOM     75  C   UNL A   1      38.430  22.113  25.531  1.00  0.00     0.118 C 
BRANCH  75  76
ATOM     76  N   UNL A   1      37.508  20.998  25.335  1.00  0.00    -0.352 N 
ATOM     77  C   UNL A   1      36.186  21.020  24.962  1.00  0.00     0.252 C 
ATOM     78  H   UNL A   1      37.887  20.104  25.492  1.00  0.00     0.163 HD
ATOM     79  O   UNL A   1      35.519  19.993  24.919  1.00  0.00    -0.269 OA
BRANCH  77  80
ATOM     80  C   UNL A   1      35.563  22.304  24.640  1.00  0.00     0.058 A 
ATOM     81  C   UNL A   1      35.018  23.132  25.621  1.00  0.00     0.017 A 
ATOM     82  C   UNL A   1      35.471  22.683  23.317  1.00  0.00     0.125 A 
ATOM     83  C   UNL A   1      34.343  24.286  25.236  1.00  0.00     0.026 A 
ATOM     84  N   UNL A   1      34.789  23.780  22.923  1.00  0.00    -0.259 NA
ATOM     85  C   UNL A   1      34.253  24.584  23.878  1.00  0.00     0.060 A 
BRANCH  85  86
ATOM     86  C   UNL A   1      33.609  25.863  23.406  1.00  0.00     0.178 C 
BRANCH  86  87
ATOM     87  N   UNL A   1      32.529  26.260  24.305  1.00  0.00    -0.341 N 
ATOM     88  C   UNL A   1      31.257  25.743  24.267  1.00  0.00     0.087 A 
ATOM     89  C   UNL A   1      32.636  27.178  25.335  1.00  0.00     0.049 A 
ATOM     90  C   UNL A   1      30.547  26.294  25.312  1.00  0.00     0.028 A 
ATOM     91  C   UNL A   1      31.413  27.180  26.008  1.00  0.00    -0.000 A 
ATOM     92  C   UNL A   1      33.716  27.972  25.760  1.00  0.00     0.042 A 
ATOM     93  C   UNL A   1      31.270  27.982  27.159  1.00  0.00     0.011 A 
ATOM     94  C   UNL A   1      33.558  28.729  26.920  1.00  0.00     0.020 A 
ATOM     95  C   UNL A   1      32.355  28.740  27.616  1.00  0.00     0.016 A 
ATOM     96  Br  UNL A   1      35.025  29.737  27.567  1.00  0.00    -0.051 Br
ENDBRANCH  86  87
ENDBRANCH  85  86
ENDBRANCH  77  80
ENDBRANCH  75  76
ENDBRANCH  74  75
ENDBRANCH   1  74
TORSDOF 15
ENDMDL
MODEL 2
REMARK VINA RESULT:     -12.4      2.023      2.866
REMARK SMILES O=C(NCCCNC(=O)c1ccc(Cn2ccc3ccc(Br)cc32)nc1)c1ccc(-c2c3nc(c(-c4c(F)cc(S(=O)(=O)[O-])cc4F)c4ccc([nH]4)c(-c4c(F)cc(S(=O)(=O)[O-])cc4F)c4nc(c(-c5c(F)cc(S(=O)(=O)[O-])cc5F)c5ccc2[nH]5)C=C4)C=C3)cc1
REMARK SMILES IDX 4 1 3 2 1 3 2 4 27 6 28 7 92 8 29 9 91 10 30 11 31 12 32 13
REMARK SMILES IDX 85 14 33 15 90 16 84 17 86 18 34 19 89 20 83 21 82 22 35 24
REMARK SMILES IDX 69 25 48 26 68 27 49 28 52 29 67 30 87 31 50 32 51 33 66 35
REMARK SMILES IDX 88 36 53 37 36 38 37 39 46 40 38 41 39 42 45 43 47 44 40 45
REMARK SMILES IDX 41 46 42 47 43 48 44 49 70 50 71 51 80 52 72 53 73 54 79 55
REMARK SMILES IDX 81 56 74 57 75 58 76 59 77 60 78 61 54 62 55 63 64 64 56 65
REMARK SMILES IDX 57 66 63 67 65 68 58 69 59 70 60 71 61 72 62 73 5 74 6 75
REMARK SMILES IDX 7 76 8 77 9 79 10 80 11 81 26 82 12 83 25 84 13 85 14 86
REMARK SMILES IDX 15 87 16 88 24 89 17 90 18 91 23 92 19 93 21 94 20 95 22 96
REMARK H PARENT 3 5 86 23 52 34 7 78
REMARK Flexibility Score: inf
ROOT
ATOM      1  C   UNL A   1      37.738  23.031  25.619  1.00  0.00     0.118 C 
ENDROOT
BRANCH   1   2
ATOM      2  N   UNL A   1      38.663  22.231  26.446  1.00  0.00    -0.352 N 
ATOM      3  O   UNL A   1      40.644  21.880  27.521  1.00  0.00    -0.269 OA
ATOM      4  C   UNL A   1      39.806  22.663  27.129  1.00  0.00     0.251 C 
ATOM      5  H   UNL A   1      38.449  21.274  26.526  1.00  0.00     0.163 HD
BRANCH   4   6
ATOM      6  C   UNL A   1      39.930  24.115  27.369  1.00  0.00     0.039 A 
ATOM      7  C   UNL A   1      38.885  25.036  27.296  1.00  0.00     0.014 A 
ATOM      8  C   UNL A   1      41.164  24.502  27.842  1.00  0.00     0.014 A 
ATOM      9  C   UNL A   1      39.131  26.325  27.776  1.00  0.00     0.010 A 
ATOM     10  C   UNL A   1      41.189  25.523  28.729  1.00  0.00     0.010 A 
ATOM     11  C   UNL A   1      40.312  26.552  28.503  1.00  0.00    -0.014 A 
BRANCH  11  12
ATOM     12  C   UNL A   1      40.723  27.827  29.065  1.00  0.00     0.031 A 
ATOM     13  C   UNL A   1      41.870  28.447  28.375  1.00  0.00     0.074 A 
ATOM     14  C   UNL A   1      39.997  28.482  30.006  1.00  0.00     0.049 A 
ATOM     15  N   UNL A   1      43.092  28.481  28.781  1.00  0.00    -0.248 NA
ATOM     16  C   UNL A   1      41.684  28.909  26.993  1.00  0.00     0.031 C 
ATOM     17  C   UNL A   1      38.674  28.161  30.574  1.00  0.00     0.029 A 
ATOM     18  N   UNL A   1      40.285  29.657  30.621  1.00  0.00    -0.354 N 
ATOM     19  C   UNL A   1      43.790  29.190  27.815  1.00  0.00     0.074 A 
ATOM     20  C   UNL A   1      42.935  29.231  26.656  1.00  0.00     0.031 C 
ATOM     21  C   UNL A   1      38.190  29.219  31.262  1.00  0.00     0.029 A 
ATOM     22  C   UNL A   1      39.240  30.211  31.358  1.00  0.00     0.049 A 
ATOM     23  H   UNL A   1      41.168  30.087  30.552  1.00  0.00     0.167 HD
ATOM     24  C   UNL A   1      44.914  29.889  28.138  1.00  0.00     0.037 A 
ATOM     25  C   UNL A   1      39.255  31.398  32.014  1.00  0.00     0.037 A 
ATOM     26  C   UNL A   1      45.385  29.522  29.455  1.00  0.00     0.049 A 
ATOM     27  C   UNL A   1      40.690  31.727  32.236  1.00  0.00     0.074 A 
ATOM     28  C   UNL A   1      45.833  28.346  30.024  1.00  0.00     0.029 A 
ATOM     29  N   UNL A   1      45.023  30.333  30.507  1.00  0.00    -0.354 N 
ATOM     30  N   UNL A   1      41.481  31.020  33.002  1.00  0.00    -0.248 NA
ATOM     31  C   UNL A   1      41.358  32.526  31.221  1.00  0.00     0.031 C 
ATOM     32  C   UNL A   1      45.270  28.330  31.334  1.00  0.00     0.029 A 
ATOM     33  C   UNL A   1      44.578  29.528  31.528  1.00  0.00     0.049 A 
ATOM     34  H   UNL A   1      45.076  31.315  30.525  1.00  0.00     0.167 HD
ATOM     35  C   UNL A   1      42.687  30.955  32.313  1.00  0.00     0.074 A 
ATOM     36  C   UNL A   1      42.568  31.960  31.256  1.00  0.00     0.031 C 
ATOM     37  C   UNL A   1      43.546  29.905  32.477  1.00  0.00     0.037 A 
BRANCH  24  38
ATOM     38  C   UNL A   1      45.386  31.132  27.431  1.00  0.00     0.058 A 
ATOM     39  C   UNL A   1      46.690  31.169  26.900  1.00  0.00     0.135 A 
ATOM     40  C   UNL A   1      44.711  32.372  27.475  1.00  0.00     0.135 A 
ATOM     41  F   UNL A   1      47.425  30.048  26.813  1.00  0.00    -0.206 F 
ATOM     42  C   UNL A   1      47.304  32.359  26.510  1.00  0.00     0.059 A 
ATOM     43  C   UNL A   1      45.284  33.562  27.039  1.00  0.00     0.059 A 
ATOM     44  F   UNL A   1      43.501  32.513  28.030  1.00  0.00    -0.206 F 
ATOM     45  C   UNL A   1      46.596  33.553  26.598  1.00  0.00     0.060 A 
BRANCH  45  46
ATOM     46  S   UNL A   1      47.423  35.100  26.197  1.00  0.00     0.124 S 
ATOM     47  O   UNL A   1      48.174  34.727  25.003  1.00  0.00    -0.237 OA
ATOM     48  O   UNL A   1      46.292  35.999  25.988  1.00  0.00    -0.237 OA
ATOM     49  O   UNL A   1      48.223  35.373  27.387  1.00  0.00    -0.744 OA
ENDBRANCH  45  46
ENDBRANCH  24  38
BRANCH  25  50
ATOM     50  C   UNL A   1      38.170  32.417  32.073  1.00  0.00     0.058 A 
ATOM     51  C   UNL A   1      37.703  33.048  30.905  1.00  0.00     0.135 A 
ATOM     52  C   UNL A   1      37.367  32.574  33.223  1.00  0.00     0.135 A 
ATOM     53  F   UNL A   1      38.398  32.945  29.762  1.00  0.00    -0.206 F 
ATOM     54  C   UNL A   1      36.480  33.730  30.860  1.00  0.00     0.059 A 
ATOM     55  C   UNL A   1      36.148  33.254  33.203  1.00  0.00     0.059 A 
ATOM     56  F   UNL A   1      37.697  31.982  34.381  1.00  0.00    -0.206 F 
ATOM     57  C   UNL A   1      35.694  33.803  32.010  1.00  0.00     0.060 A 
BRANCH  57  58
ATOM     58  S   UNL A   1      34.030  34.506  31.904  1.00  0.00     0.124 S 
ATOM     59  O   UNL A   1      33.298  33.702  32.876  1.00  0.00    -0.237 OA
ATOM     60  O   UNL A   1      34.262  35.898  32.275  1.00  0.00    -0.237 OA
ATOM     61  O   UNL A   1      33.658  34.292  30.507  1.00  0.00    -0.744 OA
ENDBRANCH  57  58
ENDBRANCH  25  50
BRANCH  37  62
ATOM     62  C   UNL A   1      43.290  28.937  33.612  1.00  0.00     0.058 A 
ATOM     63  C   UNL A   1      43.670  29.154  34.950  1.00  0.00     0.135 A 
ATOM     64  C   UNL A   1      42.475  27.824  33.361  1.00  0.00     0.135 A 
ATOM     65  F   UNL A   1      44.368  30.241  35.300  1.00  0.00    -0.206 F 
ATOM     66  C   UNL A   1      43.282  28.291  35.982  1.00  0.00     0.059 A 
ATOM     67  C   UNL A   1      42.052  26.966  34.375  1.00  0.00     0.059 A 
ATOM     68  F   UNL A   1      42.027  27.590  32.117  1.00  0.00    -0.206 F 
ATOM     69  C   UNL A   1      42.467  27.200  35.683  1.00  0.00     0.060 A 
BRANCH  69  70
ATOM     70  S   UNL A   1      41.905  26.126  37.023  1.00  0.00     0.124 S 
ATOM     71  O   UNL A   1      41.881  24.816  36.380  1.00  0.00    -0.237 OA
ATOM     72  O   UNL A   1      42.940  26.314  38.036  1.00  0.00    -0.237 OA
ATOM     73  O   UNL A   1      40.597  26.672  37.375  1.00  0.00    -0.744 OA
ENDBRANCH  69  70
ENDBRANCH  37  62
ENDBRANCH  11  12
ENDBRANCH   4   6
ENDBRANCH   1   2
BRANCH   1  74
ATOM     74  C   UNL A   1      36.617  22.238  24.989  1.00  0.00     0.042 C 
BRANCH  74  75
ATOM     75  C   UNL A   1      35.401  22.128  25.907  1.00  0.00     0.118 C 
BRANCH  75  76
ATOM     76  N   UNL A   1      34.682  20.863  25.795  1.00  0.00    -0.352 N 
ATOM     77  C   UNL A   1      33.328  20.632  25.775  1.00  0.00     0.252 C 
ATOM     78  H   UNL A   1      35.248  20.060  25.724  1.00  0.00     0.163 HD
ATOM     79  O   UNL A   1      32.875  19.494  25.758  1.00  0.00    -0.269 OA
BRANCH  77  80
ATOM     80  C   UNL A   1      32.416  21.775  25.805  1.00  0.00     0.058 A 
ATOM     81  C   UNL A   1      31.849  22.304  24.645  1.00  0.00     0.017 A 
ATOM     82  C   UNL A   1      32.148  22.379  27.015  1.00  0.00     0.125 A 
ATOM     83  C   UNL A   1      31.079  23.459  24.732  1.00  0.00     0.026 A 
ATOM     84  N   UNL A   1      31.433  23.520  27.114  1.00  0.00    -0.259 NA
ATOM     85  C   UNL A   1      30.885  24.038  25.984  1.00  0.00     0.060 A 
BRANCH  85  86
ATOM     86  C   UNL A   1      29.990  25.240  26.151  1.00  0.00     0.178 C 
BRANCH  86  87
ATOM     87  N   UNL A   1      30.225  26.211  25.087  1.00  0.00    -0.341 N 
ATOM     88  C   UNL A   1      29.445  26.337  23.963  1.00  0.00     0.087 A 
ATOM     89  C   UNL A   1      31.234  27.157  25.070  1.00  0.00     0.049 A 
ATOM     90  C   UNL A   1      29.923  27.405  23.236  1.00  0.00     0.028 A 
ATOM     91  C   UNL A   1      31.035  27.947  23.936  1.00  0.00    -0.000 A 
ATOM     92  C   UNL A   1      32.278  27.416  25.978  1.00  0.00     0.042 A 
ATOM     93  C   UNL A   1      31.889  29.047  23.712  1.00  0.00     0.011 A 
ATOM     94  C   UNL A   1      33.086  28.529  25.749  1.00  0.00     0.020 A 
ATOM     95  C   UNL A   1      32.901  29.339  24.635  1.00  0.00     0.016 A 
ATOM     96  Br  UNL A   1      34.441  28.954  27.002  1.00  0.00    -0.051 Br
ENDBRANCH  86  87
ENDBRANCH  85  86
ENDBRANCH  77  80
ENDBRANCH  75  76
ENDBRANCH  74  75
ENDBRANCH   1  74
TORSDOF 15
ENDMDL
MODEL 3
REMARK VINA RESULT:     -12.3      3.804      6.657
REMARK SMILES O=C(NCCCNC(=O)c1ccc(Cn2ccc3ccc(Br)cc32)nc1)c1ccc(-c2c3nc(c(-c4c(F)cc(S(=O)(=O)[O-])cc4F)c4ccc([nH]4)c(-c4c(F)cc(S(=O)(=O)[O-])cc4F)c4nc(c(-c5c(F)cc(S(=O)(=O)[O-])cc5F)c5ccc2[nH]5)C=C4)C=C3)cc1
REMARK SMILES IDX 4 1 3 2 1 3 2 4 27 6 28 7 92 8 29 9 91 10 30 11 31 12 32 13
REMARK SMILES IDX 85 14 33 15 90 16 84 17 86 18 34 19 89 20 83 21 82 22 35 24
REMARK SMILES IDX 69 25 48 26 68 27 49 28 52 29 67 30 87 31 50 32 51 33 66 35
REMARK SMILES IDX 88 36 53 37 36 38 37 39 46 40 38 41 39 42 45 43 47 44 40 45
REMARK SMILES IDX 41 46 42 47 43 48 44 49 70 50 71 51 80 52 72 53 73 54 79 55
REMARK SMILES IDX 81 56 74 57 75 58 76 59 77 60 78 61 54 62 55 63 64 64 56 65
REMARK SMILES IDX 57 66 63 67 65 68 58 69 59 70 60 71 61 72 62 73 5 74 6 75
REMARK SMILES IDX 7 76 8 77 9 79 10 80 11 81 26 82 12 83 25 84 13 85 14 86
REMARK SMILES IDX 15 87 16 88 24 89 17 90 18 91 23 92 19 93 21 94 20 95 22 96
REMARK H PARENT 3 5 86 23 52 34 7 78
REMARK Flexibility Score: inf
ROOT
ATOM      1  C   UNL A   1      43.162  23.270  24.670  1.00  0.00     0.118 C 
ENDROOT
BRANCH   1   2
ATOM      2  N   UNL A   1      42.342  22.414  25.550  1.00  0.00    -0.352 N 
ATOM      3  O   UNL A   1      41.318  21.920  27.528  1.00  0.00    -0.269 OA
ATOM      4  C   UNL A   1      41.704  22.762  26.746  1.00  0.00     0.251 C 
ATOM      5  H   UNL A   1      42.231  21.480  25.259  1.00  0.00     0.163 HD
BRANCH   4   6
ATOM      6  C   UNL A   1      41.506  24.204  27.000  1.00  0.00     0.039 A 
ATOM      7  C   UNL A   1      40.404  24.951  26.583  1.00  0.00     0.014 A 
ATOM      8  C   UNL A   1      42.443  24.759  27.843  1.00  0.00     0.014 A 
ATOM      9  C   UNL A   1      40.269  26.240  27.106  1.00  0.00     0.010 A 
ATOM     10  C   UNL A   1      42.015  25.731  28.681  1.00  0.00     0.010 A 
ATOM     11  C   UNL A   1      41.100  26.618  28.173  1.00  0.00    -0.014 A 
BRANCH  11  12
ATOM     12  C   UNL A   1      41.096  27.916  28.826  1.00  0.00     0.031 A 
ATOM     13  C   UNL A   1      42.122  28.847  28.323  1.00  0.00     0.074 A 
ATOM     14  C   UNL A   1      40.112  28.304  29.677  1.00  0.00     0.049 A 
ATOM     15  N   UNL A   1      43.233  29.159  28.895  1.00  0.00    -0.248 NA
ATOM     16  C   UNL A   1      42.000  29.338  26.943  1.00  0.00     0.031 C 
ATOM     17  C   UNL A   1      38.855  27.626  30.045  1.00  0.00     0.029 A 
ATOM     18  N   UNL A   1      40.008  29.472  30.363  1.00  0.00    -0.354 N 
ATOM     19  C   UNL A   1      43.841  30.083  28.058  1.00  0.00     0.074 A 
ATOM     20  C   UNL A   1      43.158  29.984  26.794  1.00  0.00     0.031 C 
ATOM     21  C   UNL A   1      38.033  28.482  30.691  1.00  0.00     0.029 A 
ATOM     22  C   UNL A   1      38.771  29.696  30.963  1.00  0.00     0.049 A 
ATOM     23  H   UNL A   1      40.752  30.113  30.430  1.00  0.00     0.167 HD
ATOM     24  C   UNL A   1      44.698  31.018  28.556  1.00  0.00     0.037 A 
ATOM     25  C   UNL A   1      38.397  30.804  31.652  1.00  0.00     0.037 A 
ATOM     26  C   UNL A   1      45.076  30.696  29.914  1.00  0.00     0.049 A 
ATOM     27  C   UNL A   1      39.659  31.466  32.082  1.00  0.00     0.074 A 
ATOM     28  C   UNL A   1      45.736  29.635  30.503  1.00  0.00     0.029 A 
ATOM     29  N   UNL A   1      44.388  31.319  30.930  1.00  0.00    -0.354 N 
ATOM     30  N   UNL A   1      40.502  30.932  32.927  1.00  0.00    -0.248 NA
ATOM     31  C   UNL A   1      40.222  32.472  31.195  1.00  0.00     0.031 C 
ATOM     32  C   UNL A   1      45.035  29.392  31.721  1.00  0.00     0.029 A 
ATOM     33  C   UNL A   1      44.039  30.363  31.853  1.00  0.00     0.049 A 
ATOM     34  H   UNL A   1      44.184  32.280  30.986  1.00  0.00     0.167 HD
ATOM     35  C   UNL A   1      41.761  31.216  32.412  1.00  0.00     0.074 A 
ATOM     36  C   UNL A   1      41.523  32.226  31.380  1.00  0.00     0.031 C 
ATOM     37  C   UNL A   1      42.834  30.407  32.661  1.00  0.00     0.037 A 
BRANCH  24  38
ATOM     38  C   UNL A   1      44.919  32.384  27.960  1.00  0.00     0.058 A 
ATOM     39  C   UNL A   1      46.175  32.696  27.404  1.00  0.00     0.135 A 
ATOM     40  C   UNL A   1      44.044  33.478  28.141  1.00  0.00     0.135 A 
ATOM     41  F   UNL A   1      47.087  31.733  27.191  1.00  0.00    -0.206 F 
ATOM     42  C   UNL A   1      46.559  34.005  27.115  1.00  0.00     0.059 A 
ATOM     43  C   UNL A   1      44.386  34.783  27.807  1.00  0.00     0.059 A 
ATOM     44  F   UNL A   1      42.852  33.353  28.736  1.00  0.00    -0.206 F 
ATOM     45  C   UNL A   1      45.660  35.044  27.335  1.00  0.00     0.060 A 
BRANCH  45  46
ATOM     46  S   UNL A   1      46.192  36.742  27.064  1.00  0.00     0.124 S 
ATOM     47  O   UNL A   1      44.913  37.439  26.993  1.00  0.00    -0.237 OA
ATOM     48  O   UNL A   1      46.997  36.997  28.254  1.00  0.00    -0.237 OA
ATOM     49  O   UNL A   1      46.939  36.665  25.812  1.00  0.00    -0.744 OA
ENDBRANCH  45  46
ENDBRANCH  24  38
BRANCH  25  50
ATOM     50  C   UNL A   1      37.088  31.512  31.591  1.00  0.00     0.058 A 
ATOM     51  C   UNL A   1      36.370  31.812  32.763  1.00  0.00     0.135 A 
ATOM     52  C   UNL A   1      36.661  32.173  30.419  1.00  0.00     0.135 A 
ATOM     53  F   UNL A   1      36.712  31.237  33.926  1.00  0.00    -0.206 F 
ATOM     54  C   UNL A   1      35.340  32.761  32.789  1.00  0.00     0.059 A 
ATOM     55  C   UNL A   1      35.634  33.118  30.419  1.00  0.00     0.059 A 
ATOM     56  F   UNL A   1      37.299  31.991  29.253  1.00  0.00    -0.206 F 
ATOM     57  C   UNL A   1      34.998  33.431  31.615  1.00  0.00     0.060 A 
BRANCH  57  58
ATOM     58  S   UNL A   1      33.811  34.796  31.686  1.00  0.00     0.124 S 
ATOM     59  O   UNL A   1      33.246  34.778  30.341  1.00  0.00    -0.237 OA
ATOM     60  O   UNL A   1      32.918  34.368  32.757  1.00  0.00    -0.237 OA
ATOM     61  O   UNL A   1      34.643  35.955  32.000  1.00  0.00    -0.744 OA
ENDBRANCH  57  58
ENDBRANCH  25  50
BRANCH  37  62
ATOM     62  C   UNL A   1      42.693  29.333  33.719  1.00  0.00     0.058 A 
ATOM     63  C   UNL A   1      42.864  29.544  35.100  1.00  0.00     0.135 A 
ATOM     64  C   UNL A   1      42.197  28.080  33.328  1.00  0.00     0.135 A 
ATOM     65  F   UNL A   1      43.242  30.737  35.574  1.00  0.00    -0.206 F 
ATOM     66  C   UNL A   1      42.583  28.548  36.044  1.00  0.00     0.059 A 
ATOM     67  C   UNL A   1      41.883  27.084  34.251  1.00  0.00     0.059 A 
ATOM     68  F   UNL A   1      41.954  27.832  32.031  1.00  0.00    -0.206 F 
ATOM     69  C   UNL A   1      42.087  27.321  35.607  1.00  0.00     0.060 A 
BRANCH  69  70
ATOM     70  S   UNL A   1      41.655  26.059  36.827  1.00  0.00     0.124 S 
ATOM     71  O   UNL A   1      41.279  24.929  35.985  1.00  0.00    -0.237 OA
ATOM     72  O   UNL A   1      42.899  25.904  37.577  1.00  0.00    -0.237 OA
ATOM     73  O   UNL A   1      40.559  26.670  37.577  1.00  0.00    -0.744 OA
ENDBRANCH  69  70
ENDBRANCH  37  62
ENDBRANCH  11  12
ENDBRANCH   4   6
ENDBRANCH   1   2
BRANCH   1  74
ATOM     74  C   UNL A   1      44.360  22.578  24.063  1.00  0.00     0.042 C 
BRANCH  74  75
ATOM     75  C   UNL A   1      45.632  22.807  24.877  1.00  0.00     0.118 C 
BRANCH  75  76
ATOM     76  N   UNL A   1      46.583  23.721  24.253  1.00  0.00    -0.352 N 
ATOM     77  C   UNL A   1      47.159  24.859  24.765  1.00  0.00     0.252 C 
ATOM     78  H   UNL A   1      46.851  23.490  23.335  1.00  0.00     0.163 HD
ATOM     79  O   UNL A   1      47.884  25.571  24.081  1.00  0.00    -0.269 OA
BRANCH  77  80
ATOM     80  C   UNL A   1      46.870  25.235  26.150  1.00  0.00     0.058 A 
ATOM     81  C   UNL A   1      45.853  26.131  26.479  1.00  0.00     0.017 A 
ATOM     82  C   UNL A   1      47.662  24.723  27.155  1.00  0.00     0.125 A 
ATOM     83  C   UNL A   1      45.704  26.531  27.803  1.00  0.00     0.026 A 
ATOM     84  N   UNL A   1      47.555  25.127  28.440  1.00  0.00    -0.259 NA
ATOM     85  C   UNL A   1      46.568  26.004  28.760  1.00  0.00     0.060 A 
BRANCH  85  86
ATOM     86  C   UNL A   1      46.401  26.334  30.222  1.00  0.00     0.178 C 
BRANCH  86  87
ATOM     87  N   UNL A   1      45.527  25.363  30.873  1.00  0.00    -0.341 N 
ATOM     88  C   UNL A   1      44.871  24.347  30.222  1.00  0.00     0.087 A 
ATOM     89  C   UNL A   1      45.263  25.302  32.230  1.00  0.00     0.049 A 
ATOM     90  C   UNL A   1      44.215  23.593  31.170  1.00  0.00     0.028 A 
ATOM     91  C   UNL A   1      44.475  24.169  32.443  1.00  0.00    -0.000 A 
ATOM     92  C   UNL A   1      45.686  26.120  33.294  1.00  0.00     0.042 A 
ATOM     93  C   UNL A   1      44.118  23.825  33.762  1.00  0.00     0.011 A 
ATOM     94  C   UNL A   1      45.346  25.736  34.591  1.00  0.00     0.020 A 
ATOM     95  C   UNL A   1      44.574  24.606  34.831  1.00  0.00     0.016 A 
ATOM     96  Br  UNL A   1      45.978  26.767  36.049  1.00  0.00    -0.051 Br
ENDBRANCH  86  87
ENDBRANCH  85  86
ENDBRANCH  77  80
ENDBRANCH  75  76
ENDBRANCH  74  75
ENDBRANCH   1  74
TORSDOF 15
ENDMDL
