MODEL 1
REMARK VINA RESULT:     -13.3      0.000      0.000
REMARK SMILES CC(=O)Nc1cc(NC(C)=O)cc(C(=O)Nc2ccc(Br)cc2C(=O)NCCCNC(=O)c2ccc(-c3c4nc(c(-c5c(F)cc(S(=O)(=O)[O-])cc5F)c5ccc([nH]5)c(-c5c(F)cc(S(=O)(=O)[O-])cc5F)c5nc(c(-c6c(F)cc(S(=O)(=O)[O-])cc6F)c6ccc3[nH]6)C=C5)C=C4)cc2)c1
REMARK SMILES IDX 28 1 27 2 26 3 24 4 25 5 23 7 17 8 18 9 19 10 22 11 20 12
REMARK SMILES IDX 21 13 16 14 14 15 15 16 13 18 5 19 6 20 99 21 7 22 12 23
REMARK SMILES IDX 4 24 1 25 2 26 3 27 8 29 9 30 10 32 11 33 29 34 30 35 31 36
REMARK SMILES IDX 32 38 33 39 34 40 98 41 35 42 97 43 36 44 37 45 38 46 91 47
REMARK SMILES IDX 39 48 96 49 90 50 92 51 40 52 95 53 89 54 88 55 41 57 75 58
REMARK SMILES IDX 54 59 74 60 55 61 58 62 73 63 93 64 56 65 57 66 72 68 94 69
REMARK SMILES IDX 59 70 42 71 43 72 52 73 44 74 45 75 51 76 53 77 46 78 47 79
REMARK SMILES IDX 48 80 49 81 50 82 76 83 77 84 86 85 78 86 79 87 85 88 87 89
REMARK SMILES IDX 80 90 81 91 82 92 83 93 84 94 60 95 61 96 70 97 62 98 63 99
REMARK SMILES IDX 69 100 71 101 64 102 65 103 66 104 67 105 68 106
REMARK H PARENT 26 6 16 17 4 28 8 31 30 37 92 56 58 67
REMARK Flexibility Score: inf
ROOT
ATOM      1  C   UNL A   1      38.389  22.270  25.820  1.00  0.00     0.042 C 
ENDROOT
BRANCH   1   2
ATOM      2  C   UNL A   1      37.210  22.765  25.007  1.00  0.00     0.118 C 
BRANCH   2   3
ATOM      3  N   UNL A   1      36.238  23.513  25.783  1.00  0.00    -0.352 N 
ATOM      4  C   UNL A   1      34.872  23.462  25.758  1.00  0.00     0.253 C 
ATOM      5  O   UNL A   1      34.240  24.217  26.496  1.00  0.00    -0.269 OA
ATOM      6  H   UNL A   1      36.621  24.155  26.424  1.00  0.00     0.163 HD
BRANCH   4   7
ATOM      7  C   UNL A   1      34.136  22.590  24.808  1.00  0.00     0.064 A 
ATOM      8  C   UNL A   1      33.641  22.952  23.539  1.00  0.00     0.054 A 
ATOM      9  C   UNL A   1      32.760  22.069  22.892  1.00  0.00     0.028 A 
ATOM     10  C   UNL A   1      32.507  20.795  23.406  1.00  0.00     0.018 A 
ATOM     11  C   UNL A   1      33.905  21.290  25.301  1.00  0.00     0.031 A 
ATOM     12  C   UNL A   1      33.115  20.396  24.589  1.00  0.00     0.018 A 
ATOM     13  Br  UNL A   1      32.864  18.638  25.232  1.00  0.00    -0.051 Br
BRANCH   8  14
ATOM     14  N   UNL A   1      33.973  24.100  22.779  1.00  0.00    -0.321 N 
ATOM     15  C   UNL A   1      33.407  25.359  22.705  1.00  0.00     0.255 C 
ATOM     16  O   UNL A   1      33.725  26.115  21.790  1.00  0.00    -0.269 OA
ATOM     17  H   UNL A   1      34.753  23.978  22.190  1.00  0.00     0.170 HD
BRANCH  15  18
ATOM     18  C   UNL A   1      32.480  25.856  23.743  1.00  0.00     0.044 A 
ATOM     19  C   UNL A   1      31.758  27.650  25.185  1.00  0.00     0.044 A 
ATOM     20  C   UNL A   1      30.920  26.737  25.847  1.00  0.00     0.052 A 
ATOM     21  C   UNL A   1      32.477  27.209  24.086  1.00  0.00     0.040 A 
ATOM     22  C   UNL A   1      30.800  25.406  25.421  1.00  0.00     0.044 A 
ATOM     23  C   UNL A   1      31.609  24.961  24.374  1.00  0.00     0.040 A 
BRANCH  19  24
ATOM     24  N   UNL A   1      31.895  28.931  25.752  1.00  0.00    -0.326 N 
ATOM     25  C   UNL A   1      33.990  28.750  27.112  1.00  0.00     0.114 C 
ATOM     26  C   UNL A   1      32.736  29.460  26.686  1.00  0.00     0.221 C 
ATOM     27  O   UNL A   1      32.470  30.569  27.160  1.00  0.00    -0.275 OA
ATOM     28  H   UNL A   1      31.245  29.582  25.401  1.00  0.00     0.169 HD
ENDBRANCH  19  24
BRANCH  22  29
ATOM     29  N   UNL A   1      29.916  24.468  25.999  1.00  0.00    -0.326 N 
ATOM     30  C   UNL A   1      30.232  23.463  26.894  1.00  0.00     0.221 C 
ATOM     31  H   UNL A   1      28.970  24.539  25.736  1.00  0.00     0.169 HD
ATOM     32  C   UNL A   1      29.034  22.659  27.335  1.00  0.00     0.114 C 
ATOM     33  O   UNL A   1      31.343  23.211  27.350  1.00  0.00    -0.275 OA
ENDBRANCH  22  29
ENDBRANCH  15  18
ENDBRANCH   8  14
ENDBRANCH   4   7
ENDBRANCH   2   3
ENDBRANCH   1   2
BRANCH   1  34
ATOM     34  C   UNL A   1      39.131  23.362  26.577  1.00  0.00     0.118 C 
BRANCH  34  35
ATOM     35  N   UNL A   1      40.520  23.561  26.165  1.00  0.00    -0.352 N 
ATOM     36  C   UNL A   1      41.433  24.539  26.482  1.00  0.00     0.251 C 
ATOM     37  H   UNL A   1      40.863  22.870  25.552  1.00  0.00     0.163 HD
ATOM     38  O   UNL A   1      42.564  24.496  26.002  1.00  0.00    -0.269 OA
BRANCH  36  39
ATOM     39  C   UNL A   1      41.041  25.675  27.343  1.00  0.00     0.039 A 
ATOM     40  C   UNL A   1      40.046  25.489  28.307  1.00  0.00     0.014 A 
ATOM     41  C   UNL A   1      41.697  26.900  27.253  1.00  0.00     0.014 A 
ATOM     42  C   UNL A   1      39.814  26.481  29.263  1.00  0.00     0.010 A 
ATOM     43  C   UNL A   1      41.569  27.819  28.284  1.00  0.00     0.010 A 
ATOM     44  C   UNL A   1      40.631  27.623  29.307  1.00  0.00    -0.014 A 
BRANCH  44  45
ATOM     45  C   UNL A   1      40.541  28.626  30.403  1.00  0.00     0.031 A 
ATOM     46  C   UNL A   1      41.431  28.492  31.612  1.00  0.00     0.074 A 
ATOM     47  C   UNL A   1      39.585  29.578  30.372  1.00  0.00     0.049 A 
ATOM     48  N   UNL A   1      41.380  29.131  32.752  1.00  0.00    -0.248 NA
ATOM     49  C   UNL A   1      42.478  27.459  31.553  1.00  0.00     0.031 C 
ATOM     50  C   UNL A   1      38.606  29.772  29.298  1.00  0.00     0.029 A 
ATOM     51  N   UNL A   1      39.265  30.556  31.282  1.00  0.00    -0.354 N 
ATOM     52  C   UNL A   1      42.347  28.540  33.558  1.00  0.00     0.074 A 
ATOM     53  C   UNL A   1      42.929  27.457  32.798  1.00  0.00     0.031 C 
ATOM     54  C   UNL A   1      37.824  30.822  29.593  1.00  0.00     0.029 A 
ATOM     55  C   UNL A   1      38.211  31.351  30.896  1.00  0.00     0.049 A 
ATOM     56  H   UNL A   1      39.747  30.676  32.132  1.00  0.00     0.167 HD
ATOM     57  C   UNL A   1      42.738  28.887  34.808  1.00  0.00     0.037 A 
ATOM     58  C   UNL A   1      37.620  32.387  31.523  1.00  0.00     0.037 A 
ATOM     59  C   UNL A   1      42.219  30.020  35.523  1.00  0.00     0.049 A 
ATOM     60  C   UNL A   1      38.131  32.810  32.873  1.00  0.00     0.074 A 
ATOM     61  C   UNL A   1      42.611  30.516  36.754  1.00  0.00     0.029 A 
ATOM     62  N   UNL A   1      41.208  30.849  35.060  1.00  0.00    -0.354 N 
ATOM     63  N   UNL A   1      39.080  32.269  33.600  1.00  0.00    -0.248 NA
ATOM     64  C   UNL A   1      37.495  33.983  33.487  1.00  0.00     0.031 C 
ATOM     65  C   UNL A   1      41.825  31.637  37.042  1.00  0.00     0.029 A 
ATOM     66  C   UNL A   1      40.964  31.856  35.978  1.00  0.00     0.049 A 
ATOM     67  H   UNL A   1      40.735  30.739  34.204  1.00  0.00     0.167 HD
ATOM     68  C   UNL A   1      39.172  33.051  34.745  1.00  0.00     0.074 A 
ATOM     69  C   UNL A   1      38.190  34.107  34.610  1.00  0.00     0.031 C 
ATOM     70  C   UNL A   1      39.994  32.907  35.813  1.00  0.00     0.037 A 
BRANCH  57  71
ATOM     71  C   UNL A   1      43.799  28.045  35.460  1.00  0.00     0.058 A 
ATOM     72  C   UNL A   1      43.476  26.902  36.209  1.00  0.00     0.135 A 
ATOM     73  C   UNL A   1      45.158  28.378  35.330  1.00  0.00     0.135 A 
ATOM     74  F   UNL A   1      42.192  26.548  36.380  1.00  0.00    -0.206 F 
ATOM     75  C   UNL A   1      44.454  26.146  36.844  1.00  0.00     0.059 A 
ATOM     76  C   UNL A   1      46.157  27.618  35.931  1.00  0.00     0.059 A 
ATOM     77  F   UNL A   1      45.524  29.459  34.624  1.00  0.00    -0.206 F 
ATOM     78  C   UNL A   1      45.793  26.516  36.704  1.00  0.00     0.060 A 
BRANCH  78  79
ATOM     79  S   UNL A   1      47.052  25.532  37.543  1.00  0.00     0.124 S 
ATOM     80  O   UNL A   1      46.236  24.741  38.460  1.00  0.00    -0.237 OA
ATOM     81  O   UNL A   1      47.661  24.793  36.442  1.00  0.00    -0.237 OA
ATOM     82  O   UNL A   1      47.906  26.537  38.168  1.00  0.00    -0.744 OA
ENDBRANCH  78  79
ENDBRANCH  57  71
BRANCH  58  83
ATOM     83  C   UNL A   1      36.511  33.123  30.863  1.00  0.00     0.058 A 
ATOM     84  C   UNL A   1      35.188  32.967  31.303  1.00  0.00     0.135 A 
ATOM     85  C   UNL A   1      36.745  34.006  29.798  1.00  0.00     0.135 A 
ATOM     86  F   UNL A   1      34.914  32.131  32.316  1.00  0.00    -0.206 F 
ATOM     87  C   UNL A   1      34.133  33.647  30.703  1.00  0.00     0.059 A 
ATOM     88  C   UNL A   1      35.709  34.713  29.193  1.00  0.00     0.059 A 
ATOM     89  F   UNL A   1      37.995  34.206  29.353  1.00  0.00    -0.206 F 
ATOM     90  C   UNL A   1      34.404  34.519  29.648  1.00  0.00     0.060 A 
BRANCH  90  91
ATOM     91  S   UNL A   1      33.036  35.437  28.908  1.00  0.00     0.124 S 
ATOM     92  O   UNL A   1      33.745  36.478  28.173  1.00  0.00    -0.237 OA
ATOM     93  O   UNL A   1      32.380  34.416  28.098  1.00  0.00    -0.237 OA
ATOM     94  O   UNL A   1      32.273  35.890  30.068  1.00  0.00    -0.744 OA
ENDBRANCH  90  91
ENDBRANCH  58  83
BRANCH  70  95
ATOM     95  C   UNL A   1      39.893  33.934  36.902  1.00  0.00     0.058 A 
ATOM     96  C   UNL A   1      40.609  35.139  36.843  1.00  0.00     0.135 A 
ATOM     97  C   UNL A   1      39.022  33.736  37.986  1.00  0.00     0.135 A 
ATOM     98  F   UNL A   1      41.458  35.370  35.830  1.00  0.00    -0.206 F 
ATOM     99  C   UNL A   1      40.477  36.108  37.832  1.00  0.00     0.059 A 
ATOM    100  C   UNL A   1      38.858  34.700  38.973  1.00  0.00     0.059 A 
ATOM    101  F   UNL A   1      38.308  32.603  38.081  1.00  0.00    -0.206 F 
ATOM    102  C   UNL A   1      39.598  35.880  38.892  1.00  0.00     0.060 A 
BRANCH 102 103
ATOM    103  S   UNL A   1      39.401  37.162  40.147  1.00  0.00     0.124 S 
ATOM    104  O   UNL A   1      40.790  37.504  40.436  1.00  0.00    -0.237 OA
ATOM    105  O   UNL A   1      38.633  38.181  39.438  1.00  0.00    -0.237 OA
ATOM    106  O   UNL A   1      38.684  36.479  41.219  1.00  0.00    -0.744 OA
ENDBRANCH 102 103
ENDBRANCH  70  95
ENDBRANCH  44  45
ENDBRANCH  36  39
ENDBRANCH  34  35
ENDBRANCH   1  34
TORSDOF 17
ENDMDL
MODEL 2
REMARK VINA RESULT:     -13.2      1.032      2.354
REMARK SMILES CC(=O)Nc1cc(NC(C)=O)cc(C(=O)Nc2ccc(Br)cc2C(=O)NCCCNC(=O)c2ccc(-c3c4nc(c(-c5c(F)cc(S(=O)(=O)[O-])cc5F)c5ccc([nH]5)c(-c5c(F)cc(S(=O)(=O)[O-])cc5F)c5nc(c(-c6c(F)cc(S(=O)(=O)[O-])cc6F)c6ccc3[nH]6)C=C5)C=C4)cc2)c1
REMARK SMILES IDX 28 1 27 2 26 3 24 4 25 5 23 7 17 8 18 9 19 10 22 11 20 12
REMARK SMILES IDX 21 13 16 14 14 15 15 16 13 18 5 19 6 20 99 21 7 22 12 23
REMARK SMILES IDX 4 24 1 25 2 26 3 27 8 29 9 30 10 32 11 33 29 34 30 35 31 36
REMARK SMILES IDX 32 38 33 39 34 40 98 41 35 42 97 43 36 44 37 45 38 46 91 47
REMARK SMILES IDX 39 48 96 49 90 50 92 51 40 52 95 53 89 54 88 55 41 57 75 58
REMARK SMILES IDX 54 59 74 60 55 61 58 62 73 63 93 64 56 65 57 66 72 68 94 69
REMARK SMILES IDX 59 70 42 71 43 72 52 73 44 74 45 75 51 76 53 77 46 78 47 79
REMARK SMILES IDX 48 80 49 81 50 82 76 83 77 84 86 85 78 86 79 87 85 88 87 89
REMARK SMILES IDX 80 90 81 91 82 92 83 93 84 94 60 95 61 96 70 97 62 98 63 99
REMARK SMILES IDX 69 100 71 101 64 102 65 103 66 104 67 105 68 106
REMARK H PARENT 26 6 16 17 4 28 8 31 30 37 92 56 58 67
REMARK Flexibility Score: inf
ROOT
ATOM      1  C   UNL A   1      38.408  22.216  25.706  1.00  0.00     0.042 C 
ENDROOT
BRANCH   1   2
ATOM      2  C   UNL A   1      37.120  22.710  25.081  1.00  0.00     0.118 C 
BRANCH   2   3
ATOM      3  N   UNL A   1      36.110  23.096  26.051  1.00  0.00    -0.352 N 
ATOM      4  C   UNL A   1      34.758  22.895  26.032  1.00  0.00     0.253 C 
ATOM      5  O   UNL A   1      34.084  23.337  26.962  1.00  0.00    -0.269 OA
ATOM      6  H   UNL A   1      36.452  23.574  26.841  1.00  0.00     0.163 HD
BRANCH   4   7
ATOM      7  C   UNL A   1      34.076  22.241  24.887  1.00  0.00     0.064 A 
ATOM      8  C   UNL A   1      33.742  22.835  23.653  1.00  0.00     0.054 A 
ATOM      9  C   UNL A   1      32.882  22.134  22.789  1.00  0.00     0.028 A 
ATOM     10  C   UNL A   1      32.500  20.818  23.061  1.00  0.00     0.018 A 
ATOM     11  C   UNL A   1      33.716  20.902  25.136  1.00  0.00     0.031 A 
ATOM     12  C   UNL A   1      32.954  20.193  24.216  1.00  0.00     0.018 A 
ATOM     13  Br  UNL A   1      32.531  18.381  24.536  1.00  0.00    -0.051 Br
BRANCH   8  14
ATOM     14  N   UNL A   1      34.220  24.059  23.126  1.00  0.00    -0.321 N 
ATOM     15  C   UNL A   1      33.618  25.290  22.946  1.00  0.00     0.255 C 
ATOM     16  O   UNL A   1      34.166  26.137  22.244  1.00  0.00    -0.269 OA
ATOM     17  H   UNL A   1      35.159  24.027  22.830  1.00  0.00     0.170 HD
BRANCH  15  18
ATOM     18  C   UNL A   1      32.363  25.649  23.637  1.00  0.00     0.044 A 
ATOM     19  C   UNL A   1      30.834  25.291  25.469  1.00  0.00     0.044 A 
ATOM     20  C   UNL A   1      29.911  26.129  24.820  1.00  0.00     0.052 A 
ATOM     21  C   UNL A   1      32.085  25.120  24.899  1.00  0.00     0.040 A 
ATOM     22  C   UNL A   1      30.231  26.786  23.623  1.00  0.00     0.044 A 
ATOM     23  C   UNL A   1      31.461  26.520  23.018  1.00  0.00     0.040 A 
BRANCH  19  24
ATOM     24  N   UNL A   1      30.384  24.591  26.604  1.00  0.00    -0.326 N 
ATOM     25  C   UNL A   1      30.572  22.188  25.925  1.00  0.00     0.114 C 
ATOM     26  C   UNL A   1      30.112  23.278  26.852  1.00  0.00     0.221 C 
ATOM     27  O   UNL A   1      29.506  22.985  27.887  1.00  0.00    -0.275 OA
ATOM     28  H   UNL A   1      30.232  25.173  27.383  1.00  0.00     0.169 HD
ENDBRANCH  19  24
BRANCH  22  29
ATOM     29  N   UNL A   1      29.373  27.700  22.971  1.00  0.00    -0.326 N 
ATOM     30  C   UNL A   1      29.332  29.072  23.137  1.00  0.00     0.221 C 
ATOM     31  H   UNL A   1      28.734  27.317  22.327  1.00  0.00     0.169 HD
ATOM     32  C   UNL A   1      28.310  29.748  22.256  1.00  0.00     0.114 C 
ATOM     33  O   UNL A   1      30.042  29.742  23.880  1.00  0.00    -0.275 OA
ENDBRANCH  22  29
ENDBRANCH  15  18
ENDBRANCH   8  14
ENDBRANCH   4   7
ENDBRANCH   2   3
ENDBRANCH   1   2
BRANCH   1  34
ATOM     34  C   UNL A   1      39.171  23.276  26.489  1.00  0.00     0.118 C 
BRANCH  34  35
ATOM     35  N   UNL A   1      40.582  23.407  26.132  1.00  0.00    -0.352 N 
ATOM     36  C   UNL A   1      41.527  24.345  26.480  1.00  0.00     0.251 C 
ATOM     37  H   UNL A   1      40.917  22.697  25.538  1.00  0.00     0.163 HD
ATOM     38  O   UNL A   1      42.672  24.246  26.047  1.00  0.00    -0.269 OA
BRANCH  36  39
ATOM     39  C   UNL A   1      41.154  25.505  27.317  1.00  0.00     0.039 A 
ATOM     40  C   UNL A   1      40.172  25.348  28.301  1.00  0.00     0.014 A 
ATOM     41  C   UNL A   1      41.814  26.723  27.186  1.00  0.00     0.014 A 
ATOM     42  C   UNL A   1      39.960  26.366  29.234  1.00  0.00     0.010 A 
ATOM     43  C   UNL A   1      41.706  27.669  28.195  1.00  0.00     0.010 A 
ATOM     44  C   UNL A   1      40.783  27.504  29.237  1.00  0.00    -0.014 A 
BRANCH  44  45
ATOM     45  C   UNL A   1      40.714  28.535  30.308  1.00  0.00     0.031 A 
ATOM     46  C   UNL A   1      41.645  28.446  31.490  1.00  0.00     0.074 A 
ATOM     47  C   UNL A   1      39.744  29.473  30.283  1.00  0.00     0.049 A 
ATOM     48  N   UNL A   1      41.623  29.115  32.614  1.00  0.00    -0.248 NA
ATOM     49  C   UNL A   1      42.706  27.426  31.423  1.00  0.00     0.031 C 
ATOM     50  C   UNL A   1      38.727  29.624  29.238  1.00  0.00     0.029 A 
ATOM     51  N   UNL A   1      39.440  30.470  31.177  1.00  0.00    -0.354 N 
ATOM     52  C   UNL A   1      42.625  28.560  33.402  1.00  0.00     0.074 A 
ATOM     53  C   UNL A   1      43.197  27.465  32.653  1.00  0.00     0.031 C 
ATOM     54  C   UNL A   1      37.940  30.671  29.531  1.00  0.00     0.029 A 
ATOM     55  C   UNL A   1      38.362  31.240  30.806  1.00  0.00     0.049 A 
ATOM     56  H   UNL A   1      39.948  30.621  32.008  1.00  0.00     0.167 HD
ATOM     57  C   UNL A   1      43.053  28.947  34.628  1.00  0.00     0.037 A 
ATOM     58  C   UNL A   1      37.777  32.284  31.424  1.00  0.00     0.037 A 
ATOM     59  C   UNL A   1      42.540  30.091  35.330  1.00  0.00     0.049 A 
ATOM     60  C   UNL A   1      38.326  32.751  32.745  1.00  0.00     0.074 A 
ATOM     61  C   UNL A   1      42.966  30.626  36.534  1.00  0.00     0.029 A 
ATOM     62  N   UNL A   1      41.503  30.893  34.879  1.00  0.00    -0.354 N 
ATOM     63  N   UNL A   1      39.306  32.244  33.454  1.00  0.00    -0.248 NA
ATOM     64  C   UNL A   1      37.694  33.932  33.348  1.00  0.00     0.031 C 
ATOM     65  C   UNL A   1      42.173  31.744  36.818  1.00  0.00     0.029 A 
ATOM     66  C   UNL A   1      41.275  31.921  35.778  1.00  0.00     0.049 A 
ATOM     67  H   UNL A   1      41.003  30.753  34.043  1.00  0.00     0.167 HD
ATOM     68  C   UNL A   1      39.425  33.057  34.574  1.00  0.00     0.074 A 
ATOM     69  C   UNL A   1      38.423  34.096  34.444  1.00  0.00     0.031 C 
ATOM     70  C   UNL A   1      40.284  32.954  35.617  1.00  0.00     0.037 A 
BRANCH  57  71
ATOM     71  C   UNL A   1      44.147  28.137  35.267  1.00  0.00     0.058 A 
ATOM     72  C   UNL A   1      45.503  28.419  35.037  1.00  0.00     0.135 A 
ATOM     73  C   UNL A   1      43.838  27.069  36.126  1.00  0.00     0.135 A 
ATOM     74  F   UNL A   1      45.854  29.418  34.211  1.00  0.00    -0.206 F 
ATOM     75  C   UNL A   1      46.513  27.646  35.597  1.00  0.00     0.059 A 
ATOM     76  C   UNL A   1      44.833  26.300  36.722  1.00  0.00     0.059 A 
ATOM     77  F   UNL A   1      42.559  26.756  36.382  1.00  0.00    -0.206 F 
ATOM     78  C   UNL A   1      46.168  26.584  36.434  1.00  0.00     0.060 A 
BRANCH  78  79
ATOM     79  S   UNL A   1      47.489  25.581  37.145  1.00  0.00     0.124 S 
ATOM     80  O   UNL A   1      47.742  24.630  36.066  1.00  0.00    -0.237 OA
ATOM     81  O   UNL A   1      48.541  26.565  37.380  1.00  0.00    -0.237 OA
ATOM     82  O   UNL A   1      46.880  25.020  38.346  1.00  0.00    -0.744 OA
ENDBRANCH  78  79
ENDBRANCH  57  71
BRANCH  58  83
ATOM     83  C   UNL A   1      36.636  32.987  30.783  1.00  0.00     0.058 A 
ATOM     84  C   UNL A   1      35.328  32.805  31.254  1.00  0.00     0.135 A 
ATOM     85  C   UNL A   1      36.824  33.864  29.703  1.00  0.00     0.135 A 
ATOM     86  F   UNL A   1      35.097  31.973  32.282  1.00  0.00    -0.206 F 
ATOM     87  C   UNL A   1      34.244  33.453  30.671  1.00  0.00     0.059 A 
ATOM     88  C   UNL A   1      35.759  34.540  29.115  1.00  0.00     0.059 A 
ATOM     89  F   UNL A   1      38.060  34.089  29.228  1.00  0.00    -0.206 F 
ATOM     90  C   UNL A   1      34.469  34.319  29.602  1.00  0.00     0.060 A 
BRANCH  90  91
ATOM     91  S   UNL A   1      33.063  35.198  28.884  1.00  0.00     0.124 S 
ATOM     92  O   UNL A   1      32.539  34.202  27.956  1.00  0.00    -0.237 OA
ATOM     93  O   UNL A   1      32.240  35.474  30.057  1.00  0.00    -0.237 OA
ATOM     94  O   UNL A   1      33.680  36.371  28.273  1.00  0.00    -0.744 OA
ENDBRANCH  90  91
ENDBRANCH  58  83
BRANCH  70  95
ATOM     95  C   UNL A   1      40.204  34.009  36.681  1.00  0.00     0.058 A 
ATOM     96  C   UNL A   1      40.981  35.176  36.617  1.00  0.00     0.135 A 
ATOM     97  C   UNL A   1      39.295  33.878  37.743  1.00  0.00     0.135 A 
ATOM     98  F   UNL A   1      41.868  35.343  35.625  1.00  0.00    -0.206 F 
ATOM     99  C   UNL A   1      40.870  36.172  37.581  1.00  0.00     0.059 A 
ATOM    100  C   UNL A   1      39.152  34.871  38.705  1.00  0.00     0.059 A 
ATOM    101  F   UNL A   1      38.523  32.783  37.841  1.00  0.00    -0.206 F 
ATOM    102  C   UNL A   1      39.951  36.011  38.620  1.00  0.00     0.060 A 
BRANCH 102 103
ATOM    103  S   UNL A   1      39.784  37.329  39.842  1.00  0.00     0.124 S 
ATOM    104  O   UNL A   1      38.543  37.969  39.415  1.00  0.00    -0.237 OA
ATOM    105  O   UNL A   1      39.715  36.588  41.098  1.00  0.00    -0.237 OA
ATOM    106  O   UNL A   1      40.997  38.120  39.654  1.00  0.00    -0.744 OA
ENDBRANCH 102 103
ENDBRANCH  70  95
ENDBRANCH  44  45
ENDBRANCH  36  39
ENDBRANCH  34  35
ENDBRANCH   1  34
TORSDOF 17
ENDMDL
MODEL 3
REMARK VINA RESULT:     -13.1      6.076     10.552
REMARK SMILES CC(=O)Nc1cc(NC(C)=O)cc(C(=O)Nc2ccc(Br)cc2C(=O)NCCCNC(=O)c2ccc(-c3c4nc(c(-c5c(F)cc(S(=O)(=O)[O-])cc5F)c5ccc([nH]5)c(-c5c(F)cc(S(=O)(=O)[O-])cc5F)c5nc(c(-c6c(F)cc(S(=O)(=O)[O-])cc6F)c6ccc3[nH]6)C=C5)C=C4)cc2)c1
REMARK SMILES IDX 28 1 27 2 26 3 24 4 25 5 23 7 17 8 18 9 19 10 22 11 20 12
REMARK SMILES IDX 21 13 16 14 14 15 15 16 13 18 5 19 6 20 99 21 7 22 12 23
REMARK SMILES IDX 4 24 1 25 2 26 3 27 8 29 9 30 10 32 11 33 29 34 30 35 31 36
REMARK SMILES IDX 32 38 33 39 34 40 98 41 35 42 97 43 36 44 37 45 38 46 91 47
REMARK SMILES IDX 39 48 96 49 90 50 92 51 40 52 95 53 89 54 88 55 41 57 75 58
REMARK SMILES IDX 54 59 74 60 55 61 58 62 73 63 93 64 56 65 57 66 72 68 94 69
REMARK SMILES IDX 59 70 42 71 43 72 52 73 44 74 45 75 51 76 53 77 46 78 47 79
REMARK SMILES IDX 48 80 49 81 50 82 76 83 77 84 86 85 78 86 79 87 85 88 87 89
REMARK SMILES IDX 80 90 81 91 82 92 83 93 84 94 60 95 61 96 70 97 62 98 63 99
REMARK SMILES IDX 69 100 71 101 64 102 65 103 66 104 67 105 68 106
REMARK H PARENT 26 6 16 17 4 28 8 31 30 37 92 56 58 67
REMARK Flexibility Score: inf
ROOT
ATOM      1  C   UNL A   1      37.793  21.349  25.309  1.00  0.00     0.042 C 
ENDROOT
BRANCH   1   2
ATOM      2  C   UNL A   1      37.198  22.692  24.940  1.00  0.00     0.118 C 
BRANCH   2   3
ATOM      3  N   UNL A   1      36.225  23.184  25.898  1.00  0.00    -0.352 N 
ATOM      4  C   UNL A   1      34.863  23.056  25.907  1.00  0.00     0.253 C 
ATOM      5  O   UNL A   1      34.228  23.584  26.819  1.00  0.00    -0.269 OA
ATOM      6  H   UNL A   1      36.603  23.685  26.657  1.00  0.00     0.163 HD
BRANCH   4   7
ATOM      7  C   UNL A   1      34.131  22.379  24.807  1.00  0.00     0.064 A 
ATOM      8  C   UNL A   1      33.723  22.954  23.587  1.00  0.00     0.054 A 
ATOM      9  C   UNL A   1      32.829  22.230  22.778  1.00  0.00     0.028 A 
ATOM     10  C   UNL A   1      32.481  20.913  23.084  1.00  0.00     0.018 A 
ATOM     11  C   UNL A   1      33.804  21.038  25.089  1.00  0.00     0.031 A 
ATOM     12  C   UNL A   1      33.005  20.308  24.219  1.00  0.00     0.018 A 
ATOM     13  Br  UNL A   1      32.627  18.494  24.581  1.00  0.00    -0.051 Br
BRANCH   8  14
ATOM     14  N   UNL A   1      34.154  24.178  23.021  1.00  0.00    -0.321 N 
ATOM     15  C   UNL A   1      33.514  25.388  22.829  1.00  0.00     0.255 C 
ATOM     16  O   UNL A   1      34.021  26.234  22.095  1.00  0.00    -0.269 OA
ATOM     17  H   UNL A   1      35.086  24.165  22.703  1.00  0.00     0.170 HD
BRANCH  15  18
ATOM     18  C   UNL A   1      32.266  25.728  23.543  1.00  0.00     0.044 A 
ATOM     19  C   UNL A   1      30.785  25.359  25.411  1.00  0.00     0.044 A 
ATOM     20  C   UNL A   1      29.831  26.170  24.773  1.00  0.00     0.052 A 
ATOM     21  C   UNL A   1      32.027  25.208  24.817  1.00  0.00     0.040 A 
ATOM     22  C   UNL A   1      30.111  26.820  23.562  1.00  0.00     0.044 A 
ATOM     23  C   UNL A   1      31.333  26.572  22.934  1.00  0.00     0.040 A 
BRANCH  19  24
ATOM     24  N   UNL A   1      30.375  24.663  26.564  1.00  0.00    -0.326 N 
ATOM     25  C   UNL A   1      30.532  22.258  25.884  1.00  0.00     0.114 C 
ATOM     26  C   UNL A   1      30.109  23.351  26.824  1.00  0.00     0.221 C 
ATOM     27  O   UNL A   1      29.540  23.063  27.882  1.00  0.00    -0.275 OA
ATOM     28  H   UNL A   1      30.253  25.248  27.347  1.00  0.00     0.169 HD
ENDBRANCH  19  24
BRANCH  22  29
ATOM     29  N   UNL A   1      29.219  27.707  22.918  1.00  0.00    -0.326 N 
ATOM     30  C   UNL A   1      29.219  29.088  22.988  1.00  0.00     0.221 C 
ATOM     31  H   UNL A   1      28.522  27.296  22.358  1.00  0.00     0.169 HD
ATOM     32  C   UNL A   1      28.141  29.727  22.147  1.00  0.00     0.114 C 
ATOM     33  O   UNL A   1      30.002  29.790  23.621  1.00  0.00    -0.275 OA
ENDBRANCH  22  29
ENDBRANCH  15  18
ENDBRANCH   8  14
ENDBRANCH   4   7
ENDBRANCH   2   3
ENDBRANCH   1   2
BRANCH   1  34
ATOM     34  C   UNL A   1      39.155  21.431  25.985  1.00  0.00     0.118 C 
BRANCH  34  35
ATOM     35  N   UNL A   1      39.938  20.197  25.943  1.00  0.00    -0.352 N 
ATOM     36  C   UNL A   1      41.276  19.959  26.157  1.00  0.00     0.251 C 
ATOM     37  H   UNL A   1      39.414  19.393  25.722  1.00  0.00     0.163 HD
ATOM     38  O   UNL A   1      41.714  18.815  26.062  1.00  0.00    -0.269 OA
BRANCH  36  39
ATOM     39  C   UNL A   1      42.198  21.080  26.436  1.00  0.00     0.039 A 
ATOM     40  C   UNL A   1      42.685  21.844  25.371  1.00  0.00     0.014 A 
ATOM     41  C   UNL A   1      42.528  21.427  27.743  1.00  0.00     0.014 A 
ATOM     42  C   UNL A   1      43.381  23.027  25.629  1.00  0.00     0.010 A 
ATOM     43  C   UNL A   1      43.089  22.670  27.999  1.00  0.00     0.010 A 
ATOM     44  C   UNL A   1      43.520  23.492  26.948  1.00  0.00    -0.014 A 
BRANCH  44  45
ATOM     45  C   UNL A   1      44.099  24.824  27.268  1.00  0.00     0.031 A 
ATOM     46  C   UNL A   1      43.202  25.927  27.769  1.00  0.00     0.074 A 
ATOM     47  C   UNL A   1      45.395  25.082  26.994  1.00  0.00     0.049 A 
ATOM     48  N   UNL A   1      43.460  27.201  27.918  1.00  0.00    -0.248 NA
ATOM     49  C   UNL A   1      41.812  25.558  28.087  1.00  0.00     0.031 C 
ATOM     50  C   UNL A   1      46.356  24.128  26.432  1.00  0.00     0.029 A 
ATOM     51  N   UNL A   1      46.128  26.235  27.135  1.00  0.00    -0.354 N 
ATOM     52  C   UNL A   1      42.256  27.787  28.292  1.00  0.00     0.074 A 
ATOM     53  C   UNL A   1      41.256  26.743  28.291  1.00  0.00     0.031 C 
ATOM     54  C   UNL A   1      47.554  24.722  26.312  1.00  0.00     0.029 A 
ATOM     55  C   UNL A   1      47.441  26.111  26.743  1.00  0.00     0.049 A 
ATOM     56  H   UNL A   1      45.748  27.074  27.484  1.00  0.00     0.167 HD
ATOM     57  C   UNL A   1      42.009  29.074  28.635  1.00  0.00     0.037 A 
ATOM     58  C   UNL A   1      48.440  27.015  26.728  1.00  0.00     0.037 A 
ATOM     59  C   UNL A   1      43.023  30.088  28.721  1.00  0.00     0.049 A 
ATOM     60  C   UNL A   1      48.162  28.417  27.198  1.00  0.00     0.074 A 
ATOM     61  C   UNL A   1      42.898  31.399  29.148  1.00  0.00     0.029 A 
ATOM     62  N   UNL A   1      44.358  29.898  28.393  1.00  0.00    -0.354 N 
ATOM     63  N   UNL A   1      47.027  28.942  27.594  1.00  0.00    -0.248 NA
ATOM     64  C   UNL A   1      49.298  29.347  27.223  1.00  0.00     0.031 C 
ATOM     65  C   UNL A   1      44.156  32.005  29.063  1.00  0.00     0.029 A 
ATOM     66  C   UNL A   1      45.069  31.066  28.612  1.00  0.00     0.049 A 
ATOM     67  H   UNL A   1      44.742  29.057  28.057  1.00  0.00     0.167 HD
ATOM     68  C   UNL A   1      47.317  30.256  27.939  1.00  0.00     0.074 A 
ATOM     69  C   UNL A   1      48.736  30.444  27.714  1.00  0.00     0.031 C 
ATOM     70  C   UNL A   1      46.484  31.222  28.398  1.00  0.00     0.037 A 
BRANCH  57  71
ATOM     71  C   UNL A   1      40.590  29.441  28.971  1.00  0.00     0.058 A 
ATOM     72  C   UNL A   1      40.185  29.686  30.293  1.00  0.00     0.135 A 
ATOM     73  C   UNL A   1      39.622  29.556  27.959  1.00  0.00     0.135 A 
ATOM     74  F   UNL A   1      41.065  29.572  31.301  1.00  0.00    -0.206 F 
ATOM     75  C   UNL A   1      38.864  29.987  30.606  1.00  0.00     0.059 A 
ATOM     76  C   UNL A   1      38.301  29.886  28.246  1.00  0.00     0.059 A 
ATOM     77  F   UNL A   1      39.954  29.335  26.678  1.00  0.00    -0.206 F 
ATOM     78  C   UNL A   1      37.928  30.079  29.576  1.00  0.00     0.060 A 
BRANCH  78  79
ATOM     79  S   UNL A   1      36.214  30.459  29.998  1.00  0.00     0.124 S 
ATOM     80  O   UNL A   1      35.932  29.437  31.002  1.00  0.00    -0.237 OA
ATOM     81  O   UNL A   1      36.309  31.827  30.498  1.00  0.00    -0.237 OA
ATOM     82  O   UNL A   1      35.511  30.305  28.729  1.00  0.00    -0.744 OA
ENDBRANCH  78  79
ENDBRANCH  57  71
BRANCH  58  83
ATOM     83  C   UNL A   1      49.803  26.613  26.296  1.00  0.00     0.058 A 
ATOM     84  C   UNL A   1      50.683  25.990  27.193  1.00  0.00     0.135 A 
ATOM     85  C   UNL A   1      50.251  26.822  24.982  1.00  0.00     0.135 A 
ATOM     86  F   UNL A   1      50.302  25.772  28.462  1.00  0.00    -0.206 F 
ATOM     87  C   UNL A   1      51.964  25.603  26.812  1.00  0.00     0.059 A 
ATOM     88  C   UNL A   1      51.520  26.426  24.570  1.00  0.00     0.059 A 
ATOM     89  F   UNL A   1      49.439  27.395  24.079  1.00  0.00    -0.206 F 
ATOM     90  C   UNL A   1      52.373  25.825  25.497  1.00  0.00     0.060 A 
BRANCH  90  91
ATOM     91  S   UNL A   1      54.018  25.272  24.995  1.00  0.00     0.124 S 
ATOM     92  O   UNL A   1      54.832  25.713  26.121  1.00  0.00    -0.237 OA
ATOM     93  O   UNL A   1      53.833  23.830  24.866  1.00  0.00    -0.237 OA
ATOM     94  O   UNL A   1      54.238  25.980  23.738  1.00  0.00    -0.744 OA
ENDBRANCH  90  91
ENDBRANCH  58  83
BRANCH  70  95
ATOM     95  C   UNL A   1      47.090  32.556  28.723  1.00  0.00     0.058 A 
ATOM     96  C   UNL A   1      47.621  32.831  29.992  1.00  0.00     0.135 A 
ATOM     97  C   UNL A   1      47.197  33.547  27.733  1.00  0.00     0.135 A 
ATOM     98  F   UNL A   1      47.537  31.917  30.971  1.00  0.00    -0.206 F 
ATOM     99  C   UNL A   1      48.223  34.052  30.275  1.00  0.00     0.059 A 
ATOM    100  C   UNL A   1      47.815  34.765  27.988  1.00  0.00     0.059 A 
ATOM    101  F   UNL A   1      46.712  33.326  26.501  1.00  0.00    -0.206 F 
ATOM    102  C   UNL A   1      48.317  35.012  29.265  1.00  0.00     0.060 A 
BRANCH 102 103
ATOM    103  S   UNL A   1      49.139  36.577  29.630  1.00  0.00     0.124 S 
ATOM    104  O   UNL A   1      50.326  36.124  30.349  1.00  0.00    -0.237 OA
ATOM    105  O   UNL A   1      49.377  37.126  28.299  1.00  0.00    -0.237 OA
ATOM    106  O   UNL A   1      48.155  37.298  30.431  1.00  0.00    -0.744 OA
ENDBRANCH 102 103
ENDBRANCH  70  95
ENDBRANCH  44  45
ENDBRANCH  36  39
ENDBRANCH  34  35
ENDBRANCH   1  34
TORSDOF 17
ENDMDL
