MODEL 1
REMARK VINA RESULT:     -12.0      0.000      0.000
REMARK SMILES CC(=O)N[C@@]1(C(=O)NCCCNC(=O)c2ccc(-c3c4nc(c(-c5c(F)cc(S(=O)(=O)[O-])cc5F)c5ccc([nH]5)c(-c5c(F)cc(S(=O)(=O)[O-])cc5F)c5nc(c(-c6c(F)cc(S(=O)(=O)[O-])cc6F)c6ccc3[nH]6)C=C5)C=C4)cc2)CCCc2ccccc21
REMARK SMILES IDX 11 1 10 2 9 3 8 4 6 5 7 6 5 8 81 9 89 10 82 11 84 12 88 13
REMARK SMILES IDX 83 14 85 15 87 16 86 17 4 18 1 19 2 20 3 21 12 23 13 24
REMARK SMILES IDX 14 26 15 27 16 28 80 29 17 30 79 31 18 32 19 33 20 34 73 35
REMARK SMILES IDX 21 36 78 37 72 38 74 39 22 40 77 41 71 42 70 43 23 45 57 46
REMARK SMILES IDX 36 47 56 48 37 49 40 50 55 51 75 52 38 53 39 54 54 56 76 57
REMARK SMILES IDX 41 58 24 59 25 60 34 61 26 62 27 63 33 64 35 65 28 66 29 67
REMARK SMILES IDX 30 68 31 69 32 70 58 71 59 72 68 73 60 74 61 75 67 76 69 77
REMARK SMILES IDX 62 78 63 79 64 80 65 81 66 82 42 83 43 84 52 85 44 86 45 87
REMARK SMILES IDX 51 88 53 89 46 90 47 91 48 92 49 93 50 94
REMARK H PARENT 8 7 4 22 12 25 74 44 40 55
REMARK Flexibility Score: inf
ROOT
ATOM      1  C   UNL A   1      33.394  28.576  27.255  1.00  0.00     0.118 C 
ENDROOT
BRANCH   1   2
ATOM      2  C   UNL A   1      33.698  28.365  25.778  1.00  0.00     0.042 C 
BRANCH   2   3
ATOM      3  C   UNL A   1      33.984  26.920  25.404  1.00  0.00     0.117 C 
BRANCH   3   4
ATOM      4  N   UNL A   1      32.874  26.030  25.716  1.00  0.00    -0.354 N 
ATOM      5  C   UNL A   1      32.748  24.669  25.609  1.00  0.00     0.250 C 
ATOM      6  O   UNL A   1      31.663  24.201  25.973  1.00  0.00    -0.272 OA
ATOM      7  H   UNL A   1      32.074  26.485  26.066  1.00  0.00     0.163 HD
BRANCH   5   8
ATOM      8  C   UNL A   1      33.860  23.791  24.929  1.00  0.00     0.144 C 
ATOM      9  C   UNL A   1      34.067  24.409  23.506  1.00  0.00     0.044 C 
ATOM     10  C   UNL A   1      33.443  22.309  24.761  1.00  0.00    -0.010 A 
ATOM     11  C   UNL A   1      32.863  24.183  22.600  1.00  0.00     0.008 C 
ATOM     12  C   UNL A   1      32.864  21.835  23.558  1.00  0.00    -0.042 A 
ATOM     13  C   UNL A   1      33.614  21.373  25.802  1.00  0.00     0.007 A 
ATOM     14  C   UNL A   1      32.683  22.701  22.335  1.00  0.00     0.036 C 
ATOM     15  C   UNL A   1      32.493  20.482  23.433  1.00  0.00     0.004 A 
ATOM     16  C   UNL A   1      33.237  20.034  25.666  1.00  0.00     0.000 A 
ATOM     17  C   UNL A   1      32.676  19.588  24.481  1.00  0.00     0.000 A 
BRANCH   8  18
ATOM     18  N   UNL A   1      35.165  23.904  25.633  1.00  0.00    -0.338 N 
ATOM     19  C   UNL A   1      36.724  22.733  24.057  1.00  0.00     0.114 C 
ATOM     20  C   UNL A   1      36.437  23.594  25.261  1.00  0.00     0.217 C 
ATOM     21  O   UNL A   1      37.359  23.976  25.986  1.00  0.00    -0.275 OA
ATOM     22  H   UNL A   1      35.096  24.273  26.542  1.00  0.00     0.164 HD
ENDBRANCH   8  18
ENDBRANCH   5   8
ENDBRANCH   3   4
ENDBRANCH   2   3
ENDBRANCH   1   2
BRANCH   1  23
ATOM     23  N   UNL A   1      33.405  29.980  27.651  1.00  0.00    -0.352 N 
ATOM     24  C   UNL A   1      34.423  30.715  28.213  1.00  0.00     0.251 C 
ATOM     25  H   UNL A   1      32.567  30.471  27.492  1.00  0.00     0.163 HD
ATOM     26  O   UNL A   1      34.216  31.859  28.609  1.00  0.00    -0.269 OA
BRANCH  24  27
ATOM     27  C   UNL A   1      35.756  30.100  28.366  1.00  0.00     0.039 A 
ATOM     28  C   UNL A   1      36.628  30.075  27.276  1.00  0.00     0.014 A 
ATOM     29  C   UNL A   1      36.160  29.609  29.609  1.00  0.00     0.014 A 
ATOM     30  C   UNL A   1      37.946  29.647  27.459  1.00  0.00     0.010 A 
ATOM     31  C   UNL A   1      37.491  29.269  29.808  1.00  0.00     0.010 A 
ATOM     32  C   UNL A   1      38.401  29.290  28.738  1.00  0.00    -0.014 A 
BRANCH  32  33
ATOM     33  C   UNL A   1      39.812  28.910  29.005  1.00  0.00     0.031 A 
ATOM     34  C   UNL A   1      40.764  29.956  29.516  1.00  0.00     0.074 A 
ATOM     35  C   UNL A   1      40.260  27.679  28.684  1.00  0.00     0.049 A 
ATOM     36  N   UNL A   1      42.069  29.928  29.580  1.00  0.00    -0.248 NA
ATOM     37  C   UNL A   1      40.167  31.223  29.971  1.00  0.00     0.031 C 
ATOM     38  C   UNL A   1      39.446  26.587  28.146  1.00  0.00     0.029 A 
ATOM     39  N   UNL A   1      41.526  27.149  28.739  1.00  0.00    -0.354 N 
ATOM     40  C   UNL A   1      42.449  31.182  30.042  1.00  0.00     0.074 A 
ATOM     41  C   UNL A   1      41.243  31.961  30.206  1.00  0.00     0.031 C 
ATOM     42  C   UNL A   1      40.230  25.517  27.930  1.00  0.00     0.029 A 
ATOM     43  C   UNL A   1      41.607  25.860  28.267  1.00  0.00     0.049 A 
ATOM     44  H   UNL A   1      42.302  27.646  29.085  1.00  0.00     0.167 HD
ATOM     45  C   UNL A   1      43.693  31.636  30.325  1.00  0.00     0.037 A 
ATOM     46  C   UNL A   1      42.676  25.054  28.106  1.00  0.00     0.037 A 
ATOM     47  C   UNL A   1      44.883  30.838  30.216  1.00  0.00     0.049 A 
ATOM     48  C   UNL A   1      44.042  25.566  28.479  1.00  0.00     0.074 A 
ATOM     49  C   UNL A   1      46.191  31.196  30.493  1.00  0.00     0.029 A 
ATOM     50  N   UNL A   1      44.906  29.507  29.826  1.00  0.00    -0.354 N 
ATOM     51  N   UNL A   1      44.385  26.757  28.909  1.00  0.00    -0.248 NA
ATOM     52  C   UNL A   1      45.167  24.629  28.346  1.00  0.00     0.031 C 
ATOM     53  C   UNL A   1      47.005  30.082  30.269  1.00  0.00     0.029 A 
ATOM     54  C   UNL A   1      46.200  29.024  29.877  1.00  0.00     0.049 A 
ATOM     55  H   UNL A   1      44.117  28.985  29.555  1.00  0.00     0.167 HD
ATOM     56  C   UNL A   1      45.755  26.700  29.133  1.00  0.00     0.074 A 
ATOM     57  C   UNL A   1      46.181  25.359  28.791  1.00  0.00     0.031 C 
ATOM     58  C   UNL A   1      46.588  27.671  29.578  1.00  0.00     0.037 A 
BRANCH  45  59
ATOM     59  C   UNL A   1      43.823  33.053  30.805  1.00  0.00     0.058 A 
ATOM     60  C   UNL A   1      43.759  33.369  32.170  1.00  0.00     0.135 A 
ATOM     61  C   UNL A   1      44.048  34.100  29.898  1.00  0.00     0.135 A 
ATOM     62  F   UNL A   1      43.524  32.406  33.076  1.00  0.00    -0.206 F 
ATOM     63  C   UNL A   1      43.891  34.677  32.620  1.00  0.00     0.059 A 
ATOM     64  C   UNL A   1      44.208  35.414  30.328  1.00  0.00     0.059 A 
ATOM     65  F   UNL A   1      44.114  33.853  28.580  1.00  0.00    -0.206 F 
ATOM     66  C   UNL A   1      44.115  35.694  31.690  1.00  0.00     0.060 A 
BRANCH  66  67
ATOM     67  S   UNL A   1      44.300  37.386  32.291  1.00  0.00     0.124 S 
ATOM     68  O   UNL A   1      43.443  37.369  33.472  1.00  0.00    -0.237 OA
ATOM     69  O   UNL A   1      45.734  37.473  32.551  1.00  0.00    -0.237 OA
ATOM     70  O   UNL A   1      43.820  38.196  31.176  1.00  0.00    -0.744 OA
ENDBRANCH  66  67
ENDBRANCH  45  59
BRANCH  46  71
ATOM     71  C   UNL A   1      42.508  23.676  27.575  1.00  0.00     0.058 A 
ATOM     72  C   UNL A   1      42.352  22.586  28.444  1.00  0.00     0.135 A 
ATOM     73  C   UNL A   1      42.527  23.416  26.197  1.00  0.00     0.135 A 
ATOM     74  F   UNL A   1      42.330  22.785  29.770  1.00  0.00    -0.206 F 
ATOM     75  C   UNL A   1      42.255  21.282  27.969  1.00  0.00     0.059 A 
ATOM     76  C   UNL A   1      42.410  22.123  25.696  1.00  0.00     0.059 A 
ATOM     77  F   UNL A   1      42.654  24.427  25.322  1.00  0.00    -0.206 F 
ATOM     78  C   UNL A   1      42.293  21.060  26.592  1.00  0.00     0.060 A 
BRANCH  78  79
ATOM     79  S   UNL A   1      42.159  19.367  25.977  1.00  0.00     0.124 S 
ATOM     80  O   UNL A   1      42.634  18.602  27.124  1.00  0.00    -0.237 OA
ATOM     81  O   UNL A   1      40.733  19.256  25.680  1.00  0.00    -0.237 OA
ATOM     82  O   UNL A   1      43.035  19.368  24.808  1.00  0.00    -0.744 OA
ENDBRANCH  78  79
ENDBRANCH  46  71
BRANCH  58  83
ATOM     83  C   UNL A   1      48.029  27.309  29.792  1.00  0.00     0.058 A 
ATOM     84  C   UNL A   1      49.005  27.570  28.822  1.00  0.00     0.135 A 
ATOM     85  C   UNL A   1      48.444  26.778  31.025  1.00  0.00     0.135 A 
ATOM     86  F   UNL A   1      48.654  28.070  27.626  1.00  0.00    -0.206 F 
ATOM     87  C   UNL A   1      50.351  27.313  29.063  1.00  0.00     0.059 A 
ATOM     88  C   UNL A   1      49.785  26.532  31.294  1.00  0.00     0.059 A 
ATOM     89  F   UNL A   1      47.544  26.520  31.986  1.00  0.00    -0.206 F 
ATOM     90  C   UNL A   1      50.731  26.799  30.306  1.00  0.00     0.060 A 
BRANCH  90  91
ATOM     91  S   UNL A   1      52.486  26.537  30.635  1.00  0.00     0.124 S 
ATOM     92  O   UNL A   1      52.446  25.417  31.569  1.00  0.00    -0.237 OA
ATOM     93  O   UNL A   1      53.015  26.237  29.308  1.00  0.00    -0.237 OA
ATOM     94  O   UNL A   1      52.919  27.812  31.200  1.00  0.00    -0.744 OA
ENDBRANCH  90  91
ENDBRANCH  58  83
ENDBRANCH  32  33
ENDBRANCH  24  27
ENDBRANCH   1  23
TORSDOF 14
ENDMDL
MODEL 2
REMARK VINA RESULT:     -11.9      0.929      2.050
REMARK SMILES CC(=O)N[C@@]1(C(=O)NCCCNC(=O)c2ccc(-c3c4nc(c(-c5c(F)cc(S(=O)(=O)[O-])cc5F)c5ccc([nH]5)c(-c5c(F)cc(S(=O)(=O)[O-])cc5F)c5nc(c(-c6c(F)cc(S(=O)(=O)[O-])cc6F)c6ccc3[nH]6)C=C5)C=C4)cc2)CCCc2ccccc21
REMARK SMILES IDX 11 1 10 2 9 3 8 4 6 5 7 6 5 8 81 9 89 10 82 11 84 12 88 13
REMARK SMILES IDX 83 14 85 15 87 16 86 17 4 18 1 19 2 20 3 21 12 23 13 24
REMARK SMILES IDX 14 26 15 27 16 28 80 29 17 30 79 31 18 32 19 33 20 34 73 35
REMARK SMILES IDX 21 36 78 37 72 38 74 39 22 40 77 41 71 42 70 43 23 45 57 46
REMARK SMILES IDX 36 47 56 48 37 49 40 50 55 51 75 52 38 53 39 54 54 56 76 57
REMARK SMILES IDX 41 58 24 59 25 60 34 61 26 62 27 63 33 64 35 65 28 66 29 67
REMARK SMILES IDX 30 68 31 69 32 70 58 71 59 72 68 73 60 74 61 75 67 76 69 77
REMARK SMILES IDX 62 78 63 79 64 80 65 81 66 82 42 83 43 84 52 85 44 86 45 87
REMARK SMILES IDX 51 88 53 89 46 90 47 91 48 92 49 93 50 94
REMARK H PARENT 8 7 4 22 12 25 74 44 40 55
REMARK Flexibility Score: inf
ROOT
ATOM      1  C   UNL A   1      34.360  27.847  26.292  1.00  0.00     0.118 C 
ENDROOT
BRANCH   1   2
ATOM      2  C   UNL A   1      34.055  27.563  24.827  1.00  0.00     0.042 C 
BRANCH   2   3
ATOM      3  C   UNL A   1      33.175  26.345  24.601  1.00  0.00     0.117 C 
BRANCH   3   4
ATOM      4  N   UNL A   1      33.728  25.430  23.611  1.00  0.00    -0.354 N 
ATOM      5  C   UNL A   1      34.027  24.095  23.680  1.00  0.00     0.250 C 
ATOM      6  O   UNL A   1      34.481  23.592  22.646  1.00  0.00    -0.272 OA
ATOM      7  H   UNL A   1      33.918  25.844  22.738  1.00  0.00     0.163 HD
BRANCH   5   8
ATOM      8  C   UNL A   1      33.935  23.300  25.033  1.00  0.00     0.144 C 
ATOM      9  C   UNL A   1      35.070  23.886  25.938  1.00  0.00     0.044 C 
ATOM     10  C   UNL A   1      34.183  21.781  24.861  1.00  0.00    -0.010 A 
ATOM     11  C   UNL A   1      36.458  23.519  25.429  1.00  0.00     0.008 C 
ATOM     12  C   UNL A   1      35.467  21.215  25.053  1.00  0.00    -0.042 A 
ATOM     13  C   UNL A   1      33.143  20.901  24.500  1.00  0.00     0.007 A 
ATOM     14  C   UNL A   1      36.661  22.018  25.509  1.00  0.00     0.036 C 
ATOM     15  C   UNL A   1      35.665  19.830  24.889  1.00  0.00     0.004 A 
ATOM     16  C   UNL A   1      33.353  19.529  24.336  1.00  0.00     0.000 A 
ATOM     17  C   UNL A   1      34.615  18.993  24.530  1.00  0.00     0.000 A 
BRANCH   8  18
ATOM     18  N   UNL A   1      32.653  23.557  25.743  1.00  0.00    -0.338 N 
ATOM     19  C   UNL A   1      33.039  22.449  27.958  1.00  0.00     0.114 C 
ATOM     20  C   UNL A   1      32.257  23.339  27.026  1.00  0.00     0.217 C 
ATOM     21  O   UNL A   1      31.187  23.832  27.390  1.00  0.00    -0.275 OA
ATOM     22  H   UNL A   1      31.959  23.962  25.175  1.00  0.00     0.164 HD
ENDBRANCH   8  18
ENDBRANCH   5   8
ENDBRANCH   3   4
ENDBRANCH   2   3
ENDBRANCH   1   2
BRANCH   1  23
ATOM     23  N   UNL A   1      33.785  29.100  26.768  1.00  0.00    -0.352 N 
ATOM     24  C   UNL A   1      34.337  30.048  27.598  1.00  0.00     0.251 C 
ATOM     25  H   UNL A   1      32.874  29.295  26.451  1.00  0.00     0.163 HD
ATOM     26  O   UNL A   1      33.658  30.985  28.007  1.00  0.00    -0.269 OA
BRANCH  24  27
ATOM     27  C   UNL A   1      35.746  29.905  28.017  1.00  0.00     0.039 A 
ATOM     28  C   UNL A   1      36.034  29.497  29.321  1.00  0.00     0.014 A 
ATOM     29  C   UNL A   1      36.772  30.111  27.095  1.00  0.00     0.014 A 
ATOM     30  C   UNL A   1      37.354  29.200  29.673  1.00  0.00     0.010 A 
ATOM     31  C   UNL A   1      38.067  29.730  27.420  1.00  0.00     0.010 A 
ATOM     32  C   UNL A   1      38.373  29.265  28.710  1.00  0.00    -0.014 A 
BRANCH  32  33
ATOM     33  C   UNL A   1      39.776  28.877  29.006  1.00  0.00     0.031 A 
ATOM     34  C   UNL A   1      40.721  29.915  29.546  1.00  0.00     0.074 A 
ATOM     35  C   UNL A   1      40.226  27.647  28.685  1.00  0.00     0.049 A 
ATOM     36  N   UNL A   1      42.023  29.880  29.640  1.00  0.00    -0.248 NA
ATOM     37  C   UNL A   1      40.118  31.181  29.999  1.00  0.00     0.031 C 
ATOM     38  C   UNL A   1      39.419  26.562  28.120  1.00  0.00     0.029 A 
ATOM     39  N   UNL A   1      41.487  27.111  28.765  1.00  0.00    -0.354 N 
ATOM     40  C   UNL A   1      42.398  31.128  30.122  1.00  0.00     0.074 A 
ATOM     41  C   UNL A   1      41.192  31.912  30.264  1.00  0.00     0.031 C 
ATOM     42  C   UNL A   1      40.204  25.491  27.912  1.00  0.00     0.029 A 
ATOM     43  C   UNL A   1      41.574  25.825  28.284  1.00  0.00     0.049 A 
ATOM     44  H   UNL A   1      42.258  27.601  29.132  1.00  0.00     0.167 HD
ATOM     45  C   UNL A   1      43.637  31.575  30.436  1.00  0.00     0.037 A 
ATOM     46  C   UNL A   1      42.643  25.016  28.141  1.00  0.00     0.037 A 
ATOM     47  C   UNL A   1      44.826  30.773  30.347  1.00  0.00     0.049 A 
ATOM     48  C   UNL A   1      44.002  25.519  28.548  1.00  0.00     0.074 A 
ATOM     49  C   UNL A   1      46.129  31.123  30.657  1.00  0.00     0.029 A 
ATOM     50  N   UNL A   1      44.852  29.444  29.947  1.00  0.00    -0.354 N 
ATOM     51  N   UNL A   1      44.340  26.704  28.996  1.00  0.00    -0.248 NA
ATOM     52  C   UNL A   1      45.126  24.577  28.434  1.00  0.00     0.031 C 
ATOM     53  C   UNL A   1      46.942  30.006  30.442  1.00  0.00     0.029 A 
ATOM     54  C   UNL A   1      46.143  28.955  30.023  1.00  0.00     0.049 A 
ATOM     55  H   UNL A   1      44.067  28.928  29.654  1.00  0.00     0.167 HD
ATOM     56  C   UNL A   1      45.705  26.639  29.250  1.00  0.00     0.074 A 
ATOM     57  C   UNL A   1      46.132  25.299  28.908  1.00  0.00     0.031 C 
ATOM     58  C   UNL A   1      46.532  27.603  29.722  1.00  0.00     0.037 A 
BRANCH  45  59
ATOM     59  C   UNL A   1      43.762  32.987  30.930  1.00  0.00     0.058 A 
ATOM     60  C   UNL A   1      43.842  34.068  30.039  1.00  0.00     0.135 A 
ATOM     61  C   UNL A   1      43.770  33.268  32.306  1.00  0.00     0.135 A 
ATOM     62  F   UNL A   1      43.860  33.850  28.714  1.00  0.00    -0.206 F 
ATOM     63  C   UNL A   1      43.945  35.377  30.492  1.00  0.00     0.059 A 
ATOM     64  C   UNL A   1      43.848  34.573  32.782  1.00  0.00     0.059 A 
ATOM     65  F   UNL A   1      43.701  32.270  33.201  1.00  0.00    -0.206 F 
ATOM     66  C   UNL A   1      43.949  35.620  31.867  1.00  0.00     0.060 A 
BRANCH  66  67
ATOM     67  S   UNL A   1      44.068  37.328  32.440  1.00  0.00     0.124 S 
ATOM     68  O   UNL A   1      43.803  38.065  31.209  1.00  0.00    -0.237 OA
ATOM     69  O   UNL A   1      43.022  37.393  33.456  1.00  0.00    -0.237 OA
ATOM     70  O   UNL A   1      45.435  37.420  32.946  1.00  0.00    -0.744 OA
ENDBRANCH  66  67
ENDBRANCH  45  59
BRANCH  46  71
ATOM     71  C   UNL A   1      42.481  23.642  27.595  1.00  0.00     0.058 A 
ATOM     72  C   UNL A   1      42.324  22.543  28.452  1.00  0.00     0.135 A 
ATOM     73  C   UNL A   1      42.507  23.397  26.214  1.00  0.00     0.135 A 
ATOM     74  F   UNL A   1      42.296  22.728  29.780  1.00  0.00    -0.206 F 
ATOM     75  C   UNL A   1      42.232  21.244  27.963  1.00  0.00     0.059 A 
ATOM     76  C   UNL A   1      42.395  22.108  25.699  1.00  0.00     0.059 A 
ATOM     77  F   UNL A   1      42.634  24.417  25.350  1.00  0.00    -0.206 F 
ATOM     78  C   UNL A   1      42.278  21.036  26.584  1.00  0.00     0.060 A 
BRANCH  78  79
ATOM     79  S   UNL A   1      42.151  19.349  25.951  1.00  0.00     0.124 S 
ATOM     80  O   UNL A   1      40.719  19.238  25.702  1.00  0.00    -0.237 OA
ATOM     81  O   UNL A   1      43.005  19.396  24.767  1.00  0.00    -0.237 OA
ATOM     82  O   UNL A   1      42.667  18.542  27.053  1.00  0.00    -0.744 OA
ENDBRANCH  78  79
ENDBRANCH  46  71
BRANCH  58  83
ATOM     83  C   UNL A   1      47.965  27.233  29.966  1.00  0.00     0.058 A 
ATOM     84  C   UNL A   1      48.970  27.529  29.036  1.00  0.00     0.135 A 
ATOM     85  C   UNL A   1      48.343  26.656  31.190  1.00  0.00     0.135 A 
ATOM     86  F   UNL A   1      48.655  28.074  27.850  1.00  0.00    -0.206 F 
ATOM     87  C   UNL A   1      50.308  27.263  29.309  1.00  0.00     0.059 A 
ATOM     88  C   UNL A   1      49.676  26.400  31.491  1.00  0.00     0.059 A 
ATOM     89  F   UNL A   1      47.415  26.363  32.114  1.00  0.00    -0.206 F 
ATOM     90  C   UNL A   1      50.651  26.704  30.542  1.00  0.00     0.060 A 
BRANCH  90  91
ATOM     91  S   UNL A   1      52.396  26.429  30.914  1.00  0.00     0.124 S 
ATOM     92  O   UNL A   1      52.963  26.290  29.577  1.00  0.00    -0.237 OA
ATOM     93  O   UNL A   1      52.760  27.645  31.634  1.00  0.00    -0.237 OA
ATOM     94  O   UNL A   1      52.382  25.212  31.721  1.00  0.00    -0.744 OA
ENDBRANCH  90  91
ENDBRANCH  58  83
ENDBRANCH  32  33
ENDBRANCH  24  27
ENDBRANCH   1  23
TORSDOF 14
ENDMDL
MODEL 3
REMARK VINA RESULT:     -11.7      0.980      2.007
REMARK SMILES CC(=O)N[C@@]1(C(=O)NCCCNC(=O)c2ccc(-c3c4nc(c(-c5c(F)cc(S(=O)(=O)[O-])cc5F)c5ccc([nH]5)c(-c5c(F)cc(S(=O)(=O)[O-])cc5F)c5nc(c(-c6c(F)cc(S(=O)(=O)[O-])cc6F)c6ccc3[nH]6)C=C5)C=C4)cc2)CCCc2ccccc21
REMARK SMILES IDX 11 1 10 2 9 3 8 4 6 5 7 6 5 8 81 9 89 10 82 11 84 12 88 13
REMARK SMILES IDX 83 14 85 15 87 16 86 17 4 18 1 19 2 20 3 21 12 23 13 24
REMARK SMILES IDX 14 26 15 27 16 28 80 29 17 30 79 31 18 32 19 33 20 34 73 35
REMARK SMILES IDX 21 36 78 37 72 38 74 39 22 40 77 41 71 42 70 43 23 45 57 46
REMARK SMILES IDX 36 47 56 48 37 49 40 50 55 51 75 52 38 53 39 54 54 56 76 57
REMARK SMILES IDX 41 58 24 59 25 60 34 61 26 62 27 63 33 64 35 65 28 66 29 67
REMARK SMILES IDX 30 68 31 69 32 70 58 71 59 72 68 73 60 74 61 75 67 76 69 77
REMARK SMILES IDX 62 78 63 79 64 80 65 81 66 82 42 83 43 84 52 85 44 86 45 87
REMARK SMILES IDX 51 88 53 89 46 90 47 91 48 92 49 93 50 94
REMARK H PARENT 8 7 4 22 12 25 74 44 40 55
REMARK Flexibility Score: inf
ROOT
ATOM      1  C   UNL A   1      33.455  28.645  27.267  1.00  0.00     0.118 C 
ENDROOT
BRANCH   1   2
ATOM      2  C   UNL A   1      32.062  28.029  27.263  1.00  0.00     0.042 C 
BRANCH   2   3
ATOM      3  C   UNL A   1      31.886  26.904  26.256  1.00  0.00     0.117 C 
BRANCH   3   4
ATOM      4  N   UNL A   1      31.398  25.675  26.868  1.00  0.00    -0.354 N 
ATOM      5  C   UNL A   1      31.577  24.360  26.524  1.00  0.00     0.250 C 
ATOM      6  O   UNL A   1      31.034  23.534  27.265  1.00  0.00    -0.272 OA
ATOM      7  H   UNL A   1      30.844  25.813  27.670  1.00  0.00     0.163 HD
BRANCH   5   8
ATOM      8  C   UNL A   1      32.301  23.950  25.191  1.00  0.00     0.144 C 
ATOM      9  C   UNL A   1      31.524  22.698  24.664  1.00  0.00     0.044 C 
ATOM     10  C   UNL A   1      33.782  23.551  25.404  1.00  0.00    -0.010 A 
ATOM     11  C   UNL A   1      31.735  21.475  25.549  1.00  0.00     0.008 C 
ATOM     12  C   UNL A   1      34.165  22.199  25.586  1.00  0.00    -0.042 A 
ATOM     13  C   UNL A   1      34.809  24.516  25.435  1.00  0.00     0.007 A 
ATOM     14  C   UNL A   1      33.189  21.049  25.509  1.00  0.00     0.036 C 
ATOM     15  C   UNL A   1      35.519  21.863  25.779  1.00  0.00     0.004 A 
ATOM     16  C   UNL A   1      36.148  24.171  25.632  1.00  0.00     0.000 A 
ATOM     17  C   UNL A   1      36.504  22.844  25.805  1.00  0.00     0.000 A 
BRANCH   8  18
ATOM     18  N   UNL A   1      32.174  24.998  24.143  1.00  0.00    -0.338 N 
ATOM     19  C   UNL A   1      33.112  23.848  22.123  1.00  0.00     0.114 C 
ATOM     20  C   UNL A   1      32.376  24.978  22.798  1.00  0.00     0.217 C 
ATOM     21  O   UNL A   1      32.007  25.957  22.145  1.00  0.00    -0.275 OA
ATOM     22  H   UNL A   1      31.890  25.874  24.490  1.00  0.00     0.164 HD
ENDBRANCH   8  18
ENDBRANCH   5   8
ENDBRANCH   3   4
ENDBRANCH   2   3
ENDBRANCH   1   2
BRANCH   1  23
ATOM     23  N   UNL A   1      33.466  30.040  27.695  1.00  0.00    -0.352 N 
ATOM     24  C   UNL A   1      34.482  30.761  28.277  1.00  0.00     0.251 C 
ATOM     25  H   UNL A   1      32.629  30.535  27.545  1.00  0.00     0.163 HD
ATOM     26  O   UNL A   1      34.276  31.896  28.698  1.00  0.00    -0.269 OA
BRANCH  24  27
ATOM     27  C   UNL A   1      35.815  30.140  28.420  1.00  0.00     0.039 A 
ATOM     28  C   UNL A   1      36.707  30.178  27.346  1.00  0.00     0.014 A 
ATOM     29  C   UNL A   1      36.198  29.583  29.641  1.00  0.00     0.014 A 
ATOM     30  C   UNL A   1      38.022  29.742  27.528  1.00  0.00     0.010 A 
ATOM     31  C   UNL A   1      37.526  29.235  29.845  1.00  0.00     0.010 A 
ATOM     32  C   UNL A   1      38.455  29.316  28.794  1.00  0.00    -0.014 A 
BRANCH  32  33
ATOM     33  C   UNL A   1      39.862  28.926  29.065  1.00  0.00     0.031 A 
ATOM     34  C   UNL A   1      40.820  29.962  29.585  1.00  0.00     0.074 A 
ATOM     35  C   UNL A   1      40.303  27.693  28.741  1.00  0.00     0.049 A 
ATOM     36  N   UNL A   1      42.124  29.924  29.655  1.00  0.00    -0.248 NA
ATOM     37  C   UNL A   1      40.229  31.231  30.045  1.00  0.00     0.031 C 
ATOM     38  C   UNL A   1      39.483  26.608  28.194  1.00  0.00     0.029 A 
ATOM     39  N   UNL A   1      41.564  27.153  28.798  1.00  0.00    -0.354 N 
ATOM     40  C   UNL A   1      42.511  31.173  30.125  1.00  0.00     0.074 A 
ATOM     41  C   UNL A   1      41.309  31.960  30.287  1.00  0.00     0.031 C 
ATOM     42  C   UNL A   1      40.261  25.534  27.975  1.00  0.00     0.029 A 
ATOM     43  C   UNL A   1      41.639  25.866  28.321  1.00  0.00     0.049 A 
ATOM     44  H   UNL A   1      42.343  27.643  29.150  1.00  0.00     0.167 HD
ATOM     45  C   UNL A   1      43.757  31.617  30.415  1.00  0.00     0.037 A 
ATOM     46  C   UNL A   1      42.702  25.053  28.160  1.00  0.00     0.037 A 
ATOM     47  C   UNL A   1      44.942  30.811  30.307  1.00  0.00     0.049 A 
ATOM     48  C   UNL A   1      44.070  25.554  28.541  1.00  0.00     0.074 A 
ATOM     49  C   UNL A   1      46.251  31.158  30.592  1.00  0.00     0.029 A 
ATOM     50  N   UNL A   1      44.956  29.482  29.911  1.00  0.00    -0.354 N 
ATOM     51  N   UNL A   1      44.420  26.740  28.979  1.00  0.00    -0.248 NA
ATOM     52  C   UNL A   1      45.190  24.609  28.409  1.00  0.00     0.031 C 
ATOM     53  C   UNL A   1      47.057  30.039  30.365  1.00  0.00     0.029 A 
ATOM     54  C   UNL A   1      46.247  28.989  29.965  1.00  0.00     0.049 A 
ATOM     55  H   UNL A   1      44.165  28.966  29.634  1.00  0.00     0.167 HD
ATOM     56  C   UNL A   1      45.789  26.672  29.208  1.00  0.00     0.074 A 
ATOM     57  C   UNL A   1      46.206  25.330  28.862  1.00  0.00     0.031 C 
ATOM     58  C   UNL A   1      46.627  27.634  29.661  1.00  0.00     0.037 A 
BRANCH  45  59
ATOM     59  C   UNL A   1      43.895  33.030  30.902  1.00  0.00     0.058 A 
ATOM     60  C   UNL A   1      44.077  34.096  30.008  1.00  0.00     0.135 A 
ATOM     61  C   UNL A   1      43.812  33.329  32.272  1.00  0.00     0.135 A 
ATOM     62  F   UNL A   1      44.186  33.861  28.690  1.00  0.00    -0.206 F 
ATOM     63  C   UNL A   1      44.194  35.407  30.454  1.00  0.00     0.059 A 
ATOM     64  C   UNL A   1      43.900  34.637  32.739  1.00  0.00     0.059 A 
ATOM     65  F   UNL A   1      43.642  32.346  33.170  1.00  0.00    -0.206 F 
ATOM     66  C   UNL A   1      44.105  35.668  31.822  1.00  0.00     0.060 A 
BRANCH  66  67
ATOM     67  S   UNL A   1      44.242  37.378  32.385  1.00  0.00     0.124 S 
ATOM     68  O   UNL A   1      45.637  37.431  32.810  1.00  0.00    -0.237 OA
ATOM     69  O   UNL A   1      43.918  38.133  31.179  1.00  0.00    -0.237 OA
ATOM     70  O   UNL A   1      43.254  37.461  33.457  1.00  0.00    -0.744 OA
ENDBRANCH  66  67
ENDBRANCH  45  59
BRANCH  46  71
ATOM     71  C   UNL A   1      42.527  23.679  27.622  1.00  0.00     0.058 A 
ATOM     72  C   UNL A   1      42.387  22.582  28.485  1.00  0.00     0.135 A 
ATOM     73  C   UNL A   1      42.522  23.429  26.241  1.00  0.00     0.135 A 
ATOM     74  F   UNL A   1      42.389  22.771  29.813  1.00  0.00    -0.206 F 
ATOM     75  C   UNL A   1      42.283  21.282  28.001  1.00  0.00     0.059 A 
ATOM     76  C   UNL A   1      42.397  22.140  25.733  1.00  0.00     0.059 A 
ATOM     77  F   UNL A   1      42.631  24.447  25.372  1.00  0.00    -0.206 F 
ATOM     78  C   UNL A   1      42.298  21.070  26.622  1.00  0.00     0.060 A 
BRANCH  78  79
ATOM     79  S   UNL A   1      42.155  19.381  25.997  1.00  0.00     0.124 S 
ATOM     80  O   UNL A   1      42.690  18.611  27.114  1.00  0.00    -0.237 OA
ATOM     81  O   UNL A   1      40.718  19.257  25.764  1.00  0.00    -0.237 OA
ATOM     82  O   UNL A   1      42.977  19.404  24.790  1.00  0.00    -0.744 OA
ENDBRANCH  78  79
ENDBRANCH  46  71
BRANCH  58  83
ATOM     83  C   UNL A   1      48.063  27.261  29.880  1.00  0.00     0.058 A 
ATOM     84  C   UNL A   1      49.025  27.413  28.872  1.00  0.00     0.135 A 
ATOM     85  C   UNL A   1      48.493  26.834  31.147  1.00  0.00     0.135 A 
ATOM     86  F   UNL A   1      48.659  27.812  27.643  1.00  0.00    -0.206 F 
ATOM     87  C   UNL A   1      50.370  27.149  29.110  1.00  0.00     0.059 A 
ATOM     88  C   UNL A   1      49.834  26.583  31.412  1.00  0.00     0.059 A 
ATOM     89  F   UNL A   1      47.608  26.682  32.145  1.00  0.00    -0.206 F 
ATOM     90  C   UNL A   1      50.765  26.740  30.386  1.00  0.00     0.060 A 
BRANCH  90  91
ATOM     91  S   UNL A   1      52.521  26.469  30.705  1.00  0.00     0.124 S 
ATOM     92  O   UNL A   1      53.044  26.312  29.351  1.00  0.00    -0.237 OA
ATOM     93  O   UNL A   1      52.909  27.695  31.396  1.00  0.00    -0.237 OA
ATOM     94  O   UNL A   1      52.534  25.263  31.528  1.00  0.00    -0.744 OA
ENDBRANCH  90  91
ENDBRANCH  58  83
ENDBRANCH  32  33
ENDBRANCH  24  27
ENDBRANCH   1  23
TORSDOF 14
ENDMDL
