MODEL 1
REMARK VINA RESULT:     -11.9      0.000      0.000
REMARK SMILES COc1ccc(OC)c(-c2cc(C(=O)NCCCNC(=O)c3ccc(-c4c5nc(c(-c6c(F)cc(S(=O)(=O)[O-])cc6F)c6ccc([nH]6)c(-c6c(F)cc(S(=O)(=O)[O-])cc6F)c6nc(c(-c7c(F)cc(S(=O)(=O)[O-])cc7F)c7ccc4[nH]7)C=C6)C=C5)cc3)ccn2)c1
REMARK SMILES IDX 17 1 16 2 15 3 13 4 14 5 12 7 10 8 11 9 90 10 89 11 88 12
REMARK SMILES IDX 9 13 3 14 4 15 91 16 5 17 6 18 2 19 1 20 7 21 8 22 18 23
REMARK SMILES IDX 19 24 20 25 21 27 22 28 23 29 87 30 24 31 86 32 25 33 26 34
REMARK SMILES IDX 27 35 80 36 28 37 85 38 79 39 81 40 29 41 84 42 78 43 77 44
REMARK SMILES IDX 30 46 64 47 43 48 63 49 44 50 47 51 62 52 82 53 45 54 46 55
REMARK SMILES IDX 61 57 83 58 48 59 31 60 32 61 41 62 33 63 34 64 40 65 42 66
REMARK SMILES IDX 35 67 36 68 37 69 38 70 39 71 65 72 66 73 75 74 67 75 68 76
REMARK SMILES IDX 74 77 76 78 69 79 70 80 71 81 72 82 73 83 49 84 50 85 59 86
REMARK SMILES IDX 51 87 52 88 58 89 60 90 53 91 54 92 55 93 56 94 57 95
REMARK H PARENT 15 6 19 26 81 45 47 56
REMARK Flexibility Score: inf
ROOT
ATOM      1  C   UNL A   1      40.421  21.628  26.848  1.00  0.00     0.042 C 
ENDROOT
BRANCH   1   2
ATOM      2  C   UNL A   1      41.424  20.694  27.523  1.00  0.00     0.118 C 
BRANCH   2   3
ATOM      3  N   UNL A   1      41.531  19.429  26.813  1.00  0.00    -0.352 N 
ATOM      4  C   UNL A   1      42.516  18.902  26.016  1.00  0.00     0.251 C 
ATOM      5  O   UNL A   1      42.386  17.747  25.613  1.00  0.00    -0.269 OA
ATOM      6  H   UNL A   1      40.750  18.840  26.925  1.00  0.00     0.163 HD
BRANCH   4   7
ATOM      7  C   UNL A   1      43.757  19.641  25.679  1.00  0.00     0.043 A 
ATOM      8  C   UNL A   1      45.099  21.615  25.478  1.00  0.00     0.075 A 
ATOM      9  C   UNL A   1      43.858  21.027  25.691  1.00  0.00     0.043 A 
ATOM     10  N   UNL A   1      46.206  20.893  25.185  1.00  0.00    -0.256 NA
ATOM     11  C   UNL A   1      46.062  19.554  25.074  1.00  0.00     0.112 A 
ATOM     12  C   UNL A   1      44.877  18.890  25.321  1.00  0.00     0.034 A 
BRANCH   8  13
ATOM     13  C   UNL A   1      45.280  23.053  25.694  1.00  0.00     0.046 A 
ATOM     14  C   UNL A   1      46.491  25.056  24.922  1.00  0.00     0.119 A 
ATOM     15  C   UNL A   1      46.024  25.748  26.031  1.00  0.00     0.050 A 
ATOM     16  C   UNL A   1      46.107  23.726  24.753  1.00  0.00     0.060 A 
ATOM     17  C   UNL A   1      45.186  25.119  26.952  1.00  0.00     0.051 A 
ATOM     18  C   UNL A   1      44.804  23.775  26.803  1.00  0.00     0.128 A 
BRANCH  14  19
ATOM     19  O   UNL A   1      47.330  25.766  24.111  1.00  0.00    -0.497 OA
ATOM     20  C   UNL A   1      47.498  27.149  24.392  1.00  0.00     0.278 C 
ENDBRANCH  14  19
BRANCH  18  21
ATOM     21  O   UNL A   1      44.047  23.349  27.860  1.00  0.00    -0.496 OA
ATOM     22  C   UNL A   1      43.901  24.177  29.001  1.00  0.00     0.278 C 
ENDBRANCH  18  21
ENDBRANCH   8  13
ENDBRANCH   4   7
ENDBRANCH   2   3
ENDBRANCH   1   2
BRANCH   1  23
ATOM     23  C   UNL A   1      40.600  23.093  27.238  1.00  0.00     0.118 C 
BRANCH  23  24
ATOM     24  N   UNL A   1      41.273  23.852  26.194  1.00  0.00    -0.352 N 
ATOM     25  C   UNL A   1      41.499  25.201  26.086  1.00  0.00     0.251 C 
ATOM     26  H   UNL A   1      41.621  23.312  25.448  1.00  0.00     0.163 HD
ATOM     27  O   UNL A   1      41.886  25.651  25.012  1.00  0.00    -0.269 OA
BRANCH  25  28
ATOM     28  C   UNL A   1      41.279  26.108  27.236  1.00  0.00     0.039 A 
ATOM     29  C   UNL A   1      42.155  27.185  27.413  1.00  0.00     0.014 A 
ATOM     30  C   UNL A   1      40.270  25.873  28.175  1.00  0.00     0.014 A 
ATOM     31  C   UNL A   1      41.997  28.040  28.505  1.00  0.00     0.010 A 
ATOM     32  C   UNL A   1      40.073  26.765  29.228  1.00  0.00     0.010 A 
ATOM     33  C   UNL A   1      40.943  27.850  29.412  1.00  0.00    -0.014 A 
BRANCH  33  34
ATOM     34  C   UNL A   1      40.749  28.774  30.559  1.00  0.00     0.031 A 
ATOM     35  C   UNL A   1      41.595  28.640  31.797  1.00  0.00     0.074 A 
ATOM     36  C   UNL A   1      39.781  29.709  30.500  1.00  0.00     0.049 A 
ATOM     37  N   UNL A   1      41.552  29.333  32.906  1.00  0.00    -0.248 NA
ATOM     38  C   UNL A   1      42.606  27.570  31.799  1.00  0.00     0.031 C 
ATOM     39  C   UNL A   1      38.862  29.904  29.376  1.00  0.00     0.029 A 
ATOM     40  N   UNL A   1      39.404  30.669  31.405  1.00  0.00    -0.354 N 
ATOM     41  C   UNL A   1      42.517  28.778  33.740  1.00  0.00     0.074 A 
ATOM     42  C   UNL A   1      43.094  27.659  33.028  1.00  0.00     0.031 C 
ATOM     43  C   UNL A   1      38.045  30.934  29.648  1.00  0.00     0.029 A 
ATOM     44  C   UNL A   1      38.361  31.454  30.974  1.00  0.00     0.049 A 
ATOM     45  H   UNL A   1      39.840  30.784  32.281  1.00  0.00     0.167 HD
ATOM     46  C   UNL A   1      42.901  29.177  34.977  1.00  0.00     0.037 A 
ATOM     47  C   UNL A   1      37.732  32.480  31.579  1.00  0.00     0.037 A 
ATOM     48  C   UNL A   1      42.339  30.309  35.670  1.00  0.00     0.049 A 
ATOM     49  C   UNL A   1      38.195  32.922  32.940  1.00  0.00     0.074 A 
ATOM     50  C   UNL A   1      42.694  30.828  36.903  1.00  0.00     0.029 A 
ATOM     51  N   UNL A   1      41.306  31.100  35.187  1.00  0.00    -0.354 N 
ATOM     52  N   UNL A   1      39.147  32.420  33.690  1.00  0.00    -0.248 NA
ATOM     53  C   UNL A   1      37.510  34.080  33.530  1.00  0.00     0.031 C 
ATOM     54  C   UNL A   1      41.854  31.913  37.180  1.00  0.00     0.029 A 
ATOM     55  C   UNL A   1      41.005  32.096  36.101  1.00  0.00     0.049 A 
ATOM     56  H   UNL A   1      40.855  30.972  34.321  1.00  0.00     0.167 HD
ATOM     57  C   UNL A   1      39.191  33.216  34.830  1.00  0.00     0.074 A 
ATOM     58  C   UNL A   1      38.180  34.240  34.662  1.00  0.00     0.031 C 
ATOM     59  C   UNL A   1      39.996  33.110  35.917  1.00  0.00     0.037 A 
BRANCH  46  60
ATOM     60  C   UNL A   1      43.986  28.387  35.659  1.00  0.00     0.058 A 
ATOM     61  C   UNL A   1      43.687  27.329  36.531  1.00  0.00     0.135 A 
ATOM     62  C   UNL A   1      45.339  28.673  35.418  1.00  0.00     0.135 A 
ATOM     63  F   UNL A   1      42.410  27.021  36.809  1.00  0.00    -0.206 F 
ATOM     64  C   UNL A   1      44.689  26.602  37.165  1.00  0.00     0.059 A 
ATOM     65  C   UNL A   1      46.359  27.941  36.021  1.00  0.00     0.059 A 
ATOM     66  F   UNL A   1      45.683  29.674  34.592  1.00  0.00    -0.206 F 
ATOM     67  C   UNL A   1      46.023  26.918  36.906  1.00  0.00     0.060 A 
BRANCH  67  68
ATOM     68  S   UNL A   1      47.313  25.967  37.738  1.00  0.00     0.124 S 
ATOM     69  O   UNL A   1      48.431  26.123  36.812  1.00  0.00    -0.237 OA
ATOM     70  O   UNL A   1      47.445  26.664  39.013  1.00  0.00    -0.237 OA
ATOM     71  O   UNL A   1      46.748  24.623  37.817  1.00  0.00    -0.744 OA
ENDBRANCH  67  68
ENDBRANCH  46  60
BRANCH  47  72
ATOM     72  C   UNL A   1      36.621  33.180  30.884  1.00  0.00     0.058 A 
ATOM     73  C   UNL A   1      35.292  33.008  31.299  1.00  0.00     0.135 A 
ATOM     74  C   UNL A   1      36.864  34.045  29.807  1.00  0.00     0.135 A 
ATOM     75  F   UNL A   1      35.009  32.186  32.321  1.00  0.00    -0.206 F 
ATOM     76  C   UNL A   1      34.239  33.656  30.661  1.00  0.00     0.059 A 
ATOM     77  C   UNL A   1      35.831  34.724  29.168  1.00  0.00     0.059 A 
ATOM     78  F   UNL A   1      38.119  34.257  29.385  1.00  0.00    -0.206 F 
ATOM     79  C   UNL A   1      34.520  34.515  29.596  1.00  0.00     0.060 A 
BRANCH  79  80
ATOM     80  S   UNL A   1      33.153  35.392  28.806  1.00  0.00     0.124 S 
ATOM     81  O   UNL A   1      33.864  36.379  28.003  1.00  0.00    -0.237 OA
ATOM     82  O   UNL A   1      32.488  34.324  28.066  1.00  0.00    -0.237 OA
ATOM     83  O   UNL A   1      32.398  35.922  29.938  1.00  0.00    -0.744 OA
ENDBRANCH  79  80
ENDBRANCH  47  72
BRANCH  59  84
ATOM     84  C   UNL A   1      39.835  34.148  36.991  1.00  0.00     0.058 A 
ATOM     85  C   UNL A   1      39.087  33.900  38.153  1.00  0.00     0.135 A 
ATOM     86  C   UNL A   1      40.455  35.402  36.864  1.00  0.00     0.135 A 
ATOM     87  F   UNL A   1      38.471  32.719  38.319  1.00  0.00    -0.206 F 
ATOM     88  C   UNL A   1      38.930  34.871  39.136  1.00  0.00     0.059 A 
ATOM     89  C   UNL A   1      40.332  36.379  37.848  1.00  0.00     0.059 A 
ATOM     90  F   UNL A   1      41.191  35.687  35.779  1.00  0.00    -0.206 F 
ATOM     91  C   UNL A   1      39.552  36.110  38.972  1.00  0.00     0.060 A 
BRANCH  91  92
ATOM     92  S   UNL A   1      39.348  37.362  40.257  1.00  0.00     0.124 S 
ATOM     93  O   UNL A   1      40.735  37.704  40.554  1.00  0.00    -0.237 OA
ATOM     94  O   UNL A   1      38.574  38.392  39.572  1.00  0.00    -0.237 OA
ATOM     95  O   UNL A   1      38.636  36.650  41.313  1.00  0.00    -0.744 OA
ENDBRANCH  91  92
ENDBRANCH  59  84
ENDBRANCH  33  34
ENDBRANCH  25  28
ENDBRANCH  23  24
ENDBRANCH   1  23
TORSDOF 16
ENDMDL
MODEL 2
REMARK VINA RESULT:     -11.6      3.198      5.728
REMARK SMILES COc1ccc(OC)c(-c2cc(C(=O)NCCCNC(=O)c3ccc(-c4c5nc(c(-c6c(F)cc(S(=O)(=O)[O-])cc6F)c6ccc([nH]6)c(-c6c(F)cc(S(=O)(=O)[O-])cc6F)c6nc(c(-c7c(F)cc(S(=O)(=O)[O-])cc7F)c7ccc4[nH]7)C=C6)C=C5)cc3)ccn2)c1
REMARK SMILES IDX 17 1 16 2 15 3 13 4 14 5 12 7 10 8 11 9 90 10 89 11 88 12
REMARK SMILES IDX 9 13 3 14 4 15 91 16 5 17 6 18 2 19 1 20 7 21 8 22 18 23
REMARK SMILES IDX 19 24 20 25 21 27 22 28 23 29 87 30 24 31 86 32 25 33 26 34
REMARK SMILES IDX 27 35 80 36 28 37 85 38 79 39 81 40 29 41 84 42 78 43 77 44
REMARK SMILES IDX 30 46 64 47 43 48 63 49 44 50 47 51 62 52 82 53 45 54 46 55
REMARK SMILES IDX 61 57 83 58 48 59 31 60 32 61 41 62 33 63 34 64 40 65 42 66
REMARK SMILES IDX 35 67 36 68 37 69 38 70 39 71 65 72 66 73 75 74 67 75 68 76
REMARK SMILES IDX 74 77 76 78 69 79 70 80 71 81 72 82 73 83 49 84 50 85 59 86
REMARK SMILES IDX 51 87 52 88 58 89 60 90 53 91 54 92 55 93 56 94 57 95
REMARK H PARENT 15 6 19 26 81 45 47 56
REMARK Flexibility Score: inf
ROOT
ATOM      1  C   UNL A   1      39.254  22.422  26.481  1.00  0.00     0.042 C 
ENDROOT
BRANCH   1   2
ATOM      2  C   UNL A   1      38.125  23.386  26.120  1.00  0.00     0.118 C 
BRANCH   2   3
ATOM      3  N   UNL A   1      37.603  23.116  24.789  1.00  0.00    -0.352 N 
ATOM      4  C   UNL A   1      36.372  23.331  24.224  1.00  0.00     0.251 C 
ATOM      5  O   UNL A   1      36.229  23.092  23.026  1.00  0.00    -0.269 OA
ATOM      6  H   UNL A   1      38.256  22.701  24.180  1.00  0.00     0.163 HD
BRANCH   4   7
ATOM      7  C   UNL A   1      35.230  23.905  24.978  1.00  0.00     0.043 A 
ATOM      8  C   UNL A   1      33.726  25.664  25.595  1.00  0.00     0.075 A 
ATOM      9  C   UNL A   1      34.885  25.251  24.949  1.00  0.00     0.043 A 
ATOM     10  N   UNL A   1      32.954  24.818  26.317  1.00  0.00    -0.256 NA
ATOM     11  C   UNL A   1      33.366  23.535  26.418  1.00  0.00     0.112 A 
ATOM     12  C   UNL A   1      34.476  23.035  25.766  1.00  0.00     0.034 A 
BRANCH   8  13
ATOM     13  C   UNL A   1      33.223  27.027  25.406  1.00  0.00     0.046 A 
ATOM     14  C   UNL A   1      33.245  29.313  26.328  1.00  0.00     0.119 A 
ATOM     15  C   UNL A   1      32.224  29.659  25.453  1.00  0.00     0.050 A 
ATOM     16  C   UNL A   1      33.745  28.012  26.291  1.00  0.00     0.060 A 
ATOM     17  C   UNL A   1      31.716  28.720  24.556  1.00  0.00     0.051 A 
ATOM     18  C   UNL A   1      32.200  27.401  24.517  1.00  0.00     0.128 A 
BRANCH  14  19
ATOM     19  O   UNL A   1      33.634  30.306  27.181  1.00  0.00    -0.497 OA
ATOM     20  C   UNL A   1      34.969  30.267  27.667  1.00  0.00     0.278 C 
ENDBRANCH  14  19
BRANCH  18  21
ATOM     21  O   UNL A   1      31.506  26.639  23.618  1.00  0.00    -0.496 OA
ATOM     22  C   UNL A   1      30.679  27.265  22.653  1.00  0.00     0.278 C 
ENDBRANCH  18  21
ENDBRANCH   8  13
ENDBRANCH   4   7
ENDBRANCH   2   3
ENDBRANCH   1   2
BRANCH   1  23
ATOM     23  C   UNL A   1      40.464  23.112  27.107  1.00  0.00     0.118 C 
BRANCH  23  24
ATOM     24  N   UNL A   1      41.243  23.841  26.117  1.00  0.00    -0.352 N 
ATOM     25  C   UNL A   1      41.565  25.173  26.050  1.00  0.00     0.251 C 
ATOM     26  H   UNL A   1      41.595  23.291  25.380  1.00  0.00     0.163 HD
ATOM     27  O   UNL A   1      42.040  25.614  25.008  1.00  0.00    -0.269 OA
BRANCH  25  28
ATOM     28  C   UNL A   1      41.342  26.074  27.205  1.00  0.00     0.039 A 
ATOM     29  C   UNL A   1      42.243  27.124  27.414  1.00  0.00     0.014 A 
ATOM     30  C   UNL A   1      40.305  25.857  28.117  1.00  0.00     0.014 A 
ATOM     31  C   UNL A   1      42.082  27.971  28.513  1.00  0.00     0.010 A 
ATOM     32  C   UNL A   1      40.108  26.742  29.175  1.00  0.00     0.010 A 
ATOM     33  C   UNL A   1      41.001  27.800  29.392  1.00  0.00    -0.014 A 
BRANCH  33  34
ATOM     34  C   UNL A   1      40.806  28.717  30.545  1.00  0.00     0.031 A 
ATOM     35  C   UNL A   1      41.668  28.591  31.773  1.00  0.00     0.074 A 
ATOM     36  C   UNL A   1      39.823  29.637  30.499  1.00  0.00     0.049 A 
ATOM     37  N   UNL A   1      41.626  29.280  32.885  1.00  0.00    -0.248 NA
ATOM     38  C   UNL A   1      42.694  27.538  31.760  1.00  0.00     0.031 C 
ATOM     39  C   UNL A   1      38.888  29.821  29.386  1.00  0.00     0.029 A 
ATOM     40  N   UNL A   1      39.441  30.587  31.413  1.00  0.00    -0.354 N 
ATOM     41  C   UNL A   1      42.608  28.737  33.707  1.00  0.00     0.074 A 
ATOM     42  C   UNL A   1      43.195  27.630  32.984  1.00  0.00     0.031 C 
ATOM     43  C   UNL A   1      38.059  30.837  29.671  1.00  0.00     0.029 A 
ATOM     44  C   UNL A   1      38.381  31.357  30.996  1.00  0.00     0.049 A 
ATOM     45  H   UNL A   1      39.884  30.706  32.284  1.00  0.00     0.167 HD
ATOM     46  C   UNL A   1      42.999  29.138  34.941  1.00  0.00     0.037 A 
ATOM     47  C   UNL A   1      37.743  32.371  31.612  1.00  0.00     0.037 A 
ATOM     48  C   UNL A   1      42.427  30.258  35.644  1.00  0.00     0.049 A 
ATOM     49  C   UNL A   1      38.213  32.816  32.969  1.00  0.00     0.074 A 
ATOM     50  C   UNL A   1      42.787  30.778  36.875  1.00  0.00     0.029 A 
ATOM     51  N   UNL A   1      41.377  31.035  35.176  1.00  0.00    -0.354 N 
ATOM     52  N   UNL A   1      39.181  32.326  33.707  1.00  0.00    -0.248 NA
ATOM     53  C   UNL A   1      37.516  33.960  33.570  1.00  0.00     0.031 C 
ATOM     54  C   UNL A   1      41.933  31.849  37.166  1.00  0.00     0.029 A 
ATOM     55  C   UNL A   1      41.069  32.022  36.097  1.00  0.00     0.049 A 
ATOM     56  H   UNL A   1      40.918  30.903  34.314  1.00  0.00     0.167 HD
ATOM     57  C   UNL A   1      39.225  33.119  34.849  1.00  0.00     0.074 A 
ATOM     58  C   UNL A   1      38.196  34.127  34.696  1.00  0.00     0.031 C 
ATOM     59  C   UNL A   1      40.043  33.020  35.927  1.00  0.00     0.037 A 
BRANCH  46  60
ATOM     60  C   UNL A   1      44.103  28.362  35.608  1.00  0.00     0.058 A 
ATOM     61  C   UNL A   1      43.831  27.289  36.470  1.00  0.00     0.135 A 
ATOM     62  C   UNL A   1      45.449  28.677  35.362  1.00  0.00     0.135 A 
ATOM     63  F   UNL A   1      42.561  26.953  36.752  1.00  0.00    -0.206 F 
ATOM     64  C   UNL A   1      44.851  26.575  37.090  1.00  0.00     0.059 A 
ATOM     65  C   UNL A   1      46.487  27.959  35.951  1.00  0.00     0.059 A 
ATOM     66  F   UNL A   1      45.768  29.693  34.545  1.00  0.00    -0.206 F 
ATOM     67  C   UNL A   1      46.177  26.920  36.827  1.00  0.00     0.060 A 
BRANCH  67  68
ATOM     68  S   UNL A   1      47.491  25.986  37.641  1.00  0.00     0.124 S 
ATOM     69  O   UNL A   1      47.905  25.080  36.575  1.00  0.00    -0.237 OA
ATOM     70  O   UNL A   1      48.448  27.031  37.992  1.00  0.00    -0.237 OA
ATOM     71  O   UNL A   1      46.812  25.358  38.770  1.00  0.00    -0.744 OA
ENDBRANCH  67  68
ENDBRANCH  46  60
BRANCH  47  72
ATOM     72  C   UNL A   1      36.613  33.056  30.931  1.00  0.00     0.058 A 
ATOM     73  C   UNL A   1      35.291  32.861  31.360  1.00  0.00     0.135 A 
ATOM     74  C   UNL A   1      36.831  33.930  29.855  1.00  0.00     0.135 A 
ATOM     75  F   UNL A   1      35.033  32.031  32.381  1.00  0.00    -0.206 F 
ATOM     76  C   UNL A   1      34.222  33.496  30.735  1.00  0.00     0.059 A 
ATOM     77  C   UNL A   1      35.780  34.595  29.230  1.00  0.00     0.059 A 
ATOM     78  F   UNL A   1      38.078  34.163  29.421  1.00  0.00    -0.206 F 
ATOM     79  C   UNL A   1      34.477  34.363  29.671  1.00  0.00     0.060 A 
BRANCH  79  80
ATOM     80  S   UNL A   1      33.089  35.221  28.900  1.00  0.00     0.124 S 
ATOM     81  O   UNL A   1      32.224  35.468  30.047  1.00  0.00    -0.237 OA
ATOM     82  O   UNL A   1      33.735  36.396  28.322  1.00  0.00    -0.237 OA
ATOM     83  O   UNL A   1      32.592  34.249  27.929  1.00  0.00    -0.744 OA
ENDBRANCH  79  80
ENDBRANCH  47  72
BRANCH  59  84
ATOM     84  C   UNL A   1      39.878  34.052  37.007  1.00  0.00     0.058 A 
ATOM     85  C   UNL A   1      39.109  33.804  38.155  1.00  0.00     0.135 A 
ATOM     86  C   UNL A   1      40.514  35.300  36.900  1.00  0.00     0.135 A 
ATOM     87  F   UNL A   1      38.476  32.629  38.302  1.00  0.00    -0.206 F 
ATOM     88  C   UNL A   1      38.947  34.769  39.143  1.00  0.00     0.059 A 
ATOM     89  C   UNL A   1      40.387  36.270  37.889  1.00  0.00     0.059 A 
ATOM     90  F   UNL A   1      41.270  35.584  35.829  1.00  0.00    -0.206 F 
ATOM     91  C   UNL A   1      39.587  36.001  38.999  1.00  0.00     0.060 A 
BRANCH  91  92
ATOM     92  S   UNL A   1      39.377  37.245  40.291  1.00  0.00     0.124 S 
ATOM     93  O   UNL A   1      38.630  38.279  39.581  1.00  0.00    -0.237 OA
ATOM     94  O   UNL A   1      38.634  36.516  41.313  1.00  0.00    -0.237 OA
ATOM     95  O   UNL A   1      40.747  37.595  40.650  1.00  0.00    -0.744 OA
ENDBRANCH  91  92
ENDBRANCH  59  84
ENDBRANCH  33  34
ENDBRANCH  25  28
ENDBRANCH  23  24
ENDBRANCH   1  23
TORSDOF 16
ENDMDL
MODEL 3
REMARK VINA RESULT:     -11.5      3.354      5.874
REMARK SMILES COc1ccc(OC)c(-c2cc(C(=O)NCCCNC(=O)c3ccc(-c4c5nc(c(-c6c(F)cc(S(=O)(=O)[O-])cc6F)c6ccc([nH]6)c(-c6c(F)cc(S(=O)(=O)[O-])cc6F)c6nc(c(-c7c(F)cc(S(=O)(=O)[O-])cc7F)c7ccc4[nH]7)C=C6)C=C5)cc3)ccn2)c1
REMARK SMILES IDX 17 1 16 2 15 3 13 4 14 5 12 7 10 8 11 9 90 10 89 11 88 12
REMARK SMILES IDX 9 13 3 14 4 15 91 16 5 17 6 18 2 19 1 20 7 21 8 22 18 23
REMARK SMILES IDX 19 24 20 25 21 27 22 28 23 29 87 30 24 31 86 32 25 33 26 34
REMARK SMILES IDX 27 35 80 36 28 37 85 38 79 39 81 40 29 41 84 42 78 43 77 44
REMARK SMILES IDX 30 46 64 47 43 48 63 49 44 50 47 51 62 52 82 53 45 54 46 55
REMARK SMILES IDX 61 57 83 58 48 59 31 60 32 61 41 62 33 63 34 64 40 65 42 66
REMARK SMILES IDX 35 67 36 68 37 69 38 70 39 71 65 72 66 73 75 74 67 75 68 76
REMARK SMILES IDX 74 77 76 78 69 79 70 80 71 81 72 82 73 83 49 84 50 85 59 86
REMARK SMILES IDX 51 87 52 88 58 89 60 90 53 91 54 92 55 93 56 94 57 95
REMARK H PARENT 15 6 19 26 81 45 47 56
REMARK Flexibility Score: inf
ROOT
ATOM      1  C   UNL A   1      39.244  22.414  26.406  1.00  0.00     0.042 C 
ENDROOT
BRANCH   1   2
ATOM      2  C   UNL A   1      38.107  23.391  26.113  1.00  0.00     0.118 C 
BRANCH   2   3
ATOM      3  N   UNL A   1      37.588  23.212  24.766  1.00  0.00    -0.352 N 
ATOM      4  C   UNL A   1      36.338  23.393  24.231  1.00  0.00     0.251 C 
ATOM      5  O   UNL A   1      36.197  23.258  23.016  1.00  0.00    -0.269 OA
ATOM      6  H   UNL A   1      38.260  22.901  24.117  1.00  0.00     0.163 HD
BRANCH   4   7
ATOM      7  C   UNL A   1      35.170  23.813  25.042  1.00  0.00     0.043 A 
ATOM      8  C   UNL A   1      33.456  25.347  25.714  1.00  0.00     0.075 A 
ATOM      9  C   UNL A   1      34.625  25.091  25.006  1.00  0.00     0.043 A 
ATOM     10  N   UNL A   1      32.864  24.418  26.501  1.00  0.00    -0.256 NA
ATOM     11  C   UNL A   1      33.470  23.215  26.604  1.00  0.00     0.112 A 
ATOM     12  C   UNL A   1      34.603  22.866  25.895  1.00  0.00     0.034 A 
BRANCH   8  13
ATOM     13  C   UNL A   1      32.744  26.614  25.528  1.00  0.00     0.046 A 
ATOM     14  C   UNL A   1      30.897  27.712  24.321  1.00  0.00     0.119 A 
ATOM     15  C   UNL A   1      31.353  28.943  24.772  1.00  0.00     0.050 A 
ATOM     16  C   UNL A   1      31.582  26.561  24.710  1.00  0.00     0.060 A 
ATOM     17  C   UNL A   1      32.474  29.018  25.601  1.00  0.00     0.051 A 
ATOM     18  C   UNL A   1      33.182  27.868  25.988  1.00  0.00     0.128 A 
BRANCH  14  19
ATOM     19  O   UNL A   1      29.815  27.768  23.490  1.00  0.00    -0.497 OA
ATOM     20  C   UNL A   1      29.707  28.895  22.630  1.00  0.00     0.278 C 
ENDBRANCH  14  19
BRANCH  18  21
ATOM     21  O   UNL A   1      34.284  28.187  26.733  1.00  0.00    -0.496 OA
ATOM     22  C   UNL A   1      34.444  29.505  27.228  1.00  0.00     0.278 C 
ENDBRANCH  18  21
ENDBRANCH   8  13
ENDBRANCH   4   7
ENDBRANCH   2   3
ENDBRANCH   1   2
BRANCH   1  23
ATOM     23  C   UNL A   1      40.450  23.069  27.076  1.00  0.00     0.118 C 
BRANCH  23  24
ATOM     24  N   UNL A   1      41.285  23.775  26.114  1.00  0.00    -0.352 N 
ATOM     25  C   UNL A   1      41.650  25.095  26.061  1.00  0.00     0.251 C 
ATOM     26  H   UNL A   1      41.644  23.215  25.389  1.00  0.00     0.163 HD
ATOM     27  O   UNL A   1      42.174  25.523  25.037  1.00  0.00    -0.269 OA
BRANCH  25  28
ATOM     28  C   UNL A   1      41.417  26.002  27.209  1.00  0.00     0.039 A 
ATOM     29  C   UNL A   1      42.344  27.020  27.454  1.00  0.00     0.014 A 
ATOM     30  C   UNL A   1      40.340  25.818  28.083  1.00  0.00     0.014 A 
ATOM     31  C   UNL A   1      42.172  27.871  28.548  1.00  0.00     0.010 A 
ATOM     32  C   UNL A   1      40.135  26.708  29.136  1.00  0.00     0.010 A 
ATOM     33  C   UNL A   1      41.056  27.736  29.387  1.00  0.00    -0.014 A 
BRANCH  33  34
ATOM     34  C   UNL A   1      40.850  28.657  30.535  1.00  0.00     0.031 A 
ATOM     35  C   UNL A   1      41.693  28.529  31.776  1.00  0.00     0.074 A 
ATOM     36  C   UNL A   1      39.873  29.582  30.473  1.00  0.00     0.049 A 
ATOM     37  N   UNL A   1      41.640  29.221  32.885  1.00  0.00    -0.248 NA
ATOM     38  C   UNL A   1      42.713  27.469  31.780  1.00  0.00     0.031 C 
ATOM     39  C   UNL A   1      38.956  29.770  29.347  1.00  0.00     0.029 A 
ATOM     40  N   UNL A   1      39.485  30.538  31.378  1.00  0.00    -0.354 N 
ATOM     41  C   UNL A   1      42.607  28.673  33.722  1.00  0.00     0.074 A 
ATOM     42  C   UNL A   1      43.197  27.561  33.011  1.00  0.00     0.031 C 
ATOM     43  C   UNL A   1      38.129  30.792  29.617  1.00  0.00     0.029 A 
ATOM     44  C   UNL A   1      38.436  31.314  30.945  1.00  0.00     0.049 A 
ATOM     45  H   UNL A   1      39.917  30.657  32.255  1.00  0.00     0.167 HD
ATOM     46  C   UNL A   1      42.983  29.075  34.960  1.00  0.00     0.037 A 
ATOM     47  C   UNL A   1      37.795  32.333  31.549  1.00  0.00     0.037 A 
ATOM     48  C   UNL A   1      42.409  30.201  35.653  1.00  0.00     0.049 A 
ATOM     49  C   UNL A   1      38.250  32.779  32.911  1.00  0.00     0.074 A 
ATOM     50  C   UNL A   1      42.754  30.722  36.887  1.00  0.00     0.029 A 
ATOM     51  N   UNL A   1      41.370  30.983  35.167  1.00  0.00    -0.354 N 
ATOM     52  N   UNL A   1      39.204  32.285  33.664  1.00  0.00    -0.248 NA
ATOM     53  C   UNL A   1      37.551  33.929  33.500  1.00  0.00     0.031 C 
ATOM     54  C   UNL A   1      41.904  31.799  37.163  1.00  0.00     0.029 A 
ATOM     55  C   UNL A   1      41.056  31.975  36.081  1.00  0.00     0.049 A 
ATOM     56  H   UNL A   1      40.923  30.852  34.300  1.00  0.00     0.167 HD
ATOM     57  C   UNL A   1      39.237  33.080  34.805  1.00  0.00     0.074 A 
ATOM     58  C   UNL A   1      38.216  34.095  34.635  1.00  0.00     0.031 C 
ATOM     59  C   UNL A   1      40.039  32.979  35.895  1.00  0.00     0.037 A 
BRANCH  46  60
ATOM     60  C   UNL A   1      44.073  28.295  35.645  1.00  0.00     0.058 A 
ATOM     61  C   UNL A   1      43.781  27.230  36.512  1.00  0.00     0.135 A 
ATOM     62  C   UNL A   1      45.424  28.595  35.411  1.00  0.00     0.135 A 
ATOM     63  F   UNL A   1      42.506  26.909  36.783  1.00  0.00    -0.206 F 
ATOM     64  C   UNL A   1      44.788  26.512  37.149  1.00  0.00     0.059 A 
ATOM     65  C   UNL A   1      46.449  27.872  36.017  1.00  0.00     0.059 A 
ATOM     66  F   UNL A   1      45.761  29.602  34.590  1.00  0.00    -0.206 F 
ATOM     67  C   UNL A   1      46.119  26.843  36.897  1.00  0.00     0.060 A 
BRANCH  67  68
ATOM     68  S   UNL A   1      47.416  25.903  37.732  1.00  0.00     0.124 S 
ATOM     69  O   UNL A   1      47.832  24.984  36.678  1.00  0.00    -0.237 OA
ATOM     70  O   UNL A   1      48.379  26.941  38.085  1.00  0.00    -0.237 OA
ATOM     71  O   UNL A   1      46.719  25.290  38.859  1.00  0.00    -0.744 OA
ENDBRANCH  67  68
ENDBRANCH  46  60
BRANCH  47  72
ATOM     72  C   UNL A   1      36.680  33.024  30.850  1.00  0.00     0.058 A 
ATOM     73  C   UNL A   1      35.352  32.845  31.266  1.00  0.00     0.135 A 
ATOM     74  C   UNL A   1      36.918  33.887  29.770  1.00  0.00     0.135 A 
ATOM     75  F   UNL A   1      35.074  32.025  32.291  1.00  0.00    -0.206 F 
ATOM     76  C   UNL A   1      34.295  33.484  30.625  1.00  0.00     0.059 A 
ATOM     77  C   UNL A   1      35.881  34.557  29.129  1.00  0.00     0.059 A 
ATOM     78  F   UNL A   1      38.172  34.105  29.348  1.00  0.00    -0.206 F 
ATOM     79  C   UNL A   1      34.571  34.341  29.556  1.00  0.00     0.060 A 
BRANCH  79  80
ATOM     80  S   UNL A   1      33.200  35.206  28.763  1.00  0.00     0.124 S 
ATOM     81  O   UNL A   1      32.608  34.143  27.959  1.00  0.00    -0.237 OA
ATOM     82  O   UNL A   1      32.413  35.653  29.909  1.00  0.00    -0.237 OA
ATOM     83  O   UNL A   1      33.863  36.271  28.016  1.00  0.00    -0.744 OA
ENDBRANCH  79  80
ENDBRANCH  47  72
BRANCH  59  84
ATOM     84  C   UNL A   1      39.865  34.015  36.969  1.00  0.00     0.058 A 
ATOM     85  C   UNL A   1      39.112  33.760  38.127  1.00  0.00     0.135 A 
ATOM     86  C   UNL A   1      40.476  35.274  36.848  1.00  0.00     0.135 A 
ATOM     87  F   UNL A   1      38.504  32.574  38.288  1.00  0.00    -0.206 F 
ATOM     88  C   UNL A   1      38.943  34.729  39.110  1.00  0.00     0.059 A 
ATOM     89  C   UNL A   1      40.341  36.248  37.832  1.00  0.00     0.059 A 
ATOM     90  F   UNL A   1      41.216  35.565  35.766  1.00  0.00    -0.206 F 
ATOM     91  C   UNL A   1      39.557  35.972  38.951  1.00  0.00     0.060 A 
BRANCH  91  92
ATOM     92  S   UNL A   1      39.337  37.221  40.237  1.00  0.00     0.124 S 
ATOM     93  O   UNL A   1      38.589  38.249  39.519  1.00  0.00    -0.237 OA
ATOM     94  O   UNL A   1      38.592  36.492  41.259  1.00  0.00    -0.237 OA
ATOM     95  O   UNL A   1      40.704  37.577  40.601  1.00  0.00    -0.744 OA
ENDBRANCH  91  92
ENDBRANCH  59  84
ENDBRANCH  33  34
ENDBRANCH  25  28
ENDBRANCH  23  24
ENDBRANCH   1  23
TORSDOF 16
ENDMDL
