MODEL 1
REMARK VINA RESULT:     -12.7      0.000      0.000
REMARK SMILES CN(C)S(=O)(=O)c1ccc(-n2c(CCC(=O)NCCCNC(=O)c3ccc(-c4c5nc(c(-c6c(F)cc(S(=O)(=O)[O-])cc6F)c6ccc([nH]6)c(-c6c(F)cc(S(=O)(=O)[O-])cc6F)c6nc(c(-c7c(F)cc(S(=O)(=O)[O-])cc7F)c7ccc4[nH]7)C=C6)C=C5)cc3)ccc2-c2ccc(F)cc2)cc1
REMARK SMILES IDX 18 1 17 2 15 3 16 4 14 6 13 7 12 8 11 9 92 10 90 11 91 12
REMARK SMILES IDX 10 13 7 14 8 15 101 16 9 17 100 18 4 19 5 20 6 21 2 22 1 23
REMARK SMILES IDX 3 24 93 25 94 26 99 27 95 28 98 29 96 30 97 31 19 32 20 33
REMARK SMILES IDX 21 34 22 35 23 37 24 38 25 39 89 40 26 41 88 42 27 43 28 44
REMARK SMILES IDX 29 45 82 46 30 47 87 48 81 49 83 50 31 51 86 52 80 53 79 54
REMARK SMILES IDX 32 56 66 57 45 58 65 59 46 60 49 61 64 62 84 63 47 64 48 65
REMARK SMILES IDX 63 67 85 68 50 69 33 70 34 71 43 72 35 73 36 74 42 75 44 76
REMARK SMILES IDX 37 77 38 78 39 79 40 80 41 81 67 82 68 83 77 84 69 85 70 86
REMARK SMILES IDX 76 87 78 88 71 89 72 90 73 91 74 92 75 93 51 94 52 95 61 96
REMARK SMILES IDX 53 97 54 98 60 99 62 100 55 101 56 102 57 103 58 104 59 105
REMARK H PARENT 17 5 21 36 83 55 49 66
REMARK Flexibility Score: inf
ROOT
ATOM      1  C   UNL A   1      34.541  21.685  25.424  1.00  0.00     0.117 C 
ENDROOT
BRANCH   1   2
ATOM      2  N   UNL A   1      33.468  21.172  24.590  1.00  0.00    -0.356 N 
ATOM      3  C   UNL A   1      32.998  21.607  23.378  1.00  0.00     0.220 C 
ATOM      4  O   UNL A   1      32.232  20.857  22.764  1.00  0.00    -0.275 OA
ATOM      5  H   UNL A   1      33.003  20.385  24.955  1.00  0.00     0.163 HD
BRANCH   3   6
ATOM      6  C   UNL A   1      33.303  22.994  22.817  1.00  0.00     0.106 C 
BRANCH   6   7
ATOM      7  C   UNL A   1      32.368  24.146  23.261  1.00  0.00     0.064 C 
BRANCH   7   8
ATOM      8  C   UNL A   1      33.004  25.081  24.262  1.00  0.00     0.024 A 
ATOM      9  N   UNL A   1      32.669  26.428  24.565  1.00  0.00    -0.314 N 
ATOM     10  C   UNL A   1      33.611  26.814  25.564  1.00  0.00     0.053 A 
ATOM     11  C   UNL A   1      34.103  24.705  25.019  1.00  0.00     0.024 A 
ATOM     12  C   UNL A   1      34.476  25.772  25.826  1.00  0.00     0.029 A 
BRANCH   9  13
ATOM     13  C   UNL A   1      31.493  27.186  24.074  1.00  0.00     0.046 A 
ATOM     14  C   UNL A   1      29.403  28.767  22.841  1.00  0.00     0.082 A 
ATOM     15  C   UNL A   1      29.095  27.584  23.516  1.00  0.00     0.024 A 
ATOM     16  C   UNL A   1      30.719  29.171  22.820  1.00  0.00     0.024 A 
ATOM     17  C   UNL A   1      30.142  26.802  24.125  1.00  0.00     0.028 A 
ATOM     18  C   UNL A   1      31.697  28.406  23.447  1.00  0.00     0.028 A 
BRANCH  14  19
ATOM     19  S   UNL A   1      28.238  29.982  22.242  1.00  0.00     0.242 S 
ATOM     20  O   UNL A   1      27.091  29.914  23.141  1.00  0.00    -0.207 OA
ATOM     21  O   UNL A   1      28.090  29.709  20.837  1.00  0.00    -0.207 OA
BRANCH  19  22
ATOM     22  N   UNL A   1      28.895  31.538  22.474  1.00  0.00    -0.204 NA
ATOM     23  C   UNL A   1      28.156  32.525  21.610  1.00  0.00     0.124 C 
ATOM     24  C   UNL A   1      28.902  32.049  23.854  1.00  0.00     0.124 C 
ENDBRANCH  19  22
ENDBRANCH  14  19
ENDBRANCH   9  13
BRANCH  10  25
ATOM     25  C   UNL A   1      33.409  27.917  26.482  1.00  0.00    -0.001 A 
ATOM     26  C   UNL A   1      34.180  29.075  26.434  1.00  0.00     0.013 A 
ATOM     27  C   UNL A   1      32.209  27.870  27.181  1.00  0.00     0.013 A 
ATOM     28  C   UNL A   1      33.552  30.268  26.739  1.00  0.00     0.040 A 
ATOM     29  C   UNL A   1      31.548  29.049  27.369  1.00  0.00     0.040 A 
ATOM     30  C   UNL A   1      32.207  30.221  27.063  1.00  0.00     0.123 A 
ATOM     31  F   UNL A   1      31.487  31.315  26.908  1.00  0.00    -0.207 F 
ENDBRANCH  10  25
ENDBRANCH   7   8
ENDBRANCH   6   7
ENDBRANCH   3   6
ENDBRANCH   1   2
BRANCH   1  32
ATOM     32  C   UNL A   1      35.964  21.602  24.848  1.00  0.00     0.042 C 
BRANCH  32  33
ATOM     33  C   UNL A   1      36.981  22.714  25.179  1.00  0.00     0.118 C 
BRANCH  33  34
ATOM     34  N   UNL A   1      38.343  22.150  25.322  1.00  0.00    -0.352 N 
ATOM     35  C   UNL A   1      39.545  22.430  25.932  1.00  0.00     0.251 C 
ATOM     36  H   UNL A   1      38.409  21.305  24.821  1.00  0.00     0.163 HD
ATOM     37  O   UNL A   1      40.429  21.582  25.768  1.00  0.00    -0.269 OA
BRANCH  35  38
ATOM     38  C   UNL A   1      39.884  23.642  26.739  1.00  0.00     0.039 A 
ATOM     39  C   UNL A   1      40.771  24.598  26.192  1.00  0.00     0.014 A 
ATOM     40  C   UNL A   1      39.308  23.928  27.968  1.00  0.00     0.014 A 
ATOM     41  C   UNL A   1      41.095  25.781  26.881  1.00  0.00     0.010 A 
ATOM     42  C   UNL A   1      39.653  25.077  28.670  1.00  0.00     0.010 A 
ATOM     43  C   UNL A   1      40.540  26.015  28.142  1.00  0.00    -0.014 A 
BRANCH  43  44
ATOM     44  C   UNL A   1      40.878  27.187  29.002  1.00  0.00     0.031 A 
ATOM     45  C   UNL A   1      42.274  27.149  29.686  1.00  0.00     0.074 A 
ATOM     46  C   UNL A   1      39.952  28.189  28.943  1.00  0.00     0.049 A 
ATOM     47  N   UNL A   1      42.809  27.814  30.663  1.00  0.00    -0.248 NA
ATOM     48  C   UNL A   1      43.238  26.155  29.189  1.00  0.00     0.031 C 
ATOM     49  C   UNL A   1      38.705  28.143  28.143  1.00  0.00     0.029 A 
ATOM     50  N   UNL A   1      39.863  29.436  29.509  1.00  0.00    -0.354 N 
ATOM     51  C   UNL A   1      44.184  27.422  30.774  1.00  0.00     0.074 A 
ATOM     52  C   UNL A   1      44.378  26.363  29.842  1.00  0.00     0.031 C 
ATOM     53  C   UNL A   1      37.949  29.235  28.370  1.00  0.00     0.029 A 
ATOM     54  C   UNL A   1      38.621  30.094  29.318  1.00  0.00     0.049 A 
ATOM     55  H   UNL A   1      40.606  29.844  30.009  1.00  0.00     0.167 HD
ATOM     56  C   UNL A   1      45.100  28.028  31.593  1.00  0.00     0.037 A 
ATOM     57  C   UNL A   1      38.145  31.208  29.952  1.00  0.00     0.037 A 
ATOM     58  C   UNL A   1      44.446  29.023  32.365  1.00  0.00     0.049 A 
ATOM     59  C   UNL A   1      39.262  31.653  30.799  1.00  0.00     0.074 A 
ATOM     60  C   UNL A   1      43.587  28.930  33.425  1.00  0.00     0.029 A 
ATOM     61  N   UNL A   1      44.377  30.283  31.832  1.00  0.00    -0.354 N 
ATOM     62  N   UNL A   1      40.351  32.209  30.363  1.00  0.00    -0.248 NA
ATOM     63  C   UNL A   1      39.222  31.317  32.226  1.00  0.00     0.031 C 
ATOM     64  C   UNL A   1      42.656  29.951  33.163  1.00  0.00     0.029 A 
ATOM     65  C   UNL A   1      43.109  30.743  32.099  1.00  0.00     0.049 A 
ATOM     66  H   UNL A   1      45.091  30.763  31.353  1.00  0.00     0.167 HD
ATOM     67  C   UNL A   1      41.226  32.024  31.404  1.00  0.00     0.074 A 
ATOM     68  C   UNL A   1      40.429  31.744  32.577  1.00  0.00     0.031 C 
ATOM     69  C   UNL A   1      42.517  31.678  31.171  1.00  0.00     0.037 A 
BRANCH  56  70
ATOM     70  C   UNL A   1      46.606  27.961  31.739  1.00  0.00     0.058 A 
ATOM     71  C   UNL A   1      47.389  28.516  30.693  1.00  0.00     0.135 A 
ATOM     72  C   UNL A   1      47.280  27.093  32.609  1.00  0.00     0.135 A 
ATOM     73  F   UNL A   1      46.875  29.441  29.864  1.00  0.00    -0.206 F 
ATOM     74  C   UNL A   1      48.684  28.097  30.412  1.00  0.00     0.059 A 
ATOM     75  C   UNL A   1      48.607  26.692  32.372  1.00  0.00     0.059 A 
ATOM     76  F   UNL A   1      46.651  26.561  33.667  1.00  0.00    -0.206 F 
ATOM     77  C   UNL A   1      49.273  27.148  31.233  1.00  0.00     0.060 A 
BRANCH  77  78
ATOM     78  S   UNL A   1      50.895  26.509  30.753  1.00  0.00     0.124 S 
ATOM     79  O   UNL A   1      51.792  27.352  31.535  1.00  0.00    -0.237 OA
ATOM     80  O   UNL A   1      50.818  25.113  31.175  1.00  0.00    -0.237 OA
ATOM     81  O   UNL A   1      50.925  26.715  29.309  1.00  0.00    -0.744 OA
ENDBRANCH  77  78
ENDBRANCH  56  70
BRANCH  57  82
ATOM     82  C   UNL A   1      36.806  31.878  30.162  1.00  0.00     0.058 A 
ATOM     83  C   UNL A   1      35.858  31.552  31.141  1.00  0.00     0.135 A 
ATOM     84  C   UNL A   1      36.507  33.064  29.434  1.00  0.00     0.135 A 
ATOM     85  F   UNL A   1      35.893  30.381  31.785  1.00  0.00    -0.206 F 
ATOM     86  C   UNL A   1      34.826  32.432  31.507  1.00  0.00     0.059 A 
ATOM     87  C   UNL A   1      35.524  33.975  29.809  1.00  0.00     0.059 A 
ATOM     88  F   UNL A   1      37.204  33.417  28.345  1.00  0.00    -0.206 F 
ATOM     89  C   UNL A   1      34.713  33.671  30.883  1.00  0.00     0.060 A 
BRANCH  89  90
ATOM     90  S   UNL A   1      33.614  34.937  31.549  1.00  0.00     0.124 S 
ATOM     91  O   UNL A   1      32.768  35.239  30.402  1.00  0.00    -0.237 OA
ATOM     92  O   UNL A   1      32.963  34.236  32.653  1.00  0.00    -0.237 OA
ATOM     93  O   UNL A   1      34.534  35.996  31.954  1.00  0.00    -0.744 OA
ENDBRANCH  89  90
ENDBRANCH  57  82
BRANCH  69  94
ATOM     94  C   UNL A   1      43.055  32.074  29.807  1.00  0.00     0.058 A 
ATOM     95  C   UNL A   1      43.327  33.431  29.556  1.00  0.00     0.135 A 
ATOM     96  C   UNL A   1      43.292  31.194  28.731  1.00  0.00     0.135 A 
ATOM     97  F   UNL A   1      43.159  34.342  30.529  1.00  0.00    -0.206 F 
ATOM     98  C   UNL A   1      43.783  33.893  28.323  1.00  0.00     0.059 A 
ATOM     99  C   UNL A   1      43.801  31.626  27.501  1.00  0.00     0.059 A 
ATOM    100  F   UNL A   1      43.046  29.885  28.847  1.00  0.00    -0.206 F 
ATOM    101  C   UNL A   1      44.024  32.985  27.298  1.00  0.00     0.060 A 
BRANCH 101 102
ATOM    102  S   UNL A   1      44.678  33.609  25.733  1.00  0.00     0.124 S 
ATOM    103  O   UNL A   1      43.527  34.330  25.197  1.00  0.00    -0.237 OA
ATOM    104  O   UNL A   1      45.802  34.436  26.161  1.00  0.00    -0.237 OA
ATOM    105  O   UNL A   1      45.043  32.398  25.010  1.00  0.00    -0.744 OA
ENDBRANCH 101 102
ENDBRANCH  69  94
ENDBRANCH  43  44
ENDBRANCH  35  38
ENDBRANCH  33  34
ENDBRANCH  32  33
ENDBRANCH   1  32
TORSDOF 19
ENDMDL
MODEL 2
REMARK VINA RESULT:     -12.3      1.359      2.022
REMARK SMILES CN(C)S(=O)(=O)c1ccc(-n2c(CCC(=O)NCCCNC(=O)c3ccc(-c4c5nc(c(-c6c(F)cc(S(=O)(=O)[O-])cc6F)c6ccc([nH]6)c(-c6c(F)cc(S(=O)(=O)[O-])cc6F)c6nc(c(-c7c(F)cc(S(=O)(=O)[O-])cc7F)c7ccc4[nH]7)C=C6)C=C5)cc3)ccc2-c2ccc(F)cc2)cc1
REMARK SMILES IDX 18 1 17 2 15 3 16 4 14 6 13 7 12 8 11 9 92 10 90 11 91 12
REMARK SMILES IDX 10 13 7 14 8 15 101 16 9 17 100 18 4 19 5 20 6 21 2 22 1 23
REMARK SMILES IDX 3 24 93 25 94 26 99 27 95 28 98 29 96 30 97 31 19 32 20 33
REMARK SMILES IDX 21 34 22 35 23 37 24 38 25 39 89 40 26 41 88 42 27 43 28 44
REMARK SMILES IDX 29 45 82 46 30 47 87 48 81 49 83 50 31 51 86 52 80 53 79 54
REMARK SMILES IDX 32 56 66 57 45 58 65 59 46 60 49 61 64 62 84 63 47 64 48 65
REMARK SMILES IDX 63 67 85 68 50 69 33 70 34 71 43 72 35 73 36 74 42 75 44 76
REMARK SMILES IDX 37 77 38 78 39 79 40 80 41 81 67 82 68 83 77 84 69 85 70 86
REMARK SMILES IDX 76 87 78 88 71 89 72 90 73 91 74 92 75 93 51 94 52 95 61 96
REMARK SMILES IDX 53 97 54 98 60 99 62 100 55 101 56 102 57 103 58 104 59 105
REMARK H PARENT 17 5 21 36 83 55 49 66
REMARK Flexibility Score: inf
ROOT
ATOM      1  C   UNL A   1      34.485  21.917  25.159  1.00  0.00     0.117 C 
ENDROOT
BRANCH   1   2
ATOM      2  N   UNL A   1      33.443  21.507  24.234  1.00  0.00    -0.356 N 
ATOM      3  C   UNL A   1      33.030  22.071  23.055  1.00  0.00     0.220 C 
ATOM      4  O   UNL A   1      32.282  21.399  22.335  1.00  0.00    -0.275 OA
ATOM      5  H   UNL A   1      32.955  20.694  24.495  1.00  0.00     0.163 HD
BRANCH   3   6
ATOM      6  C   UNL A   1      33.373  23.504  22.652  1.00  0.00     0.106 C 
BRANCH   6   7
ATOM      7  C   UNL A   1      32.420  24.615  23.157  1.00  0.00     0.064 C 
BRANCH   7   8
ATOM      8  C   UNL A   1      33.011  25.452  24.266  1.00  0.00     0.024 A 
ATOM      9  N   UNL A   1      32.826  26.834  24.539  1.00  0.00    -0.314 N 
ATOM     10  C   UNL A   1      33.638  27.083  25.686  1.00  0.00     0.053 A 
ATOM     11  C   UNL A   1      33.907  24.924  25.183  1.00  0.00     0.024 A 
ATOM     12  C   UNL A   1      34.291  25.929  26.063  1.00  0.00     0.029 A 
BRANCH   9  13
ATOM     13  C   UNL A   1      31.867  27.752  23.881  1.00  0.00     0.046 A 
ATOM     14  C   UNL A   1      29.805  29.534  22.899  1.00  0.00     0.082 A 
ATOM     15  C   UNL A   1      31.137  29.710  22.519  1.00  0.00     0.024 A 
ATOM     16  C   UNL A   1      29.506  28.467  23.716  1.00  0.00     0.024 A 
ATOM     17  C   UNL A   1      32.157  28.820  23.014  1.00  0.00     0.028 A 
ATOM     18  C   UNL A   1      30.513  27.611  24.147  1.00  0.00     0.028 A 
BRANCH  14  19
ATOM     19  S   UNL A   1      28.384  30.369  22.209  1.00  0.00     0.242 S 
ATOM     20  O   UNL A   1      27.425  30.498  23.301  1.00  0.00    -0.207 OA
ATOM     21  O   UNL A   1      28.050  29.634  21.017  1.00  0.00    -0.207 OA
BRANCH  19  22
ATOM     22  N   UNL A   1      28.824  31.968  21.811  1.00  0.00    -0.204 NA
ATOM     23  C   UNL A   1      27.994  32.438  20.647  1.00  0.00     0.124 C 
ATOM     24  C   UNL A   1      28.715  32.966  22.887  1.00  0.00     0.124 C 
ENDBRANCH  19  22
ENDBRANCH  14  19
ENDBRANCH   9  13
BRANCH  10  25
ATOM     25  C   UNL A   1      33.449  28.206  26.581  1.00  0.00    -0.001 A 
ATOM     26  C   UNL A   1      34.322  29.290  26.611  1.00  0.00     0.013 A 
ATOM     27  C   UNL A   1      32.187  28.273  27.160  1.00  0.00     0.013 A 
ATOM     28  C   UNL A   1      33.778  30.537  26.855  1.00  0.00     0.040 A 
ATOM     29  C   UNL A   1      31.620  29.508  27.285  1.00  0.00     0.040 A 
ATOM     30  C   UNL A   1      32.408  30.614  27.047  1.00  0.00     0.123 A 
ATOM     31  F   UNL A   1      31.809  31.767  26.825  1.00  0.00    -0.207 F 
ENDBRANCH  10  25
ENDBRANCH   7   8
ENDBRANCH   6   7
ENDBRANCH   3   6
ENDBRANCH   1   2
BRANCH   1  32
ATOM     32  C   UNL A   1      35.910  22.019  24.594  1.00  0.00     0.042 C 
BRANCH  32  33
ATOM     33  C   UNL A   1      36.845  23.139  25.096  1.00  0.00     0.118 C 
BRANCH  33  34
ATOM     34  N   UNL A   1      38.214  22.617  25.314  1.00  0.00    -0.352 N 
ATOM     35  C   UNL A   1      39.368  22.928  25.998  1.00  0.00     0.251 C 
ATOM     36  H   UNL A   1      38.339  21.781  24.809  1.00  0.00     0.163 HD
ATOM     37  O   UNL A   1      40.288  22.112  25.878  1.00  0.00    -0.269 OA
BRANCH  35  38
ATOM     38  C   UNL A   1      39.618  24.139  26.837  1.00  0.00     0.039 A 
ATOM     39  C   UNL A   1      40.433  25.172  26.317  1.00  0.00     0.014 A 
ATOM     40  C   UNL A   1      39.024  24.349  28.073  1.00  0.00     0.014 A 
ATOM     41  C   UNL A   1      40.670  26.356  27.038  1.00  0.00     0.010 A 
ATOM     42  C   UNL A   1      39.285  25.501  28.805  1.00  0.00     0.010 A 
ATOM     43  C   UNL A   1      40.101  26.516  28.304  1.00  0.00    -0.014 A 
BRANCH  43  44
ATOM     44  C   UNL A   1      40.352  27.685  29.195  1.00  0.00     0.031 A 
ATOM     45  C   UNL A   1      41.655  27.627  30.043  1.00  0.00     0.074 A 
ATOM     46  C   UNL A   1      39.459  28.703  29.023  1.00  0.00     0.049 A 
ATOM     47  N   UNL A   1      42.080  28.288  31.076  1.00  0.00    -0.248 NA
ATOM     48  C   UNL A   1      42.654  26.615  29.669  1.00  0.00     0.031 C 
ATOM     49  C   UNL A   1      38.316  28.675  28.078  1.00  0.00     0.029 A 
ATOM     50  N   UNL A   1      39.324  29.954  29.571  1.00  0.00    -0.354 N 
ATOM     51  C   UNL A   1      43.424  27.873  31.354  1.00  0.00     0.074 A 
ATOM     52  C   UNL A   1      43.711  26.806  30.454  1.00  0.00     0.031 C 
ATOM     53  C   UNL A   1      37.558  29.780  28.209  1.00  0.00     0.029 A 
ATOM     54  C   UNL A   1      38.125  30.632  29.229  1.00  0.00     0.049 A 
ATOM     55  H   UNL A   1      40.008  30.351  30.156  1.00  0.00     0.167 HD
ATOM     56  C   UNL A   1      44.245  28.467  32.275  1.00  0.00     0.037 A 
ATOM     57  C   UNL A   1      37.595  31.757  29.799  1.00  0.00     0.037 A 
ATOM     58  C   UNL A   1      43.520  29.476  32.960  1.00  0.00     0.049 A 
ATOM     59  C   UNL A   1      38.610  32.187  30.773  1.00  0.00     0.074 A 
ATOM     60  C   UNL A   1      42.538  29.403  33.909  1.00  0.00     0.029 A 
ATOM     61  N   UNL A   1      43.538  30.735  32.420  1.00  0.00    -0.354 N 
ATOM     62  N   UNL A   1      39.753  32.722  30.470  1.00  0.00    -0.248 NA
ATOM     63  C   UNL A   1      38.392  31.858  32.186  1.00  0.00     0.031 C 
ATOM     64  C   UNL A   1      41.663  30.438  33.534  1.00  0.00     0.029 A 
ATOM     65  C   UNL A   1      42.255  31.217  32.531  1.00  0.00     0.049 A 
ATOM     66  H   UNL A   1      44.313  31.200  32.029  1.00  0.00     0.167 HD
ATOM     67  C   UNL A   1      40.492  32.527  31.610  1.00  0.00     0.074 A 
ATOM     68  C   UNL A   1      39.555  32.267  32.679  1.00  0.00     0.031 C 
ATOM     69  C   UNL A   1      41.796  32.158  31.536  1.00  0.00     0.037 A 
BRANCH  56  70
ATOM     70  C   UNL A   1      45.720  28.375  32.603  1.00  0.00     0.058 A 
ATOM     71  C   UNL A   1      46.076  27.852  33.874  1.00  0.00     0.135 A 
ATOM     72  C   UNL A   1      46.727  29.085  31.934  1.00  0.00     0.135 A 
ATOM     73  F   UNL A   1      45.227  27.066  34.557  1.00  0.00    -0.206 F 
ATOM     74  C   UNL A   1      47.266  28.171  34.518  1.00  0.00     0.059 A 
ATOM     75  C   UNL A   1      47.958  29.379  32.547  1.00  0.00     0.059 A 
ATOM     76  F   UNL A   1      46.518  29.569  30.701  1.00  0.00    -0.206 F 
ATOM     77  C   UNL A   1      48.187  28.975  33.865  1.00  0.00     0.060 A 
BRANCH  77  78
ATOM     78  S   UNL A   1      49.651  29.500  34.786  1.00  0.00     0.124 S 
ATOM     79  O   UNL A   1      50.470  28.293  34.758  1.00  0.00    -0.237 OA
ATOM     80  O   UNL A   1      50.146  30.612  33.978  1.00  0.00    -0.237 OA
ATOM     81  O   UNL A   1      49.113  29.875  36.089  1.00  0.00    -0.744 OA
ENDBRANCH  77  78
ENDBRANCH  56  70
BRANCH  57  82
ATOM     82  C   UNL A   1      36.253  32.451  29.844  1.00  0.00     0.058 A 
ATOM     83  C   UNL A   1      35.312  32.374  30.879  1.00  0.00     0.135 A 
ATOM     84  C   UNL A   1      35.941  33.416  28.845  1.00  0.00     0.135 A 
ATOM     85  F   UNL A   1      35.359  31.400  31.794  1.00  0.00    -0.206 F 
ATOM     86  C   UNL A   1      34.276  33.311  31.021  1.00  0.00     0.059 A 
ATOM     87  C   UNL A   1      34.955  34.386  28.987  1.00  0.00     0.059 A 
ATOM     88  F   UNL A   1      36.631  33.490  27.697  1.00  0.00    -0.206 F 
ATOM     89  C   UNL A   1      34.151  34.355  30.108  1.00  0.00     0.060 A 
BRANCH  89  90
ATOM     90  S   UNL A   1      33.046  35.741  30.446  1.00  0.00     0.124 S 
ATOM     91  O   UNL A   1      33.987  36.817  30.731  1.00  0.00    -0.237 OA
ATOM     92  O   UNL A   1      32.303  35.859  29.194  1.00  0.00    -0.237 OA
ATOM     93  O   UNL A   1      32.260  35.270  31.583  1.00  0.00    -0.744 OA
ENDBRANCH  89  90
ENDBRANCH  57  82
BRANCH  69  94
ATOM     94  C   UNL A   1      42.502  32.539  30.245  1.00  0.00     0.058 A 
ATOM     95  C   UNL A   1      42.792  31.528  29.311  1.00  0.00     0.135 A 
ATOM     96  C   UNL A   1      42.928  33.836  29.895  1.00  0.00     0.135 A 
ATOM     97  F   UNL A   1      42.400  30.264  29.544  1.00  0.00    -0.206 F 
ATOM     98  C   UNL A   1      43.473  31.775  28.121  1.00  0.00     0.059 A 
ATOM     99  C   UNL A   1      43.566  34.118  28.681  1.00  0.00     0.059 A 
ATOM    100  F   UNL A   1      42.728  34.871  30.717  1.00  0.00    -0.206 F 
ATOM    101  C   UNL A   1      43.855  33.074  27.807  1.00  0.00     0.060 A 
BRANCH 101 102
ATOM    102  S   UNL A   1      44.676  33.370  26.225  1.00  0.00     0.124 S 
ATOM    103  O   UNL A   1      44.231  34.724  25.907  1.00  0.00    -0.237 OA
ATOM    104  O   UNL A   1      46.089  33.229  26.564  1.00  0.00    -0.237 OA
ATOM    105  O   UNL A   1      44.141  32.324  25.363  1.00  0.00    -0.744 OA
ENDBRANCH 101 102
ENDBRANCH  69  94
ENDBRANCH  43  44
ENDBRANCH  35  38
ENDBRANCH  33  34
ENDBRANCH  32  33
ENDBRANCH   1  32
TORSDOF 19
ENDMDL
MODEL 3
REMARK VINA RESULT:     -11.5      3.461      8.977
REMARK SMILES CN(C)S(=O)(=O)c1ccc(-n2c(CCC(=O)NCCCNC(=O)c3ccc(-c4c5nc(c(-c6c(F)cc(S(=O)(=O)[O-])cc6F)c6ccc([nH]6)c(-c6c(F)cc(S(=O)(=O)[O-])cc6F)c6nc(c(-c7c(F)cc(S(=O)(=O)[O-])cc7F)c7ccc4[nH]7)C=C6)C=C5)cc3)ccc2-c2ccc(F)cc2)cc1
REMARK SMILES IDX 18 1 17 2 15 3 16 4 14 6 13 7 12 8 11 9 92 10 90 11 91 12
REMARK SMILES IDX 10 13 7 14 8 15 101 16 9 17 100 18 4 19 5 20 6 21 2 22 1 23
REMARK SMILES IDX 3 24 93 25 94 26 99 27 95 28 98 29 96 30 97 31 19 32 20 33
REMARK SMILES IDX 21 34 22 35 23 37 24 38 25 39 89 40 26 41 88 42 27 43 28 44
REMARK SMILES IDX 29 45 82 46 30 47 87 48 81 49 83 50 31 51 86 52 80 53 79 54
REMARK SMILES IDX 32 56 66 57 45 58 65 59 46 60 49 61 64 62 84 63 47 64 48 65
REMARK SMILES IDX 63 67 85 68 50 69 33 70 34 71 43 72 35 73 36 74 42 75 44 76
REMARK SMILES IDX 37 77 38 78 39 79 40 80 41 81 67 82 68 83 77 84 69 85 70 86
REMARK SMILES IDX 76 87 78 88 71 89 72 90 73 91 74 92 75 93 51 94 52 95 61 96
REMARK SMILES IDX 53 97 54 98 60 99 62 100 55 101 56 102 57 103 58 104 59 105
REMARK H PARENT 17 5 21 36 83 55 49 66
REMARK Flexibility Score: inf
ROOT
ATOM      1  C   UNL A   1      33.479  22.575  27.525  1.00  0.00     0.117 C 
ENDROOT
BRANCH   1   2
ATOM      2  N   UNL A   1      32.103  22.239  27.204  1.00  0.00    -0.356 N 
ATOM      3  C   UNL A   1      31.095  23.015  26.691  1.00  0.00     0.220 C 
ATOM      4  O   UNL A   1      30.081  22.435  26.288  1.00  0.00    -0.275 OA
ATOM      5  H   UNL A   1      31.853  21.305  27.384  1.00  0.00     0.163 HD
BRANCH   3   6
ATOM      6  C   UNL A   1      31.139  24.541  26.690  1.00  0.00     0.106 C 
BRANCH   6   7
ATOM      7  C   UNL A   1      31.893  25.215  25.518  1.00  0.00     0.064 C 
BRANCH   7   8
ATOM      8  C   UNL A   1      31.065  26.244  24.787  1.00  0.00     0.024 A 
ATOM      9  N   UNL A   1      31.152  27.662  24.838  1.00  0.00    -0.314 N 
ATOM     10  C   UNL A   1      30.117  28.114  23.967  1.00  0.00     0.053 A 
ATOM     11  C   UNL A   1      30.017  25.883  23.955  1.00  0.00     0.024 A 
ATOM     12  C   UNL A   1      29.433  27.037  23.445  1.00  0.00     0.029 A 
BRANCH   9  13
ATOM     13  C   UNL A   1      32.200  28.467  25.510  1.00  0.00     0.046 A 
ATOM     14  C   UNL A   1      34.123  29.904  27.130  1.00  0.00     0.082 A 
ATOM     15  C   UNL A   1      34.473  29.429  25.865  1.00  0.00     0.024 A 
ATOM     16  C   UNL A   1      32.829  29.703  27.557  1.00  0.00     0.024 A 
ATOM     17  C   UNL A   1      33.510  28.713  25.066  1.00  0.00     0.028 A 
ATOM     18  C   UNL A   1      31.920  29.035  26.744  1.00  0.00     0.028 A 
BRANCH  14  19
ATOM     19  S   UNL A   1      35.084  31.010  28.153  1.00  0.00     0.242 S 
ATOM     20  O   UNL A   1      35.897  31.800  27.234  1.00  0.00    -0.207 OA
ATOM     21  O   UNL A   1      35.701  30.171  29.147  1.00  0.00    -0.207 OA
BRANCH  19  22
ATOM     22  N   UNL A   1      34.034  32.129  28.895  1.00  0.00    -0.204 NA
ATOM     23  C   UNL A   1      34.640  32.599  30.190  1.00  0.00     0.124 C 
ATOM     24  C   UNL A   1      33.669  33.313  28.101  1.00  0.00     0.124 C 
ENDBRANCH  19  22
ENDBRANCH  14  19
ENDBRANCH   9  13
BRANCH  10  25
ATOM     25  C   UNL A   1      30.088  29.431  23.362  1.00  0.00    -0.001 A 
ATOM     26  C   UNL A   1      30.046  29.616  21.983  1.00  0.00     0.013 A 
ATOM     27  C   UNL A   1      29.781  30.460  24.244  1.00  0.00     0.013 A 
ATOM     28  C   UNL A   1      29.317  30.690  21.509  1.00  0.00     0.040 A 
ATOM     29  C   UNL A   1      28.963  31.453  23.787  1.00  0.00     0.040 A 
ATOM     30  C   UNL A   1      28.681  31.496  22.439  1.00  0.00     0.123 A 
ATOM     31  F   UNL A   1      27.646  32.210  22.044  1.00  0.00    -0.207 F 
ENDBRANCH  10  25
ENDBRANCH   7   8
ENDBRANCH   6   7
ENDBRANCH   3   6
ENDBRANCH   1   2
BRANCH   1  32
ATOM     32  C   UNL A   1      34.570  21.907  26.673  1.00  0.00     0.042 C 
BRANCH  32  33
ATOM     33  C   UNL A   1      35.752  22.754  26.158  1.00  0.00     0.118 C 
BRANCH  33  34
ATOM     34  N   UNL A   1      36.929  21.896  25.886  1.00  0.00    -0.352 N 
ATOM     35  C   UNL A   1      38.298  21.900  26.033  1.00  0.00     0.251 C 
ATOM     36  H   UNL A   1      36.639  21.054  25.465  1.00  0.00     0.163 HD
ATOM     37  O   UNL A   1      38.871  20.873  25.656  1.00  0.00    -0.269 OA
BRANCH  35  38
ATOM     38  C   UNL A   1      39.141  23.010  26.574  1.00  0.00     0.039 A 
ATOM     39  C   UNL A   1      40.184  22.696  27.476  1.00  0.00     0.014 A 
ATOM     40  C   UNL A   1      39.014  24.332  26.173  1.00  0.00     0.014 A 
ATOM     41  C   UNL A   1      41.041  23.688  27.985  1.00  0.00     0.010 A 
ATOM     42  C   UNL A   1      39.834  25.322  26.701  1.00  0.00     0.010 A 
ATOM     43  C   UNL A   1      40.853  25.020  27.604  1.00  0.00    -0.014 A 
BRANCH  43  44
ATOM     44  C   UNL A   1      41.641  26.165  28.145  1.00  0.00     0.031 A 
ATOM     45  C   UNL A   1      40.848  27.188  29.008  1.00  0.00     0.074 A 
ATOM     46  C   UNL A   1      42.982  26.062  27.912  1.00  0.00     0.049 A 
ATOM     47  N   UNL A   1      41.098  28.393  29.420  1.00  0.00    -0.248 NA
ATOM     48  C   UNL A   1      39.512  26.784  29.470  1.00  0.00     0.031 C 
ATOM     49  C   UNL A   1      43.629  24.955  27.169  1.00  0.00     0.029 A 
ATOM     50  N   UNL A   1      44.069  26.829  28.250  1.00  0.00    -0.354 N 
ATOM     51  C   UNL A   1      40.034  28.799  30.292  1.00  0.00     0.074 A 
ATOM     52  C   UNL A   1      39.064  27.758  30.257  1.00  0.00     0.031 C 
ATOM     53  C   UNL A   1      44.947  25.185  27.015  1.00  0.00     0.029 A 
ATOM     54  C   UNL A   1      45.290  26.441  27.642  1.00  0.00     0.049 A 
ATOM     55  H   UNL A   1      44.005  27.591  28.870  1.00  0.00     0.167 HD
ATOM     56  C   UNL A   1      40.037  29.950  31.036  1.00  0.00     0.037 A 
ATOM     57  C   UNL A   1      46.466  27.137  27.581  1.00  0.00     0.037 A 
ATOM     58  C   UNL A   1      41.202  30.699  30.727  1.00  0.00     0.049 A 
ATOM     59  C   UNL A   1      46.225  28.335  28.398  1.00  0.00     0.074 A 
ATOM     60  C   UNL A   1      41.543  31.433  29.624  1.00  0.00     0.029 A 
ATOM     61  N   UNL A   1      42.324  30.445  31.470  1.00  0.00    -0.354 N 
ATOM     62  N   UNL A   1      46.135  28.348  29.693  1.00  0.00    -0.248 NA
ATOM     63  C   UNL A   1      45.915  29.591  27.706  1.00  0.00     0.031 C 
ATOM     64  C   UNL A   1      42.910  31.142  29.466  1.00  0.00     0.029 A 
ATOM     65  C   UNL A   1      43.376  30.438  30.585  1.00  0.00     0.049 A 
ATOM     66  H   UNL A   1      42.369  30.297  32.442  1.00  0.00     0.167 HD
ATOM     67  C   UNL A   1      45.481  29.530  29.942  1.00  0.00     0.074 A 
ATOM     68  C   UNL A   1      45.628  30.347  28.758  1.00  0.00     0.031 C 
ATOM     69  C   UNL A   1      44.513  29.600  30.888  1.00  0.00     0.037 A 
BRANCH  56  70
ATOM     70  C   UNL A   1      39.179  30.494  32.158  1.00  0.00     0.058 A 
ATOM     71  C   UNL A   1      38.357  31.615  31.868  1.00  0.00     0.135 A 
ATOM     72  C   UNL A   1      39.396  30.234  33.519  1.00  0.00     0.135 A 
ATOM     73  F   UNL A   1      37.997  31.895  30.604  1.00  0.00    -0.206 F 
ATOM     74  C   UNL A   1      37.942  32.521  32.838  1.00  0.00     0.059 A 
ATOM     75  C   UNL A   1      38.943  31.111  34.521  1.00  0.00     0.059 A 
ATOM     76  F   UNL A   1      40.106  29.165  33.906  1.00  0.00    -0.206 F 
ATOM     77  C   UNL A   1      38.278  32.286  34.162  1.00  0.00     0.060 A 
BRANCH  77  78
ATOM     78  S   UNL A   1      37.860  33.558  35.375  1.00  0.00     0.124 S 
ATOM     79  O   UNL A   1      37.500  34.682  34.519  1.00  0.00    -0.237 OA
ATOM     80  O   UNL A   1      36.752  32.944  36.103  1.00  0.00    -0.237 OA
ATOM     81  O   UNL A   1      39.092  33.711  36.142  1.00  0.00    -0.744 OA
ENDBRANCH  77  78
ENDBRANCH  56  70
BRANCH  57  82
ATOM     82  C   UNL A   1      47.736  27.100  26.761  1.00  0.00     0.058 A 
ATOM     83  C   UNL A   1      47.821  27.024  25.366  1.00  0.00     0.135 A 
ATOM     84  C   UNL A   1      48.982  27.331  27.409  1.00  0.00     0.135 A 
ATOM     85  F   UNL A   1      46.781  26.632  24.622  1.00  0.00    -0.206 F 
ATOM     86  C   UNL A   1      48.994  27.358  24.667  1.00  0.00     0.059 A 
ATOM     87  C   UNL A   1      50.141  27.714  26.743  1.00  0.00     0.059 A 
ATOM     88  F   UNL A   1      49.110  27.246  28.741  1.00  0.00    -0.206 F 
ATOM     89  C   UNL A   1      50.126  27.771  25.364  1.00  0.00     0.060 A 
BRANCH  89  90
ATOM     90  S   UNL A   1      51.521  28.510  24.492  1.00  0.00     0.124 S 
ATOM     91  O   UNL A   1      52.546  27.483  24.633  1.00  0.00    -0.237 OA
ATOM     92  O   UNL A   1      50.985  28.695  23.146  1.00  0.00    -0.237 OA
ATOM     93  O   UNL A   1      51.759  29.746  25.232  1.00  0.00    -0.744 OA
ENDBRANCH  89  90
ENDBRANCH  57  82
BRANCH  69  94
ATOM     94  C   UNL A   1      44.608  28.555  31.988  1.00  0.00     0.058 A 
ATOM     95  C   UNL A   1      45.451  28.805  33.086  1.00  0.00     0.135 A 
ATOM     96  C   UNL A   1      43.935  27.316  32.003  1.00  0.00     0.135 A 
ATOM     97  F   UNL A   1      46.113  29.971  33.175  1.00  0.00    -0.206 F 
ATOM     98  C   UNL A   1      45.633  27.888  34.120  1.00  0.00     0.059 A 
ATOM     99  C   UNL A   1      44.060  26.403  33.057  1.00  0.00     0.059 A 
ATOM    100  F   UNL A   1      43.126  26.961  30.999  1.00  0.00    -0.206 F 
ATOM    101  C   UNL A   1      44.931  26.689  34.103  1.00  0.00     0.060 A 
BRANCH 101 102
ATOM    102  S   UNL A   1      45.140  25.552  35.493  1.00  0.00     0.124 S 
ATOM    103  O   UNL A   1      44.396  26.233  36.548  1.00  0.00    -0.237 OA
ATOM    104  O   UNL A   1      44.545  24.317  34.991  1.00  0.00    -0.237 OA
ATOM    105  O   UNL A   1      46.584  25.509  35.682  1.00  0.00    -0.744 OA
ENDBRANCH 101 102
ENDBRANCH  69  94
ENDBRANCH  43  44
ENDBRANCH  35  38
ENDBRANCH  33  34
ENDBRANCH  32  33
ENDBRANCH   1  32
TORSDOF 19
ENDMDL
