MODEL 1
REMARK VINA RESULT:     -12.9      0.000      0.000
REMARK SMILES O=C(NCCCNC(=O)c1cnc2c(ccn2C2CCCCC2)c1)c1ccc(-c2c3nc(c(-c4c(F)cc(S(=O)(=O)[O-])cc4F)c4ccc([nH]4)c(-c4c(F)cc(S(=O)(=O)[O-])cc4F)c4nc(c(-c5c(F)cc(S(=O)(=O)[O-])cc5F)c5ccc2[nH]5)C=C4)C=C3)cc1
REMARK SMILES IDX 4 1 3 2 1 3 2 4 25 6 26 7 90 8 27 9 89 10 28 11 29 12 30 13
REMARK SMILES IDX 83 14 31 15 88 16 82 17 84 18 32 19 87 20 81 21 80 22 33 24
REMARK SMILES IDX 67 25 46 26 66 27 47 28 50 29 65 30 85 31 48 32 49 33 64 35
REMARK SMILES IDX 86 36 51 37 34 38 35 39 44 40 36 41 37 42 43 43 45 44 38 45
REMARK SMILES IDX 39 46 40 47 41 48 42 49 68 50 69 51 78 52 70 53 71 54 77 55
REMARK SMILES IDX 79 56 72 57 73 58 74 59 75 60 76 61 52 62 53 63 62 64 54 65
REMARK SMILES IDX 55 66 61 67 63 68 56 69 57 70 58 71 59 72 60 73 5 74 6 75
REMARK SMILES IDX 7 76 8 77 9 79 10 80 11 81 24 82 12 83 14 84 13 85 15 86
REMARK SMILES IDX 17 87 16 88 18 89 19 90 23 91 20 92 22 93 21 94
REMARK H PARENT 3 5 84 23 50 34 7 78
REMARK Flexibility Score: inf
ROOT
ATOM      1  C   UNL A   1      40.414  21.586  26.335  1.00  0.00     0.118 C 
ENDROOT
BRANCH   1   2
ATOM      2  N   UNL A   1      41.537  21.883  25.463  1.00  0.00    -0.352 N 
ATOM      3  O   UNL A   1      43.346  22.820  24.569  1.00  0.00    -0.269 OA
ATOM      4  C   UNL A   1      42.418  22.929  25.373  1.00  0.00     0.251 C 
ATOM      5  H   UNL A   1      41.700  21.183  24.790  1.00  0.00     0.163 HD
BRANCH   4   6
ATOM      6  C   UNL A   1      42.264  24.200  26.124  1.00  0.00     0.039 A 
ATOM      7  C   UNL A   1      42.750  24.413  27.414  1.00  0.00     0.014 A 
ATOM      8  C   UNL A   1      41.590  25.242  25.466  1.00  0.00     0.014 A 
ATOM      9  C   UNL A   1      42.461  25.598  28.080  1.00  0.00     0.010 A 
ATOM     10  C   UNL A   1      41.331  26.446  26.116  1.00  0.00     0.010 A 
ATOM     11  C   UNL A   1      41.735  26.607  27.440  1.00  0.00    -0.014 A 
BRANCH  11  12
ATOM     12  C   UNL A   1      41.540  27.857  28.169  1.00  0.00     0.031 A 
ATOM     13  C   UNL A   1      42.636  28.861  28.033  1.00  0.00     0.074 A 
ATOM     14  C   UNL A   1      40.413  28.178  28.831  1.00  0.00     0.049 A 
ATOM     15  N   UNL A   1      43.396  29.364  28.954  1.00  0.00    -0.248 NA
ATOM     16  C   UNL A   1      42.972  29.306  26.672  1.00  0.00     0.031 C 
ATOM     17  C   UNL A   1      39.123  27.485  28.815  1.00  0.00     0.029 A 
ATOM     18  N   UNL A   1      40.166  29.279  29.596  1.00  0.00    -0.354 N 
ATOM     19  C   UNL A   1      44.191  30.318  28.319  1.00  0.00     0.074 A 
ATOM     20  C   UNL A   1      43.970  30.158  26.904  1.00  0.00     0.031 C 
ATOM     21  C   UNL A   1      38.183  28.289  29.363  1.00  0.00     0.029 A 
ATOM     22  C   UNL A   1      38.825  29.485  29.883  1.00  0.00     0.049 A 
ATOM     23  H   UNL A   1      40.879  29.877  29.920  1.00  0.00     0.167 HD
ATOM     24  C   UNL A   1      44.858  31.295  28.995  1.00  0.00     0.037 A 
ATOM     25  C   UNL A   1      38.281  30.597  30.439  1.00  0.00     0.037 A 
ATOM     26  C   UNL A   1      44.981  31.002  30.395  1.00  0.00     0.049 A 
ATOM     27  C   UNL A   1      39.366  31.326  31.143  1.00  0.00     0.074 A 
ATOM     28  C   UNL A   1      45.585  30.003  31.132  1.00  0.00     0.029 A 
ATOM     29  N   UNL A   1      44.149  31.654  31.270  1.00  0.00    -0.354 N 
ATOM     30  N   UNL A   1      39.978  30.893  32.211  1.00  0.00    -0.248 NA
ATOM     31  C   UNL A   1      40.042  32.401  30.434  1.00  0.00     0.031 C 
ATOM     32  C   UNL A   1      44.735  29.804  32.259  1.00  0.00     0.029 A 
ATOM     33  C   UNL A   1      43.680  30.712  32.150  1.00  0.00     0.049 A 
ATOM     34  H   UNL A   1      43.929  32.614  31.267  1.00  0.00     0.167 HD
ATOM     35  C   UNL A   1      41.282  31.346  32.086  1.00  0.00     0.074 A 
ATOM     36  C   UNL A   1      41.233  32.357  31.035  1.00  0.00     0.031 C 
ATOM     37  C   UNL A   1      42.326  30.677  32.658  1.00  0.00     0.037 A 
BRANCH  24  38
ATOM     38  C   UNL A   1      45.154  32.659  28.427  1.00  0.00     0.058 A 
ATOM     39  C   UNL A   1      46.484  33.062  28.195  1.00  0.00     0.135 A 
ATOM     40  C   UNL A   1      44.182  33.681  28.347  1.00  0.00     0.135 A 
ATOM     41  F   UNL A   1      47.490  32.176  28.273  1.00  0.00    -0.206 F 
ATOM     42  C   UNL A   1      46.828  34.393  27.945  1.00  0.00     0.059 A 
ATOM     43  C   UNL A   1      44.495  35.002  28.047  1.00  0.00     0.059 A 
ATOM     44  F   UNL A   1      42.897  33.456  28.652  1.00  0.00    -0.206 F 
ATOM     45  C   UNL A   1      45.825  35.358  27.885  1.00  0.00     0.060 A 
BRANCH  45  46
ATOM     46  S   UNL A   1      46.275  37.090  27.671  1.00  0.00     0.124 S 
ATOM     47  O   UNL A   1      45.155  37.584  26.877  1.00  0.00    -0.237 OA
ATOM     48  O   UNL A   1      46.339  37.562  29.050  1.00  0.00    -0.237 OA
ATOM     49  O   UNL A   1      47.559  37.019  26.979  1.00  0.00    -0.744 OA
ENDBRANCH  45  46
ENDBRANCH  24  38
BRANCH  25  50
ATOM     50  C   UNL A   1      36.979  31.234  30.114  1.00  0.00     0.058 A 
ATOM     51  C   UNL A   1      36.230  31.895  31.103  1.00  0.00     0.135 A 
ATOM     52  C   UNL A   1      36.584  31.460  28.779  1.00  0.00     0.135 A 
ATOM     53  F   UNL A   1      36.549  31.755  32.399  1.00  0.00    -0.206 F 
ATOM     54  C   UNL A   1      35.189  32.773  30.787  1.00  0.00     0.059 A 
ATOM     55  C   UNL A   1      35.542  32.319  28.440  1.00  0.00     0.059 A 
ATOM     56  F   UNL A   1      37.265  30.926  27.755  1.00  0.00    -0.206 F 
ATOM     57  C   UNL A   1      34.868  32.997  29.448  1.00  0.00     0.060 A 
BRANCH  57  58
ATOM     58  S   UNL A   1      33.654  34.269  29.027  1.00  0.00     0.124 S 
ATOM     59  O   UNL A   1      32.781  33.558  28.099  1.00  0.00    -0.237 OA
ATOM     60  O   UNL A   1      33.079  34.584  30.330  1.00  0.00    -0.237 OA
ATOM     61  O   UNL A   1      34.466  35.328  28.433  1.00  0.00    -0.744 OA
ENDBRANCH  57  58
ENDBRANCH  25  50
BRANCH  37  62
ATOM     62  C   UNL A   1      42.019  29.631  33.697  1.00  0.00     0.058 A 
ATOM     63  C   UNL A   1      41.659  28.306  33.399  1.00  0.00     0.135 A 
ATOM     64  C   UNL A   1      42.254  29.943  35.046  1.00  0.00     0.135 A 
ATOM     65  F   UNL A   1      41.518  27.898  32.129  1.00  0.00    -0.206 F 
ATOM     66  C   UNL A   1      41.505  27.343  34.398  1.00  0.00     0.059 A 
ATOM     67  C   UNL A   1      42.137  28.991  36.057  1.00  0.00     0.059 A 
ATOM     68  F   UNL A   1      42.660  31.176  35.391  1.00  0.00    -0.206 F 
ATOM     69  C   UNL A   1      41.753  27.693  35.725  1.00  0.00     0.060 A 
BRANCH  69  70
ATOM     70  S   UNL A   1      41.656  26.419  37.002  1.00  0.00     0.124 S 
ATOM     71  O   UNL A   1      41.675  25.189  36.212  1.00  0.00    -0.237 OA
ATOM     72  O   UNL A   1      42.858  26.676  37.795  1.00  0.00    -0.237 OA
ATOM     73  O   UNL A   1      40.401  26.706  37.681  1.00  0.00    -0.744 OA
ENDBRANCH  69  70
ENDBRANCH  37  62
ENDBRANCH  11  12
ENDBRANCH   4   6
ENDBRANCH   1   2
BRANCH   1  74
ATOM     74  C   UNL A   1      39.296  20.745  25.722  1.00  0.00     0.042 C 
BRANCH  74  75
ATOM     75  C   UNL A   1      38.050  21.530  25.315  1.00  0.00     0.118 C 
BRANCH  75  76
ATOM     76  N   UNL A   1      36.915  20.665  25.017  1.00  0.00    -0.352 N 
ATOM     77  C   UNL A   1      35.566  20.905  25.003  1.00  0.00     0.252 C 
ATOM     78  H   UNL A   1      37.163  19.742  24.780  1.00  0.00     0.163 HD
ATOM     79  O   UNL A   1      34.793  19.955  24.938  1.00  0.00    -0.269 OA
BRANCH  77  80
ATOM     80  C   UNL A   1      35.018  22.271  25.050  1.00  0.00     0.058 A 
ATOM     81  C   UNL A   1      34.939  22.979  26.240  1.00  0.00     0.127 A 
ATOM     82  C   UNL A   1      34.699  22.923  23.854  1.00  0.00     0.027 A 
ATOM     83  N   UNL A   1      34.502  24.253  26.374  1.00  0.00    -0.238 NA
ATOM     84  C   UNL A   1      34.252  24.253  23.935  1.00  0.00     0.020 A 
ATOM     85  C   UNL A   1      34.166  24.830  25.201  1.00  0.00     0.140 A 
ATOM     86  C   UNL A   1      33.840  25.236  23.000  1.00  0.00     0.030 A 
ATOM     87  N   UNL A   1      33.670  26.105  25.049  1.00  0.00    -0.329 N 
ATOM     88  C   UNL A   1      33.491  26.367  23.709  1.00  0.00     0.088 A 
BRANCH  87  89
ATOM     89  C   UNL A   1      33.348  27.041  26.125  1.00  0.00     0.088 C 
ATOM     90  C   UNL A   1      34.027  28.405  25.925  1.00  0.00     0.025 C 
ATOM     91  C   UNL A   1      31.835  27.172  26.360  1.00  0.00     0.025 C 
ATOM     92  C   UNL A   1      33.686  29.375  27.053  1.00  0.00     0.002 C 
ATOM     93  C   UNL A   1      31.520  28.159  27.481  1.00  0.00     0.002 C 
ATOM     94  C   UNL A   1      32.177  29.513  27.237  1.00  0.00     0.000 C 
ENDBRANCH  87  89
ENDBRANCH  77  80
ENDBRANCH  75  76
ENDBRANCH  74  75
ENDBRANCH   1  74
TORSDOF 14
ENDMDL
MODEL 2
REMARK VINA RESULT:     -12.7      3.236      6.022
REMARK SMILES O=C(NCCCNC(=O)c1cnc2c(ccn2C2CCCCC2)c1)c1ccc(-c2c3nc(c(-c4c(F)cc(S(=O)(=O)[O-])cc4F)c4ccc([nH]4)c(-c4c(F)cc(S(=O)(=O)[O-])cc4F)c4nc(c(-c5c(F)cc(S(=O)(=O)[O-])cc5F)c5ccc2[nH]5)C=C4)C=C3)cc1
REMARK SMILES IDX 4 1 3 2 1 3 2 4 25 6 26 7 90 8 27 9 89 10 28 11 29 12 30 13
REMARK SMILES IDX 83 14 31 15 88 16 82 17 84 18 32 19 87 20 81 21 80 22 33 24
REMARK SMILES IDX 67 25 46 26 66 27 47 28 50 29 65 30 85 31 48 32 49 33 64 35
REMARK SMILES IDX 86 36 51 37 34 38 35 39 44 40 36 41 37 42 43 43 45 44 38 45
REMARK SMILES IDX 39 46 40 47 41 48 42 49 68 50 69 51 78 52 70 53 71 54 77 55
REMARK SMILES IDX 79 56 72 57 73 58 74 59 75 60 76 61 52 62 53 63 62 64 54 65
REMARK SMILES IDX 55 66 61 67 63 68 56 69 57 70 58 71 59 72 60 73 5 74 6 75
REMARK SMILES IDX 7 76 8 77 9 79 10 80 11 81 24 82 12 83 14 84 13 85 15 86
REMARK SMILES IDX 17 87 16 88 18 89 19 90 23 91 20 92 22 93 21 94
REMARK H PARENT 3 5 84 23 50 34 7 78
REMARK Flexibility Score: inf
ROOT
ATOM      1  C   UNL A   1      41.381  20.321  27.674  1.00  0.00     0.118 C 
ENDROOT
BRANCH   1   2
ATOM      2  N   UNL A   1      40.265  20.736  26.843  1.00  0.00    -0.352 N 
ATOM      3  O   UNL A   1      38.845  21.960  25.644  1.00  0.00    -0.269 OA
ATOM      4  C   UNL A   1      39.762  21.955  26.468  1.00  0.00     0.251 C 
ATOM      5  H   UNL A   1      39.760  19.979  26.468  1.00  0.00     0.163 HD
BRANCH   4   6
ATOM      6  C   UNL A   1      40.205  23.243  27.058  1.00  0.00     0.039 A 
ATOM      7  C   UNL A   1      41.343  23.393  27.849  1.00  0.00     0.014 A 
ATOM      8  C   UNL A   1      39.412  24.369  26.778  1.00  0.00     0.014 A 
ATOM      9  C   UNL A   1      41.616  24.616  28.450  1.00  0.00     0.010 A 
ATOM     10  C   UNL A   1      39.704  25.605  27.348  1.00  0.00     0.010 A 
ATOM     11  C   UNL A   1      40.787  25.717  28.216  1.00  0.00    -0.014 A 
BRANCH  11  12
ATOM     12  C   UNL A   1      41.181  26.991  28.813  1.00  0.00     0.031 A 
ATOM     13  C   UNL A   1      42.437  27.593  28.276  1.00  0.00     0.074 A 
ATOM     14  C   UNL A   1      40.434  27.674  29.700  1.00  0.00     0.049 A 
ATOM     15  N   UNL A   1      43.539  27.864  28.900  1.00  0.00    -0.248 NA
ATOM     16  C   UNL A   1      42.487  27.861  26.830  1.00  0.00     0.031 C 
ATOM     17  C   UNL A   1      39.049  27.421  30.103  1.00  0.00     0.029 A 
ATOM     18  N   UNL A   1      40.748  28.824  30.362  1.00  0.00    -0.354 N 
ATOM     19  C   UNL A   1      44.364  28.497  27.969  1.00  0.00     0.074 A 
ATOM     20  C   UNL A   1      43.713  28.364  26.690  1.00  0.00     0.031 C 
ATOM     21  C   UNL A   1      38.581  28.499  30.773  1.00  0.00     0.029 A 
ATOM     22  C   UNL A   1      39.665  29.451  30.959  1.00  0.00     0.049 A 
ATOM     23  H   UNL A   1      41.665  29.177  30.414  1.00  0.00     0.167 HD
ATOM     24  C   UNL A   1      45.451  29.238  28.324  1.00  0.00     0.037 A 
ATOM     25  C   UNL A   1      39.650  30.696  31.496  1.00  0.00     0.037 A 
ATOM     26  C   UNL A   1      45.875  28.972  29.670  1.00  0.00     0.049 A 
ATOM     27  C   UNL A   1      41.054  31.072  31.801  1.00  0.00     0.074 A 
ATOM     28  C   UNL A   1      46.344  27.861  30.342  1.00  0.00     0.029 A 
ATOM     29  N   UNL A   1      45.554  29.884  30.644  1.00  0.00    -0.354 N 
ATOM     30  N   UNL A   1      41.790  30.508  32.719  1.00  0.00    -0.248 NA
ATOM     31  C   UNL A   1      41.784  31.854  30.815  1.00  0.00     0.031 C 
ATOM     32  C   UNL A   1      45.830  27.981  31.666  1.00  0.00     0.029 A 
ATOM     33  C   UNL A   1      45.101  29.169  31.723  1.00  0.00     0.049 A 
ATOM     34  H   UNL A   1      45.632  30.863  30.580  1.00  0.00     0.167 HD
ATOM     35  C   UNL A   1      43.078  30.523  32.205  1.00  0.00     0.074 A 
ATOM     36  C   UNL A   1      43.029  31.459  31.088  1.00  0.00     0.031 C 
ATOM     37  C   UNL A   1      43.998  29.580  32.565  1.00  0.00     0.037 A 
BRANCH  24  38
ATOM     38  C   UNL A   1      45.958  30.418  27.536  1.00  0.00     0.058 A 
ATOM     39  C   UNL A   1      47.328  30.537  27.231  1.00  0.00     0.135 A 
ATOM     40  C   UNL A   1      45.175  31.570  27.297  1.00  0.00     0.135 A 
ATOM     41  F   UNL A   1      48.167  29.511  27.446  1.00  0.00    -0.206 F 
ATOM     42  C   UNL A   1      47.887  31.727  26.761  1.00  0.00     0.059 A 
ATOM     43  C   UNL A   1      45.702  32.749  26.780  1.00  0.00     0.059 A 
ATOM     44  F   UNL A   1      43.883  31.629  27.646  1.00  0.00    -0.206 F 
ATOM     45  C   UNL A   1      47.066  32.832  26.552  1.00  0.00     0.060 A 
BRANCH  45  46
ATOM     46  S   UNL A   1      47.802  34.399  26.051  1.00  0.00     0.124 S 
ATOM     47  O   UNL A   1      46.836  34.871  25.064  1.00  0.00    -0.237 OA
ATOM     48  O   UNL A   1      47.840  35.136  27.310  1.00  0.00    -0.237 OA
ATOM     49  O   UNL A   1      49.105  34.005  25.523  1.00  0.00    -0.744 OA
ENDBRANCH  45  46
ENDBRANCH  24  38
BRANCH  25  50
ATOM     50  C   UNL A   1      38.554  31.699  31.445  1.00  0.00     0.058 A 
ATOM     51  C   UNL A   1      37.805  31.893  30.271  1.00  0.00     0.135 A 
ATOM     52  C   UNL A   1      38.031  32.275  32.621  1.00  0.00     0.135 A 
ATOM     53  F   UNL A   1      38.218  31.361  29.110  1.00  0.00    -0.206 F 
ATOM     54  C   UNL A   1      36.581  32.568  30.272  1.00  0.00     0.059 A 
ATOM     55  C   UNL A   1      36.821  32.963  32.644  1.00  0.00     0.059 A 
ATOM     56  F   UNL A   1      38.633  32.101  33.805  1.00  0.00    -0.206 F 
ATOM     57  C   UNL A   1      36.085  33.080  31.472  1.00  0.00     0.060 A 
BRANCH  57  58
ATOM     58  S   UNL A   1      34.421  33.785  31.514  1.00  0.00     0.124 S 
ATOM     59  O   UNL A   1      33.729  32.871  32.416  1.00  0.00    -0.237 OA
ATOM     60  O   UNL A   1      34.671  35.126  32.032  1.00  0.00    -0.237 OA
ATOM     61  O   UNL A   1      33.994  33.727  30.118  1.00  0.00    -0.744 OA
ENDBRANCH  57  58
ENDBRANCH  25  50
BRANCH  37  62
ATOM     62  C   UNL A   1      43.707  28.722  33.768  1.00  0.00     0.058 A 
ATOM     63  C   UNL A   1      44.006  29.092  35.091  1.00  0.00     0.135 A 
ATOM     64  C   UNL A   1      42.954  27.551  33.585  1.00  0.00     0.135 A 
ATOM     65  F   UNL A   1      44.631  30.248  35.360  1.00  0.00    -0.206 F 
ATOM     66  C   UNL A   1      43.605  28.316  36.180  1.00  0.00     0.059 A 
ATOM     67  C   UNL A   1      42.516  26.778  34.658  1.00  0.00     0.059 A 
ATOM     68  F   UNL A   1      42.584  27.176  32.350  1.00  0.00    -0.206 F 
ATOM     69  C   UNL A   1      42.853  27.163  35.954  1.00  0.00     0.060 A 
BRANCH  69  70
ATOM     70  S   UNL A   1      42.246  26.220  37.370  1.00  0.00     0.124 S 
ATOM     71  O   UNL A   1      43.185  26.605  38.422  1.00  0.00    -0.237 OA
ATOM     72  O   UNL A   1      40.883  26.728  37.526  1.00  0.00    -0.237 OA
ATOM     73  O   UNL A   1      42.337  24.836  36.927  1.00  0.00    -0.744 OA
ENDBRANCH  69  70
ENDBRANCH  37  62
ENDBRANCH  11  12
ENDBRANCH   4   6
ENDBRANCH   1   2
BRANCH   1  74
ATOM     74  C   UNL A   1      42.168  19.109  27.180  1.00  0.00     0.042 C 
BRANCH  74  75
ATOM     75  C   UNL A   1      42.319  19.016  25.662  1.00  0.00     0.118 C 
BRANCH  75  76
ATOM     76  N   UNL A   1      43.632  18.528  25.258  1.00  0.00    -0.352 N 
ATOM     77  C   UNL A   1      44.767  19.187  24.862  1.00  0.00     0.252 C 
ATOM     78  H   UNL A   1      43.721  17.547  25.275  1.00  0.00     0.163 HD
ATOM     79  O   UNL A   1      45.681  18.546  24.354  1.00  0.00    -0.269 OA
BRANCH  77  80
ATOM     80  C   UNL A   1      44.925  20.641  25.039  1.00  0.00     0.058 A 
ATOM     81  C   UNL A   1      46.175  21.217  25.216  1.00  0.00     0.127 A 
ATOM     82  C   UNL A   1      43.812  21.474  24.890  1.00  0.00     0.027 A 
ATOM     83  N   UNL A   1      46.424  22.542  25.333  1.00  0.00    -0.238 NA
ATOM     84  C   UNL A   1      44.017  22.861  24.991  1.00  0.00     0.020 A 
ATOM     85  C   UNL A   1      45.317  23.307  25.225  1.00  0.00     0.140 A 
ATOM     86  C   UNL A   1      43.191  24.011  24.906  1.00  0.00     0.030 A 
ATOM     87  N   UNL A   1      45.278  24.678  25.329  1.00  0.00    -0.329 N 
ATOM     88  C   UNL A   1      43.990  25.116  25.114  1.00  0.00     0.088 A 
BRANCH  87  89
ATOM     89  C   UNL A   1      46.406  25.552  25.648  1.00  0.00     0.088 C 
ATOM     90  C   UNL A   1      46.816  25.448  27.126  1.00  0.00     0.025 C 
ATOM     91  C   UNL A   1      47.597  25.350  24.697  1.00  0.00     0.025 C 
ATOM     92  C   UNL A   1      47.994  26.364  27.449  1.00  0.00     0.002 C 
ATOM     93  C   UNL A   1      48.766  26.265  25.052  1.00  0.00     0.002 C 
ATOM     94  C   UNL A   1      49.173  26.113  26.514  1.00  0.00     0.000 C 
ENDBRANCH  87  89
ENDBRANCH  77  80
ENDBRANCH  75  76
ENDBRANCH  74  75
ENDBRANCH   1  74
TORSDOF 14
ENDMDL
MODEL 3
REMARK VINA RESULT:     -12.5      1.828      2.419
REMARK SMILES O=C(NCCCNC(=O)c1cnc2c(ccn2C2CCCCC2)c1)c1ccc(-c2c3nc(c(-c4c(F)cc(S(=O)(=O)[O-])cc4F)c4ccc([nH]4)c(-c4c(F)cc(S(=O)(=O)[O-])cc4F)c4nc(c(-c5c(F)cc(S(=O)(=O)[O-])cc5F)c5ccc2[nH]5)C=C4)C=C3)cc1
REMARK SMILES IDX 4 1 3 2 1 3 2 4 25 6 26 7 90 8 27 9 89 10 28 11 29 12 30 13
REMARK SMILES IDX 83 14 31 15 88 16 82 17 84 18 32 19 87 20 81 21 80 22 33 24
REMARK SMILES IDX 67 25 46 26 66 27 47 28 50 29 65 30 85 31 48 32 49 33 64 35
REMARK SMILES IDX 86 36 51 37 34 38 35 39 44 40 36 41 37 42 43 43 45 44 38 45
REMARK SMILES IDX 39 46 40 47 41 48 42 49 68 50 69 51 78 52 70 53 71 54 77 55
REMARK SMILES IDX 79 56 72 57 73 58 74 59 75 60 76 61 52 62 53 63 62 64 54 65
REMARK SMILES IDX 55 66 61 67 63 68 56 69 57 70 58 71 59 72 60 73 5 74 6 75
REMARK SMILES IDX 7 76 8 77 9 79 10 80 11 81 24 82 12 83 14 84 13 85 15 86
REMARK SMILES IDX 17 87 16 88 18 89 19 90 23 91 20 92 22 93 21 94
REMARK H PARENT 3 5 84 23 50 34 7 78
REMARK Flexibility Score: inf
ROOT
ATOM      1  C   UNL A   1      37.442  22.389  25.773  1.00  0.00     0.118 C 
ENDROOT
BRANCH   1   2
ATOM      2  N   UNL A   1      38.818  21.935  25.672  1.00  0.00    -0.352 N 
ATOM      3  O   UNL A   1      41.003  21.681  26.001  1.00  0.00    -0.269 OA
ATOM      4  C   UNL A   1      40.003  22.374  26.202  1.00  0.00     0.251 C 
ATOM      5  H   UNL A   1      38.922  21.141  25.100  1.00  0.00     0.163 HD
BRANCH   4   6
ATOM      6  C   UNL A   1      40.154  23.663  26.921  1.00  0.00     0.039 A 
ATOM      7  C   UNL A   1      39.286  24.745  26.783  1.00  0.00     0.014 A 
ATOM      8  C   UNL A   1      41.245  23.769  27.800  1.00  0.00     0.014 A 
ATOM      9  C   UNL A   1      39.570  25.951  27.412  1.00  0.00     0.010 A 
ATOM     10  C   UNL A   1      41.513  24.964  28.463  1.00  0.00     0.010 A 
ATOM     11  C   UNL A   1      40.694  26.068  28.237  1.00  0.00    -0.014 A 
BRANCH  11  12
ATOM     12  C   UNL A   1      40.884  27.338  28.932  1.00  0.00     0.031 A 
ATOM     13  C   UNL A   1      42.010  28.182  28.435  1.00  0.00     0.074 A 
ATOM     14  C   UNL A   1      40.055  27.814  29.879  1.00  0.00     0.049 A 
ATOM     15  N   UNL A   1      43.066  28.583  29.069  1.00  0.00    -0.248 NA
ATOM     16  C   UNL A   1      41.983  28.569  27.016  1.00  0.00     0.031 C 
ATOM     17  C   UNL A   1      38.740  27.302  30.272  1.00  0.00     0.029 A 
ATOM     18  N   UNL A   1      40.188  28.943  30.631  1.00  0.00    -0.354 N 
ATOM     19  C   UNL A   1      43.754  29.417  28.186  1.00  0.00     0.074 A 
ATOM     20  C   UNL A   1      43.105  29.279  26.907  1.00  0.00     0.031 C 
ATOM     21  C   UNL A   1      38.115  28.229  31.033  1.00  0.00     0.029 A 
ATOM     22  C   UNL A   1      39.030  29.331  31.287  1.00  0.00     0.049 A 
ATOM     23  H   UNL A   1      41.035  29.440  30.703  1.00  0.00     0.167 HD
ATOM     24  C   UNL A   1      44.710  30.299  28.591  1.00  0.00     0.037 A 
ATOM     25  C   UNL A   1      38.821  30.510  31.925  1.00  0.00     0.037 A 
ATOM     26  C   UNL A   1      45.203  30.001  29.907  1.00  0.00     0.049 A 
ATOM     27  C   UNL A   1      40.150  31.089  32.247  1.00  0.00     0.074 A 
ATOM     28  C   UNL A   1      45.865  28.934  30.481  1.00  0.00     0.029 A 
ATOM     29  N   UNL A   1      44.757  30.766  30.956  1.00  0.00    -0.354 N 
ATOM     30  N   UNL A   1      40.989  30.585  33.108  1.00  0.00    -0.248 NA
ATOM     31  C   UNL A   1      40.717  32.058  31.321  1.00  0.00     0.031 C 
ATOM     32  C   UNL A   1      45.368  28.860  31.815  1.00  0.00     0.029 A 
ATOM     33  C   UNL A   1      44.453  29.902  31.976  1.00  0.00     0.049 A 
ATOM     34  H   UNL A   1      44.671  31.747  30.971  1.00  0.00     0.167 HD
ATOM     35  C   UNL A   1      42.245  30.856  32.586  1.00  0.00     0.074 A 
ATOM     36  C   UNL A   1      42.016  31.856  31.550  1.00  0.00     0.031 C 
ATOM     37  C   UNL A   1      43.317  30.055  32.859  1.00  0.00     0.037 A 
BRANCH  24  38
ATOM     38  C   UNL A   1      44.996  31.606  27.898  1.00  0.00     0.058 A 
ATOM     39  C   UNL A   1      46.229  31.814  27.248  1.00  0.00     0.135 A 
ATOM     40  C   UNL A   1      44.197  32.757  28.079  1.00  0.00     0.135 A 
ATOM     41  F   UNL A   1      47.077  30.793  27.050  1.00  0.00    -0.206 F 
ATOM     42  C   UNL A   1      46.654  33.081  26.844  1.00  0.00     0.059 A 
ATOM     43  C   UNL A   1      44.577  34.019  27.637  1.00  0.00     0.059 A 
ATOM     44  F   UNL A   1      43.054  32.719  28.777  1.00  0.00    -0.206 F 
ATOM     45  C   UNL A   1      45.825  34.180  27.055  1.00  0.00     0.060 A 
BRANCH  45  46
ATOM     46  S   UNL A   1      46.417  35.829  26.634  1.00  0.00     0.124 S 
ATOM     47  O   UNL A   1      47.120  35.575  25.382  1.00  0.00    -0.237 OA
ATOM     48  O   UNL A   1      45.172  36.583  26.526  1.00  0.00    -0.237 OA
ATOM     49  O   UNL A   1      47.260  36.184  27.772  1.00  0.00    -0.744 OA
ENDBRANCH  45  46
ENDBRANCH  24  38
BRANCH  25  50
ATOM     50  C   UNL A   1      37.573  31.316  31.966  1.00  0.00     0.058 A 
ATOM     51  C   UNL A   1      37.009  31.714  33.190  1.00  0.00     0.135 A 
ATOM     52  C   UNL A   1      37.074  31.955  30.812  1.00  0.00     0.135 A 
ATOM     53  F   UNL A   1      37.440  31.174  34.340  1.00  0.00    -0.206 F 
ATOM     54  C   UNL A   1      36.048  32.726  33.273  1.00  0.00     0.059 A 
ATOM     55  C   UNL A   1      36.108  32.956  30.868  1.00  0.00     0.059 A 
ATOM     56  F   UNL A   1      37.583  31.694  29.600  1.00  0.00    -0.206 F 
ATOM     57  C   UNL A   1      35.620  33.359  32.105  1.00  0.00     0.060 A 
BRANCH  57  58
ATOM     58  S   UNL A   1      34.523  34.791  32.223  1.00  0.00     0.124 S 
ATOM     59  O   UNL A   1      33.364  34.227  32.906  1.00  0.00    -0.237 OA
ATOM     60  O   UNL A   1      35.328  35.728  32.998  1.00  0.00    -0.237 OA
ATOM     61  O   UNL A   1      34.304  35.165  30.828  1.00  0.00    -0.744 OA
ENDBRANCH  57  58
ENDBRANCH  25  50
BRANCH  37  62
ATOM     62  C   UNL A   1      43.200  29.067  33.990  1.00  0.00     0.058 A 
ATOM     63  C   UNL A   1      43.429  29.384  35.340  1.00  0.00     0.135 A 
ATOM     64  C   UNL A   1      42.681  27.793  33.711  1.00  0.00     0.135 A 
ATOM     65  F   UNL A   1      43.826  30.613  35.702  1.00  0.00    -0.206 F 
ATOM     66  C   UNL A   1      43.188  28.465  36.362  1.00  0.00     0.059 A 
ATOM     67  C   UNL A   1      42.402  26.871  34.717  1.00  0.00     0.059 A 
ATOM     68  F   UNL A   1      42.382  27.450  32.447  1.00  0.00    -0.206 F 
ATOM     69  C   UNL A   1      42.667  27.212  36.042  1.00  0.00     0.060 A 
BRANCH  69  70
ATOM     70  S   UNL A   1      42.256  26.065  37.376  1.00  0.00     0.124 S 
ATOM     71  O   UNL A   1      40.849  26.370  37.622  1.00  0.00    -0.237 OA
ATOM     72  O   UNL A   1      42.520  24.762  36.764  1.00  0.00    -0.237 OA
ATOM     73  O   UNL A   1      43.172  26.437  38.445  1.00  0.00    -0.744 OA
ENDBRANCH  69  70
ENDBRANCH  37  62
ENDBRANCH  11  12
ENDBRANCH   4   6
ENDBRANCH   1   2
BRANCH   1  74
ATOM     74  C   UNL A   1      36.375  21.400  25.304  1.00  0.00     0.042 C 
BRANCH  74  75
ATOM     75  C   UNL A   1      35.148  21.302  26.209  1.00  0.00     0.118 C 
BRANCH  75  76
ATOM     76  N   UNL A   1      34.123  20.416  25.669  1.00  0.00    -0.352 N 
ATOM     77  C   UNL A   1      32.933  20.677  25.041  1.00  0.00     0.252 C 
ATOM     78  H   UNL A   1      34.323  19.458  25.772  1.00  0.00     0.163 HD
ATOM     79  O   UNL A   1      32.133  19.761  24.877  1.00  0.00    -0.269 OA
BRANCH  77  80
ATOM     80  C   UNL A   1      32.592  22.022  24.546  1.00  0.00     0.058 A 
ATOM     81  C   UNL A   1      31.941  22.946  25.350  1.00  0.00     0.127 A 
ATOM     82  C   UNL A   1      33.056  22.427  23.291  1.00  0.00     0.027 A 
ATOM     83  N   UNL A   1      31.635  24.218  25.004  1.00  0.00    -0.238 NA
ATOM     84  C   UNL A   1      32.776  23.744  22.886  1.00  0.00     0.020 A 
ATOM     85  C   UNL A   1      32.063  24.554  23.769  1.00  0.00     0.140 A 
ATOM     86  C   UNL A   1      33.052  24.525  21.735  1.00  0.00     0.030 A 
ATOM     87  N   UNL A   1      31.868  25.771  23.157  1.00  0.00    -0.329 N 
ATOM     88  C   UNL A   1      32.486  25.768  21.927  1.00  0.00     0.088 A 
BRANCH  87  89
ATOM     89  C   UNL A   1      31.101  26.894  23.694  1.00  0.00     0.088 C 
ATOM     90  C   UNL A   1      32.011  27.980  24.291  1.00  0.00     0.025 C 
ATOM     91  C   UNL A   1      30.101  27.467  22.677  1.00  0.00     0.025 C 
ATOM     92  C   UNL A   1      31.202  29.148  24.849  1.00  0.00     0.002 C 
ATOM     93  C   UNL A   1      29.317  28.643  23.254  1.00  0.00     0.002 C 
ATOM     94  C   UNL A   1      30.247  29.719  23.806  1.00  0.00     0.000 C 
ENDBRANCH  87  89
ENDBRANCH  77  80
ENDBRANCH  75  76
ENDBRANCH  74  75
ENDBRANCH   1  74
TORSDOF 14
ENDMDL
