MODEL 1
REMARK VINA RESULT:     -11.4      0.000      0.000
REMARK SMILES C[C@@H](C(=O)NCCCNC(=O)c1ccc(-c2c3nc(c(-c4c(F)cc(S(=O)(=O)[O-])cc4F)c4ccc([nH]4)c(-c4c(F)cc(S(=O)(=O)[O-])cc4F)c4nc(c(-c5c(F)cc(S(=O)(=O)[O-])cc5F)c5ccc2[nH]5)C=C4)C=C3)cc1)N1C(=O)c2nccnc2C1=O
REMARK SMILES IDX 8 1 7 2 6 3 5 4 3 5 4 6 2 8 1 9 78 10 79 11 87 12 80 13
REMARK SMILES IDX 81 14 86 15 88 16 82 17 85 18 83 19 84 20 9 21 10 22 11 24
REMARK SMILES IDX 12 25 13 26 77 27 14 28 76 29 15 30 16 31 17 32 70 33 18 34
REMARK SMILES IDX 75 35 69 36 71 37 19 38 74 39 68 40 67 41 20 43 54 44 33 45
REMARK SMILES IDX 53 46 34 47 37 48 52 49 72 50 35 51 36 52 51 54 73 55 38 56
REMARK SMILES IDX 21 57 22 58 31 59 23 60 24 61 30 62 32 63 25 64 26 65 27 66
REMARK SMILES IDX 28 67 29 68 55 69 56 70 65 71 57 72 58 73 64 74 66 75 59 76
REMARK SMILES IDX 60 77 61 78 62 79 63 80 39 81 40 82 49 83 41 84 42 85 48 86
REMARK SMILES IDX 50 87 43 88 44 89 45 90 46 91 47 92
REMARK H PARENT 5 7 9 23 71 42 37 53
REMARK Flexibility Score: inf
ROOT
ATOM      1  C   UNL A   1      35.264  33.188  28.047  1.00  0.00     0.118 C 
ENDROOT
BRANCH   1   2
ATOM      2  C   UNL A   1      34.539  34.509  27.803  1.00  0.00     0.042 C 
BRANCH   2   3
ATOM      3  C   UNL A   1      33.246  34.674  28.596  1.00  0.00     0.117 C 
BRANCH   3   4
ATOM      4  N   UNL A   1      33.136  35.987  29.209  1.00  0.00    -0.354 N 
ATOM      5  C   UNL A   1      32.967  36.329  30.521  1.00  0.00     0.243 C 
ATOM      6  O   UNL A   1      33.014  37.528  30.809  1.00  0.00    -0.273 OA
ATOM      7  H   UNL A   1      33.193  36.746  28.584  1.00  0.00     0.163 HD
BRANCH   5   8
ATOM      8  C   UNL A   1      32.752  35.233  31.586  1.00  0.00     0.180 C 
ATOM      9  C   UNL A   1      31.858  35.681  32.737  1.00  0.00     0.042 C 
BRANCH   8  10
ATOM     10  N   UNL A   1      34.062  34.766  32.044  1.00  0.00    -0.259 N 
ATOM     11  C   UNL A   1      34.610  33.536  31.768  1.00  0.00     0.282 C 
ATOM     12  C   UNL A   1      34.852  35.487  32.901  1.00  0.00     0.282 C 
ATOM     13  O   UNL A   1      34.173  32.645  31.068  1.00  0.00    -0.267 OA
ATOM     14  C   UNL A   1      35.896  33.496  32.465  1.00  0.00     0.160 A 
ATOM     15  C   UNL A   1      36.044  34.676  33.145  1.00  0.00     0.160 A 
ATOM     16  O   UNL A   1      34.639  36.593  33.364  1.00  0.00    -0.267 OA
ATOM     17  N   UNL A   1      36.842  32.539  32.394  1.00  0.00    -0.247 NA
ATOM     18  N   UNL A   1      37.154  35.024  33.829  1.00  0.00    -0.247 NA
ATOM     19  C   UNL A   1      37.967  32.860  33.085  1.00  0.00     0.132 A 
ATOM     20  C   UNL A   1      38.118  34.068  33.781  1.00  0.00     0.132 A 
ENDBRANCH   8  10
ENDBRANCH   5   8
ENDBRANCH   3   4
ENDBRANCH   2   3
ENDBRANCH   1   2
BRANCH   1  21
ATOM     21  N   UNL A   1      34.377  32.036  27.981  1.00  0.00    -0.352 N 
ATOM     22  C   UNL A   1      34.659  30.692  28.008  1.00  0.00     0.251 C 
ATOM     23  H   UNL A   1      33.420  32.256  27.903  1.00  0.00     0.163 HD
ATOM     24  O   UNL A   1      33.760  29.890  27.764  1.00  0.00    -0.269 OA
BRANCH  22  25
ATOM     25  C   UNL A   1      36.026  30.201  28.303  1.00  0.00     0.039 A 
ATOM     26  C   UNL A   1      36.954  30.134  27.260  1.00  0.00     0.014 A 
ATOM     27  C   UNL A   1      36.392  29.775  29.583  1.00  0.00     0.014 A 
ATOM     28  C   UNL A   1      38.260  29.707  27.512  1.00  0.00     0.010 A 
ATOM     29  C   UNL A   1      37.716  29.423  29.849  1.00  0.00     0.010 A 
ATOM     30  C   UNL A   1      38.665  29.384  28.818  1.00  0.00    -0.014 A 
BRANCH  30  31
ATOM     31  C   UNL A   1      40.078  29.024  29.119  1.00  0.00     0.031 A 
ATOM     32  C   UNL A   1      41.018  30.040  29.710  1.00  0.00     0.074 A 
ATOM     33  C   UNL A   1      40.532  27.794  28.803  1.00  0.00     0.049 A 
ATOM     34  N   UNL A   1      42.294  29.927  29.980  1.00  0.00    -0.248 NA
ATOM     35  C   UNL A   1      40.458  31.367  30.019  1.00  0.00     0.031 C 
ATOM     36  C   UNL A   1      39.734  26.733  28.183  1.00  0.00     0.029 A 
ATOM     37  N   UNL A   1      41.775  27.228  28.947  1.00  0.00    -0.354 N 
ATOM     38  C   UNL A   1      42.691  31.162  30.478  1.00  0.00     0.074 A 
ATOM     39  C   UNL A   1      41.533  32.028  30.425  1.00  0.00     0.031 C 
ATOM     40  C   UNL A   1      40.500  25.644  28.018  1.00  0.00     0.029 A 
ATOM     41  C   UNL A   1      41.855  25.938  28.476  1.00  0.00     0.049 A 
ATOM     42  H   UNL A   1      42.538  27.702  29.350  1.00  0.00     0.167 HD
ATOM     43  C   UNL A   1      43.904  31.535  30.953  1.00  0.00     0.037 A 
ATOM     44  C   UNL A   1      42.901  25.090  28.404  1.00  0.00     0.037 A 
ATOM     45  C   UNL A   1      45.049  30.662  31.017  1.00  0.00     0.049 A 
ATOM     46  C   UNL A   1      44.240  25.531  28.928  1.00  0.00     0.074 A 
ATOM     47  C   UNL A   1      46.305  30.931  31.536  1.00  0.00     0.029 A 
ATOM     48  N   UNL A   1      45.085  29.358  30.545  1.00  0.00    -0.354 N 
ATOM     49  N   UNL A   1      44.580  26.684  29.455  1.00  0.00    -0.248 NA
ATOM     50  C   UNL A   1      45.337  24.557  28.856  1.00  0.00     0.031 C 
ATOM     51  C   UNL A   1      47.115  29.813  31.322  1.00  0.00     0.029 A 
ATOM     52  C   UNL A   1      46.348  28.820  30.734  1.00  0.00     0.049 A 
ATOM     53  H   UNL A   1      44.325  28.885  30.136  1.00  0.00     0.167 HD
ATOM     54  C   UNL A   1      45.921  26.562  29.803  1.00  0.00     0.074 A 
ATOM     55  C   UNL A   1      46.325  25.220  29.440  1.00  0.00     0.031 C 
ATOM     56  C   UNL A   1      46.741  27.480  30.372  1.00  0.00     0.037 A 
BRANCH  43  57
ATOM     57  C   UNL A   1      44.064  32.950  31.443  1.00  0.00     0.058 A 
ATOM     58  C   UNL A   1      44.501  33.983  30.598  1.00  0.00     0.135 A 
ATOM     59  C   UNL A   1      43.719  33.290  32.762  1.00  0.00     0.135 A 
ATOM     60  F   UNL A   1      44.858  33.714  29.332  1.00  0.00    -0.206 F 
ATOM     61  C   UNL A   1      44.610  35.295  31.046  1.00  0.00     0.059 A 
ATOM     62  C   UNL A   1      43.791  34.602  33.223  1.00  0.00     0.059 A 
ATOM     63  F   UNL A   1      43.295  32.345  33.616  1.00  0.00    -0.206 F 
ATOM     64  C   UNL A   1      44.249  35.596  32.360  1.00  0.00     0.060 A 
BRANCH  64  65
ATOM     65  S   UNL A   1      44.377  37.308  32.917  1.00  0.00     0.124 S 
ATOM     66  O   UNL A   1      43.972  38.036  31.718  1.00  0.00    -0.237 OA
ATOM     67  O   UNL A   1      43.433  37.344  34.029  1.00  0.00    -0.237 OA
ATOM     68  O   UNL A   1      45.783  37.443  33.288  1.00  0.00    -0.744 OA
ENDBRANCH  64  65
ENDBRANCH  43  57
BRANCH  44  69
ATOM     69  C   UNL A   1      42.716  23.735  27.817  1.00  0.00     0.058 A 
ATOM     70  C   UNL A   1      42.549  22.607  28.632  1.00  0.00     0.135 A 
ATOM     71  C   UNL A   1      42.687  23.545  26.425  1.00  0.00     0.135 A 
ATOM     72  F   UNL A   1      42.577  22.734  29.967  1.00  0.00    -0.206 F 
ATOM     73  C   UNL A   1      42.373  21.336  28.092  1.00  0.00     0.059 A 
ATOM     74  C   UNL A   1      42.482  22.290  25.862  1.00  0.00     0.059 A 
ATOM     75  F   UNL A   1      42.826  24.594  25.600  1.00  0.00    -0.206 F 
ATOM     76  C   UNL A   1      42.336  21.189  26.705  1.00  0.00     0.060 A 
BRANCH  76  77
ATOM     77  S   UNL A   1      42.049  19.543  26.016  1.00  0.00     0.124 S 
ATOM     78  O   UNL A   1      40.615  19.579  25.755  1.00  0.00    -0.237 OA
ATOM     79  O   UNL A   1      42.914  19.550  24.840  1.00  0.00    -0.237 OA
ATOM     80  O   UNL A   1      42.473  18.651  27.091  1.00  0.00    -0.744 OA
ENDBRANCH  76  77
ENDBRANCH  44  69
BRANCH  56  81
ATOM     81  C   UNL A   1      48.154  27.057  30.680  1.00  0.00     0.058 A 
ATOM     82  C   UNL A   1      49.220  27.345  29.813  1.00  0.00     0.135 A 
ATOM     83  C   UNL A   1      48.451  26.402  31.886  1.00  0.00     0.135 A 
ATOM     84  F   UNL A   1      48.993  27.963  28.644  1.00  0.00    -0.206 F 
ATOM     85  C   UNL A   1      50.526  26.974  30.119  1.00  0.00     0.059 A 
ATOM     86  C   UNL A   1      49.754  26.051  32.228  1.00  0.00     0.059 A 
ATOM     87  F   UNL A   1      47.472  26.112  32.758  1.00  0.00    -0.206 F 
ATOM     88  C   UNL A   1      50.784  26.330  31.331  1.00  0.00     0.060 A 
BRANCH  88  89
ATOM     89  S   UNL A   1      52.487  25.884  31.728  1.00  0.00     0.124 S 
ATOM     90  O   UNL A   1      52.847  26.920  32.688  1.00  0.00    -0.237 OA
ATOM     91  O   UNL A   1      52.338  24.538  32.272  1.00  0.00    -0.237 OA
ATOM     92  O   UNL A   1      53.168  25.960  30.438  1.00  0.00    -0.744 OA
ENDBRANCH  88  89
ENDBRANCH  56  81
ENDBRANCH  30  31
ENDBRANCH  22  25
ENDBRANCH   1  21
TORSDOF 14
ENDMDL
MODEL 2
REMARK VINA RESULT:     -11.0      1.427      2.507
REMARK SMILES C[C@@H](C(=O)NCCCNC(=O)c1ccc(-c2c3nc(c(-c4c(F)cc(S(=O)(=O)[O-])cc4F)c4ccc([nH]4)c(-c4c(F)cc(S(=O)(=O)[O-])cc4F)c4nc(c(-c5c(F)cc(S(=O)(=O)[O-])cc5F)c5ccc2[nH]5)C=C4)C=C3)cc1)N1C(=O)c2nccnc2C1=O
REMARK SMILES IDX 8 1 7 2 6 3 5 4 3 5 4 6 2 8 1 9 78 10 79 11 87 12 80 13
REMARK SMILES IDX 81 14 86 15 88 16 82 17 85 18 83 19 84 20 9 21 10 22 11 24
REMARK SMILES IDX 12 25 13 26 77 27 14 28 76 29 15 30 16 31 17 32 70 33 18 34
REMARK SMILES IDX 75 35 69 36 71 37 19 38 74 39 68 40 67 41 20 43 54 44 33 45
REMARK SMILES IDX 53 46 34 47 37 48 52 49 72 50 35 51 36 52 51 54 73 55 38 56
REMARK SMILES IDX 21 57 22 58 31 59 23 60 24 61 30 62 32 63 25 64 26 65 27 66
REMARK SMILES IDX 28 67 29 68 55 69 56 70 65 71 57 72 58 73 64 74 66 75 59 76
REMARK SMILES IDX 60 77 61 78 62 79 63 80 39 81 40 82 49 83 41 84 42 85 48 86
REMARK SMILES IDX 50 87 43 88 44 89 45 90 46 91 47 92
REMARK H PARENT 5 7 9 23 71 42 37 53
REMARK Flexibility Score: inf
ROOT
ATOM      1  C   UNL A   1      34.755  32.724  29.109  1.00  0.00     0.118 C 
ENDROOT
BRANCH   1   2
ATOM      2  C   UNL A   1      34.854  32.589  30.626  1.00  0.00     0.042 C 
BRANCH   2   3
ATOM      3  C   UNL A   1      35.143  33.896  31.358  1.00  0.00     0.117 C 
BRANCH   3   4
ATOM      4  N   UNL A   1      36.507  34.354  31.158  1.00  0.00    -0.354 N 
ATOM      5  C   UNL A   1      37.614  34.174  31.939  1.00  0.00     0.243 C 
ATOM      6  O   UNL A   1      38.695  34.569  31.495  1.00  0.00    -0.273 OA
ATOM      7  H   UNL A   1      36.657  34.871  30.334  1.00  0.00     0.163 HD
BRANCH   5   8
ATOM      8  C   UNL A   1      37.490  33.478  33.310  1.00  0.00     0.180 C 
ATOM      9  C   UNL A   1      37.877  34.378  34.478  1.00  0.00     0.042 C 
BRANCH   8  10
ATOM     10  N   UNL A   1      38.271  32.240  33.275  1.00  0.00    -0.259 N 
ATOM     11  C   UNL A   1      37.763  30.983  33.050  1.00  0.00     0.282 C 
ATOM     12  C   UNL A   1      39.609  32.195  33.572  1.00  0.00     0.282 C 
ATOM     13  O   UNL A   1      36.624  30.657  32.782  1.00  0.00    -0.267 OA
ATOM     14  C   UNL A   1      38.893  30.060  33.152  1.00  0.00     0.160 A 
ATOM     15  C   UNL A   1      40.009  30.792  33.463  1.00  0.00     0.160 A 
ATOM     16  O   UNL A   1      40.346  33.123  33.851  1.00  0.00    -0.267 OA
ATOM     17  N   UNL A   1      38.904  28.737  32.893  1.00  0.00    -0.247 NA
ATOM     18  N   UNL A   1      41.255  30.280  33.549  1.00  0.00    -0.247 NA
ATOM     19  C   UNL A   1      40.146  28.194  32.984  1.00  0.00     0.132 A 
ATOM     20  C   UNL A   1      41.287  28.944  33.302  1.00  0.00     0.132 A 
ENDBRANCH   8  10
ENDBRANCH   5   8
ENDBRANCH   3   4
ENDBRANCH   2   3
ENDBRANCH   1   2
BRANCH   1  21
ATOM     21  N   UNL A   1      34.032  31.623  28.490  1.00  0.00    -0.352 N 
ATOM     22  C   UNL A   1      34.481  30.409  28.032  1.00  0.00     0.251 C 
ATOM     23  H   UNL A   1      33.065  31.774  28.380  1.00  0.00     0.163 HD
ATOM     24  O   UNL A   1      33.716  29.697  27.384  1.00  0.00    -0.269 OA
BRANCH  22  25
ATOM     25  C   UNL A   1      35.869  29.958  28.288  1.00  0.00     0.039 A 
ATOM     26  C   UNL A   1      36.817  30.095  27.270  1.00  0.00     0.014 A 
ATOM     27  C   UNL A   1      36.238  29.372  29.503  1.00  0.00     0.014 A 
ATOM     28  C   UNL A   1      38.142  29.710  27.492  1.00  0.00     0.010 A 
ATOM     29  C   UNL A   1      37.575  29.060  29.750  1.00  0.00     0.010 A 
ATOM     30  C   UNL A   1      38.543  29.225  28.748  1.00  0.00    -0.014 A 
BRANCH  30  31
ATOM     31  C   UNL A   1      39.969  28.906  29.030  1.00  0.00     0.031 A 
ATOM     32  C   UNL A   1      40.892  29.953  29.594  1.00  0.00     0.074 A 
ATOM     33  C   UNL A   1      40.450  27.684  28.720  1.00  0.00     0.049 A 
ATOM     34  N   UNL A   1      42.174  29.876  29.845  1.00  0.00    -0.248 NA
ATOM     35  C   UNL A   1      40.302  31.268  29.898  1.00  0.00     0.031 C 
ATOM     36  C   UNL A   1      39.671  26.595  28.126  1.00  0.00     0.029 A 
ATOM     37  N   UNL A   1      41.710  27.153  28.851  1.00  0.00    -0.354 N 
ATOM     38  C   UNL A   1      42.546  31.127  30.322  1.00  0.00     0.074 A 
ATOM     39  C   UNL A   1      41.365  31.962  30.278  1.00  0.00     0.031 C 
ATOM     40  C   UNL A   1      40.463  25.525  27.961  1.00  0.00     0.029 A 
ATOM     41  C   UNL A   1      41.816  25.860  28.393  1.00  0.00     0.049 A 
ATOM     42  H   UNL A   1      42.467  27.651  29.236  1.00  0.00     0.167 HD
ATOM     43  C   UNL A   1      43.757  31.537  30.773  1.00  0.00     0.037 A 
ATOM     44  C   UNL A   1      42.883  25.039  28.314  1.00  0.00     0.037 A 
ATOM     45  C   UNL A   1      44.926  30.695  30.829  1.00  0.00     0.049 A 
ATOM     46  C   UNL A   1      44.218  25.521  28.811  1.00  0.00     0.074 A 
ATOM     47  C   UNL A   1      46.182  31.003  31.324  1.00  0.00     0.029 A 
ATOM     48  N   UNL A   1      44.988  29.387  30.371  1.00  0.00    -0.354 N 
ATOM     49  N   UNL A   1      44.536  26.688  29.319  1.00  0.00    -0.248 NA
ATOM     50  C   UNL A   1      45.339  24.574  28.733  1.00  0.00     0.031 C 
ATOM     51  C   UNL A   1      47.018  29.904  31.110  1.00  0.00     0.029 A 
ATOM     52  C   UNL A   1      46.268  28.884  30.546  1.00  0.00     0.049 A 
ATOM     53  H   UNL A   1      44.234  28.889  29.980  1.00  0.00     0.167 HD
ATOM     54  C   UNL A   1      45.885  26.606  29.648  1.00  0.00     0.074 A 
ATOM     55  C   UNL A   1      46.319  25.270  29.293  1.00  0.00     0.031 C 
ATOM     56  C   UNL A   1      46.690  27.551  30.193  1.00  0.00     0.037 A 
BRANCH  43  57
ATOM     57  C   UNL A   1      43.888  32.961  31.245  1.00  0.00     0.058 A 
ATOM     58  C   UNL A   1      44.135  34.018  30.353  1.00  0.00     0.135 A 
ATOM     59  C   UNL A   1      43.703  33.283  32.600  1.00  0.00     0.135 A 
ATOM     60  F   UNL A   1      44.333  33.769  29.049  1.00  0.00    -0.206 F 
ATOM     61  C   UNL A   1      44.217  35.336  30.790  1.00  0.00     0.059 A 
ATOM     62  C   UNL A   1      43.750  34.598  33.054  1.00  0.00     0.059 A 
ATOM     63  F   UNL A   1      43.464  32.314  33.499  1.00  0.00    -0.206 F 
ATOM     64  C   UNL A   1      44.018  35.617  32.142  1.00  0.00     0.060 A 
BRANCH  64  65
ATOM     65  S   UNL A   1      44.107  37.336  32.686  1.00  0.00     0.124 S 
ATOM     66  O   UNL A   1      45.458  37.400  33.234  1.00  0.00    -0.237 OA
ATOM     67  O   UNL A   1      43.893  38.066  31.440  1.00  0.00    -0.237 OA
ATOM     68  O   UNL A   1      43.028  37.442  33.664  1.00  0.00    -0.744 OA
ENDBRANCH  64  65
ENDBRANCH  43  57
BRANCH  44  69
ATOM     69  C   UNL A   1      42.725  23.673  27.745  1.00  0.00     0.058 A 
ATOM     70  C   UNL A   1      42.549  22.556  28.575  1.00  0.00     0.135 A 
ATOM     71  C   UNL A   1      42.730  23.459  26.357  1.00  0.00     0.135 A 
ATOM     72  F   UNL A   1      42.545  22.705  29.908  1.00  0.00    -0.206 F 
ATOM     73  C   UNL A   1      42.398  21.275  28.052  1.00  0.00     0.059 A 
ATOM     74  C   UNL A   1      42.550  22.193  25.810  1.00  0.00     0.059 A 
ATOM     75  F   UNL A   1      42.878  24.496  25.518  1.00  0.00    -0.206 F 
ATOM     76  C   UNL A   1      42.394  21.104  26.667  1.00  0.00     0.060 A 
BRANCH  76  77
ATOM     77  S   UNL A   1      42.139  19.446  25.999  1.00  0.00     0.124 S 
ATOM     78  O   UNL A   1      42.560  18.610  27.117  1.00  0.00    -0.237 OA
ATOM     79  O   UNL A   1      40.708  19.451  25.708  1.00  0.00    -0.237 OA
ATOM     80  O   UNL A   1      43.009  19.418  24.827  1.00  0.00    -0.744 OA
ENDBRANCH  76  77
ENDBRANCH  44  69
BRANCH  56  81
ATOM     81  C   UNL A   1      48.119  27.169  30.482  1.00  0.00     0.058 A 
ATOM     82  C   UNL A   1      49.166  27.499  29.608  1.00  0.00     0.135 A 
ATOM     83  C   UNL A   1      48.447  26.511  31.678  1.00  0.00     0.135 A 
ATOM     84  F   UNL A   1      48.909  28.122  28.448  1.00  0.00    -0.206 F 
ATOM     85  C   UNL A   1      50.486  27.165  29.897  1.00  0.00     0.059 A 
ATOM     86  C   UNL A   1      49.763  26.197  32.004  1.00  0.00     0.059 A 
ATOM     87  F   UNL A   1      47.486  26.181  32.556  1.00  0.00    -0.206 F 
ATOM     88  C   UNL A   1      50.775  26.516  31.100  1.00  0.00     0.060 A 
BRANCH  88  89
ATOM     89  S   UNL A   1      52.495  26.119  31.475  1.00  0.00     0.124 S 
ATOM     90  O   UNL A   1      53.087  26.081  30.143  1.00  0.00    -0.237 OA
ATOM     91  O   UNL A   1      52.898  27.241  32.318  1.00  0.00    -0.237 OA
ATOM     92  O   UNL A   1      52.406  24.831  32.158  1.00  0.00    -0.744 OA
ENDBRANCH  88  89
ENDBRANCH  56  81
ENDBRANCH  30  31
ENDBRANCH  22  25
ENDBRANCH   1  21
TORSDOF 14
ENDMDL
MODEL 3
REMARK VINA RESULT:     -11.0      3.967      6.367
REMARK SMILES C[C@@H](C(=O)NCCCNC(=O)c1ccc(-c2c3nc(c(-c4c(F)cc(S(=O)(=O)[O-])cc4F)c4ccc([nH]4)c(-c4c(F)cc(S(=O)(=O)[O-])cc4F)c4nc(c(-c5c(F)cc(S(=O)(=O)[O-])cc5F)c5ccc2[nH]5)C=C4)C=C3)cc1)N1C(=O)c2nccnc2C1=O
REMARK SMILES IDX 8 1 7 2 6 3 5 4 3 5 4 6 2 8 1 9 78 10 79 11 87 12 80 13
REMARK SMILES IDX 81 14 86 15 88 16 82 17 85 18 83 19 84 20 9 21 10 22 11 24
REMARK SMILES IDX 12 25 13 26 77 27 14 28 76 29 15 30 16 31 17 32 70 33 18 34
REMARK SMILES IDX 75 35 69 36 71 37 19 38 74 39 68 40 67 41 20 43 54 44 33 45
REMARK SMILES IDX 53 46 34 47 37 48 52 49 72 50 35 51 36 52 51 54 73 55 38 56
REMARK SMILES IDX 21 57 22 58 31 59 23 60 24 61 30 62 32 63 25 64 26 65 27 66
REMARK SMILES IDX 28 67 29 68 55 69 56 70 65 71 57 72 58 73 64 74 66 75 59 76
REMARK SMILES IDX 60 77 61 78 62 79 63 80 39 81 40 82 49 83 41 84 42 85 48 86
REMARK SMILES IDX 50 87 43 88 44 89 45 90 46 91 47 92
REMARK H PARENT 5 7 9 23 71 42 37 53
REMARK Flexibility Score: inf
ROOT
ATOM      1  C   UNL A   1      35.387  30.787  27.917  1.00  0.00     0.118 C 
ENDROOT
BRANCH   1   2
ATOM      2  C   UNL A   1      34.469  29.637  27.509  1.00  0.00     0.042 C 
BRANCH   2   3
ATOM      3  C   UNL A   1      33.374  30.024  26.520  1.00  0.00     0.117 C 
BRANCH   3   4
ATOM      4  N   UNL A   1      33.627  29.513  25.184  1.00  0.00    -0.354 N 
ATOM      5  C   UNL A   1      32.758  28.990  24.268  1.00  0.00     0.243 C 
ATOM      6  O   UNL A   1      33.202  28.723  23.149  1.00  0.00    -0.273 OA
ATOM      7  H   UNL A   1      34.567  29.549  24.894  1.00  0.00     0.163 HD
BRANCH   5   8
ATOM      8  C   UNL A   1      31.277  28.774  24.641  1.00  0.00     0.180 C 
ATOM      9  C   UNL A   1      30.847  27.313  24.574  1.00  0.00     0.042 C 
BRANCH   8  10
ATOM     10  N   UNL A   1      30.453  29.639  23.794  1.00  0.00    -0.259 N 
ATOM     11  C   UNL A   1      30.008  30.895  24.131  1.00  0.00     0.282 C 
ATOM     12  C   UNL A   1      29.944  29.232  22.587  1.00  0.00     0.282 C 
ATOM     13  O   UNL A   1      30.245  31.546  25.127  1.00  0.00    -0.267 OA
ATOM     14  C   UNL A   1      29.190  31.354  23.007  1.00  0.00     0.160 A 
ATOM     15  C   UNL A   1      29.156  30.352  22.074  1.00  0.00     0.160 A 
ATOM     16  O   UNL A   1      30.116  28.168  22.022  1.00  0.00    -0.267 OA
ATOM     17  N   UNL A   1      28.640  32.571  22.833  1.00  0.00    -0.247 NA
ATOM     18  N   UNL A   1      28.565  30.460  20.865  1.00  0.00    -0.247 NA
ATOM     19  C   UNL A   1      28.028  32.703  21.626  1.00  0.00     0.132 A 
ATOM     20  C   UNL A   1      27.993  31.677  20.671  1.00  0.00     0.132 A 
ENDBRANCH   8  10
ENDBRANCH   5   8
ENDBRANCH   3   4
ENDBRANCH   2   3
ENDBRANCH   1   2
BRANCH   1  21
ATOM     21  N   UNL A   1      35.385  31.028  29.352  1.00  0.00    -0.352 N 
ATOM     22  C   UNL A   1      36.319  30.714  30.309  1.00  0.00     0.251 C 
ATOM     23  H   UNL A   1      34.584  31.489  29.692  1.00  0.00     0.163 HD
ATOM     24  O   UNL A   1      36.029  30.861  31.495  1.00  0.00    -0.269 OA
BRANCH  22  25
ATOM     25  C   UNL A   1      37.652  30.184  29.936  1.00  0.00     0.039 A 
ATOM     26  C   UNL A   1      38.010  30.166  28.585  1.00  0.00     0.014 A 
ATOM     27  C   UNL A   1      38.534  29.677  30.893  1.00  0.00     0.014 A 
ATOM     28  C   UNL A   1      39.273  29.703  28.203  1.00  0.00     0.010 A 
ATOM     29  C   UNL A   1      39.821  29.288  30.520  1.00  0.00     0.010 A 
ATOM     30  C   UNL A   1      40.206  29.296  29.171  1.00  0.00    -0.014 A 
BRANCH  30  31
ATOM     31  C   UNL A   1      41.588  28.897  28.788  1.00  0.00     0.031 A 
ATOM     32  C   UNL A   1      42.693  29.917  28.734  1.00  0.00     0.074 A 
ATOM     33  C   UNL A   1      41.835  27.620  28.430  1.00  0.00     0.049 A 
ATOM     34  N   UNL A   1      43.940  29.766  28.364  1.00  0.00    -0.248 NA
ATOM     35  C   UNL A   1      42.350  31.294  29.127  1.00  0.00     0.031 C 
ATOM     36  C   UNL A   1      40.840  26.545  28.395  1.00  0.00     0.029 A 
ATOM     37  N   UNL A   1      42.994  27.009  28.016  1.00  0.00    -0.354 N 
ATOM     38  C   UNL A   1      44.524  31.023  28.467  1.00  0.00     0.074 A 
ATOM     39  C   UNL A   1      43.484  31.937  28.887  1.00  0.00     0.031 C 
ATOM     40  C   UNL A   1      41.433  25.408  28.001  1.00  0.00     0.029 A 
ATOM     41  C   UNL A   1      42.838  25.677  27.710  1.00  0.00     0.049 A 
ATOM     42  H   UNL A   1      43.854  27.481  27.944  1.00  0.00     0.167 HD
ATOM     43  C   UNL A   1      45.814  31.379  28.251  1.00  0.00     0.037 A 
ATOM     44  C   UNL A   1      43.720  24.774  27.235  1.00  0.00     0.037 A 
ATOM     45  C   UNL A   1      46.849  30.459  27.849  1.00  0.00     0.049 A 
ATOM     46  C   UNL A   1      45.143  25.196  26.992  1.00  0.00     0.074 A 
ATOM     47  C   UNL A   1      48.197  30.714  27.661  1.00  0.00     0.029 A 
ATOM     48  N   UNL A   1      46.655  29.115  27.565  1.00  0.00    -0.354 N 
ATOM     49  N   UNL A   1      45.693  26.376  27.158  1.00  0.00    -0.248 NA
ATOM     50  C   UNL A   1      46.070  24.165  26.507  1.00  0.00     0.031 C 
ATOM     51  C   UNL A   1      48.805  29.541  27.207  1.00  0.00     0.029 A 
ATOM     52  C   UNL A   1      47.852  28.535  27.178  1.00  0.00     0.049 A 
ATOM     53  H   UNL A   1      45.793  28.643  27.631  1.00  0.00     0.167 HD
ATOM     54  C   UNL A   1      47.034  26.222  26.825  1.00  0.00     0.074 A 
ATOM     55  C   UNL A   1      47.215  24.832  26.462  1.00  0.00     0.031 C 
ATOM     56  C   UNL A   1      48.024  27.148  26.821  1.00  0.00     0.037 A 
BRANCH  43  57
ATOM     57  C   UNL A   1      46.188  32.825  28.443  1.00  0.00     0.058 A 
ATOM     58  C   UNL A   1      46.621  33.319  29.684  1.00  0.00     0.135 A 
ATOM     59  C   UNL A   1      46.169  33.716  27.357  1.00  0.00     0.135 A 
ATOM     60  F   UNL A   1      46.646  32.517  30.760  1.00  0.00    -0.206 F 
ATOM     61  C   UNL A   1      47.001  34.647  29.847  1.00  0.00     0.059 A 
ATOM     62  C   UNL A   1      46.576  35.042  27.491  1.00  0.00     0.059 A 
ATOM     63  F   UNL A   1      45.764  33.300  26.147  1.00  0.00    -0.206 F 
ATOM     64  C   UNL A   1      46.979  35.501  28.743  1.00  0.00     0.060 A 
BRANCH  64  65
ATOM     65  S   UNL A   1      47.497  37.215  28.969  1.00  0.00     0.124 S 
ATOM     66  O   UNL A   1      46.298  37.807  29.554  1.00  0.00    -0.237 OA
ATOM     67  O   UNL A   1      48.639  37.077  29.868  1.00  0.00    -0.237 OA
ATOM     68  O   UNL A   1      47.819  37.657  27.616  1.00  0.00    -0.744 OA
ENDBRANCH  64  65
ENDBRANCH  43  57
BRANCH  44  69
ATOM     69  C   UNL A   1      43.278  23.379  26.964  1.00  0.00     0.058 A 
ATOM     70  C   UNL A   1      43.098  22.916  25.652  1.00  0.00     0.135 A 
ATOM     71  C   UNL A   1      43.043  22.474  28.013  1.00  0.00     0.135 A 
ATOM     72  F   UNL A   1      43.301  23.742  24.616  1.00  0.00    -0.206 F 
ATOM     73  C   UNL A   1      42.688  21.611  25.389  1.00  0.00     0.059 A 
ATOM     74  C   UNL A   1      42.663  21.158  27.774  1.00  0.00     0.059 A 
ATOM     75  F   UNL A   1      43.217  22.862  29.286  1.00  0.00    -0.206 F 
ATOM     76  C   UNL A   1      42.479  20.739  26.457  1.00  0.00     0.060 A 
BRANCH  76  77
ATOM     77  S   UNL A   1      42.003  19.033  26.101  1.00  0.00     0.124 S 
ATOM     78  O   UNL A   1      42.900  18.701  25.001  1.00  0.00    -0.237 OA
ATOM     79  O   UNL A   1      42.276  18.368  27.372  1.00  0.00    -0.237 OA
ATOM     80  O   UNL A   1      40.590  19.144  25.751  1.00  0.00    -0.744 OA
ENDBRANCH  76  77
ENDBRANCH  44  69
BRANCH  56  81
ATOM     81  C   UNL A   1      49.410  26.687  26.450  1.00  0.00     0.058 A 
ATOM     82  C   UNL A   1      50.266  26.083  27.385  1.00  0.00     0.135 A 
ATOM     83  C   UNL A   1      49.865  26.803  25.127  1.00  0.00     0.135 A 
ATOM     84  F   UNL A   1      49.886  25.952  28.665  1.00  0.00    -0.206 F 
ATOM     85  C   UNL A   1      51.534  25.637  27.026  1.00  0.00     0.059 A 
ATOM     86  C   UNL A   1      51.116  26.334  24.738  1.00  0.00     0.059 A 
ATOM     87  F   UNL A   1      49.083  27.362  24.189  1.00  0.00    -0.206 F 
ATOM     88  C   UNL A   1      51.950  25.764  25.699  1.00  0.00     0.060 A 
BRANCH  88  89
ATOM     89  S   UNL A   1      53.585  25.151  25.243  1.00  0.00     0.124 S 
ATOM     90  O   UNL A   1      53.714  25.645  23.876  1.00  0.00    -0.237 OA
ATOM     91  O   UNL A   1      54.445  25.790  26.233  1.00  0.00    -0.237 OA
ATOM     92  O   UNL A   1      53.455  23.703  25.376  1.00  0.00    -0.744 OA
ENDBRANCH  88  89
ENDBRANCH  56  81
ENDBRANCH  30  31
ENDBRANCH  22  25
ENDBRANCH   1  21
TORSDOF 14
ENDMDL
