MODEL 1
REMARK VINA RESULT:     -12.5      0.000      0.000
REMARK SMILES NC(=O)CC[C@@H](C(=O)NCCCNC(=O)c1ccc(-c2c3nc(c(-c4c(F)cc(S(=O)(=O)[O-])cc4F)c4ccc([nH]4)c(-c4c(F)cc(S(=O)(=O)[O-])cc4F)c4nc(c(-c5c(F)cc(S(=O)(=O)[O-])cc5F)c5ccc2[nH]5)C=C4)C=C3)cc1)N1C(=O)/C(=C/c2ccc(C=O)cc2)SC1=S
REMARK SMILES IDX 11 1 10 2 9 3 7 4 8 5 6 7 5 8 4 9 2 10 1 11 3 14 82 15 83 16
REMARK SMILES IDX 96 17 84 18 85 19 95 20 97 21 86 22 87 23 88 24 94 25 89 26
REMARK SMILES IDX 93 27 90 28 91 29 92 30 12 31 13 32 14 33 15 35 16 36 17 37
REMARK SMILES IDX 81 38 18 39 80 40 19 41 20 42 21 43 74 44 22 45 79 46 73 47
REMARK SMILES IDX 75 48 23 49 78 50 72 51 71 52 24 54 58 55 37 56 57 57 38 58
REMARK SMILES IDX 41 59 56 60 76 61 39 62 40 63 55 65 77 66 42 67 25 68 26 69
REMARK SMILES IDX 35 70 27 71 28 72 34 73 36 74 29 75 30 76 31 77 32 78 33 79
REMARK SMILES IDX 59 80 60 81 69 82 61 83 62 84 68 85 70 86 63 87 64 88 65 89
REMARK SMILES IDX 66 90 67 91 43 92 44 93 53 94 45 95 46 96 52 97 54 98 47 99
REMARK SMILES IDX 48 100 49 101 50 102 51 103
REMARK H PARENT 9 6 1 12 1 13 13 34 75 53 41 64
REMARK Flexibility Score: inf
ROOT
ATOM      1  C   UNL A   1      33.746  29.148  27.311  1.00  0.00     0.042 C 
ENDROOT
BRANCH   1   2
ATOM      2  C   UNL A   1      33.150  29.677  26.014  1.00  0.00     0.117 C 
BRANCH   2   3
ATOM      3  N   UNL A   1      33.960  29.312  24.875  1.00  0.00    -0.354 N 
ATOM      4  C   UNL A   1      33.657  28.633  23.739  1.00  0.00     0.243 C 
ATOM      5  O   UNL A   1      34.500  28.733  22.838  1.00  0.00    -0.273 OA
ATOM      6  H   UNL A   1      34.898  29.606  24.933  1.00  0.00     0.163 HD
BRANCH   4   7
ATOM      7  C   UNL A   1      32.297  27.912  23.508  1.00  0.00     0.181 C 
BRANCH   7   8
ATOM      8  C   UNL A   1      30.953  28.417  24.071  1.00  0.00     0.045 C 
BRANCH   8   9
ATOM      9  C   UNL A   1      30.267  29.695  23.604  1.00  0.00     0.102 C 
BRANCH   9  10
ATOM     10  C   UNL A   1      29.469  29.792  22.317  1.00  0.00     0.217 C 
ATOM     11  N   UNL A   1      29.938  30.500  21.265  1.00  0.00    -0.370 N 
ATOM     12  H   UNL A   1      29.412  30.555  20.434  1.00  0.00     0.159 HD
ATOM     13  H   UNL A   1      30.807  30.961  21.328  1.00  0.00     0.159 HD
ATOM     14  O   UNL A   1      28.333  29.327  22.240  1.00  0.00    -0.275 OA
ENDBRANCH   9  10
ENDBRANCH   8   9
ENDBRANCH   7   8
BRANCH   7  15
ATOM     15  N   UNL A   1      32.484  26.500  23.971  1.00  0.00    -0.280 N 
ATOM     16  C   UNL A   1      33.058  25.596  23.096  1.00  0.00     0.266 C 
ATOM     17  C   UNL A   1      32.061  25.984  25.190  1.00  0.00     0.149 C 
ATOM     18  O   UNL A   1      33.450  25.847  21.958  1.00  0.00    -0.268 OA
ATOM     19  C   UNL A   1      33.058  24.229  23.677  1.00  0.00     0.081 C 
ATOM     20  S   UNL A   1      32.492  24.283  25.295  1.00  0.00    -0.054 SA
ATOM     21  S   UNL A   1      31.225  26.710  26.441  1.00  0.00    -0.052 S 
ATOM     22  C   UNL A   1      33.405  23.142  22.974  1.00  0.00     0.029 C 
BRANCH  22  23
ATOM     23  C   UNL A   1      33.350  21.766  23.483  1.00  0.00    -0.024 A 
ATOM     24  C   UNL A   1      34.243  21.360  24.480  1.00  0.00     0.009 A 
ATOM     25  C   UNL A   1      32.403  20.853  22.992  1.00  0.00     0.009 A 
ATOM     26  C   UNL A   1      34.167  20.067  25.008  1.00  0.00     0.012 A 
ATOM     27  C   UNL A   1      32.318  19.565  23.523  1.00  0.00     0.012 A 
ATOM     28  C   UNL A   1      33.197  19.178  24.535  1.00  0.00     0.014 A 
BRANCH  28  29
ATOM     29  C   UNL A   1      33.086  17.822  25.109  1.00  0.00     0.260 C 
ATOM     30  O   UNL A   1      32.203  17.517  25.901  1.00  0.00    -0.298 OA
ENDBRANCH  28  29
ENDBRANCH  22  23
ENDBRANCH   7  15
ENDBRANCH   4   7
ENDBRANCH   2   3
ENDBRANCH   1   2
BRANCH   1  31
ATOM     31  C   UNL A   1      35.135  29.687  27.607  1.00  0.00     0.118 C 
BRANCH  31  32
ATOM     32  N   UNL A   1      35.198  30.364  28.892  1.00  0.00    -0.352 N 
ATOM     33  C   UNL A   1      36.225  30.434  29.803  1.00  0.00     0.251 C 
ATOM     34  H   UNL A   1      34.380  30.848  29.148  1.00  0.00     0.163 HD
ATOM     35  O   UNL A   1      35.998  30.882  30.924  1.00  0.00    -0.269 OA
BRANCH  33  36
ATOM     36  C   UNL A   1      37.582  29.960  29.449  1.00  0.00     0.039 A 
ATOM     37  C   UNL A   1      37.980  29.981  28.109  1.00  0.00     0.014 A 
ATOM     38  C   UNL A   1      38.458  29.477  30.424  1.00  0.00     0.014 A 
ATOM     39  C   UNL A   1      39.270  29.572  27.760  1.00  0.00     0.010 A 
ATOM     40  C   UNL A   1      39.773  29.176  30.092  1.00  0.00     0.010 A 
ATOM     41  C   UNL A   1      40.190  29.199  28.753  1.00  0.00    -0.014 A 
BRANCH  41  42
ATOM     42  C   UNL A   1      41.579  28.794  28.416  1.00  0.00     0.031 A 
ATOM     43  C   UNL A   1      42.676  29.828  28.384  1.00  0.00     0.074 A 
ATOM     44  C   UNL A   1      41.842  27.516  28.078  1.00  0.00     0.049 A 
ATOM     45  N   UNL A   1      43.930  29.693  28.037  1.00  0.00    -0.248 NA
ATOM     46  C   UNL A   1      42.304  31.203  28.757  1.00  0.00     0.031 C 
ATOM     47  C   UNL A   1      40.856  26.435  28.021  1.00  0.00     0.029 A 
ATOM     48  N   UNL A   1      43.016  26.911  27.707  1.00  0.00    -0.354 N 
ATOM     49  C   UNL A   1      44.487  30.964  28.133  1.00  0.00     0.074 A 
ATOM     50  C   UNL A   1      43.422  31.867  28.504  1.00  0.00     0.031 C 
ATOM     51  C   UNL A   1      41.471  25.294  27.671  1.00  0.00     0.029 A 
ATOM     52  C   UNL A   1      42.885  25.569  27.434  1.00  0.00     0.049 A 
ATOM     53  H   UNL A   1      43.873  27.392  27.642  1.00  0.00     0.167 HD
ATOM     54  C   UNL A   1      45.777  31.340  27.957  1.00  0.00     0.037 A 
ATOM     55  C   UNL A   1      43.799  24.664  27.033  1.00  0.00     0.037 A 
ATOM     56  C   UNL A   1      46.837  30.428  27.618  1.00  0.00     0.049 A 
ATOM     57  C   UNL A   1      45.225  25.105  26.842  1.00  0.00     0.074 A 
ATOM     58  C   UNL A   1      48.188  30.693  27.475  1.00  0.00     0.029 A 
ATOM     59  N   UNL A   1      46.667  29.074  27.367  1.00  0.00    -0.354 N 
ATOM     60  N   UNL A   1      45.748  26.298  26.999  1.00  0.00    -0.248 NA
ATOM     61  C   UNL A   1      46.187  24.076  26.426  1.00  0.00     0.031 C 
ATOM     62  C   UNL A   1      48.826  29.510  27.090  1.00  0.00     0.029 A 
ATOM     63  C   UNL A   1      47.883  28.494  27.047  1.00  0.00     0.049 A 
ATOM     64  H   UNL A   1      45.807  28.595  27.410  1.00  0.00     0.167 HD
ATOM     65  C   UNL A   1      47.104  26.158  26.726  1.00  0.00     0.074 A 
ATOM     66  C   UNL A   1      47.323  24.762  26.408  1.00  0.00     0.031 C 
ATOM     67  C   UNL A   1      48.081  27.099  26.738  1.00  0.00     0.037 A 
BRANCH  54  68
ATOM     68  C   UNL A   1      46.108  32.798  28.136  1.00  0.00     0.058 A 
ATOM     69  C   UNL A   1      46.538  33.313  29.371  1.00  0.00     0.135 A 
ATOM     70  C   UNL A   1      46.011  33.692  27.057  1.00  0.00     0.135 A 
ATOM     71  F   UNL A   1      46.635  32.510  30.442  1.00  0.00    -0.206 F 
ATOM     72  C   UNL A   1      46.820  34.664  29.539  1.00  0.00     0.059 A 
ATOM     73  C   UNL A   1      46.319  35.042  27.194  1.00  0.00     0.059 A 
ATOM     74  F   UNL A   1      45.606  33.257  25.853  1.00  0.00    -0.206 F 
ATOM     75  C   UNL A   1      46.705  35.523  28.444  1.00  0.00     0.060 A 
BRANCH  75  76
ATOM     76  S   UNL A   1      47.067  37.274  28.683  1.00  0.00     0.124 S 
ATOM     77  O   UNL A   1      47.090  37.371  30.139  1.00  0.00    -0.237 OA
ATOM     78  O   UNL A   1      48.357  37.420  28.018  1.00  0.00    -0.237 OA
ATOM     79  O   UNL A   1      45.949  37.946  28.028  1.00  0.00    -0.744 OA
ENDBRANCH  75  76
ENDBRANCH  54  68
BRANCH  55  80
ATOM     80  C   UNL A   1      43.396  23.248  26.816  1.00  0.00     0.058 A 
ATOM     81  C   UNL A   1      43.324  22.709  25.523  1.00  0.00     0.135 A 
ATOM     82  C   UNL A   1      43.097  22.399  27.894  1.00  0.00     0.135 A 
ATOM     83  F   UNL A   1      43.594  23.481  24.459  1.00  0.00    -0.206 F 
ATOM     84  C   UNL A   1      42.957  21.386  25.303  1.00  0.00     0.059 A 
ATOM     85  C   UNL A   1      42.755  21.065  27.702  1.00  0.00     0.059 A 
ATOM     86  F   UNL A   1      43.168  22.861  29.153  1.00  0.00    -0.206 F 
ATOM     87  C   UNL A   1      42.679  20.570  26.401  1.00  0.00     0.060 A 
BRANCH  87  88
ATOM     88  S   UNL A   1      42.255  18.839  26.105  1.00  0.00     0.124 S 
ATOM     89  O   UNL A   1      40.845  18.938  25.746  1.00  0.00    -0.237 OA
ATOM     90  O   UNL A   1      43.166  18.482  25.022  1.00  0.00    -0.237 OA
ATOM     91  O   UNL A   1      42.535  18.200  27.388  1.00  0.00    -0.744 OA
ENDBRANCH  87  88
ENDBRANCH  55  80
BRANCH  67  92
ATOM     92  C   UNL A   1      49.482  26.646  26.429  1.00  0.00     0.058 A 
ATOM     93  C   UNL A   1      50.287  26.022  27.393  1.00  0.00     0.135 A 
ATOM     94  C   UNL A   1      50.002  26.790  25.132  1.00  0.00     0.135 A 
ATOM     95  F   UNL A   1      49.840  25.865  28.649  1.00  0.00    -0.206 F 
ATOM     96  C   UNL A   1      51.570  25.578  27.091  1.00  0.00     0.059 A 
ATOM     97  C   UNL A   1      51.271  26.326  24.799  1.00  0.00     0.059 A 
ATOM     98  F   UNL A   1      49.269  27.369  24.168  1.00  0.00    -0.206 F 
ATOM     99  C   UNL A   1      52.052  25.732  25.789  1.00  0.00     0.060 A 
BRANCH  99 100
ATOM    100  S   UNL A   1      53.705  25.120  25.401  1.00  0.00     0.124 S 
ATOM    101  O   UNL A   1      54.503  25.738  26.455  1.00  0.00    -0.237 OA
ATOM    102  O   UNL A   1      53.533  23.674  25.501  1.00  0.00    -0.237 OA
ATOM    103  O   UNL A   1      53.947  25.624  24.053  1.00  0.00    -0.744 OA
ENDBRANCH  99 100
ENDBRANCH  67  92
ENDBRANCH  41  42
ENDBRANCH  33  36
ENDBRANCH  31  32
ENDBRANCH   1  31
TORSDOF 19
ENDMDL
MODEL 2
REMARK VINA RESULT:     -12.2      0.640      8.014
REMARK SMILES NC(=O)CC[C@@H](C(=O)NCCCNC(=O)c1ccc(-c2c3nc(c(-c4c(F)cc(S(=O)(=O)[O-])cc4F)c4ccc([nH]4)c(-c4c(F)cc(S(=O)(=O)[O-])cc4F)c4nc(c(-c5c(F)cc(S(=O)(=O)[O-])cc5F)c5ccc2[nH]5)C=C4)C=C3)cc1)N1C(=O)/C(=C/c2ccc(C=O)cc2)SC1=S
REMARK SMILES IDX 11 1 10 2 9 3 7 4 8 5 6 7 5 8 4 9 2 10 1 11 3 14 82 15 83 16
REMARK SMILES IDX 96 17 84 18 85 19 95 20 97 21 86 22 87 23 88 24 94 25 89 26
REMARK SMILES IDX 93 27 90 28 91 29 92 30 12 31 13 32 14 33 15 35 16 36 17 37
REMARK SMILES IDX 81 38 18 39 80 40 19 41 20 42 21 43 74 44 22 45 79 46 73 47
REMARK SMILES IDX 75 48 23 49 78 50 72 51 71 52 24 54 58 55 37 56 57 57 38 58
REMARK SMILES IDX 41 59 56 60 76 61 39 62 40 63 55 65 77 66 42 67 25 68 26 69
REMARK SMILES IDX 35 70 27 71 28 72 34 73 36 74 29 75 30 76 31 77 32 78 33 79
REMARK SMILES IDX 59 80 60 81 69 82 61 83 62 84 68 85 70 86 63 87 64 88 65 89
REMARK SMILES IDX 66 90 67 91 43 92 44 93 53 94 45 95 46 96 52 97 54 98 47 99
REMARK SMILES IDX 48 100 49 101 50 102 51 103
REMARK H PARENT 9 6 1 12 1 13 13 34 75 53 41 64
REMARK Flexibility Score: inf
ROOT
ATOM      1  C   UNL A   1      34.001  28.717  27.024  1.00  0.00     0.042 C 
ENDROOT
BRANCH   1   2
ATOM      2  C   UNL A   1      33.302  29.314  25.811  1.00  0.00     0.117 C 
BRANCH   2   3
ATOM      3  N   UNL A   1      34.088  29.138  24.611  1.00  0.00    -0.354 N 
ATOM      4  C   UNL A   1      33.768  28.624  23.397  1.00  0.00     0.243 C 
ATOM      5  O   UNL A   1      34.582  28.874  22.499  1.00  0.00    -0.273 OA
ATOM      6  H   UNL A   1      35.021  29.443  24.689  1.00  0.00     0.163 HD
BRANCH   4   7
ATOM      7  C   UNL A   1      32.416  27.912  23.097  1.00  0.00     0.181 C 
BRANCH   7   8
ATOM      8  C   UNL A   1      31.040  28.482  23.496  1.00  0.00     0.045 C 
BRANCH   8   9
ATOM      9  C   UNL A   1      30.028  29.029  22.495  1.00  0.00     0.102 C 
BRANCH   9  10
ATOM     10  C   UNL A   1      28.896  29.962  22.879  1.00  0.00     0.217 C 
ATOM     11  N   UNL A   1      27.707  29.906  22.238  1.00  0.00    -0.370 N 
ATOM     12  H   UNL A   1      26.978  30.516  22.496  1.00  0.00     0.159 HD
ATOM     13  H   UNL A   1      27.568  29.253  21.512  1.00  0.00     0.159 HD
ATOM     14  O   UNL A   1      29.068  30.862  23.699  1.00  0.00    -0.275 OA
ENDBRANCH   9  10
ENDBRANCH   8   9
ENDBRANCH   7   8
BRANCH   7  15
ATOM     15  N   UNL A   1      32.527  26.535  23.678  1.00  0.00    -0.280 N 
ATOM     16  C   UNL A   1      33.234  25.581  22.970  1.00  0.00     0.266 C 
ATOM     17  C   UNL A   1      31.913  26.097  24.845  1.00  0.00     0.149 C 
ATOM     18  O   UNL A   1      33.804  25.760  21.895  1.00  0.00    -0.268 OA
ATOM     19  C   UNL A   1      33.140  24.256  23.635  1.00  0.00     0.081 C 
ATOM     20  S   UNL A   1      32.321  24.412  25.133  1.00  0.00    -0.054 SA
ATOM     21  S   UNL A   1      30.886  26.896  25.894  1.00  0.00    -0.052 S 
ATOM     22  C   UNL A   1      33.597  23.129  23.072  1.00  0.00     0.029 C 
BRANCH  22  23
ATOM     23  C   UNL A   1      33.460  21.789  23.657  1.00  0.00    -0.024 A 
ATOM     24  C   UNL A   1      32.380  20.980  23.289  1.00  0.00     0.009 A 
ATOM     25  C   UNL A   1      34.406  21.302  24.573  1.00  0.00     0.009 A 
ATOM     26  C   UNL A   1      32.266  19.684  23.801  1.00  0.00     0.012 A 
ATOM     27  C   UNL A   1      34.301  20.005  25.079  1.00  0.00     0.012 A 
ATOM     28  C   UNL A   1      33.234  19.197  24.686  1.00  0.00     0.014 A 
BRANCH  28  29
ATOM     29  C   UNL A   1      33.141  17.818  25.205  1.00  0.00     0.260 C 
ATOM     30  O   UNL A   1      32.085  17.199  25.233  1.00  0.00    -0.298 OA
ENDBRANCH  28  29
ENDBRANCH  22  23
ENDBRANCH   7  15
ENDBRANCH   4   7
ENDBRANCH   2   3
ENDBRANCH   1   2
BRANCH   1  31
ATOM     31  C   UNL A   1      35.324  29.385  27.355  1.00  0.00     0.118 C 
BRANCH  31  32
ATOM     32  N   UNL A   1      35.346  29.917  28.709  1.00  0.00    -0.352 N 
ATOM     33  C   UNL A   1      36.364  29.938  29.632  1.00  0.00     0.251 C 
ATOM     34  H   UNL A   1      34.502  30.325  29.009  1.00  0.00     0.163 HD
ATOM     35  O   UNL A   1      36.110  30.245  30.793  1.00  0.00    -0.269 OA
BRANCH  33  36
ATOM     36  C   UNL A   1      37.747  29.579  29.240  1.00  0.00     0.039 A 
ATOM     37  C   UNL A   1      38.123  29.695  27.898  1.00  0.00     0.014 A 
ATOM     38  C   UNL A   1      38.667  29.109  30.180  1.00  0.00     0.014 A 
ATOM     39  C   UNL A   1      39.433  29.395  27.517  1.00  0.00     0.010 A 
ATOM     40  C   UNL A   1      39.995  28.918  29.820  1.00  0.00     0.010 A 
ATOM     41  C   UNL A   1      40.391  29.038  28.480  1.00  0.00    -0.014 A 
BRANCH  41  42
ATOM     42  C   UNL A   1      41.800  28.748  28.109  1.00  0.00     0.031 A 
ATOM     43  C   UNL A   1      42.206  27.345  27.737  1.00  0.00     0.074 A 
ATOM     44  C   UNL A   1      42.724  29.728  28.168  1.00  0.00     0.049 A 
ATOM     45  N   UNL A   1      43.394  26.872  27.463  1.00  0.00    -0.248 NA
ATOM     46  C   UNL A   1      41.138  26.331  27.706  1.00  0.00     0.031 C 
ATOM     47  C   UNL A   1      42.465  31.114  28.563  1.00  0.00     0.029 A 
ATOM     48  N   UNL A   1      44.071  29.706  27.906  1.00  0.00    -0.354 N 
ATOM     49  C   UNL A   1      43.218  25.510  27.245  1.00  0.00     0.074 A 
ATOM     50  C   UNL A   1      41.823  25.219  27.486  1.00  0.00     0.031 C 
ATOM     51  C   UNL A   1      43.606  31.816  28.486  1.00  0.00     0.029 A 
ATOM     52  C   UNL A   1      44.688  30.923  28.079  1.00  0.00     0.049 A 
ATOM     53  H   UNL A   1      44.550  28.896  27.619  1.00  0.00     0.167 HD
ATOM     54  C   UNL A   1      44.130  24.589  26.850  1.00  0.00     0.037 A 
ATOM     55  C   UNL A   1      45.979  31.278  27.933  1.00  0.00     0.037 A 
ATOM     56  C   UNL A   1      45.511  24.894  26.582  1.00  0.00     0.049 A 
ATOM     57  C   UNL A   1      46.976  30.238  27.496  1.00  0.00     0.074 A 
ATOM     58  C   UNL A   1      46.505  24.050  26.121  1.00  0.00     0.029 A 
ATOM     59  N   UNL A   1      46.094  26.142  26.754  1.00  0.00    -0.354 N 
ATOM     60  N   UNL A   1      46.780  28.968  27.234  1.00  0.00    -0.248 NA
ATOM     61  C   UNL A   1      48.366  30.681  27.330  1.00  0.00     0.031 C 
ATOM     62  C   UNL A   1      47.700  24.776  26.059  1.00  0.00     0.029 A 
ATOM     63  C   UNL A   1      47.439  26.086  26.429  1.00  0.00     0.049 A 
ATOM     64  H   UNL A   1      45.620  26.950  27.060  1.00  0.00     0.167 HD
ATOM     65  C   UNL A   1      48.018  28.465  26.846  1.00  0.00     0.074 A 
ATOM     66  C   UNL A   1      48.951  29.572  26.895  1.00  0.00     0.031 C 
ATOM     67  C   UNL A   1      48.351  27.202  26.480  1.00  0.00     0.037 A 
BRANCH  54  68
ATOM     68  C   UNL A   1      43.659  23.169  26.680  1.00  0.00     0.058 A 
ATOM     69  C   UNL A   1      43.349  22.355  27.784  1.00  0.00     0.135 A 
ATOM     70  C   UNL A   1      43.498  22.616  25.400  1.00  0.00     0.135 A 
ATOM     71  F   UNL A   1      43.499  22.825  29.034  1.00  0.00    -0.206 F 
ATOM     72  C   UNL A   1      42.937  21.037  27.625  1.00  0.00     0.059 A 
ATOM     73  C   UNL A   1      43.055  21.310  25.217  1.00  0.00     0.059 A 
ATOM     74  F   UNL A   1      43.778  23.346  24.308  1.00  0.00    -0.206 F 
ATOM     75  C   UNL A   1      42.795  20.521  26.336  1.00  0.00     0.060 A 
BRANCH  75  76
ATOM     76  S   UNL A   1      42.267  18.806  26.149  1.00  0.00     0.124 S 
ATOM     77  O   UNL A   1      40.866  18.972  25.776  1.00  0.00    -0.237 OA
ATOM     78  O   UNL A   1      43.150  18.321  25.093  1.00  0.00    -0.237 OA
ATOM     79  O   UNL A   1      42.500  18.231  27.469  1.00  0.00    -0.744 OA
ENDBRANCH  75  76
ENDBRANCH  54  68
BRANCH  55  80
ATOM     80  C   UNL A   1      46.394  32.687  28.174  1.00  0.00     0.058 A 
ATOM     81  C   UNL A   1      46.337  33.640  27.146  1.00  0.00     0.135 A 
ATOM     82  C   UNL A   1      46.833  33.115  29.437  1.00  0.00     0.135 A 
ATOM     83  F   UNL A   1      45.930  33.280  25.920  1.00  0.00    -0.206 F 
ATOM     84  C   UNL A   1      46.713  34.963  27.356  1.00  0.00     0.059 A 
ATOM     85  C   UNL A   1      47.189  34.438  29.679  1.00  0.00     0.059 A 
ATOM     86  F   UNL A   1      46.890  32.246  30.459  1.00  0.00    -0.206 F 
ATOM     87  C   UNL A   1      47.134  35.353  28.629  1.00  0.00     0.060 A 
BRANCH  87  88
ATOM     88  S   UNL A   1      47.570  37.084  28.901  1.00  0.00     0.124 S 
ATOM     89  O   UNL A   1      48.844  36.960  29.600  1.00  0.00    -0.237 OA
ATOM     90  O   UNL A   1      47.637  37.601  27.538  1.00  0.00    -0.237 OA
ATOM     91  O   UNL A   1      46.458  37.589  29.702  1.00  0.00    -0.744 OA
ENDBRANCH  87  88
ENDBRANCH  55  80
BRANCH  67  92
ATOM     92  C   UNL A   1      49.778  26.954  26.075  1.00  0.00     0.058 A 
ATOM     93  C   UNL A   1      50.742  26.512  26.995  1.00  0.00     0.135 A 
ATOM     94  C   UNL A   1      50.172  27.108  24.736  1.00  0.00     0.135 A 
ATOM     95  F   UNL A   1      50.420  26.354  28.288  1.00  0.00    -0.206 F 
ATOM     96  C   UNL A   1      52.052  26.255  26.606  1.00  0.00     0.059 A 
ATOM     97  C   UNL A   1      51.469  26.827  24.318  1.00  0.00     0.059 A 
ATOM     98  F   UNL A   1      49.286  27.516  23.813  1.00  0.00    -0.206 F 
ATOM     99  C   UNL A   1      52.406  26.412  25.264  1.00  0.00     0.060 A 
BRANCH  99 100
ATOM    100  S   UNL A   1      54.100  26.041  24.766  1.00  0.00     0.124 S 
ATOM    101  O   UNL A   1      54.089  26.440  23.363  1.00  0.00    -0.237 OA
ATOM    102  O   UNL A   1      54.881  26.890  25.661  1.00  0.00    -0.237 OA
ATOM    103  O   UNL A   1      54.220  24.607  25.010  1.00  0.00    -0.744 OA
ENDBRANCH  99 100
ENDBRANCH  67  92
ENDBRANCH  41  42
ENDBRANCH  33  36
ENDBRANCH  31  32
ENDBRANCH   1  31
TORSDOF 19
ENDMDL
MODEL 3
REMARK VINA RESULT:     -11.5      4.888      5.898
REMARK SMILES NC(=O)CC[C@@H](C(=O)NCCCNC(=O)c1ccc(-c2c3nc(c(-c4c(F)cc(S(=O)(=O)[O-])cc4F)c4ccc([nH]4)c(-c4c(F)cc(S(=O)(=O)[O-])cc4F)c4nc(c(-c5c(F)cc(S(=O)(=O)[O-])cc5F)c5ccc2[nH]5)C=C4)C=C3)cc1)N1C(=O)/C(=C/c2ccc(C=O)cc2)SC1=S
REMARK SMILES IDX 11 1 10 2 9 3 7 4 8 5 6 7 5 8 4 9 2 10 1 11 3 14 82 15 83 16
REMARK SMILES IDX 96 17 84 18 85 19 95 20 97 21 86 22 87 23 88 24 94 25 89 26
REMARK SMILES IDX 93 27 90 28 91 29 92 30 12 31 13 32 14 33 15 35 16 36 17 37
REMARK SMILES IDX 81 38 18 39 80 40 19 41 20 42 21 43 74 44 22 45 79 46 73 47
REMARK SMILES IDX 75 48 23 49 78 50 72 51 71 52 24 54 58 55 37 56 57 57 38 58
REMARK SMILES IDX 41 59 56 60 76 61 39 62 40 63 55 65 77 66 42 67 25 68 26 69
REMARK SMILES IDX 35 70 27 71 28 72 34 73 36 74 29 75 30 76 31 77 32 78 33 79
REMARK SMILES IDX 59 80 60 81 69 82 61 83 62 84 68 85 70 86 63 87 64 88 65 89
REMARK SMILES IDX 66 90 67 91 43 92 44 93 53 94 45 95 46 96 52 97 54 98 47 99
REMARK SMILES IDX 48 100 49 101 50 102 51 103
REMARK H PARENT 9 6 1 12 1 13 13 34 75 53 41 64
REMARK Flexibility Score: inf
ROOT
ATOM      1  C   UNL A   1      33.136  28.104  26.160  1.00  0.00     0.042 C 
ENDROOT
BRANCH   1   2
ATOM      2  C   UNL A   1      32.592  28.831  24.938  1.00  0.00     0.117 C 
BRANCH   2   3
ATOM      3  N   UNL A   1      33.447  28.641  23.788  1.00  0.00    -0.354 N 
ATOM      4  C   UNL A   1      33.208  28.080  22.576  1.00  0.00     0.243 C 
ATOM      5  O   UNL A   1      34.064  28.326  21.716  1.00  0.00    -0.273 OA
ATOM      6  H   UNL A   1      34.366  28.976  23.906  1.00  0.00     0.163 HD
BRANCH   4   7
ATOM      7  C   UNL A   1      31.896  27.319  22.227  1.00  0.00     0.181 C 
BRANCH   7   8
ATOM      8  C   UNL A   1      30.484  27.888  22.473  1.00  0.00     0.045 C 
BRANCH   8   9
ATOM      9  C   UNL A   1      30.050  29.286  22.051  1.00  0.00     0.102 C 
BRANCH   9  10
ATOM     10  C   UNL A   1      29.206  30.197  22.922  1.00  0.00     0.217 C 
ATOM     11  N   UNL A   1      29.762  30.884  23.945  1.00  0.00    -0.370 N 
ATOM     12  H   UNL A   1      29.204  31.474  24.503  1.00  0.00     0.159 HD
ATOM     13  H   UNL A   1      30.725  30.796  24.132  1.00  0.00     0.159 HD
ATOM     14  O   UNL A   1      27.984  30.246  22.789  1.00  0.00    -0.275 OA
ENDBRANCH   9  10
ENDBRANCH   8   9
ENDBRANCH   7   8
BRANCH   7  15
ATOM     15  N   UNL A   1      31.981  25.992  22.919  1.00  0.00    -0.280 N 
ATOM     16  C   UNL A   1      32.859  25.049  22.418  1.00  0.00     0.266 C 
ATOM     17  C   UNL A   1      31.195  25.585  23.990  1.00  0.00     0.149 C 
ATOM     18  O   UNL A   1      33.601  25.201  21.449  1.00  0.00    -0.268 OA
ATOM     19  C   UNL A   1      32.726  23.764  23.152  1.00  0.00     0.081 C 
ATOM     20  S   UNL A   1      31.644  23.954  24.468  1.00  0.00    -0.054 SA
ATOM     21  S   UNL A   1      29.951  26.373  24.781  1.00  0.00    -0.052 S 
ATOM     22  C   UNL A   1      33.341  22.639  22.763  1.00  0.00     0.029 C 
BRANCH  22  23
ATOM     23  C   UNL A   1      33.181  21.332  23.412  1.00  0.00    -0.024 A 
ATOM     24  C   UNL A   1      33.937  21.027  24.549  1.00  0.00     0.009 A 
ATOM     25  C   UNL A   1      32.269  20.388  22.916  1.00  0.00     0.009 A 
ATOM     26  C   UNL A   1      33.757  19.805  25.205  1.00  0.00     0.012 A 
ATOM     27  C   UNL A   1      32.080  19.171  23.574  1.00  0.00     0.012 A 
ATOM     28  C   UNL A   1      32.820  18.886  24.721  1.00  0.00     0.014 A 
BRANCH  28  29
ATOM     29  C   UNL A   1      32.598  17.608  25.426  1.00  0.00     0.260 C 
ATOM     30  O   UNL A   1      33.514  16.841  25.693  1.00  0.00    -0.298 OA
ENDBRANCH  28  29
ENDBRANCH  22  23
ENDBRANCH   7  15
ENDBRANCH   4   7
ENDBRANCH   2   3
ENDBRANCH   1   2
BRANCH   1  31
ATOM     31  C   UNL A   1      34.336  28.788  26.792  1.00  0.00     0.118 C 
BRANCH  31  32
ATOM     32  N   UNL A   1      34.128  30.218  26.955  1.00  0.00    -0.352 N 
ATOM     33  C   UNL A   1      34.786  31.119  27.759  1.00  0.00     0.251 C 
ATOM     34  H   UNL A   1      33.407  30.600  26.405  1.00  0.00     0.163 HD
ATOM     35  O   UNL A   1      34.314  32.243  27.905  1.00  0.00    -0.269 OA
BRANCH  33  36
ATOM     36  C   UNL A   1      36.036  30.737  28.456  1.00  0.00     0.039 A 
ATOM     37  C   UNL A   1      35.987  29.751  29.446  1.00  0.00     0.014 A 
ATOM     38  C   UNL A   1      37.251  31.357  28.155  1.00  0.00     0.014 A 
ATOM     39  C   UNL A   1      37.162  29.353  30.088  1.00  0.00     0.010 A 
ATOM     40  C   UNL A   1      38.431  30.884  28.713  1.00  0.00     0.010 A 
ATOM     41  C   UNL A   1      38.401  29.891  29.703  1.00  0.00    -0.014 A 
BRANCH  41  42
ATOM     42  C   UNL A   1      39.671  29.461  30.342  1.00  0.00     0.031 A 
ATOM     43  C   UNL A   1      40.183  30.188  31.559  1.00  0.00     0.074 A 
ATOM     44  C   UNL A   1      40.393  28.464  29.794  1.00  0.00     0.049 A 
ATOM     45  N   UNL A   1      41.303  30.020  32.213  1.00  0.00    -0.248 NA
ATOM     46  C   UNL A   1      39.338  31.272  32.090  1.00  0.00     0.031 C 
ATOM     47  C   UNL A   1      40.029  27.718  28.587  1.00  0.00     0.029 A 
ATOM     48  N   UNL A   1      41.591  27.912  30.174  1.00  0.00    -0.354 N 
ATOM     49  C   UNL A   1      41.305  30.984  33.215  1.00  0.00     0.074 A 
ATOM     50  C   UNL A   1      40.108  31.776  33.042  1.00  0.00     0.031 C 
ATOM     51  C   UNL A   1      40.965  26.786  28.345  1.00  0.00     0.029 A 
ATOM     52  C   UNL A   1      42.017  26.896  29.351  1.00  0.00     0.049 A 
ATOM     53  H   UNL A   1      42.097  28.214  30.962  1.00  0.00     0.167 HD
ATOM     54  C   UNL A   1      42.206  31.174  34.208  1.00  0.00     0.037 A 
ATOM     55  C   UNL A   1      43.133  26.141  29.398  1.00  0.00     0.037 A 
ATOM     56  C   UNL A   1      43.378  30.361  34.391  1.00  0.00     0.049 A 
ATOM     57  C   UNL A   1      44.121  26.371  30.509  1.00  0.00     0.074 A 
ATOM     58  C   UNL A   1      44.325  30.428  35.398  1.00  0.00     0.029 A 
ATOM     59  N   UNL A   1      43.766  29.330  33.547  1.00  0.00    -0.354 N 
ATOM     60  N   UNL A   1      44.075  27.246  31.486  1.00  0.00    -0.248 NA
ATOM     61  C   UNL A   1      45.310  25.508  30.529  1.00  0.00     0.031 C 
ATOM     62  C   UNL A   1      45.310  29.471  35.136  1.00  0.00     0.029 A 
ATOM     63  C   UNL A   1      44.950  28.769  33.996  1.00  0.00     0.049 A 
ATOM     64  H   UNL A   1      43.272  29.040  32.746  1.00  0.00     0.167 HD
ATOM     65  C   UNL A   1      45.215  27.021  32.251  1.00  0.00     0.074 A 
ATOM     66  C   UNL A   1      45.922  25.920  31.631  1.00  0.00     0.031 C 
ATOM     67  C   UNL A   1      45.637  27.668  33.367  1.00  0.00     0.037 A 
BRANCH  54  68
ATOM     68  C   UNL A   1      41.951  32.302  35.174  1.00  0.00     0.058 A 
ATOM     69  C   UNL A   1      41.084  32.155  36.271  1.00  0.00     0.135 A 
ATOM     70  C   UNL A   1      42.593  33.541  35.013  1.00  0.00     0.135 A 
ATOM     71  F   UNL A   1      40.431  30.999  36.467  1.00  0.00    -0.206 F 
ATOM     72  C   UNL A   1      40.833  33.205  37.147  1.00  0.00     0.059 A 
ATOM     73  C   UNL A   1      42.381  34.595  35.897  1.00  0.00     0.059 A 
ATOM     74  F   UNL A   1      43.432  33.739  33.984  1.00  0.00    -0.206 F 
ATOM     75  C   UNL A   1      41.484  34.424  36.950  1.00  0.00     0.060 A 
BRANCH  75  76
ATOM     76  S   UNL A   1      41.140  35.778  38.091  1.00  0.00     0.124 S 
ATOM     77  O   UNL A   1      40.251  36.614  37.291  1.00  0.00    -0.237 OA
ATOM     78  O   UNL A   1      40.517  35.088  39.216  1.00  0.00    -0.237 OA
ATOM     79  O   UNL A   1      42.458  36.343  38.358  1.00  0.00    -0.744 OA
ENDBRANCH  75  76
ENDBRANCH  54  68
BRANCH  55  80
ATOM     80  C   UNL A   1      43.355  25.081  28.378  1.00  0.00     0.058 A 
ATOM     81  C   UNL A   1      42.970  23.754  28.623  1.00  0.00     0.135 A 
ATOM     82  C   UNL A   1      43.936  25.373  27.133  1.00  0.00     0.135 A 
ATOM     83  F   UNL A   1      42.417  23.423  29.799  1.00  0.00    -0.206 F 
ATOM     84  C   UNL A   1      43.164  22.752  27.678  1.00  0.00     0.059 A 
ATOM     85  C   UNL A   1      44.115  24.393  26.162  1.00  0.00     0.059 A 
ATOM     86  F   UNL A   1      44.307  26.630  26.843  1.00  0.00    -0.206 F 
ATOM     87  C   UNL A   1      43.734  23.083  26.447  1.00  0.00     0.060 A 
BRANCH  87  88
ATOM     88  S   UNL A   1      43.932  21.783  25.209  1.00  0.00     0.124 S 
ATOM     89  O   UNL A   1      42.847  20.874  25.560  1.00  0.00    -0.237 OA
ATOM     90  O   UNL A   1      43.767  22.523  23.961  1.00  0.00    -0.237 OA
ATOM     91  O   UNL A   1      45.281  21.283  25.459  1.00  0.00    -0.744 OA
ENDBRANCH  87  88
ENDBRANCH  55  80
BRANCH  67  92
ATOM     92  C   UNL A   1      46.907  27.181  34.009  1.00  0.00     0.058 A 
ATOM     93  C   UNL A   1      48.158  27.729  33.683  1.00  0.00     0.135 A 
ATOM     94  C   UNL A   1      46.864  26.191  35.004  1.00  0.00     0.135 A 
ATOM     95  F   UNL A   1      48.255  28.674  32.734  1.00  0.00    -0.206 F 
ATOM     96  C   UNL A   1      49.324  27.295  34.303  1.00  0.00     0.059 A 
ATOM     97  C   UNL A   1      48.014  25.763  35.659  1.00  0.00     0.059 A 
ATOM     98  F   UNL A   1      45.692  25.642  35.362  1.00  0.00    -0.206 F 
ATOM     99  C   UNL A   1      49.242  26.314  35.294  1.00  0.00     0.060 A 
BRANCH  99 100
ATOM    100  S   UNL A   1      50.759  25.785  36.115  1.00  0.00     0.124 S 
ATOM    101  O   UNL A   1      50.868  26.765  37.191  1.00  0.00    -0.237 OA
ATOM    102  O   UNL A   1      50.432  24.424  36.528  1.00  0.00    -0.237 OA
ATOM    103  O   UNL A   1      51.769  25.891  35.067  1.00  0.00    -0.744 OA
ENDBRANCH  99 100
ENDBRANCH  67  92
ENDBRANCH  41  42
ENDBRANCH  33  36
ENDBRANCH  31  32
ENDBRANCH   1  31
TORSDOF 19
ENDMDL
