MODEL 1
REMARK VINA RESULT:     -12.1      0.000      0.000
REMARK SMILES COc1ccccc1CCNC(=O)[C@@H]1[C@@H](C(=O)NCCCNC(=O)c2ccc(-c3c4nc(c(-c5c(F)cc(S(=O)(=O)[O-])cc5F)c5ccc([nH]5)c(-c5c(F)cc(S(=O)(=O)[O-])cc5F)c5nc(c(-c6c(F)cc(S(=O)(=O)[O-])cc6F)c6ccc3[nH]6)C=C5)C=C4)cc2)[C@H]2C=C[C@@H]1CC2
REMARK SMILES IDX 19 1 18 2 16 3 17 4 15 6 14 7 94 8 91 9 93 10 95 11 92 12
REMARK SMILES IDX 96 13 12 14 11 15 13 17 10 18 9 19 8 20 3 21 4 22 5 23 7 24
REMARK SMILES IDX 6 25 2 26 1 27 20 28 21 29 22 30 23 31 24 33 25 34 26 35
REMARK SMILES IDX 90 36 27 37 89 38 28 39 29 40 30 41 83 42 31 43 88 44 82 45
REMARK SMILES IDX 84 46 32 47 87 48 81 49 80 50 33 52 67 53 46 54 66 55 47 56
REMARK SMILES IDX 50 57 65 58 85 59 48 60 49 61 64 63 86 64 51 65 34 66 35 67
REMARK SMILES IDX 44 68 36 69 37 70 43 71 45 72 38 73 39 74 40 75 41 76 42 77
REMARK SMILES IDX 68 78 69 79 78 80 70 81 71 82 77 83 79 84 72 85 73 86 74 87
REMARK SMILES IDX 75 88 76 89 52 90 53 91 62 92 54 93 55 94 61 95 63 96 56 97
REMARK SMILES IDX 57 98 58 99 59 100 60 101
REMARK H PARENT 18 5 11 16 22 32 84 51 50 62
REMARK Flexibility Score: inf
ROOT
ATOM      1  C   UNL A   1      34.366  28.872  26.663  1.00  0.00     0.117 C 
ENDROOT
BRANCH   1   2
ATOM      2  N   UNL A   1      34.399  29.007  25.209  1.00  0.00    -0.356 N 
ATOM      3  C   UNL A   1      33.698  28.477  24.175  1.00  0.00     0.224 C 
ATOM      4  O   UNL A   1      33.970  28.937  23.056  1.00  0.00    -0.275 OA
ATOM      5  H   UNL A   1      35.096  29.633  24.906  1.00  0.00     0.163 HD
BRANCH   3   6
ATOM      6  C   UNL A   1      32.704  27.314  24.252  1.00  0.00     0.098 C 
ATOM      7  C   UNL A   1      32.322  26.639  22.918  1.00  0.00     0.098 C 
ATOM      8  C   UNL A   1      30.770  26.598  22.776  1.00  0.00     0.025 C 
ATOM      9  C   UNL A   1      31.422  27.786  25.004  1.00  0.00     0.025 C 
ATOM     10  C   UNL A   1      30.282  28.052  22.905  1.00  0.00    -0.027 C 
ATOM     11  C   UNL A   1      30.045  25.940  23.967  1.00  0.00     0.009 C 
ATOM     12  C   UNL A   1      30.608  28.652  24.065  1.00  0.00    -0.027 C 
ATOM     13  C   UNL A   1      30.532  26.556  25.299  1.00  0.00     0.009 C 
BRANCH   7  14
ATOM     14  C   UNL A   1      33.261  25.509  22.489  1.00  0.00     0.224 C 
ATOM     15  N   UNL A   1      33.784  24.584  23.318  1.00  0.00    -0.355 N 
ATOM     16  H   UNL A   1      34.682  24.255  23.083  1.00  0.00     0.163 HD
ATOM     17  O   UNL A   1      33.648  25.449  21.315  1.00  0.00    -0.275 OA
BRANCH  15  18
ATOM     18  C   UNL A   1      33.198  24.018  24.502  1.00  0.00     0.120 C 
BRANCH  18  19
ATOM     19  C   UNL A   1      34.243  23.951  25.619  1.00  0.00     0.060 C 
BRANCH  19  20
ATOM     20  C   UNL A   1      35.140  22.752  25.473  1.00  0.00    -0.004 A 
ATOM     21  C   UNL A   1      36.533  22.886  25.426  1.00  0.00     0.122 A 
ATOM     22  C   UNL A   1      37.334  21.787  25.119  1.00  0.00     0.047 A 
ATOM     23  C   UNL A   1      36.753  20.538  24.896  1.00  0.00     0.004 A 
ATOM     24  C   UNL A   1      34.568  21.484  25.277  1.00  0.00     0.007 A 
ATOM     25  C   UNL A   1      35.371  20.383  24.984  1.00  0.00     0.001 A 
BRANCH  21  26
ATOM     26  O   UNL A   1      37.156  24.099  25.559  1.00  0.00    -0.496 OA
ATOM     27  C   UNL A   1      38.257  24.045  26.472  1.00  0.00     0.278 C 
ENDBRANCH  21  26
ENDBRANCH  19  20
ENDBRANCH  18  19
ENDBRANCH  15  18
ENDBRANCH   7  14
ENDBRANCH   3   6
ENDBRANCH   1   2
BRANCH   1  28
ATOM     28  C   UNL A   1      34.120  30.179  27.389  1.00  0.00     0.042 C 
BRANCH  28  29
ATOM     29  C   UNL A   1      35.386  30.774  27.960  1.00  0.00     0.118 C 
BRANCH  29  30
ATOM     30  N   UNL A   1      35.366  30.812  29.419  1.00  0.00    -0.352 N 
ATOM     31  C   UNL A   1      36.298  30.419  30.351  1.00  0.00     0.251 C 
ATOM     32  H   UNL A   1      34.541  31.184  29.803  1.00  0.00     0.163 HD
ATOM     33  O   UNL A   1      35.952  30.298  31.523  1.00  0.00    -0.269 OA
BRANCH  31  34
ATOM     34  C   UNL A   1      37.693  30.126  29.956  1.00  0.00     0.039 A 
ATOM     35  C   UNL A   1      38.636  29.825  30.942  1.00  0.00     0.014 A 
ATOM     36  C   UNL A   1      38.090  30.177  28.620  1.00  0.00     0.014 A 
ATOM     37  C   UNL A   1      39.946  29.511  30.574  1.00  0.00     0.010 A 
ATOM     38  C   UNL A   1      39.343  29.719  28.246  1.00  0.00     0.010 A 
ATOM     39  C   UNL A   1      40.299  29.408  29.218  1.00  0.00    -0.014 A 
BRANCH  39  40
ATOM     40  C   UNL A   1      41.665  29.005  28.798  1.00  0.00     0.031 A 
ATOM     41  C   UNL A   1      42.780  30.020  28.768  1.00  0.00     0.074 A 
ATOM     42  C   UNL A   1      41.884  27.740  28.386  1.00  0.00     0.049 A 
ATOM     43  N   UNL A   1      44.024  29.869  28.392  1.00  0.00    -0.248 NA
ATOM     44  C   UNL A   1      42.449  31.397  29.178  1.00  0.00     0.031 C 
ATOM     45  C   UNL A   1      40.864  26.690  28.295  1.00  0.00     0.029 A 
ATOM     46  N   UNL A   1      43.032  27.120  27.967  1.00  0.00    -0.354 N 
ATOM     47  C   UNL A   1      44.611  31.125  28.503  1.00  0.00     0.074 A 
ATOM     48  C   UNL A   1      43.573  32.043  28.909  1.00  0.00     0.031 C 
ATOM     49  C   UNL A   1      41.442  25.547  27.895  1.00  0.00     0.029 A 
ATOM     50  C   UNL A   1      42.861  25.791  27.660  1.00  0.00     0.049 A 
ATOM     51  H   UNL A   1      43.898  27.582  27.894  1.00  0.00     0.167 HD
ATOM     52  C   UNL A   1      45.906  31.475  28.321  1.00  0.00     0.037 A 
ATOM     53  C   UNL A   1      43.748  24.870  27.238  1.00  0.00     0.037 A 
ATOM     54  C   UNL A   1      46.941  30.544  27.954  1.00  0.00     0.049 A 
ATOM     55  C   UNL A   1      45.186  25.278  27.068  1.00  0.00     0.074 A 
ATOM     56  C   UNL A   1      48.296  30.777  27.811  1.00  0.00     0.029 A 
ATOM     57  N   UNL A   1      46.733  29.201  27.677  1.00  0.00    -0.354 N 
ATOM     58  N   UNL A   1      45.738  26.455  27.253  1.00  0.00    -0.248 NA
ATOM     59  C   UNL A   1      46.124  24.233  26.641  1.00  0.00     0.031 C 
ATOM     60  C   UNL A   1      48.902  29.584  27.400  1.00  0.00     0.029 A 
ATOM     61  C   UNL A   1      47.931  28.596  27.341  1.00  0.00     0.049 A 
ATOM     62  H   UNL A   1      45.861  28.745  27.714  1.00  0.00     0.167 HD
ATOM     63  C   UNL A   1      47.091  26.287  26.984  1.00  0.00     0.074 A 
ATOM     64  C   UNL A   1      47.276  24.888  26.651  1.00  0.00     0.031 C 
ATOM     65  C   UNL A   1      48.091  27.203  27.005  1.00  0.00     0.037 A 
BRANCH  52  66
ATOM     66  C   UNL A   1      46.279  32.919  28.533  1.00  0.00     0.058 A 
ATOM     67  C   UNL A   1      46.680  33.401  29.791  1.00  0.00     0.135 A 
ATOM     68  C   UNL A   1      46.272  33.825  27.460  1.00  0.00     0.135 A 
ATOM     69  F   UNL A   1      46.688  32.585  30.857  1.00  0.00    -0.206 F 
ATOM     70  C   UNL A   1      47.035  34.732  29.982  1.00  0.00     0.059 A 
ATOM     71  C   UNL A   1      46.654  35.155  27.623  1.00  0.00     0.059 A 
ATOM     72  F   UNL A   1      45.894  33.422  26.237  1.00  0.00    -0.206 F 
ATOM     73  C   UNL A   1      47.023  35.601  28.891  1.00  0.00     0.060 A 
BRANCH  73  74
ATOM     74  S   UNL A   1      47.508  37.320  29.154  1.00  0.00     0.124 S 
ATOM     75  O   UNL A   1      46.214  37.994  29.133  1.00  0.00    -0.237 OA
ATOM     76  O   UNL A   1      48.170  37.261  30.454  1.00  0.00    -0.237 OA
ATOM     77  O   UNL A   1      48.382  37.604  28.020  1.00  0.00    -0.744 OA
ENDBRANCH  73  74
ENDBRANCH  52  66
BRANCH  53  78
ATOM     78  C   UNL A   1      43.310  23.472  26.978  1.00  0.00     0.058 A 
ATOM     79  C   UNL A   1      43.148  22.997  25.668  1.00  0.00     0.135 A 
ATOM     80  C   UNL A   1      43.054  22.580  28.031  1.00  0.00     0.135 A 
ATOM     81  F   UNL A   1      43.379  23.811  24.627  1.00  0.00    -0.206 F 
ATOM     82  C   UNL A   1      42.725  21.697  25.411  1.00  0.00     0.059 A 
ATOM     83  C   UNL A   1      42.658  21.267  27.799  1.00  0.00     0.059 A 
ATOM     84  F   UNL A   1      43.215  22.977  29.304  1.00  0.00    -0.206 F 
ATOM     85  C   UNL A   1      42.483  20.838  26.484  1.00  0.00     0.060 A 
BRANCH  85  86
ATOM     86  S   UNL A   1      41.971  19.141  26.139  1.00  0.00     0.124 S 
ATOM     87  O   UNL A   1      42.311  18.473  27.390  1.00  0.00    -0.237 OA
ATOM     88  O   UNL A   1      40.546  19.301  25.865  1.00  0.00    -0.237 OA
ATOM     89  O   UNL A   1      42.787  18.774  24.985  1.00  0.00    -0.744 OA
ENDBRANCH  85  86
ENDBRANCH  53  78
BRANCH  65  90
ATOM     90  C   UNL A   1      49.473  26.712  26.675  1.00  0.00     0.058 A 
ATOM     91  C   UNL A   1      49.952  26.695  25.355  1.00  0.00     0.135 A 
ATOM     92  C   UNL A   1      50.334  26.271  27.692  1.00  0.00     0.135 A 
ATOM     93  F   UNL A   1      49.167  27.104  24.345  1.00  0.00    -0.206 F 
ATOM     94  C   UNL A   1      51.221  26.214  25.050  1.00  0.00     0.059 A 
ATOM     95  C   UNL A   1      51.619  25.817  27.413  1.00  0.00     0.059 A 
ATOM     96  F   UNL A   1      49.931  26.281  28.973  1.00  0.00    -0.206 F 
ATOM     97  C   UNL A   1      52.046  25.773  26.087  1.00  0.00     0.060 A 
BRANCH  97  98
ATOM     98  S   UNL A   1      53.689  25.151  25.677  1.00  0.00     0.124 S 
ATOM     99  O   UNL A   1      54.069  26.032  24.579  1.00  0.00    -0.237 OA
ATOM    100  O   UNL A   1      54.418  25.344  26.926  1.00  0.00    -0.237 OA
ATOM    101  O   UNL A   1      53.442  23.759  25.310  1.00  0.00    -0.744 OA
ENDBRANCH  97  98
ENDBRANCH  65  90
ENDBRANCH  39  40
ENDBRANCH  31  34
ENDBRANCH  29  30
ENDBRANCH  28  29
ENDBRANCH   1  28
TORSDOF 18
ENDMDL
MODEL 2
REMARK VINA RESULT:     -11.9      6.309     11.817
REMARK SMILES COc1ccccc1CCNC(=O)[C@@H]1[C@@H](C(=O)NCCCNC(=O)c2ccc(-c3c4nc(c(-c5c(F)cc(S(=O)(=O)[O-])cc5F)c5ccc([nH]5)c(-c5c(F)cc(S(=O)(=O)[O-])cc5F)c5nc(c(-c6c(F)cc(S(=O)(=O)[O-])cc6F)c6ccc3[nH]6)C=C5)C=C4)cc2)[C@H]2C=C[C@@H]1CC2
REMARK SMILES IDX 19 1 18 2 16 3 17 4 15 6 14 7 94 8 91 9 93 10 95 11 92 12
REMARK SMILES IDX 96 13 12 14 11 15 13 17 10 18 9 19 8 20 3 21 4 22 5 23 7 24
REMARK SMILES IDX 6 25 2 26 1 27 20 28 21 29 22 30 23 31 24 33 25 34 26 35
REMARK SMILES IDX 90 36 27 37 89 38 28 39 29 40 30 41 83 42 31 43 88 44 82 45
REMARK SMILES IDX 84 46 32 47 87 48 81 49 80 50 33 52 67 53 46 54 66 55 47 56
REMARK SMILES IDX 50 57 65 58 85 59 48 60 49 61 64 63 86 64 51 65 34 66 35 67
REMARK SMILES IDX 44 68 36 69 37 70 43 71 45 72 38 73 39 74 40 75 41 76 42 77
REMARK SMILES IDX 68 78 69 79 78 80 70 81 71 82 77 83 79 84 72 85 73 86 74 87
REMARK SMILES IDX 75 88 76 89 52 90 53 91 62 92 54 93 55 94 61 95 63 96 56 97
REMARK SMILES IDX 57 98 58 99 59 100 60 101
REMARK H PARENT 18 5 11 16 22 32 84 51 50 62
REMARK Flexibility Score: inf
ROOT
ATOM      1  C   UNL A   1      38.391  21.856  25.777  1.00  0.00     0.117 C 
ENDROOT
BRANCH   1   2
ATOM      2  N   UNL A   1      37.604  23.078  25.914  1.00  0.00    -0.356 N 
ATOM      3  C   UNL A   1      36.293  23.401  25.783  1.00  0.00     0.224 C 
ATOM      4  O   UNL A   1      35.997  24.565  26.093  1.00  0.00    -0.275 OA
ATOM      5  H   UNL A   1      38.158  23.854  26.159  1.00  0.00     0.163 HD
BRANCH   3   6
ATOM      6  C   UNL A   1      35.191  22.510  25.200  1.00  0.00     0.098 C 
ATOM      7  C   UNL A   1      33.955  23.228  24.619  1.00  0.00     0.098 C 
ATOM      8  C   UNL A   1      32.659  22.640  25.255  1.00  0.00     0.025 C 
ATOM      9  C   UNL A   1      34.753  21.467  26.274  1.00  0.00     0.025 C 
ATOM     10  C   UNL A   1      32.813  22.793  26.778  1.00  0.00    -0.027 C 
ATOM     11  C   UNL A   1      32.533  21.109  25.126  1.00  0.00     0.009 C 
ATOM     12  C   UNL A   1      33.888  22.170  27.298  1.00  0.00    -0.027 C 
ATOM     13  C   UNL A   1      33.830  20.420  25.609  1.00  0.00     0.009 C 
BRANCH   7  14
ATOM     14  C   UNL A   1      34.091  23.632  23.149  1.00  0.00     0.224 C 
ATOM     15  N   UNL A   1      33.232  24.432  22.485  1.00  0.00    -0.355 N 
ATOM     16  H   UNL A   1      33.119  24.239  21.526  1.00  0.00     0.163 HD
ATOM     17  O   UNL A   1      35.006  23.154  22.466  1.00  0.00    -0.275 OA
BRANCH  15  18
ATOM     18  C   UNL A   1      32.460  25.529  23.000  1.00  0.00     0.120 C 
BRANCH  18  19
ATOM     19  C   UNL A   1      33.395  26.642  23.480  1.00  0.00     0.060 C 
BRANCH  19  20
ATOM     20  C   UNL A   1      32.816  27.392  24.648  1.00  0.00    -0.004 A 
ATOM     21  C   UNL A   1      32.012  28.524  24.461  1.00  0.00     0.122 A 
ATOM     22  C   UNL A   1      31.628  29.301  25.554  1.00  0.00     0.047 A 
ATOM     23  C   UNL A   1      32.012  28.932  26.843  1.00  0.00     0.004 A 
ATOM     24  C   UNL A   1      33.170  27.013  25.953  1.00  0.00     0.007 A 
ATOM     25  C   UNL A   1      32.774  27.784  27.045  1.00  0.00     0.001 A 
BRANCH  21  26
ATOM     26  O   UNL A   1      31.668  28.978  23.216  1.00  0.00    -0.496 OA
ATOM     27  C   UNL A   1      30.284  29.336  23.131  1.00  0.00     0.278 C 
ENDBRANCH  21  26
ENDBRANCH  19  20
ENDBRANCH  18  19
ENDBRANCH  15  18
ENDBRANCH   7  14
ENDBRANCH   3   6
ENDBRANCH   1   2
BRANCH   1  28
ATOM     28  C   UNL A   1      39.687  21.876  26.562  1.00  0.00     0.042 C 
BRANCH  28  29
ATOM     29  C   UNL A   1      40.045  23.259  27.056  1.00  0.00     0.118 C 
BRANCH  29  30
ATOM     30  N   UNL A   1      40.888  23.980  26.107  1.00  0.00    -0.352 N 
ATOM     31  C   UNL A   1      41.328  25.283  26.090  1.00  0.00     0.251 C 
ATOM     32  H   UNL A   1      41.195  23.439  25.345  1.00  0.00     0.163 HD
ATOM     33  O   UNL A   1      41.804  25.737  25.053  1.00  0.00    -0.269 OA
BRANCH  31  34
ATOM     34  C   UNL A   1      41.218  26.139  27.291  1.00  0.00     0.039 A 
ATOM     35  C   UNL A   1      42.111  27.200  27.462  1.00  0.00     0.014 A 
ATOM     36  C   UNL A   1      40.259  25.885  28.271  1.00  0.00     0.014 A 
ATOM     37  C   UNL A   1      41.989  28.035  28.575  1.00  0.00     0.010 A 
ATOM     38  C   UNL A   1      40.042  26.800  29.291  1.00  0.00     0.010 A 
ATOM     39  C   UNL A   1      40.923  27.871  29.475  1.00  0.00    -0.014 A 
BRANCH  39  40
ATOM     40  C   UNL A   1      40.727  28.788  30.626  1.00  0.00     0.031 A 
ATOM     41  C   UNL A   1      41.577  28.646  31.863  1.00  0.00     0.074 A 
ATOM     42  C   UNL A   1      39.743  29.708  30.578  1.00  0.00     0.049 A 
ATOM     43  N   UNL A   1      41.528  29.322  32.981  1.00  0.00    -0.248 NA
ATOM     44  C   UNL A   1      42.594  27.578  31.862  1.00  0.00     0.031 C 
ATOM     45  C   UNL A   1      38.803  29.887  29.466  1.00  0.00     0.029 A 
ATOM     46  N   UNL A   1      39.367  30.667  31.482  1.00  0.00    -0.354 N 
ATOM     47  C   UNL A   1      42.486  28.754  33.814  1.00  0.00     0.074 A 
ATOM     48  C   UNL A   1      43.051  27.630  33.104  1.00  0.00     0.031 C 
ATOM     49  C   UNL A   1      37.993  30.922  29.735  1.00  0.00     0.029 A 
ATOM     50  C   UNL A   1      38.324  31.453  31.053  1.00  0.00     0.049 A 
ATOM     51  H   UNL A   1      39.802  30.781  32.358  1.00  0.00     0.167 HD
ATOM     52  C   UNL A   1      42.886  29.154  35.044  1.00  0.00     0.037 A 
ATOM     53  C   UNL A   1      37.706  32.488  31.652  1.00  0.00     0.037 A 
ATOM     54  C   UNL A   1      42.344  30.299  35.727  1.00  0.00     0.049 A 
ATOM     55  C   UNL A   1      38.186  32.930  33.007  1.00  0.00     0.074 A 
ATOM     56  C   UNL A   1      42.723  30.835  36.943  1.00  0.00     0.029 A 
ATOM     57  N   UNL A   1      41.306  31.087  35.248  1.00  0.00    -0.354 N 
ATOM     58  N   UNL A   1      39.148  32.428  33.747  1.00  0.00    -0.248 NA
ATOM     59  C   UNL A   1      37.506  34.084  33.607  1.00  0.00     0.031 C 
ATOM     60  C   UNL A   1      41.884  31.920  37.223  1.00  0.00     0.029 A 
ATOM     61  C   UNL A   1      41.017  32.091  36.154  1.00  0.00     0.049 A 
ATOM     62  H   UNL A   1      40.845  30.951  34.389  1.00  0.00     0.167 HD
ATOM     63  C   UNL A   1      39.200  33.216  34.890  1.00  0.00     0.074 A 
ATOM     64  C   UNL A   1      38.192  34.245  34.729  1.00  0.00     0.031 C 
ATOM     65  C   UNL A   1      40.003  33.101  35.977  1.00  0.00     0.037 A 
BRANCH  52  66
ATOM     66  C   UNL A   1      43.974  28.362  35.720  1.00  0.00     0.058 A 
ATOM     67  C   UNL A   1      43.680  27.303  36.597  1.00  0.00     0.135 A 
ATOM     68  C   UNL A   1      45.326  28.637  35.461  1.00  0.00     0.135 A 
ATOM     69  F   UNL A   1      42.405  27.007  36.897  1.00  0.00    -0.206 F 
ATOM     70  C   UNL A   1      44.686  26.565  37.211  1.00  0.00     0.059 A 
ATOM     71  C   UNL A   1      46.349  27.891  36.041  1.00  0.00     0.059 A 
ATOM     72  F   UNL A   1      45.666  29.639  34.636  1.00  0.00    -0.206 F 
ATOM     73  C   UNL A   1      46.018  26.863  36.924  1.00  0.00     0.060 A 
BRANCH  73  74
ATOM     74  S   UNL A   1      47.310  25.880  37.713  1.00  0.00     0.124 S 
ATOM     75  O   UNL A   1      48.334  26.890  37.961  1.00  0.00    -0.237 OA
ATOM     76  O   UNL A   1      46.630  25.366  38.898  1.00  0.00    -0.237 OA
ATOM     77  O   UNL A   1      47.645  24.882  36.702  1.00  0.00    -0.744 OA
ENDBRANCH  73  74
ENDBRANCH  52  66
BRANCH  53  78
ATOM     78  C   UNL A   1      36.590  33.193  30.965  1.00  0.00     0.058 A 
ATOM     79  C   UNL A   1      36.836  34.059  29.888  1.00  0.00     0.135 A 
ATOM     80  C   UNL A   1      35.257  33.010  31.362  1.00  0.00     0.135 A 
ATOM     81  F   UNL A   1      38.094  34.269  29.472  1.00  0.00    -0.206 F 
ATOM     82  C   UNL A   1      35.805  34.737  29.246  1.00  0.00     0.059 A 
ATOM     83  C   UNL A   1      34.206  33.653  30.717  1.00  0.00     0.059 A 
ATOM     84  F   UNL A   1      34.964  32.175  32.371  1.00  0.00    -0.206 F 
ATOM     85  C   UNL A   1      34.491  34.526  29.668  1.00  0.00     0.060 A 
BRANCH  85  86
ATOM     86  S   UNL A   1      33.156  35.381  28.803  1.00  0.00     0.124 S 
ATOM     87  O   UNL A   1      32.389  35.928  29.917  1.00  0.00    -0.237 OA
ATOM     88  O   UNL A   1      33.886  36.350  27.992  1.00  0.00    -0.237 OA
ATOM     89  O   UNL A   1      32.504  34.310  28.053  1.00  0.00    -0.744 OA
ENDBRANCH  85  86
ENDBRANCH  53  78
BRANCH  65  90
ATOM     90  C   UNL A   1      39.832  34.125  37.064  1.00  0.00     0.058 A 
ATOM     91  C   UNL A   1      40.406  35.404  36.967  1.00  0.00     0.135 A 
ATOM     92  C   UNL A   1      39.072  33.831  38.207  1.00  0.00     0.135 A 
ATOM     93  F   UNL A   1      41.145  35.734  35.895  1.00  0.00    -0.206 F 
ATOM     94  C   UNL A   1      40.269  36.338  37.987  1.00  0.00     0.059 A 
ATOM     95  C   UNL A   1      38.895  34.763  39.224  1.00  0.00     0.059 A 
ATOM     96  F   UNL A   1      38.489  32.629  38.342  1.00  0.00    -0.206 F 
ATOM     97  C   UNL A   1      39.514  36.007  39.114  1.00  0.00     0.060 A 
BRANCH  97  98
ATOM     98  S   UNL A   1      39.346  37.230  40.430  1.00  0.00     0.124 S 
ATOM     99  O   UNL A   1      38.604  36.477  41.436  1.00  0.00    -0.237 OA
ATOM    100  O   UNL A   1      40.736  37.529  40.759  1.00  0.00    -0.237 OA
ATOM    101  O   UNL A   1      38.611  38.317  39.790  1.00  0.00    -0.744 OA
ENDBRANCH  97  98
ENDBRANCH  65  90
ENDBRANCH  39  40
ENDBRANCH  31  34
ENDBRANCH  29  30
ENDBRANCH  28  29
ENDBRANCH   1  28
TORSDOF 18
ENDMDL
MODEL 3
REMARK VINA RESULT:     -11.9      0.789      1.847
REMARK SMILES COc1ccccc1CCNC(=O)[C@@H]1[C@@H](C(=O)NCCCNC(=O)c2ccc(-c3c4nc(c(-c5c(F)cc(S(=O)(=O)[O-])cc5F)c5ccc([nH]5)c(-c5c(F)cc(S(=O)(=O)[O-])cc5F)c5nc(c(-c6c(F)cc(S(=O)(=O)[O-])cc6F)c6ccc3[nH]6)C=C5)C=C4)cc2)[C@H]2C=C[C@@H]1CC2
REMARK SMILES IDX 19 1 18 2 16 3 17 4 15 6 14 7 94 8 91 9 93 10 95 11 92 12
REMARK SMILES IDX 96 13 12 14 11 15 13 17 10 18 9 19 8 20 3 21 4 22 5 23 7 24
REMARK SMILES IDX 6 25 2 26 1 27 20 28 21 29 22 30 23 31 24 33 25 34 26 35
REMARK SMILES IDX 90 36 27 37 89 38 28 39 29 40 30 41 83 42 31 43 88 44 82 45
REMARK SMILES IDX 84 46 32 47 87 48 81 49 80 50 33 52 67 53 46 54 66 55 47 56
REMARK SMILES IDX 50 57 65 58 85 59 48 60 49 61 64 63 86 64 51 65 34 66 35 67
REMARK SMILES IDX 44 68 36 69 37 70 43 71 45 72 38 73 39 74 40 75 41 76 42 77
REMARK SMILES IDX 68 78 69 79 78 80 70 81 71 82 77 83 79 84 72 85 73 86 74 87
REMARK SMILES IDX 75 88 76 89 52 90 53 91 62 92 54 93 55 94 61 95 63 96 56 97
REMARK SMILES IDX 57 98 58 99 59 100 60 101
REMARK H PARENT 18 5 11 16 22 32 84 51 50 62
REMARK Flexibility Score: inf
ROOT
ATOM      1  C   UNL A   1      34.364  28.738  26.494  1.00  0.00     0.117 C 
ENDROOT
BRANCH   1   2
ATOM      2  N   UNL A   1      34.416  28.974  25.054  1.00  0.00    -0.356 N 
ATOM      3  C   UNL A   1      33.711  28.540  23.979  1.00  0.00     0.224 C 
ATOM      4  O   UNL A   1      34.008  29.068  22.898  1.00  0.00    -0.275 OA
ATOM      5  H   UNL A   1      35.135  29.597  24.803  1.00  0.00     0.163 HD
BRANCH   3   6
ATOM      6  C   UNL A   1      32.680  27.406  23.966  1.00  0.00     0.098 C 
ATOM      7  C   UNL A   1      32.116  26.999  22.588  1.00  0.00     0.098 C 
ATOM      8  C   UNL A   1      30.557  27.021  22.631  1.00  0.00     0.025 C 
ATOM      9  C   UNL A   1      31.516  27.761  24.941  1.00  0.00     0.025 C 
ATOM     10  C   UNL A   1      30.155  28.437  23.080  1.00  0.00    -0.027 C 
ATOM     11  C   UNL A   1      29.946  26.172  23.763  1.00  0.00     0.009 C 
ATOM     12  C   UNL A   1      30.639  28.804  24.281  1.00  0.00    -0.027 C 
ATOM     13  C   UNL A   1      30.611  26.519  25.115  1.00  0.00     0.009 C 
BRANCH   7  14
ATOM     14  C   UNL A   1      32.947  25.946  21.851  1.00  0.00     0.224 C 
ATOM     15  N   UNL A   1      33.413  24.807  22.401  1.00  0.00    -0.355 N 
ATOM     16  H   UNL A   1      34.274  24.482  22.051  1.00  0.00     0.163 HD
ATOM     17  O   UNL A   1      33.297  26.153  20.682  1.00  0.00    -0.275 OA
BRANCH  15  18
ATOM     18  C   UNL A   1      32.813  24.007  23.433  1.00  0.00     0.120 C 
BRANCH  18  19
ATOM     19  C   UNL A   1      33.712  23.996  24.672  1.00  0.00     0.060 C 
BRANCH  19  20
ATOM     20  C   UNL A   1      34.717  22.878  24.621  1.00  0.00    -0.004 A 
ATOM     21  C   UNL A   1      34.338  21.547  24.835  1.00  0.00     0.122 A 
ATOM     22  C   UNL A   1      35.307  20.551  24.953  1.00  0.00     0.047 A 
ATOM     23  C   UNL A   1      36.659  20.871  24.819  1.00  0.00     0.004 A 
ATOM     24  C   UNL A   1      36.079  23.183  24.457  1.00  0.00     0.007 A 
ATOM     25  C   UNL A   1      37.045  22.184  24.562  1.00  0.00     0.001 A 
BRANCH  21  26
ATOM     26  O   UNL A   1      33.035  21.184  25.050  1.00  0.00    -0.496 OA
ATOM     27  C   UNL A   1      32.649  20.053  24.261  1.00  0.00     0.278 C 
ENDBRANCH  21  26
ENDBRANCH  19  20
ENDBRANCH  18  19
ENDBRANCH  15  18
ENDBRANCH   7  14
ENDBRANCH   3   6
ENDBRANCH   1   2
BRANCH   1  28
ATOM     28  C   UNL A   1      34.142  29.997  27.308  1.00  0.00     0.042 C 
BRANCH  28  29
ATOM     29  C   UNL A   1      35.429  30.564  27.862  1.00  0.00     0.118 C 
BRANCH  29  30
ATOM     30  N   UNL A   1      35.441  30.576  29.321  1.00  0.00    -0.352 N 
ATOM     31  C   UNL A   1      36.340  30.064  30.228  1.00  0.00     0.251 C 
ATOM     32  H   UNL A   1      34.670  31.032  29.729  1.00  0.00     0.163 HD
ATOM     33  O   UNL A   1      36.005  29.960  31.404  1.00  0.00    -0.269 OA
BRANCH  31  34
ATOM     34  C   UNL A   1      37.685  29.623  29.799  1.00  0.00     0.039 A 
ATOM     35  C   UNL A   1      38.042  29.723  28.452  1.00  0.00     0.014 A 
ATOM     36  C   UNL A   1      38.590  29.080  30.711  1.00  0.00     0.014 A 
ATOM     37  C   UNL A   1      39.324  29.344  28.046  1.00  0.00     0.010 A 
ATOM     38  C   UNL A   1      39.905  28.849  30.337  1.00  0.00     0.010 A 
ATOM     39  C   UNL A   1      40.283  28.948  28.994  1.00  0.00    -0.014 A 
BRANCH  39  40
ATOM     40  C   UNL A   1      41.674  28.609  28.599  1.00  0.00     0.031 A 
ATOM     41  C   UNL A   1      42.738  29.676  28.576  1.00  0.00     0.074 A 
ATOM     42  C   UNL A   1      41.960  27.351  28.205  1.00  0.00     0.049 A 
ATOM     43  N   UNL A   1      43.994  29.582  28.221  1.00  0.00    -0.248 NA
ATOM     44  C   UNL A   1      42.334  31.039  28.965  1.00  0.00     0.031 C 
ATOM     45  C   UNL A   1      40.994  26.252  28.109  1.00  0.00     0.029 A 
ATOM     46  N   UNL A   1      43.143  26.783  27.811  1.00  0.00    -0.354 N 
ATOM     47  C   UNL A   1      44.517  30.866  28.328  1.00  0.00     0.074 A 
ATOM     48  C   UNL A   1      43.429  31.737  28.707  1.00  0.00     0.031 C 
ATOM     49  C   UNL A   1      41.633  25.135  27.731  1.00  0.00     0.029 A 
ATOM     50  C   UNL A   1      43.042  25.445  27.516  1.00  0.00     0.049 A 
ATOM     51  H   UNL A   1      43.987  27.287  27.746  1.00  0.00     0.167 HD
ATOM     52  C   UNL A   1      45.797  31.277  28.161  1.00  0.00     0.037 A 
ATOM     53  C   UNL A   1      43.980  24.564  27.118  1.00  0.00     0.037 A 
ATOM     54  C   UNL A   1      46.881  30.394  27.821  1.00  0.00     0.049 A 
ATOM     55  C   UNL A   1      45.399  25.040  26.966  1.00  0.00     0.074 A 
ATOM     56  C   UNL A   1      48.226  30.691  27.697  1.00  0.00     0.029 A 
ATOM     57  N   UNL A   1      46.744  29.040  27.555  1.00  0.00    -0.354 N 
ATOM     58  N   UNL A   1      45.890  26.244  27.147  1.00  0.00    -0.248 NA
ATOM     59  C   UNL A   1      46.394  24.038  26.565  1.00  0.00     0.031 C 
ATOM     60  C   UNL A   1      48.896  29.526  27.309  1.00  0.00     0.029 A 
ATOM     61  C   UNL A   1      47.975  28.491  27.245  1.00  0.00     0.049 A 
ATOM     62  H   UNL A   1      45.894  28.542  27.584  1.00  0.00     0.167 HD
ATOM     63  C   UNL A   1      47.254  26.139  26.901  1.00  0.00     0.074 A 
ATOM     64  C   UNL A   1      47.512  24.748  26.585  1.00  0.00     0.031 C 
ATOM     65  C   UNL A   1      48.208  27.104  26.926  1.00  0.00     0.037 A 
BRANCH  52  66
ATOM     66  C   UNL A   1      46.095  32.740  28.364  1.00  0.00     0.058 A 
ATOM     67  C   UNL A   1      46.025  33.661  27.306  1.00  0.00     0.135 A 
ATOM     68  C   UNL A   1      46.420  33.234  29.638  1.00  0.00     0.135 A 
ATOM     69  F   UNL A   1      45.739  33.243  26.062  1.00  0.00    -0.206 F 
ATOM     70  C   UNL A   1      46.290  35.013  27.497  1.00  0.00     0.059 A 
ATOM     71  C   UNL A   1      46.658  34.588  29.859  1.00  0.00     0.059 A 
ATOM     72  F   UNL A   1      46.506  32.399  30.685  1.00  0.00    -0.206 F 
ATOM     73  C   UNL A   1      46.601  35.468  28.779  1.00  0.00     0.060 A 
BRANCH  73  74
ATOM     74  S   UNL A   1      46.920  37.230  29.013  1.00  0.00     0.124 S 
ATOM     75  O   UNL A   1      48.126  37.201  29.835  1.00  0.00    -0.237 OA
ATOM     76  O   UNL A   1      47.100  37.698  27.642  1.00  0.00    -0.237 OA
ATOM     77  O   UNL A   1      45.715  37.708  29.684  1.00  0.00    -0.744 OA
ENDBRANCH  73  74
ENDBRANCH  52  66
BRANCH  53  78
ATOM     78  C   UNL A   1      43.615  23.144  26.867  1.00  0.00     0.058 A 
ATOM     79  C   UNL A   1      43.592  22.623  25.564  1.00  0.00     0.135 A 
ATOM     80  C   UNL A   1      43.292  22.276  27.921  1.00  0.00     0.135 A 
ATOM     81  F   UNL A   1      43.891  23.412  24.521  1.00  0.00    -0.206 F 
ATOM     82  C   UNL A   1      43.238  21.301  25.313  1.00  0.00     0.059 A 
ATOM     83  C   UNL A   1      42.963  20.943  27.698  1.00  0.00     0.059 A 
ATOM     84  F   UNL A   1      43.320  22.717  29.189  1.00  0.00    -0.206 F 
ATOM     85  C   UNL A   1      42.926  20.468  26.388  1.00  0.00     0.060 A 
BRANCH  85  86
ATOM     86  S   UNL A   1      42.504  18.744  26.055  1.00  0.00     0.124 S 
ATOM     87  O   UNL A   1      41.096  18.851  25.691  1.00  0.00    -0.237 OA
ATOM     88  O   UNL A   1      43.422  18.408  24.971  1.00  0.00    -0.237 OA
ATOM     89  O   UNL A   1      42.779  18.080  27.327  1.00  0.00    -0.744 OA
ENDBRANCH  85  86
ENDBRANCH  53  78
BRANCH  65  90
ATOM     90  C   UNL A   1      49.617  26.678  26.624  1.00  0.00     0.058 A 
ATOM     91  C   UNL A   1      50.515  26.324  27.645  1.00  0.00     0.135 A 
ATOM     92  C   UNL A   1      50.071  26.606  25.297  1.00  0.00     0.135 A 
ATOM     93  F   UNL A   1      50.131  26.379  28.931  1.00  0.00    -0.206 F 
ATOM     94  C   UNL A   1      51.826  25.958  27.363  1.00  0.00     0.059 A 
ATOM     95  C   UNL A   1      51.368  26.211  24.990  1.00  0.00     0.059 A 
ATOM     96  F   UNL A   1      49.248  26.918  24.282  1.00  0.00    -0.206 F 
ATOM     97  C   UNL A   1      52.244  25.908  26.031  1.00  0.00     0.060 A 
BRANCH  97  98
ATOM     98  S   UNL A   1      53.949  25.433  25.680  1.00  0.00     0.124 S 
ATOM     99  O   UNL A   1      54.550  26.720  25.351  1.00  0.00    -0.237 OA
ATOM    100  O   UNL A   1      54.375  24.838  26.943  1.00  0.00    -0.237 OA
ATOM    101  O   UNL A   1      53.817  24.498  24.566  1.00  0.00    -0.744 OA
ENDBRANCH  97  98
ENDBRANCH  65  90
ENDBRANCH  39  40
ENDBRANCH  31  34
ENDBRANCH  29  30
ENDBRANCH  28  29
ENDBRANCH   1  28
TORSDOF 18
ENDMDL
