MODEL 1
REMARK VINA RESULT:     -11.1      0.000      0.000
REMARK SMILES O=C(NCCCNC(=O)c1[nH]ncc1C[N@H+]1CCC[C@@H](C(=O)c2ccc(Oc3ccccc3)cc2)C1)c1ccc(-c2c3nc(c(-c4c(F)cc(S(=O)(=O)[O-])cc4F)c4ccc([nH]4)c(-c4c(F)cc(S(=O)(=O)[O-])cc4F)c4nc(c(-c5c(F)cc(S(=O)(=O)[O-])cc5F)c5ccc2[nH]5)C=C4)C=C3)cc1
REMARK SMILES IDX 7 1 8 2 9 3 6 5 5 6 4 7 3 8 1 9 2 10 37 12 38 13 102 14
REMARK SMILES IDX 39 15 101 16 40 17 41 18 42 19 95 20 43 21 100 22 94 23
REMARK SMILES IDX 96 24 44 25 99 26 93 27 92 28 45 30 79 31 58 32 78 33 59 34
REMARK SMILES IDX 62 35 77 36 97 37 60 38 61 39 76 41 98 42 63 43 46 44 47 45
REMARK SMILES IDX 56 46 48 47 49 48 55 49 57 50 50 51 51 52 52 53 53 54 54 55
REMARK SMILES IDX 80 56 81 57 90 58 82 59 83 60 89 61 91 62 84 63 85 64 86 65
REMARK SMILES IDX 87 66 88 67 64 68 65 69 74 70 66 71 67 72 73 73 75 74 68 75
REMARK SMILES IDX 69 76 70 77 71 78 72 79 10 80 11 81 14 82 12 83 13 85 15 86
REMARK SMILES IDX 16 87 17 88 36 89 18 91 20 92 19 93 21 94 22 95 23 96 24 97
REMARK SMILES IDX 35 98 25 99 34 100 26 101 27 102 28 103 29 104 33 105 30 106
REMARK SMILES IDX 32 107 31 108
REMARK H PARENT 7 4 3 11 96 29 62 40 11 84 16 90
REMARK Flexibility Score: inf
ROOT
ATOM      1  N   UNL A   1      35.606  32.446  27.889  1.00  0.00    -0.351 N 
ATOM      2  C   UNL A   1      35.940  33.637  28.480  1.00  0.00     0.269 C 
ATOM      3  O   UNL A   1      37.091  34.052  28.379  1.00  0.00    -0.268 OA
ATOM      4  H   UNL A   1      36.364  31.907  27.566  1.00  0.00     0.163 HD
ENDROOT
BRANCH   1   5
ATOM      5  C   UNL A   1      34.287  31.865  27.674  1.00  0.00     0.118 C 
BRANCH   5   6
ATOM      6  C   UNL A   1      34.329  30.380  27.389  1.00  0.00     0.042 C 
BRANCH   6   7
ATOM      7  C   UNL A   1      35.395  29.658  28.187  1.00  0.00     0.118 C 
BRANCH   7   8
ATOM      8  N   UNL A   1      35.376  30.009  29.604  1.00  0.00    -0.352 N 
ATOM      9  O   UNL A   1      36.102  30.120  31.733  1.00  0.00    -0.269 OA
ATOM     10  C   UNL A   1      36.377  29.965  30.546  1.00  0.00     0.251 C 
ATOM     11  H   UNL A   1      34.506  30.327  29.939  1.00  0.00     0.163 HD
BRANCH  10  12
ATOM     12  C   UNL A   1      37.769  29.704  30.127  1.00  0.00     0.039 A 
ATOM     13  C   UNL A   1      38.220  30.150  28.887  1.00  0.00     0.014 A 
ATOM     14  C   UNL A   1      38.633  29.001  30.972  1.00  0.00     0.014 A 
ATOM     15  C   UNL A   1      39.437  29.708  28.399  1.00  0.00     0.010 A 
ATOM     16  C   UNL A   1      39.923  28.686  30.535  1.00  0.00     0.010 A 
ATOM     17  C   UNL A   1      40.322  29.006  29.229  1.00  0.00    -0.014 A 
BRANCH  17  18
ATOM     18  C   UNL A   1      41.685  28.714  28.719  1.00  0.00     0.031 A 
ATOM     19  C   UNL A   1      42.760  29.764  28.701  1.00  0.00     0.074 A 
ATOM     20  C   UNL A   1      41.951  27.454  28.317  1.00  0.00     0.049 A 
ATOM     21  N   UNL A   1      44.002  29.654  28.308  1.00  0.00    -0.248 NA
ATOM     22  C   UNL A   1      42.398  31.108  29.174  1.00  0.00     0.031 C 
ATOM     23  C   UNL A   1      40.976  26.358  28.283  1.00  0.00     0.029 A 
ATOM     24  N   UNL A   1      43.114  26.868  27.890  1.00  0.00    -0.354 N 
ATOM     25  C   UNL A   1      44.565  30.917  28.459  1.00  0.00     0.074 A 
ATOM     26  C   UNL A   1      43.521  31.783  28.963  1.00  0.00     0.031 C 
ATOM     27  C   UNL A   1      41.593  25.224  27.927  1.00  0.00     0.029 A 
ATOM     28  C   UNL A   1      42.984  25.528  27.618  1.00  0.00     0.049 A 
ATOM     29  H   UNL A   1      43.961  27.361  27.788  1.00  0.00     0.167 HD
ATOM     30  C   UNL A   1      45.837  31.308  28.204  1.00  0.00     0.037 A 
ATOM     31  C   UNL A   1      43.875  24.639  27.145  1.00  0.00     0.037 A 
ATOM     32  C   UNL A   1      46.869  30.425  27.719  1.00  0.00     0.049 A 
ATOM     33  C   UNL A   1      45.270  25.105  26.854  1.00  0.00     0.074 A 
ATOM     34  C   UNL A   1      48.196  30.717  27.455  1.00  0.00     0.029 A 
ATOM     35  N   UNL A   1      46.690  29.081  27.420  1.00  0.00    -0.354 N 
ATOM     36  N   UNL A   1      45.786  26.300  27.020  1.00  0.00    -0.248 NA
ATOM     37  C   UNL A   1      46.198  24.113  26.304  1.00  0.00     0.031 C 
ATOM     38  C   UNL A   1      48.808  29.561  26.955  1.00  0.00     0.029 A 
ATOM     39  C   UNL A   1      47.876  28.536  26.955  1.00  0.00     0.049 A 
ATOM     40  H   UNL A   1      45.845  28.588  27.524  1.00  0.00     0.167 HD
ATOM     41  C   UNL A   1      47.106  26.200  26.604  1.00  0.00     0.074 A 
ATOM     42  C   UNL A   1      47.314  24.823  26.201  1.00  0.00     0.031 C 
ATOM     43  C   UNL A   1      48.060  27.162  26.555  1.00  0.00     0.037 A 
BRANCH  30  44
ATOM     44  C   UNL A   1      46.186  32.756  28.422  1.00  0.00     0.058 A 
ATOM     45  C   UNL A   1      46.072  33.709  27.398  1.00  0.00     0.135 A 
ATOM     46  C   UNL A   1      46.594  33.206  29.690  1.00  0.00     0.135 A 
ATOM     47  F   UNL A   1      45.702  33.335  26.164  1.00  0.00    -0.206 F 
ATOM     48  C   UNL A   1      46.368  35.052  27.616  1.00  0.00     0.059 A 
ATOM     49  C   UNL A   1      46.872  34.548  29.937  1.00  0.00     0.059 A 
ATOM     50  F   UNL A   1      46.721  32.337  30.706  1.00  0.00    -0.206 F 
ATOM     51  C   UNL A   1      46.768  35.462  28.891  1.00  0.00     0.060 A 
BRANCH  51  52
ATOM     52  S   UNL A   1      47.144  37.208  29.158  1.00  0.00     0.124 S 
ATOM     53  O   UNL A   1      46.072  37.853  28.407  1.00  0.00    -0.237 OA
ATOM     54  O   UNL A   1      47.061  37.326  30.610  1.00  0.00    -0.237 OA
ATOM     55  O   UNL A   1      48.482  37.358  28.595  1.00  0.00    -0.744 OA
ENDBRANCH  51  52
ENDBRANCH  30  44
BRANCH  31  56
ATOM     56  C   UNL A   1      43.456  23.234  26.901  1.00  0.00     0.058 A 
ATOM     57  C   UNL A   1      43.208  22.766  25.603  1.00  0.00     0.135 A 
ATOM     58  C   UNL A   1      43.338  22.320  27.961  1.00  0.00     0.135 A 
ATOM     59  F   UNL A   1      43.308  23.602  24.558  1.00  0.00    -0.206 F 
ATOM     60  C   UNL A   1      42.843  21.446  25.364  1.00  0.00     0.059 A 
ATOM     61  C   UNL A   1      43.005  20.988  27.744  1.00  0.00     0.059 A 
ATOM     62  F   UNL A   1      43.587  22.713  29.220  1.00  0.00    -0.206 F 
ATOM     63  C   UNL A   1      42.747  20.563  26.442  1.00  0.00     0.060 A 
BRANCH  63  64
ATOM     64  S   UNL A   1      42.324  18.839  26.118  1.00  0.00     0.124 S 
ATOM     65  O   UNL A   1      42.616  18.221  27.406  1.00  0.00    -0.237 OA
ATOM     66  O   UNL A   1      40.913  18.931  25.757  1.00  0.00    -0.237 OA
ATOM     67  O   UNL A   1      43.219  18.475  25.024  1.00  0.00    -0.744 OA
ENDBRANCH  63  64
ENDBRANCH  31  56
BRANCH  43  68
ATOM     68  C   UNL A   1      49.419  26.747  26.071  1.00  0.00     0.058 A 
ATOM     69  C   UNL A   1      49.833  26.979  24.750  1.00  0.00     0.135 A 
ATOM     70  C   UNL A   1      50.330  26.135  26.947  1.00  0.00     0.135 A 
ATOM     71  F   UNL A   1      48.995  27.551  23.869  1.00  0.00    -0.206 F 
ATOM     72  C   UNL A   1      51.093  26.596  24.306  1.00  0.00     0.059 A 
ATOM     73  C   UNL A   1      51.605  25.769  26.533  1.00  0.00     0.059 A 
ATOM     74  F   UNL A   1      49.985  25.898  28.223  1.00  0.00    -0.206 F 
ATOM     75  C   UNL A   1      51.973  25.992  25.207  1.00  0.00     0.060 A 
BRANCH  75  76
ATOM     76  S   UNL A   1      53.616  25.522  24.626  1.00  0.00     0.124 S 
ATOM     77  O   UNL A   1      54.461  26.486  25.322  1.00  0.00    -0.237 OA
ATOM     78  O   UNL A   1      53.725  24.139  25.080  1.00  0.00    -0.237 OA
ATOM     79  O   UNL A   1      53.527  25.695  23.179  1.00  0.00    -0.744 OA
ENDBRANCH  75  76
ENDBRANCH  43  68
ENDBRANCH  17  18
ENDBRANCH  10  12
ENDBRANCH   7   8
ENDBRANCH   6   7
ENDBRANCH   5   6
ENDBRANCH   1   5
BRANCH   2  80
ATOM     80  C   UNL A   1      34.906  34.381  29.132  1.00  0.00     0.131 A 
ATOM     81  N   UNL A   1      34.205  35.358  28.481  1.00  0.00    -0.272 N 
ATOM     82  C   UNL A   1      34.392  34.338  30.421  1.00  0.00     0.057 A 
ATOM     83  N   UNL A   1      33.134  35.791  29.164  1.00  0.00    -0.183 NA
ATOM     84  H   UNL A   1      34.460  35.708  27.597  1.00  0.00     0.190 HD
ATOM     85  C   UNL A   1      33.227  35.138  30.322  1.00  0.00     0.145 A 
BRANCH  82  86
ATOM     86  C   UNL A   1      34.870  33.524  31.592  1.00  0.00     0.303 C 
BRANCH  86  87
ATOM     87  N   UNL A   1      36.095  34.015  32.236  1.00  0.00    -0.330 N 
ATOM     88  C   UNL A   1      36.053  33.926  33.701  1.00  0.00     0.262 C 
ATOM     89  C   UNL A   1      37.295  33.391  31.688  1.00  0.00     0.274 C 
ATOM     90  H   UNL A   1      36.145  35.009  32.015  1.00  0.00     0.348 HD
ATOM     91  C   UNL A   1      37.306  34.560  34.315  1.00  0.00     0.062 C 
ATOM     92  C   UNL A   1      38.586  33.997  32.221  1.00  0.00     0.116 C 
ATOM     93  C   UNL A   1      38.592  33.948  33.752  1.00  0.00     0.023 C 
BRANCH  92  94
ATOM     94  C   UNL A   1      39.840  33.346  31.622  1.00  0.00     0.171 C 
ATOM     95  O   UNL A   1      40.072  32.146  31.766  1.00  0.00    -0.294 OA
BRANCH  94  96
ATOM     96  C   UNL A   1      40.751  34.123  30.737  1.00  0.00     0.018 A 
ATOM     97  C   UNL A   1      40.264  34.565  29.506  1.00  0.00     0.015 A 
ATOM     98  C   UNL A   1      42.072  34.405  31.084  1.00  0.00     0.015 A 
ATOM     99  C   UNL A   1      41.078  35.336  28.669  1.00  0.00     0.048 A 
ATOM    100  C   UNL A   1      42.859  35.237  30.286  1.00  0.00     0.048 A 
ATOM    101  C   UNL A   1      42.375  35.692  29.060  1.00  0.00     0.127 A 
BRANCH 101 102
ATOM    102  O   UNL A   1      43.060  36.484  28.162  1.00  0.00    -0.457 OA
BRANCH 102 103
ATOM    103  C   UNL A   1      42.617  37.758  27.900  1.00  0.00     0.127 A 
ATOM    104  C   UNL A   1      42.738  38.700  28.924  1.00  0.00     0.047 A 
ATOM    105  C   UNL A   1      41.982  38.102  26.705  1.00  0.00     0.047 A 
ATOM    106  C   UNL A   1      42.280  40.003  28.728  1.00  0.00     0.004 A 
ATOM    107  C   UNL A   1      41.548  39.413  26.501  1.00  0.00     0.004 A 
ATOM    108  C   UNL A   1      41.699  40.363  27.512  1.00  0.00     0.000 A 
ENDBRANCH 102 103
ENDBRANCH 101 102
ENDBRANCH  94  96
ENDBRANCH  92  94
ENDBRANCH  86  87
ENDBRANCH  82  86
ENDBRANCH   2  80
TORSDOF 19
ENDMDL
MODEL 2
REMARK VINA RESULT:     -11.1      4.033      8.475
REMARK SMILES O=C(NCCCNC(=O)c1[nH]ncc1C[N@H+]1CCC[C@@H](C(=O)c2ccc(Oc3ccccc3)cc2)C1)c1ccc(-c2c3nc(c(-c4c(F)cc(S(=O)(=O)[O-])cc4F)c4ccc([nH]4)c(-c4c(F)cc(S(=O)(=O)[O-])cc4F)c4nc(c(-c5c(F)cc(S(=O)(=O)[O-])cc5F)c5ccc2[nH]5)C=C4)C=C3)cc1
REMARK SMILES IDX 7 1 8 2 9 3 6 5 5 6 4 7 3 8 1 9 2 10 37 12 38 13 102 14
REMARK SMILES IDX 39 15 101 16 40 17 41 18 42 19 95 20 43 21 100 22 94 23
REMARK SMILES IDX 96 24 44 25 99 26 93 27 92 28 45 30 79 31 58 32 78 33 59 34
REMARK SMILES IDX 62 35 77 36 97 37 60 38 61 39 76 41 98 42 63 43 46 44 47 45
REMARK SMILES IDX 56 46 48 47 49 48 55 49 57 50 50 51 51 52 52 53 53 54 54 55
REMARK SMILES IDX 80 56 81 57 90 58 82 59 83 60 89 61 91 62 84 63 85 64 86 65
REMARK SMILES IDX 87 66 88 67 64 68 65 69 74 70 66 71 67 72 73 73 75 74 68 75
REMARK SMILES IDX 69 76 70 77 71 78 72 79 10 80 11 81 14 82 12 83 13 85 15 86
REMARK SMILES IDX 16 87 17 88 36 89 18 91 20 92 19 93 21 94 22 95 23 96 24 97
REMARK SMILES IDX 35 98 25 99 34 100 26 101 27 102 28 103 29 104 33 105 30 106
REMARK SMILES IDX 32 107 31 108
REMARK H PARENT 7 4 3 11 96 29 62 40 11 84 16 90
REMARK Flexibility Score: inf
ROOT
ATOM      1  N   UNL A   1      35.617  31.329  27.647  1.00  0.00    -0.351 N 
ATOM      2  C   UNL A   1      34.991  30.150  27.333  1.00  0.00     0.269 C 
ATOM      3  O   UNL A   1      35.573  29.089  27.543  1.00  0.00    -0.268 OA
ATOM      4  H   UNL A   1      36.575  31.254  27.863  1.00  0.00     0.163 HD
ENDROOT
BRANCH   1   5
ATOM      5  C   UNL A   1      35.063  32.676  27.707  1.00  0.00     0.118 C 
BRANCH   5   6
ATOM      6  C   UNL A   1      35.316  33.367  29.028  1.00  0.00     0.042 C 
BRANCH   6   7
ATOM      7  C   UNL A   1      36.500  32.789  29.776  1.00  0.00     0.118 C 
BRANCH   7   8
ATOM      8  N   UNL A   1      36.115  31.763  30.740  1.00  0.00    -0.352 N 
ATOM      9  O   UNL A   1      36.147  29.768  31.783  1.00  0.00    -0.269 OA
ATOM     10  C   UNL A   1      36.739  30.587  31.087  1.00  0.00     0.251 C 
ATOM     11  H   UNL A   1      35.273  31.941  31.218  1.00  0.00     0.163 HD
BRANCH  10  12
ATOM     12  C   UNL A   1      38.103  30.307  30.596  1.00  0.00     0.039 A 
ATOM     13  C   UNL A   1      38.360  30.275  29.227  1.00  0.00     0.014 A 
ATOM     14  C   UNL A   1      39.137  30.067  31.505  1.00  0.00     0.014 A 
ATOM     15  C   UNL A   1      39.570  29.787  28.766  1.00  0.00     0.010 A 
ATOM     16  C   UNL A   1      40.407  29.721  31.033  1.00  0.00     0.010 A 
ATOM     17  C   UNL A   1      40.623  29.542  29.658  1.00  0.00    -0.014 A 
BRANCH  17  18
ATOM     18  C   UNL A   1      41.954  29.196  29.100  1.00  0.00     0.031 A 
ATOM     19  C   UNL A   1      43.080  30.191  29.077  1.00  0.00     0.074 A 
ATOM     20  C   UNL A   1      42.143  27.936  28.656  1.00  0.00     0.049 A 
ATOM     21  N   UNL A   1      44.304  30.030  28.644  1.00  0.00    -0.248 NA
ATOM     22  C   UNL A   1      42.802  31.538  29.595  1.00  0.00     0.031 C 
ATOM     23  C   UNL A   1      41.112  26.892  28.623  1.00  0.00     0.029 A 
ATOM     24  N   UNL A   1      43.262  27.305  28.180  1.00  0.00    -0.354 N 
ATOM     25  C   UNL A   1      44.935  31.257  28.811  1.00  0.00     0.074 A 
ATOM     26  C   UNL A   1      43.952  32.161  29.369  1.00  0.00     0.031 C 
ATOM     27  C   UNL A   1      41.660  25.739  28.219  1.00  0.00     0.029 A 
ATOM     28  C   UNL A   1      43.055  25.980  27.877  1.00  0.00     0.049 A 
ATOM     29  H   UNL A   1      44.129  27.757  28.065  1.00  0.00     0.167 HD
ATOM     30  C   UNL A   1      46.217  31.591  28.528  1.00  0.00     0.037 A 
ATOM     31  C   UNL A   1      43.885  25.061  27.354  1.00  0.00     0.037 A 
ATOM     32  C   UNL A   1      47.188  30.670  27.989  1.00  0.00     0.049 A 
ATOM     33  C   UNL A   1      45.293  25.465  27.033  1.00  0.00     0.074 A 
ATOM     34  C   UNL A   1      48.520  30.902  27.693  1.00  0.00     0.029 A 
ATOM     35  N   UNL A   1      46.932  29.346  27.660  1.00  0.00    -0.354 N 
ATOM     36  N   UNL A   1      45.875  26.626  27.215  1.00  0.00    -0.248 NA
ATOM     37  C   UNL A   1      46.153  24.442  26.429  1.00  0.00     0.031 C 
ATOM     38  C   UNL A   1      49.057  29.731  27.144  1.00  0.00     0.029 A 
ATOM     39  C   UNL A   1      48.075  28.755  27.145  1.00  0.00     0.049 A 
ATOM     40  H   UNL A   1      46.065  28.894  27.777  1.00  0.00     0.167 HD
ATOM     41  C   UNL A   1      47.176  26.471  26.757  1.00  0.00     0.074 A 
ATOM     42  C   UNL A   1      47.301  25.097  26.311  1.00  0.00     0.031 C 
ATOM     43  C   UNL A   1      48.176  27.385  26.704  1.00  0.00     0.037 A 
BRANCH  30  44
ATOM     44  C   UNL A   1      46.646  33.013  28.773  1.00  0.00     0.058 A 
ATOM     45  C   UNL A   1      47.210  33.418  29.992  1.00  0.00     0.135 A 
ATOM     46  C   UNL A   1      46.536  33.974  27.753  1.00  0.00     0.135 A 
ATOM     47  F   UNL A   1      47.326  32.547  31.007  1.00  0.00    -0.206 F 
ATOM     48  C   UNL A   1      47.632  34.729  30.200  1.00  0.00     0.059 A 
ATOM     49  C   UNL A   1      46.973  35.284  27.930  1.00  0.00     0.059 A 
ATOM     50  F   UNL A   1      46.002  33.641  26.567  1.00  0.00    -0.206 F 
ATOM     51  C   UNL A   1      47.508  35.656  29.162  1.00  0.00     0.060 A 
BRANCH  51  52
ATOM     52  S   UNL A   1      48.064  37.350  29.447  1.00  0.00     0.124 S 
ATOM     53  O   UNL A   1      48.467  37.292  30.848  1.00  0.00    -0.237 OA
ATOM     54  O   UNL A   1      49.150  37.489  28.481  1.00  0.00    -0.237 OA
ATOM     55  O   UNL A   1      46.875  38.149  29.168  1.00  0.00    -0.744 OA
ENDBRANCH  51  52
ENDBRANCH  30  44
BRANCH  31  56
ATOM     56  C   UNL A   1      43.388  23.686  27.086  1.00  0.00     0.058 A 
ATOM     57  C   UNL A   1      43.062  23.274  25.787  1.00  0.00     0.135 A 
ATOM     58  C   UNL A   1      43.270  22.745  28.121  1.00  0.00     0.135 A 
ATOM     59  F   UNL A   1      43.159  24.137  24.764  1.00  0.00    -0.206 F 
ATOM     60  C   UNL A   1      42.623  21.981  25.523  1.00  0.00     0.059 A 
ATOM     61  C   UNL A   1      42.863  21.439  27.879  1.00  0.00     0.059 A 
ATOM     62  F   UNL A   1      43.592  23.084  29.379  1.00  0.00    -0.206 F 
ATOM     63  C   UNL A   1      42.530  21.069  26.577  1.00  0.00     0.060 A 
BRANCH  63  64
ATOM     64  S   UNL A   1      42.009  19.378  26.219  1.00  0.00     0.124 S 
ATOM     65  O   UNL A   1      40.564  19.538  26.104  1.00  0.00    -0.237 OA
ATOM     66  O   UNL A   1      42.723  19.093  24.979  1.00  0.00    -0.237 OA
ATOM     67  O   UNL A   1      42.472  18.632  27.385  1.00  0.00    -0.744 OA
ENDBRANCH  63  64
ENDBRANCH  31  56
BRANCH  43  68
ATOM     68  C   UNL A   1      49.497  26.915  26.168  1.00  0.00     0.058 A 
ATOM     69  C   UNL A   1      49.826  27.039  24.809  1.00  0.00     0.135 A 
ATOM     70  C   UNL A   1      50.458  26.361  27.030  1.00  0.00     0.135 A 
ATOM     71  F   UNL A   1      48.938  27.552  23.942  1.00  0.00    -0.206 F 
ATOM     72  C   UNL A   1      51.052  26.606  24.318  1.00  0.00     0.059 A 
ATOM     73  C   UNL A   1      51.701  25.947  26.565  1.00  0.00     0.059 A 
ATOM     74  F   UNL A   1      50.194  26.228  28.340  1.00  0.00    -0.206 F 
ATOM     75  C   UNL A   1      51.984  26.061  25.205  1.00  0.00     0.060 A 
BRANCH  75  76
ATOM     76  S   UNL A   1      53.582  25.526  24.559  1.00  0.00     0.124 S 
ATOM     77  O   UNL A   1      53.555  26.080  23.211  1.00  0.00    -0.237 OA
ATOM     78  O   UNL A   1      54.520  26.153  25.485  1.00  0.00    -0.237 OA
ATOM     79  O   UNL A   1      53.510  24.069  24.641  1.00  0.00    -0.744 OA
ENDBRANCH  75  76
ENDBRANCH  43  68
ENDBRANCH  17  18
ENDBRANCH  10  12
ENDBRANCH   7   8
ENDBRANCH   6   7
ENDBRANCH   5   6
ENDBRANCH   1   5
BRANCH   2  80
ATOM     80  C   UNL A   1      33.652  30.209  26.834  1.00  0.00     0.131 A 
ATOM     81  N   UNL A   1      32.672  30.903  27.489  1.00  0.00    -0.272 N 
ATOM     82  C   UNL A   1      33.045  29.660  25.712  1.00  0.00     0.057 A 
ATOM     83  N   UNL A   1      31.545  31.039  26.773  1.00  0.00    -0.183 NA
ATOM     84  H   UNL A   1      32.783  31.268  28.396  1.00  0.00     0.190 HD
ATOM     85  C   UNL A   1      31.791  30.320  25.678  1.00  0.00     0.145 A 
BRANCH  82  86
ATOM     86  C   UNL A   1      33.629  28.712  24.702  1.00  0.00     0.303 C 
BRANCH  86  87
ATOM     87  N   UNL A   1      32.653  27.874  23.993  1.00  0.00    -0.330 N 
ATOM     88  C   UNL A   1      31.834  28.627  23.036  1.00  0.00     0.262 C 
ATOM     89  C   UNL A   1      33.273  26.705  23.377  1.00  0.00     0.274 C 
ATOM     90  H   UNL A   1      32.011  27.533  24.707  1.00  0.00     0.348 HD
ATOM     91  C   UNL A   1      30.761  27.724  22.419  1.00  0.00     0.062 C 
ATOM     92  C   UNL A   1      32.265  25.736  22.775  1.00  0.00     0.116 C 
ATOM     93  C   UNL A   1      31.365  26.472  21.777  1.00  0.00     0.023 C 
BRANCH  92  94
ATOM     94  C   UNL A   1      32.927  24.501  22.149  1.00  0.00     0.171 C 
ATOM     95  O   UNL A   1      33.364  24.522  20.998  1.00  0.00    -0.294 OA
BRANCH  94  96
ATOM     96  C   UNL A   1      33.178  23.279  22.960  1.00  0.00     0.018 A 
ATOM     97  C   UNL A   1      34.480  23.022  23.389  1.00  0.00     0.015 A 
ATOM     98  C   UNL A   1      32.166  22.376  23.286  1.00  0.00     0.015 A 
ATOM     99  C   UNL A   1      34.744  21.907  24.192  1.00  0.00     0.048 A 
ATOM    100  C   UNL A   1      32.413  21.306  24.149  1.00  0.00     0.048 A 
ATOM    101  C   UNL A   1      33.710  21.050  24.591  1.00  0.00     0.127 A 
BRANCH 101 102
ATOM    102  O   UNL A   1      34.095  20.010  25.410  1.00  0.00    -0.457 OA
BRANCH 102 103
ATOM    103  C   UNL A   1      33.809  18.715  25.048  1.00  0.00     0.127 A 
ATOM    104  C   UNL A   1      32.722  18.102  25.674  1.00  0.00     0.047 A 
ATOM    105  C   UNL A   1      34.611  17.986  24.167  1.00  0.00     0.047 A 
ATOM    106  C   UNL A   1      32.399  16.780  25.371  1.00  0.00     0.004 A 
ATOM    107  C   UNL A   1      34.271  16.671  23.845  1.00  0.00     0.004 A 
ATOM    108  C   UNL A   1      33.164  16.069  24.446  1.00  0.00     0.000 A 
ENDBRANCH 102 103
ENDBRANCH 101 102
ENDBRANCH  94  96
ENDBRANCH  92  94
ENDBRANCH  86  87
ENDBRANCH  82  86
ENDBRANCH   2  80
TORSDOF 19
ENDMDL
MODEL 3
REMARK VINA RESULT:     -11.0      3.971      8.469
REMARK SMILES O=C(NCCCNC(=O)c1[nH]ncc1C[N@H+]1CCC[C@@H](C(=O)c2ccc(Oc3ccccc3)cc2)C1)c1ccc(-c2c3nc(c(-c4c(F)cc(S(=O)(=O)[O-])cc4F)c4ccc([nH]4)c(-c4c(F)cc(S(=O)(=O)[O-])cc4F)c4nc(c(-c5c(F)cc(S(=O)(=O)[O-])cc5F)c5ccc2[nH]5)C=C4)C=C3)cc1
REMARK SMILES IDX 7 1 8 2 9 3 6 5 5 6 4 7 3 8 1 9 2 10 37 12 38 13 102 14
REMARK SMILES IDX 39 15 101 16 40 17 41 18 42 19 95 20 43 21 100 22 94 23
REMARK SMILES IDX 96 24 44 25 99 26 93 27 92 28 45 30 79 31 58 32 78 33 59 34
REMARK SMILES IDX 62 35 77 36 97 37 60 38 61 39 76 41 98 42 63 43 46 44 47 45
REMARK SMILES IDX 56 46 48 47 49 48 55 49 57 50 50 51 51 52 52 53 53 54 54 55
REMARK SMILES IDX 80 56 81 57 90 58 82 59 83 60 89 61 91 62 84 63 85 64 86 65
REMARK SMILES IDX 87 66 88 67 64 68 65 69 74 70 66 71 67 72 73 73 75 74 68 75
REMARK SMILES IDX 69 76 70 77 71 78 72 79 10 80 11 81 14 82 12 83 13 85 15 86
REMARK SMILES IDX 16 87 17 88 36 89 18 91 20 92 19 93 21 94 22 95 23 96 24 97
REMARK SMILES IDX 35 98 25 99 34 100 26 101 27 102 28 103 29 104 33 105 30 106
REMARK SMILES IDX 32 107 31 108
REMARK H PARENT 7 4 3 11 96 29 62 40 11 84 16 90
REMARK Flexibility Score: inf
ROOT
ATOM      1  N   UNL A   1      35.757  31.442  27.731  1.00  0.00    -0.351 N 
ATOM      2  C   UNL A   1      35.041  30.303  27.468  1.00  0.00     0.269 C 
ATOM      3  O   UNL A   1      35.561  29.209  27.670  1.00  0.00    -0.268 OA
ATOM      4  H   UNL A   1      36.717  31.307  27.902  1.00  0.00     0.163 HD
ENDROOT
BRANCH   1   5
ATOM      5  C   UNL A   1      35.297  32.824  27.793  1.00  0.00     0.118 C 
BRANCH   5   6
ATOM      6  C   UNL A   1      35.444  33.441  29.165  1.00  0.00     0.042 C 
BRANCH   6   7
ATOM      7  C   UNL A   1      36.616  32.875  29.942  1.00  0.00     0.118 C 
BRANCH   7   8
ATOM      8  N   UNL A   1      36.223  31.817  30.868  1.00  0.00    -0.352 N 
ATOM      9  O   UNL A   1      36.239  29.785  31.837  1.00  0.00    -0.269 OA
ATOM     10  C   UNL A   1      36.836  30.624  31.170  1.00  0.00     0.251 C 
ATOM     11  H   UNL A   1      35.383  31.986  31.355  1.00  0.00     0.163 HD
BRANCH  10  12
ATOM     12  C   UNL A   1      38.197  30.350  30.666  1.00  0.00     0.039 A 
ATOM     13  C   UNL A   1      38.463  30.421  29.300  1.00  0.00     0.014 A 
ATOM     14  C   UNL A   1      39.218  30.011  31.558  1.00  0.00     0.014 A 
ATOM     15  C   UNL A   1      39.664  29.940  28.808  1.00  0.00     0.010 A 
ATOM     16  C   UNL A   1      40.483  29.672  31.067  1.00  0.00     0.010 A 
ATOM     17  C   UNL A   1      40.704  29.598  29.684  1.00  0.00    -0.014 A 
BRANCH  17  18
ATOM     18  C   UNL A   1      42.030  29.264  29.107  1.00  0.00     0.031 A 
ATOM     19  C   UNL A   1      43.143  30.273  29.056  1.00  0.00     0.074 A 
ATOM     20  C   UNL A   1      42.229  28.003  28.672  1.00  0.00     0.049 A 
ATOM     21  N   UNL A   1      44.361  30.124  28.604  1.00  0.00    -0.248 NA
ATOM     22  C   UNL A   1      42.855  31.622  29.566  1.00  0.00     0.031 C 
ATOM     23  C   UNL A   1      41.212  26.945  28.666  1.00  0.00     0.029 A 
ATOM     24  N   UNL A   1      43.348  27.382  28.183  1.00  0.00    -0.354 N 
ATOM     25  C   UNL A   1      44.978  31.361  28.749  1.00  0.00     0.074 A 
ATOM     26  C   UNL A   1      43.993  32.257  29.315  1.00  0.00     0.031 C 
ATOM     27  C   UNL A   1      41.768  25.796  28.264  1.00  0.00     0.029 A 
ATOM     28  C   UNL A   1      43.154  26.052  27.896  1.00  0.00     0.049 A 
ATOM     29  H   UNL A   1      44.207  27.844  28.050  1.00  0.00     0.167 HD
ATOM     30  C   UNL A   1      46.251  31.709  28.442  1.00  0.00     0.037 A 
ATOM     31  C   UNL A   1      43.988  25.138  27.369  1.00  0.00     0.037 A 
ATOM     32  C   UNL A   1      47.226  30.796  27.895  1.00  0.00     0.049 A 
ATOM     33  C   UNL A   1      45.385  25.557  27.021  1.00  0.00     0.074 A 
ATOM     34  C   UNL A   1      48.550  31.043  27.575  1.00  0.00     0.029 A 
ATOM     35  N   UNL A   1      46.982  29.466  27.584  1.00  0.00    -0.354 N 
ATOM     36  N   UNL A   1      45.954  26.728  27.182  1.00  0.00    -0.248 NA
ATOM     37  C   UNL A   1      46.248  24.540  26.412  1.00  0.00     0.031 C 
ATOM     38  C   UNL A   1      49.092  29.874  27.029  1.00  0.00     0.029 A 
ATOM     39  C   UNL A   1      48.123  28.885  27.056  1.00  0.00     0.049 A 
ATOM     40  H   UNL A   1      46.123  29.003  27.719  1.00  0.00     0.167 HD
ATOM     41  C   UNL A   1      47.249  26.586  26.704  1.00  0.00     0.074 A 
ATOM     42  C   UNL A   1      47.385  25.209  26.269  1.00  0.00     0.031 C 
ATOM     43  C   UNL A   1      48.236  27.513  26.626  1.00  0.00     0.037 A 
BRANCH  30  44
ATOM     44  C   UNL A   1      46.665  33.139  28.667  1.00  0.00     0.058 A 
ATOM     45  C   UNL A   1      46.504  34.122  27.678  1.00  0.00     0.135 A 
ATOM     46  C   UNL A   1      47.186  33.541  29.909  1.00  0.00     0.135 A 
ATOM     47  F   UNL A   1      46.026  33.793  26.468  1.00  0.00    -0.206 F 
ATOM     48  C   UNL A   1      46.862  35.448  27.905  1.00  0.00     0.059 A 
ATOM     49  C   UNL A   1      47.528  34.867  30.166  1.00  0.00     0.059 A 
ATOM     50  F   UNL A   1      47.362  32.642  30.891  1.00  0.00    -0.206 F 
ATOM     51  C   UNL A   1      47.374  35.811  29.153  1.00  0.00     0.060 A 
BRANCH  51  52
ATOM     52  S   UNL A   1      47.829  37.536  29.432  1.00  0.00     0.124 S 
ATOM     53  O   UNL A   1      49.151  37.591  28.816  1.00  0.00    -0.237 OA
ATOM     54  O   UNL A   1      46.772  38.255  28.727  1.00  0.00    -0.237 OA
ATOM     55  O   UNL A   1      47.808  37.663  30.885  1.00  0.00    -0.744 OA
ENDBRANCH  51  52
ENDBRANCH  30  44
BRANCH  31  56
ATOM     56  C   UNL A   1      43.505  23.755  27.121  1.00  0.00     0.058 A 
ATOM     57  C   UNL A   1      43.385  22.831  28.168  1.00  0.00     0.135 A 
ATOM     58  C   UNL A   1      43.114  23.344  25.837  1.00  0.00     0.135 A 
ATOM     59  F   UNL A   1      43.745  23.176  29.414  1.00  0.00    -0.206 F 
ATOM     60  C   UNL A   1      42.907  21.542  27.950  1.00  0.00     0.059 A 
ATOM     61  C   UNL A   1      42.605  22.073  25.599  1.00  0.00     0.059 A 
ATOM     62  F   UNL A   1      43.188  24.199  24.805  1.00  0.00    -0.206 F 
ATOM     63  C   UNL A   1      42.516  21.175  26.661  1.00  0.00     0.060 A 
BRANCH  63  64
ATOM     64  S   UNL A   1      41.848  19.519  26.395  1.00  0.00     0.124 S 
ATOM     65  O   UNL A   1      42.324  18.820  27.583  1.00  0.00    -0.237 OA
ATOM     66  O   UNL A   1      40.413  19.773  26.332  1.00  0.00    -0.237 OA
ATOM     67  O   UNL A   1      42.460  19.110  25.134  1.00  0.00    -0.744 OA
ENDBRANCH  63  64
ENDBRANCH  31  56
BRANCH  43  68
ATOM     68  C   UNL A   1      49.554  27.054  26.072  1.00  0.00     0.058 A 
ATOM     69  C   UNL A   1      50.551  26.512  26.899  1.00  0.00     0.135 A 
ATOM     70  C   UNL A   1      49.812  27.131  24.694  1.00  0.00     0.135 A 
ATOM     71  F   UNL A   1      50.358  26.428  28.225  1.00  0.00    -0.206 F 
ATOM     72  C   UNL A   1      51.769  26.086  26.382  1.00  0.00     0.059 A 
ATOM     73  C   UNL A   1      51.011  26.684  24.152  1.00  0.00     0.059 A 
ATOM     74  F   UNL A   1      48.888  27.634  23.860  1.00  0.00    -0.206 F 
ATOM     75  C   UNL A   1      51.989  26.176  25.006  1.00  0.00     0.060 A 
BRANCH  75  76
ATOM     76  S   UNL A   1      53.564  25.595  24.343  1.00  0.00     0.124 S 
ATOM     77  O   UNL A   1      53.454  25.983  22.941  1.00  0.00    -0.237 OA
ATOM     78  O   UNL A   1      54.533  26.346  25.135  1.00  0.00    -0.237 OA
ATOM     79  O   UNL A   1      53.532  24.158  24.602  1.00  0.00    -0.744 OA
ENDBRANCH  75  76
ENDBRANCH  43  68
ENDBRANCH  17  18
ENDBRANCH  10  12
ENDBRANCH   7   8
ENDBRANCH   6   7
ENDBRANCH   5   6
ENDBRANCH   1   5
BRANCH   2  80
ATOM     80  C   UNL A   1      33.685  30.444  27.034  1.00  0.00     0.131 A 
ATOM     81  N   UNL A   1      32.930  31.531  27.378  1.00  0.00    -0.272 N 
ATOM     82  C   UNL A   1      32.862  29.639  26.257  1.00  0.00     0.057 A 
ATOM     83  N   UNL A   1      31.771  31.609  26.707  1.00  0.00    -0.183 NA
ATOM     84  H   UNL A   1      33.210  32.192  28.052  1.00  0.00     0.190 HD
ATOM     85  C   UNL A   1      31.754  30.483  25.996  1.00  0.00     0.145 A 
BRANCH  82  86
ATOM     86  C   UNL A   1      33.144  28.269  25.705  1.00  0.00     0.303 C 
BRANCH  86  87
ATOM     87  N   UNL A   1      31.956  27.477  25.362  1.00  0.00    -0.330 N 
ATOM     88  C   UNL A   1      31.691  27.430  23.919  1.00  0.00     0.262 C 
ATOM     89  C   UNL A   1      31.993  26.142  25.951  1.00  0.00     0.274 C 
ATOM     90  H   UNL A   1      31.166  27.968  25.778  1.00  0.00     0.348 HD
ATOM     91  C   UNL A   1      30.378  26.691  23.637  1.00  0.00     0.062 C 
ATOM     92  C   UNL A   1      30.703  25.358  25.748  1.00  0.00     0.116 C 
ATOM     93  C   UNL A   1      30.364  25.291  24.255  1.00  0.00     0.023 C 
BRANCH  92  94
ATOM     94  C   UNL A   1      30.746  23.965  26.390  1.00  0.00     0.171 C 
ATOM     95  O   UNL A   1      29.944  23.636  27.263  1.00  0.00    -0.294 OA
BRANCH  94  96
ATOM     96  C   UNL A   1      31.680  22.923  25.884  1.00  0.00     0.018 A 
ATOM     97  C   UNL A   1      32.674  22.448  26.741  1.00  0.00     0.015 A 
ATOM     98  C   UNL A   1      31.610  22.423  24.583  1.00  0.00     0.015 A 
ATOM     99  C   UNL A   1      33.541  21.436  26.312  1.00  0.00     0.048 A 
ATOM    100  C   UNL A   1      32.424  21.362  24.181  1.00  0.00     0.048 A 
ATOM    101  C   UNL A   1      33.411  20.874  25.036  1.00  0.00     0.127 A 
BRANCH 101 102
ATOM    102  O   UNL A   1      34.302  19.862  24.750  1.00  0.00    -0.457 OA
BRANCH 102 103
ATOM    103  C   UNL A   1      33.880  18.554  24.773  1.00  0.00     0.127 A 
ATOM    104  C   UNL A   1      34.442  17.684  23.838  1.00  0.00     0.047 A 
ATOM    105  C   UNL A   1      32.863  18.108  25.621  1.00  0.00     0.047 A 
ATOM    106  C   UNL A   1      34.032  16.351  23.793  1.00  0.00     0.004 A 
ATOM    107  C   UNL A   1      32.474  16.768  25.593  1.00  0.00     0.004 A 
ATOM    108  C   UNL A   1      33.059  15.890  24.680  1.00  0.00     0.000 A 
ENDBRANCH 102 103
ENDBRANCH 101 102
ENDBRANCH  94  96
ENDBRANCH  92  94
ENDBRANCH  86  87
ENDBRANCH  82  86
ENDBRANCH   2  80
TORSDOF 19
ENDMDL
