MODEL 1
REMARK VINA RESULT:     -11.0      0.000      0.000
REMARK SMILES O=C(NCCCNC(=O)[C@@H](Cc1ccccc1Br)CC(F)(F)F)c1ccc(-c2c3nc(c(-c4c(F)cc(S(=O)(=O)[O-])cc4F)c4ccc([nH]4)c(-c4c(F)cc(S(=O)(=O)[O-])cc4F)c4nc(c(-c5c(F)cc(S(=O)(=O)[O-])cc5F)c5ccc2[nH]5)C=C4)C=C3)cc1
REMARK SMILES IDX 4 1 3 2 1 3 2 4 24 6 25 7 89 8 26 9 88 10 27 11 28 12 29 13
REMARK SMILES IDX 82 14 30 15 87 16 81 17 83 18 31 19 86 20 80 21 79 22 32 24
REMARK SMILES IDX 66 25 45 26 65 27 46 28 49 29 64 30 84 31 47 32 48 33 63 35
REMARK SMILES IDX 85 36 50 37 33 38 34 39 43 40 35 41 36 42 42 43 44 44 37 45
REMARK SMILES IDX 38 46 39 47 40 48 41 49 67 50 68 51 77 52 69 53 70 54 76 55
REMARK SMILES IDX 78 56 71 57 72 58 73 59 74 60 75 61 51 62 52 63 61 64 53 65
REMARK SMILES IDX 54 66 60 67 62 68 55 69 56 70 57 71 58 72 59 73 5 74 6 75
REMARK SMILES IDX 7 76 8 77 9 79 10 80 11 81 12 82 13 83 17 84 14 85 16 86
REMARK SMILES IDX 18 87 15 88 19 89 20 90 21 91 22 92 23 93
REMARK H PARENT 3 5 83 23 49 34 7 78
REMARK Flexibility Score: inf
ROOT
ATOM      1  C   UNL A   1      33.451  28.451  27.173  1.00  0.00     0.118 C 
ENDROOT
BRANCH   1   2
ATOM      2  N   UNL A   1      33.514  29.858  27.546  1.00  0.00    -0.352 N 
ATOM      3  O   UNL A   1      34.172  31.706  28.607  1.00  0.00    -0.269 OA
ATOM      4  C   UNL A   1      34.487  30.597  28.176  1.00  0.00     0.251 C 
ATOM      5  H   UNL A   1      32.712  30.374  27.302  1.00  0.00     0.163 HD
BRANCH   4   6
ATOM      6  C   UNL A   1      35.881  30.114  28.351  1.00  0.00     0.039 A 
ATOM      7  C   UNL A   1      36.828  30.163  27.327  1.00  0.00     0.014 A 
ATOM      8  C   UNL A   1      36.288  29.695  29.626  1.00  0.00     0.014 A 
ATOM      9  C   UNL A   1      38.123  29.685  27.533  1.00  0.00     0.010 A 
ATOM     10  C   UNL A   1      37.615  29.315  29.861  1.00  0.00     0.010 A 
ATOM     11  C   UNL A   1      38.544  29.292  28.811  1.00  0.00    -0.014 A 
BRANCH  11  12
ATOM     12  C   UNL A   1      39.972  28.956  29.058  1.00  0.00     0.031 A 
ATOM     13  C   UNL A   1      40.928  29.985  29.591  1.00  0.00     0.074 A 
ATOM     14  C   UNL A   1      40.411  27.716  28.763  1.00  0.00     0.049 A 
ATOM     15  N   UNL A   1      42.220  29.890  29.783  1.00  0.00    -0.248 NA
ATOM     16  C   UNL A   1      40.364  31.297  29.942  1.00  0.00     0.031 C 
ATOM     17  C   UNL A   1      39.582  26.635  28.224  1.00  0.00     0.029 A 
ATOM     18  N   UNL A   1      41.661  27.155  28.861  1.00  0.00    -0.354 N 
ATOM     19  C   UNL A   1      42.629  31.135  30.246  1.00  0.00     0.074 A 
ATOM     20  C   UNL A   1      41.450  31.974  30.287  1.00  0.00     0.031 C 
ATOM     21  C   UNL A   1      40.337  25.540  28.057  1.00  0.00     0.029 A 
ATOM     22  C   UNL A   1      41.716  25.857  28.408  1.00  0.00     0.049 A 
ATOM     23  H   UNL A   1      42.441  27.634  29.222  1.00  0.00     0.167 HD
ATOM     24  C   UNL A   1      43.873  31.537  30.603  1.00  0.00     0.037 A 
ATOM     25  C   UNL A   1      42.761  25.022  28.251  1.00  0.00     0.037 A 
ATOM     26  C   UNL A   1      45.036  30.687  30.566  1.00  0.00     0.049 A 
ATOM     27  C   UNL A   1      44.133  25.489  28.637  1.00  0.00     0.074 A 
ATOM     28  C   UNL A   1      46.333  30.987  30.944  1.00  0.00     0.029 A 
ATOM     29  N   UNL A   1      45.045  29.375  30.112  1.00  0.00    -0.354 N 
ATOM     30  N   UNL A   1      44.496  26.658  29.107  1.00  0.00    -0.248 NA
ATOM     31  C   UNL A   1      45.235  24.533  28.476  1.00  0.00     0.031 C 
ATOM     32  C   UNL A   1      47.135  29.872  30.674  1.00  0.00     0.029 A 
ATOM     33  C   UNL A   1      46.329  28.858  30.180  1.00  0.00     0.049 A 
ATOM     34  H   UNL A   1      44.256  28.883  29.790  1.00  0.00     0.167 HD
ATOM     35  C   UNL A   1      45.866  26.575  29.316  1.00  0.00     0.074 A 
ATOM     36  C   UNL A   1      46.267  25.237  28.923  1.00  0.00     0.031 C 
ATOM     37  C   UNL A   1      46.711  27.520  29.794  1.00  0.00     0.037 A 
BRANCH  24  38
ATOM     38  C   UNL A   1      44.043  32.972  31.026  1.00  0.00     0.058 A 
ATOM     39  C   UNL A   1      43.923  33.374  32.366  1.00  0.00     0.135 A 
ATOM     40  C   UNL A   1      44.323  33.966  30.072  1.00  0.00     0.135 A 
ATOM     41  F   UNL A   1      43.648  32.471  33.321  1.00  0.00    -0.206 F 
ATOM     42  C   UNL A   1      44.017  34.713  32.737  1.00  0.00     0.059 A 
ATOM     43  C   UNL A   1      44.450  35.306  30.423  1.00  0.00     0.059 A 
ATOM     44  F   UNL A   1      44.458  33.640  28.776  1.00  0.00    -0.206 F 
ATOM     45  C   UNL A   1      44.267  35.673  31.755  1.00  0.00     0.060 A 
BRANCH  45  46
ATOM     46  S   UNL A   1      44.324  37.411  32.239  1.00  0.00     0.124 S 
ATOM     47  O   UNL A   1      43.935  38.069  30.995  1.00  0.00    -0.237 OA
ATOM     48  O   UNL A   1      43.341  37.470  33.318  1.00  0.00    -0.237 OA
ATOM     49  O   UNL A   1      45.711  37.607  32.646  1.00  0.00    -0.744 OA
ENDBRANCH  45  46
ENDBRANCH  24  38
BRANCH  25  50
ATOM     50  C   UNL A   1      42.520  23.668  27.686  1.00  0.00     0.058 A 
ATOM     51  C   UNL A   1      42.527  23.447  26.304  1.00  0.00     0.135 A 
ATOM     52  C   UNL A   1      42.380  22.552  28.528  1.00  0.00     0.135 A 
ATOM     53  F   UNL A   1      42.652  24.481  25.459  1.00  0.00    -0.206 F 
ATOM     54  C   UNL A   1      42.423  22.164  25.772  1.00  0.00     0.059 A 
ATOM     55  C   UNL A   1      42.300  21.258  28.023  1.00  0.00     0.059 A 
ATOM     56  F   UNL A   1      42.387  22.711  29.862  1.00  0.00    -0.206 F 
ATOM     57  C   UNL A   1      42.324  21.075  26.642  1.00  0.00     0.060 A 
BRANCH  57  58
ATOM     58  S   UNL A   1      42.305  19.409  25.944  1.00  0.00     0.124 S 
ATOM     59  O   UNL A   1      40.888  19.226  25.656  1.00  0.00    -0.237 OA
ATOM     60  O   UNL A   1      43.180  19.553  24.785  1.00  0.00    -0.237 OA
ATOM     61  O   UNL A   1      42.842  18.587  27.025  1.00  0.00    -0.744 OA
ENDBRANCH  57  58
ENDBRANCH  25  50
BRANCH  37  62
ATOM     62  C   UNL A   1      48.156  27.143  29.965  1.00  0.00     0.058 A 
ATOM     63  C   UNL A   1      49.115  27.435  28.984  1.00  0.00     0.135 A 
ATOM     64  C   UNL A   1      48.598  26.577  31.171  1.00  0.00     0.135 A 
ATOM     65  F   UNL A   1      48.741  27.967  27.809  1.00  0.00    -0.206 F 
ATOM     66  C   UNL A   1      50.467  27.184  29.197  1.00  0.00     0.059 A 
ATOM     67  C   UNL A   1      49.946  26.337  31.413  1.00  0.00     0.059 A 
ATOM     68  F   UNL A   1      47.718  26.282  32.142  1.00  0.00    -0.206 F 
ATOM     69  C   UNL A   1      50.873  26.645  30.419  1.00  0.00     0.060 A 
BRANCH  69  70
ATOM     70  S   UNL A   1      52.639  26.406  30.717  1.00  0.00     0.124 S 
ATOM     71  O   UNL A   1      53.133  26.153  29.367  1.00  0.00    -0.237 OA
ATOM     72  O   UNL A   1      53.032  27.682  31.307  1.00  0.00    -0.237 OA
ATOM     73  O   UNL A   1      52.679  25.264  31.625  1.00  0.00    -0.744 OA
ENDBRANCH  69  70
ENDBRANCH  37  62
ENDBRANCH  11  12
ENDBRANCH   4   6
ENDBRANCH   1   2
BRANCH   1  74
ATOM     74  C   UNL A   1      32.872  28.262  25.777  1.00  0.00     0.042 C 
BRANCH  74  75
ATOM     75  C   UNL A   1      31.437  27.740  25.773  1.00  0.00     0.117 C 
BRANCH  75  76
ATOM     76  N   UNL A   1      31.323  26.530  26.560  1.00  0.00    -0.356 N 
ATOM     77  C   UNL A   1      31.833  25.288  26.431  1.00  0.00     0.223 C 
ATOM     78  H   UNL A   1      30.754  26.636  27.356  1.00  0.00     0.163 HD
ATOM     79  O   UNL A   1      31.442  24.459  27.262  1.00  0.00    -0.275 OA
BRANCH  77  80
ATOM     80  C   UNL A   1      32.846  24.849  25.369  1.00  0.00     0.092 C 
BRANCH  80  81
ATOM     81  C   UNL A   1      34.261  24.518  25.908  1.00  0.00     0.050 C 
BRANCH  81  82
ATOM     82  C   UNL A   1      35.208  23.431  25.426  1.00  0.00    -0.033 A 
ATOM     83  C   UNL A   1      36.181  23.620  24.440  1.00  0.00     0.005 A 
ATOM     84  C   UNL A   1      35.128  22.132  25.983  1.00  0.00     0.021 A 
ATOM     85  C   UNL A   1      36.970  22.567  23.957  1.00  0.00     0.000 A 
ATOM     86  C   UNL A   1      35.931  21.079  25.518  1.00  0.00     0.016 A 
ATOM     87  Br  UNL A   1      33.944  21.707  27.416  1.00  0.00    -0.051 Br
ATOM     88  C   UNL A   1      36.837  21.293  24.487  1.00  0.00     0.001 A 
ENDBRANCH  81  82
ENDBRANCH  80  81
BRANCH  80  89
ATOM     89  C   UNL A   1      32.323  24.046  24.179  1.00  0.00     0.129 C 
BRANCH  89  90
ATOM     90  C   UNL A   1      32.848  24.537  22.844  1.00  0.00     0.389 C 
ATOM     91  F   UNL A   1      31.855  24.845  21.990  1.00  0.00    -0.171 F 
ATOM     92  F   UNL A   1      33.588  25.656  23.029  1.00  0.00    -0.171 F 
ATOM     93  F   UNL A   1      33.651  23.624  22.261  1.00  0.00    -0.171 F 
ENDBRANCH  89  90
ENDBRANCH  80  89
ENDBRANCH  77  80
ENDBRANCH  75  76
ENDBRANCH  74  75
ENDBRANCH   1  74
TORSDOF 17
ENDMDL
MODEL 2
REMARK VINA RESULT:     -10.7      2.928      4.285
REMARK SMILES O=C(NCCCNC(=O)[C@@H](Cc1ccccc1Br)CC(F)(F)F)c1ccc(-c2c3nc(c(-c4c(F)cc(S(=O)(=O)[O-])cc4F)c4ccc([nH]4)c(-c4c(F)cc(S(=O)(=O)[O-])cc4F)c4nc(c(-c5c(F)cc(S(=O)(=O)[O-])cc5F)c5ccc2[nH]5)C=C4)C=C3)cc1
REMARK SMILES IDX 4 1 3 2 1 3 2 4 24 6 25 7 89 8 26 9 88 10 27 11 28 12 29 13
REMARK SMILES IDX 82 14 30 15 87 16 81 17 83 18 31 19 86 20 80 21 79 22 32 24
REMARK SMILES IDX 66 25 45 26 65 27 46 28 49 29 64 30 84 31 47 32 48 33 63 35
REMARK SMILES IDX 85 36 50 37 33 38 34 39 43 40 35 41 36 42 42 43 44 44 37 45
REMARK SMILES IDX 38 46 39 47 40 48 41 49 67 50 68 51 77 52 69 53 70 54 76 55
REMARK SMILES IDX 78 56 71 57 72 58 73 59 74 60 75 61 51 62 52 63 61 64 53 65
REMARK SMILES IDX 54 66 60 67 62 68 55 69 56 70 57 71 58 72 59 73 5 74 6 75
REMARK SMILES IDX 7 76 8 77 9 79 10 80 11 81 12 82 13 83 17 84 14 85 16 86
REMARK SMILES IDX 18 87 15 88 19 89 20 90 21 91 22 92 23 93
REMARK H PARENT 3 5 83 23 49 34 7 78
REMARK Flexibility Score: inf
ROOT
ATOM      1  C   UNL A   1      34.944  30.352  27.577  1.00  0.00     0.118 C 
ENDROOT
BRANCH   1   2
ATOM      2  N   UNL A   1      35.086  30.847  28.939  1.00  0.00    -0.352 N 
ATOM      3  O   UNL A   1      35.824  30.988  31.040  1.00  0.00    -0.269 OA
ATOM      4  C   UNL A   1      36.079  30.682  29.875  1.00  0.00     0.251 C 
ATOM      5  H   UNL A   1      34.333  31.402  29.246  1.00  0.00     0.163 HD
BRANCH   4   6
ATOM      6  C   UNL A   1      37.428  30.158  29.537  1.00  0.00     0.039 A 
ATOM      7  C   UNL A   1      37.886  30.049  28.223  1.00  0.00     0.014 A 
ATOM      8  C   UNL A   1      38.313  29.865  30.586  1.00  0.00     0.014 A 
ATOM      9  C   UNL A   1      39.156  29.538  27.953  1.00  0.00     0.010 A 
ATOM     10  C   UNL A   1      39.623  29.454  30.318  1.00  0.00     0.010 A 
ATOM     11  C   UNL A   1      40.054  29.270  28.996  1.00  0.00    -0.014 A 
BRANCH  11  12
ATOM     12  C   UNL A   1      41.463  28.898  28.693  1.00  0.00     0.031 A 
ATOM     13  C   UNL A   1      42.555  29.929  28.707  1.00  0.00     0.074 A 
ATOM     14  C   UNL A   1      41.745  27.621  28.369  1.00  0.00     0.049 A 
ATOM     15  N   UNL A   1      43.817  29.798  28.384  1.00  0.00    -0.248 NA
ATOM     16  C   UNL A   1      42.180  31.289  29.123  1.00  0.00     0.031 C 
ATOM     17  C   UNL A   1      40.766  26.532  28.305  1.00  0.00     0.029 A 
ATOM     18  N   UNL A   1      42.929  27.018  28.022  1.00  0.00    -0.354 N 
ATOM     19  C   UNL A   1      44.381  31.060  28.527  1.00  0.00     0.074 A 
ATOM     20  C   UNL A   1      43.317  31.948  28.947  1.00  0.00     0.031 C 
ATOM     21  C   UNL A   1      41.389  25.397  27.961  1.00  0.00     0.029 A 
ATOM     22  C   UNL A   1      42.796  25.685  27.710  1.00  0.00     0.049 A 
ATOM     23  H   UNL A   1      43.790  27.494  27.999  1.00  0.00     0.167 HD
ATOM     24  C   UNL A   1      45.666  31.440  28.326  1.00  0.00     0.037 A 
ATOM     25  C   UNL A   1      43.691  24.797  27.235  1.00  0.00     0.037 A 
ATOM     26  C   UNL A   1      46.717  30.543  27.916  1.00  0.00     0.049 A 
ATOM     27  C   UNL A   1      45.105  25.239  27.005  1.00  0.00     0.074 A 
ATOM     28  C   UNL A   1      48.059  30.820  27.724  1.00  0.00     0.029 A 
ATOM     29  N   UNL A   1      46.541  29.197  27.623  1.00  0.00    -0.354 N 
ATOM     30  N   UNL A   1      45.629  26.428  27.180  1.00  0.00    -0.248 NA
ATOM     31  C   UNL A   1      46.050  24.228  26.516  1.00  0.00     0.031 C 
ATOM     32  C   UNL A   1      48.685  29.654  27.269  1.00  0.00     0.029 A 
ATOM     33  C   UNL A   1      47.745  28.635  27.231  1.00  0.00     0.049 A 
ATOM     34  H   UNL A   1      45.687  28.712  27.686  1.00  0.00     0.167 HD
ATOM     35  C   UNL A   1      46.970  26.307  26.841  1.00  0.00     0.074 A 
ATOM     36  C   UNL A   1      47.178  24.925  26.452  1.00  0.00     0.031 C 
ATOM     37  C   UNL A   1      47.939  27.254  26.856  1.00  0.00     0.037 A 
BRANCH  24  38
ATOM     38  C   UNL A   1      45.995  32.898  28.509  1.00  0.00     0.058 A 
ATOM     39  C   UNL A   1      46.403  33.422  29.746  1.00  0.00     0.135 A 
ATOM     40  C   UNL A   1      45.892  33.790  27.428  1.00  0.00     0.135 A 
ATOM     41  F   UNL A   1      46.511  32.619  30.817  1.00  0.00    -0.206 F 
ATOM     42  C   UNL A   1      46.641  34.782  29.920  1.00  0.00     0.059 A 
ATOM     43  C   UNL A   1      46.153  35.149  27.571  1.00  0.00     0.059 A 
ATOM     44  F   UNL A   1      45.515  33.346  26.218  1.00  0.00    -0.206 F 
ATOM     45  C   UNL A   1      46.500  35.640  28.828  1.00  0.00     0.060 A 
BRANCH  45  46
ATOM     46  S   UNL A   1      46.749  37.410  29.080  1.00  0.00     0.124 S 
ATOM     47  O   UNL A   1      47.145  37.448  30.484  1.00  0.00    -0.237 OA
ATOM     48  O   UNL A   1      47.802  37.721  28.118  1.00  0.00    -0.237 OA
ATOM     49  O   UNL A   1      45.441  37.984  28.781  1.00  0.00    -0.744 OA
ENDBRANCH  45  46
ENDBRANCH  24  38
BRANCH  25  50
ATOM     50  C   UNL A   1      43.241  23.410  26.943  1.00  0.00     0.058 A 
ATOM     51  C   UNL A   1      43.085  22.961  25.626  1.00  0.00     0.135 A 
ATOM     52  C   UNL A   1      43.060  22.480  27.980  1.00  0.00     0.135 A 
ATOM     53  F   UNL A   1      43.242  23.814  24.602  1.00  0.00    -0.206 F 
ATOM     54  C   UNL A   1      42.782  21.632  25.343  1.00  0.00     0.059 A 
ATOM     55  C   UNL A   1      42.781  21.142  27.722  1.00  0.00     0.059 A 
ATOM     56  F   UNL A   1      43.218  22.859  29.258  1.00  0.00    -0.206 F 
ATOM     57  C   UNL A   1      42.647  20.727  26.399  1.00  0.00     0.060 A 
BRANCH  57  58
ATOM     58  S   UNL A   1      42.367  18.984  26.015  1.00  0.00     0.124 S 
ATOM     59  O   UNL A   1      43.223  18.798  24.850  1.00  0.00    -0.237 OA
ATOM     60  O   UNL A   1      42.806  18.327  27.242  1.00  0.00    -0.237 OA
ATOM     61  O   UNL A   1      40.931  18.923  25.761  1.00  0.00    -0.744 OA
ENDBRANCH  57  58
ENDBRANCH  25  50
BRANCH  37  62
ATOM     62  C   UNL A   1      49.332  26.834  26.480  1.00  0.00     0.058 A 
ATOM     63  C   UNL A   1      50.216  26.286  27.421  1.00  0.00     0.135 A 
ATOM     64  C   UNL A   1      49.745  26.887  25.139  1.00  0.00     0.135 A 
ATOM     65  F   UNL A   1      49.872  26.224  28.717  1.00  0.00    -0.206 F 
ATOM     66  C   UNL A   1      51.462  25.797  27.043  1.00  0.00     0.059 A 
ATOM     67  C   UNL A   1      50.978  26.384  24.736  1.00  0.00     0.059 A 
ATOM     68  F   UNL A   1      48.933  27.400  24.201  1.00  0.00    -0.206 F 
ATOM     69  C   UNL A   1      51.829  25.840  25.696  1.00  0.00     0.060 A 
BRANCH  69  70
ATOM     70  S   UNL A   1      53.412  25.122  25.205  1.00  0.00     0.124 S 
ATOM     71  O   UNL A   1      53.152  23.696  25.368  1.00  0.00    -0.237 OA
ATOM     72  O   UNL A   1      53.553  25.588  23.828  1.00  0.00    -0.237 OA
ATOM     73  O   UNL A   1      54.357  25.701  26.156  1.00  0.00    -0.744 OA
ENDBRANCH  69  70
ENDBRANCH  37  62
ENDBRANCH  11  12
ENDBRANCH   4   6
ENDBRANCH   1   2
BRANCH   1  74
ATOM     74  C   UNL A   1      33.875  29.271  27.479  1.00  0.00     0.042 C 
BRANCH  74  75
ATOM     75  C   UNL A   1      32.920  29.456  26.302  1.00  0.00     0.117 C 
BRANCH  75  76
ATOM     76  N   UNL A   1      33.631  29.399  25.042  1.00  0.00    -0.356 N 
ATOM     77  C   UNL A   1      33.561  28.581  23.972  1.00  0.00     0.223 C 
ATOM     78  H   UNL A   1      34.308  30.108  24.945  1.00  0.00     0.163 HD
ATOM     79  O   UNL A   1      34.404  28.779  23.089  1.00  0.00    -0.275 OA
BRANCH  77  80
ATOM     80  C   UNL A   1      32.528  27.466  23.773  1.00  0.00     0.092 C 
BRANCH  80  81
ATOM     81  C   UNL A   1      31.583  27.655  22.560  1.00  0.00     0.050 C 
BRANCH  81  82
ATOM     82  C   UNL A   1      30.317  28.494  22.490  1.00  0.00    -0.033 A 
ATOM     83  C   UNL A   1      30.231  29.729  21.841  1.00  0.00     0.005 A 
ATOM     84  C   UNL A   1      29.132  28.031  23.111  1.00  0.00     0.021 A 
ATOM     85  C   UNL A   1      29.071  30.515  21.882  1.00  0.00     0.000 A 
ATOM     86  C   UNL A   1      27.962  28.803  23.135  1.00  0.00     0.016 A 
ATOM     87  Br  UNL A   1      29.019  26.320  23.948  1.00  0.00    -0.051 Br
ATOM     88  C   UNL A   1      27.939  30.058  22.539  1.00  0.00     0.001 A 
ENDBRANCH  81  82
ENDBRANCH  80  81
BRANCH  80  89
ATOM     89  C   UNL A   1      32.939  26.044  24.152  1.00  0.00     0.129 C 
BRANCH  89  90
ATOM     90  C   UNL A   1      33.024  25.820  25.648  1.00  0.00     0.389 C 
ATOM     91  F   UNL A   1      34.147  26.342  26.177  1.00  0.00    -0.171 F 
ATOM     92  F   UNL A   1      31.972  26.414  26.259  1.00  0.00    -0.171 F 
ATOM     93  F   UNL A   1      32.972  24.508  25.957  1.00  0.00    -0.171 F 
ENDBRANCH  89  90
ENDBRANCH  80  89
ENDBRANCH  77  80
ENDBRANCH  75  76
ENDBRANCH  74  75
ENDBRANCH   1  74
TORSDOF 17
ENDMDL
MODEL 3
REMARK VINA RESULT:     -10.6      1.413      1.972
REMARK SMILES O=C(NCCCNC(=O)[C@@H](Cc1ccccc1Br)CC(F)(F)F)c1ccc(-c2c3nc(c(-c4c(F)cc(S(=O)(=O)[O-])cc4F)c4ccc([nH]4)c(-c4c(F)cc(S(=O)(=O)[O-])cc4F)c4nc(c(-c5c(F)cc(S(=O)(=O)[O-])cc5F)c5ccc2[nH]5)C=C4)C=C3)cc1
REMARK SMILES IDX 4 1 3 2 1 3 2 4 24 6 25 7 89 8 26 9 88 10 27 11 28 12 29 13
REMARK SMILES IDX 82 14 30 15 87 16 81 17 83 18 31 19 86 20 80 21 79 22 32 24
REMARK SMILES IDX 66 25 45 26 65 27 46 28 49 29 64 30 84 31 47 32 48 33 63 35
REMARK SMILES IDX 85 36 50 37 33 38 34 39 43 40 35 41 36 42 42 43 44 44 37 45
REMARK SMILES IDX 38 46 39 47 40 48 41 49 67 50 68 51 77 52 69 53 70 54 76 55
REMARK SMILES IDX 78 56 71 57 72 58 73 59 74 60 75 61 51 62 52 63 61 64 53 65
REMARK SMILES IDX 54 66 60 67 62 68 55 69 56 70 57 71 58 72 59 73 5 74 6 75
REMARK SMILES IDX 7 76 8 77 9 79 10 80 11 81 12 82 13 83 17 84 14 85 16 86
REMARK SMILES IDX 18 87 15 88 19 89 20 90 21 91 22 92 23 93
REMARK H PARENT 3 5 83 23 49 34 7 78
REMARK Flexibility Score: inf
ROOT
ATOM      1  C   UNL A   1      33.795  28.818  26.262  1.00  0.00     0.118 C 
ENDROOT
BRANCH   1   2
ATOM      2  N   UNL A   1      33.741  30.068  27.010  1.00  0.00    -0.352 N 
ATOM      3  O   UNL A   1      34.166  31.556  28.616  1.00  0.00    -0.269 OA
ATOM      4  C   UNL A   1      34.586  30.613  27.946  1.00  0.00     0.251 C 
ATOM      5  H   UNL A   1      32.954  30.623  26.807  1.00  0.00     0.163 HD
BRANCH   4   6
ATOM      6  C   UNL A   1      35.968  30.113  28.175  1.00  0.00     0.039 A 
ATOM      7  C   UNL A   1      36.978  30.233  27.220  1.00  0.00     0.014 A 
ATOM      8  C   UNL A   1      36.292  29.603  29.440  1.00  0.00     0.014 A 
ATOM      9  C   UNL A   1      38.257  29.737  27.473  1.00  0.00     0.010 A 
ATOM     10  C   UNL A   1      37.601  29.203  29.732  1.00  0.00     0.010 A 
ATOM     11  C   UNL A   1      38.596  29.252  28.745  1.00  0.00    -0.014 A 
BRANCH  11  12
ATOM     12  C   UNL A   1      40.006  28.894  29.058  1.00  0.00     0.031 A 
ATOM     13  C   UNL A   1      40.944  29.901  29.660  1.00  0.00     0.074 A 
ATOM     14  C   UNL A   1      40.446  27.655  28.760  1.00  0.00     0.049 A 
ATOM     15  N   UNL A   1      42.223  29.787  29.917  1.00  0.00    -0.248 NA
ATOM     16  C   UNL A   1      40.377  31.212  30.008  1.00  0.00     0.031 C 
ATOM     17  C   UNL A   1      39.635  26.595  28.157  1.00  0.00     0.029 A 
ATOM     18  N   UNL A   1      41.683  27.077  28.911  1.00  0.00    -0.354 N 
ATOM     19  C   UNL A   1      42.621  31.017  30.425  1.00  0.00     0.074 A 
ATOM     20  C   UNL A   1      41.451  31.870  30.423  1.00  0.00     0.031 C 
ATOM     21  C   UNL A   1      40.385  25.495  28.007  1.00  0.00     0.029 A 
ATOM     22  C   UNL A   1      41.747  25.788  28.435  1.00  0.00     0.049 A 
ATOM     23  H   UNL A   1      42.449  27.539  29.321  1.00  0.00     0.167 HD
ATOM     24  C   UNL A   1      43.850  31.398  30.854  1.00  0.00     0.037 A 
ATOM     25  C   UNL A   1      42.790  24.944  28.315  1.00  0.00     0.037 A 
ATOM     26  C   UNL A   1      45.004  30.535  30.859  1.00  0.00     0.049 A 
ATOM     27  C   UNL A   1      44.145  25.387  28.780  1.00  0.00     0.074 A 
ATOM     28  C   UNL A   1      46.283  30.811  31.310  1.00  0.00     0.029 A 
ATOM     29  N   UNL A   1      45.022  29.232  30.379  1.00  0.00    -0.354 N 
ATOM     30  N   UNL A   1      44.496  26.542  29.292  1.00  0.00    -0.248 NA
ATOM     31  C   UNL A   1      45.243  24.421  28.656  1.00  0.00     0.031 C 
ATOM     32  C   UNL A   1      47.086  29.692  31.059  1.00  0.00     0.029 A 
ATOM     33  C   UNL A   1      46.295  28.698  30.503  1.00  0.00     0.049 A 
ATOM     34  H   UNL A   1      44.245  28.756  30.007  1.00  0.00     0.167 HD
ATOM     35  C   UNL A   1      45.853  26.438  29.570  1.00  0.00     0.074 A 
ATOM     36  C   UNL A   1      46.259  25.104  29.171  1.00  0.00     0.031 C 
ATOM     37  C   UNL A   1      46.682  27.364  30.110  1.00  0.00     0.037 A 
BRANCH  24  38
ATOM     38  C   UNL A   1      44.013  32.822  31.314  1.00  0.00     0.058 A 
ATOM     39  C   UNL A   1      43.779  33.208  32.644  1.00  0.00     0.135 A 
ATOM     40  C   UNL A   1      44.403  33.821  30.406  1.00  0.00     0.135 A 
ATOM     41  F   UNL A   1      43.396  32.298  33.554  1.00  0.00    -0.206 F 
ATOM     42  C   UNL A   1      43.869  34.538  33.044  1.00  0.00     0.059 A 
ATOM     43  C   UNL A   1      44.528  35.153  30.790  1.00  0.00     0.059 A 
ATOM     44  F   UNL A   1      44.649  33.511  29.123  1.00  0.00    -0.206 F 
ATOM     45  C   UNL A   1      44.232  35.505  32.105  1.00  0.00     0.060 A 
BRANCH  45  46
ATOM     46  S   UNL A   1      44.283  37.234  32.621  1.00  0.00     0.124 S 
ATOM     47  O   UNL A   1      45.663  37.357  33.082  1.00  0.00    -0.237 OA
ATOM     48  O   UNL A   1      43.966  37.942  31.383  1.00  0.00    -0.237 OA
ATOM     49  O   UNL A   1      43.264  37.310  33.662  1.00  0.00    -0.744 OA
ENDBRANCH  45  46
ENDBRANCH  24  38
BRANCH  25  50
ATOM     50  C   UNL A   1      42.564  23.604  27.711  1.00  0.00     0.058 A 
ATOM     51  C   UNL A   1      42.645  23.410  26.326  1.00  0.00     0.135 A 
ATOM     52  C   UNL A   1      42.364  22.474  28.521  1.00  0.00     0.135 A 
ATOM     53  F   UNL A   1      42.828  24.459  25.510  1.00  0.00    -0.206 F 
ATOM     54  C   UNL A   1      42.554  22.139  25.765  1.00  0.00     0.059 A 
ATOM     55  C   UNL A   1      42.296  21.192  27.986  1.00  0.00     0.059 A 
ATOM     56  F   UNL A   1      42.300  22.608  29.856  1.00  0.00    -0.206 F 
ATOM     57  C   UNL A   1      42.394  21.035  26.605  1.00  0.00     0.060 A 
BRANCH  57  58
ATOM     58  S   UNL A   1      42.393  19.383  25.875  1.00  0.00     0.124 S 
ATOM     59  O   UNL A   1      40.979  19.193  25.579  1.00  0.00    -0.237 OA
ATOM     60  O   UNL A   1      43.270  19.558  24.721  1.00  0.00    -0.237 OA
ATOM     61  O   UNL A   1      42.934  18.545  26.941  1.00  0.00    -0.744 OA
ENDBRANCH  57  58
ENDBRANCH  25  50
BRANCH  37  62
ATOM     62  C   UNL A   1      48.112  26.967  30.346  1.00  0.00     0.058 A 
ATOM     63  C   UNL A   1      49.124  27.268  29.423  1.00  0.00     0.135 A 
ATOM     64  C   UNL A   1      48.485  26.369  31.561  1.00  0.00     0.135 A 
ATOM     65  F   UNL A   1      48.817  27.829  28.242  1.00  0.00    -0.206 F 
ATOM     66  C   UNL A   1      50.460  26.996  29.700  1.00  0.00     0.059 A 
ATOM     67  C   UNL A   1      49.816  26.109  31.868  1.00  0.00     0.059 A 
ATOM     68  F   UNL A   1      47.552  26.064  32.479  1.00  0.00    -0.206 F 
ATOM     69  C   UNL A   1      50.797  26.427  30.930  1.00  0.00     0.060 A 
BRANCH  69  70
ATOM     70  S   UNL A   1      52.542  26.161  31.313  1.00  0.00     0.124 S 
ATOM     71  O   UNL A   1      52.830  27.299  32.180  1.00  0.00    -0.237 OA
ATOM     72  O   UNL A   1      52.522  24.855  31.967  1.00  0.00    -0.237 OA
ATOM     73  O   UNL A   1      53.185  26.189  30.003  1.00  0.00    -0.744 OA
ENDBRANCH  69  70
ENDBRANCH  37  62
ENDBRANCH  11  12
ENDBRANCH   4   6
ENDBRANCH   1   2
BRANCH   1  74
ATOM     74  C   UNL A   1      32.470  28.069  26.319  1.00  0.00     0.042 C 
BRANCH  74  75
ATOM     75  C   UNL A   1      32.621  26.551  26.272  1.00  0.00     0.117 C 
BRANCH  75  76
ATOM     76  N   UNL A   1      31.377  25.894  26.616  1.00  0.00    -0.356 N 
ATOM     77  C   UNL A   1      30.273  25.570  25.913  1.00  0.00     0.223 C 
ATOM     78  H   UNL A   1      31.328  25.626  27.563  1.00  0.00     0.163 HD
ATOM     79  O   UNL A   1      29.344  25.082  26.568  1.00  0.00    -0.275 OA
BRANCH  77  80
ATOM     80  C   UNL A   1      30.100  25.744  24.401  1.00  0.00     0.092 C 
BRANCH  80  81
ATOM     81  C   UNL A   1      30.532  24.525  23.545  1.00  0.00     0.050 C 
BRANCH  81  82
ATOM     82  C   UNL A   1      31.828  23.736  23.640  1.00  0.00    -0.033 A 
ATOM     83  C   UNL A   1      31.958  22.523  24.320  1.00  0.00     0.005 A 
ATOM     84  C   UNL A   1      32.998  24.231  23.015  1.00  0.00     0.021 A 
ATOM     85  C   UNL A   1      33.193  21.875  24.463  1.00  0.00     0.000 A 
ATOM     86  C   UNL A   1      34.233  23.575  23.137  1.00  0.00     0.016 A 
ATOM     87  Br  UNL A   1      32.997  25.811  21.947  1.00  0.00    -0.051 Br
ATOM     88  C   UNL A   1      34.333  22.406  23.883  1.00  0.00     0.001 A 
ENDBRANCH  81  82
ENDBRANCH  80  81
BRANCH  80  89
ATOM     89  C   UNL A   1      28.920  26.583  23.913  1.00  0.00     0.129 C 
BRANCH  89  90
ATOM     90  C   UNL A   1      29.338  27.878  23.244  1.00  0.00     0.389 C 
ATOM     91  F   UNL A   1      28.279  28.628  22.885  1.00  0.00    -0.171 F 
ATOM     92  F   UNL A   1      30.086  28.613  24.100  1.00  0.00    -0.171 F 
ATOM     93  F   UNL A   1      30.095  27.650  22.152  1.00  0.00    -0.171 F 
ENDBRANCH  89  90
ENDBRANCH  80  89
ENDBRANCH  77  80
ENDBRANCH  75  76
ENDBRANCH  74  75
ENDBRANCH   1  74
TORSDOF 17
ENDMDL
