MODEL 1
REMARK VINA RESULT:     -10.6      0.000      0.000
REMARK SMILES C[C@@H](C(=O)NCCCNC(=O)c1ccc(-c2c3nc(c(-c4c(F)cc(S(=O)(=O)[O-])cc4F)c4ccc([nH]4)c(-c4c(F)cc(S(=O)(=O)[O-])cc4F)c4nc(c(-c5c(F)cc(S(=O)(=O)[O-])cc5F)c5ccc2[nH]5)C=C4)C=C3)cc1)[C@@H](C)c1ccc(OC(F)(F)F)cc1
REMARK SMILES IDX 6 1 5 2 3 3 4 4 2 6 1 7 78 8 79 9 80 10 81 11 90 12 82 13
REMARK SMILES IDX 89 14 83 15 84 16 85 17 86 18 87 19 88 20 7 21 8 22 9 23
REMARK SMILES IDX 10 24 11 26 12 27 13 28 77 29 14 30 76 31 15 32 16 33 17 34
REMARK SMILES IDX 70 35 18 36 75 37 69 38 71 39 19 40 74 41 68 42 67 43 20 45
REMARK SMILES IDX 54 46 33 47 53 48 34 49 37 50 52 51 72 52 35 53 36 54 51 56
REMARK SMILES IDX 73 57 38 58 21 59 22 60 31 61 23 62 24 63 30 64 32 65 25 66
REMARK SMILES IDX 26 67 27 68 28 69 29 70 55 71 56 72 65 73 57 74 58 75 64 76
REMARK SMILES IDX 66 77 59 78 60 79 61 80 62 81 63 82 39 83 40 84 49 85 41 86
REMARK SMILES IDX 42 87 48 88 50 89 43 90 44 91 45 92 46 93 47 94
REMARK H PARENT 5 5 9 25 71 44 37 55
REMARK Flexibility Score: inf
ROOT
ATOM      1  C   UNL A   1      31.577  26.950  26.285  1.00  0.00     0.117 C 
ENDROOT
BRANCH   1   2
ATOM      2  N   UNL A   1      31.147  27.706  25.124  1.00  0.00    -0.356 N 
ATOM      3  C   UNL A   1      31.848  28.052  24.008  1.00  0.00     0.223 C 
ATOM      4  O   UNL A   1      31.447  29.024  23.368  1.00  0.00    -0.275 OA
ATOM      5  H   UNL A   1      30.212  28.014  25.144  1.00  0.00     0.163 HD
BRANCH   3   6
ATOM      6  C   UNL A   1      33.098  27.258  23.618  1.00  0.00     0.082 C 
ATOM      7  C   UNL A   1      33.901  28.116  22.632  1.00  0.00     0.018 C 
BRANCH   6   8
ATOM      8  C   UNL A   1      32.721  25.863  23.021  1.00  0.00     0.028 C 
ATOM      9  C   UNL A   1      32.806  25.856  21.483  1.00  0.00     0.013 C 
BRANCH   8  10
ATOM     10  C   UNL A   1      33.555  24.732  23.637  1.00  0.00    -0.044 A 
ATOM     11  C   UNL A   1      34.422  25.017  24.702  1.00  0.00     0.008 A 
ATOM     12  C   UNL A   1      33.501  23.406  23.185  1.00  0.00     0.008 A 
ATOM     13  C   UNL A   1      35.235  24.030  25.261  1.00  0.00     0.047 A 
ATOM     14  C   UNL A   1      34.290  22.404  23.773  1.00  0.00     0.047 A 
ATOM     15  C   UNL A   1      35.173  22.715  24.805  1.00  0.00     0.129 A 
BRANCH  15  16
ATOM     16  O   UNL A   1      36.024  21.858  25.440  1.00  0.00    -0.406 OA
BRANCH  16  17
ATOM     17  C   UNL A   1      37.333  21.726  24.924  1.00  0.00     0.573 C 
ATOM     18  F   UNL A   1      37.399  22.153  23.644  1.00  0.00    -0.132 F 
ATOM     19  F   UNL A   1      38.233  22.403  25.672  1.00  0.00    -0.132 F 
ATOM     20  F   UNL A   1      37.678  20.418  24.945  1.00  0.00    -0.132 F 
ENDBRANCH  16  17
ENDBRANCH  15  16
ENDBRANCH   8  10
ENDBRANCH   6   8
ENDBRANCH   3   6
ENDBRANCH   1   2
BRANCH   1  21
ATOM     21  C   UNL A   1      31.964  27.889  27.428  1.00  0.00     0.042 C 
BRANCH  21  22
ATOM     22  C   UNL A   1      33.351  28.512  27.284  1.00  0.00     0.118 C 
BRANCH  22  23
ATOM     23  N   UNL A   1      33.341  29.951  27.501  1.00  0.00    -0.352 N 
ATOM     24  C   UNL A   1      34.305  30.760  28.050  1.00  0.00     0.251 C 
ATOM     25  H   UNL A   1      32.521  30.413  27.213  1.00  0.00     0.163 HD
ATOM     26  O   UNL A   1      34.031  31.925  28.331  1.00  0.00    -0.269 OA
BRANCH  24  27
ATOM     27  C   UNL A   1      35.658  30.230  28.327  1.00  0.00     0.039 A 
ATOM     28  C   UNL A   1      36.605  30.225  27.300  1.00  0.00     0.014 A 
ATOM     29  C   UNL A   1      35.996  29.737  29.591  1.00  0.00     0.014 A 
ATOM     30  C   UNL A   1      37.911  29.806  27.561  1.00  0.00     0.010 A 
ATOM     31  C   UNL A   1      37.316  29.384  29.868  1.00  0.00     0.010 A 
ATOM     32  C   UNL A   1      38.290  29.427  28.860  1.00  0.00    -0.014 A 
BRANCH  32  33
ATOM     33  C   UNL A   1      39.707  29.123  29.196  1.00  0.00     0.031 A 
ATOM     34  C   UNL A   1      40.608  30.196  29.743  1.00  0.00     0.074 A 
ATOM     35  C   UNL A   1      40.203  27.899  28.918  1.00  0.00     0.049 A 
ATOM     36  N   UNL A   1      41.892  30.147  29.990  1.00  0.00    -0.248 NA
ATOM     37  C   UNL A   1      39.994  31.504  30.030  1.00  0.00     0.031 C 
ATOM     38  C   UNL A   1      39.439  26.787  28.346  1.00  0.00     0.029 A 
ATOM     39  N   UNL A   1      41.471  27.388  29.056  1.00  0.00    -0.354 N 
ATOM     40  C   UNL A   1      42.243  31.415  30.437  1.00  0.00     0.074 A 
ATOM     41  C   UNL A   1      41.045  32.222  30.402  1.00  0.00     0.031 C 
ATOM     42  C   UNL A   1      40.249  25.728  28.187  1.00  0.00     0.029 A 
ATOM     43  C   UNL A   1      41.600  26.097  28.595  1.00  0.00     0.049 A 
ATOM     44  H   UNL A   1      42.217  27.897  29.446  1.00  0.00     0.167 HD
ATOM     45  C   UNL A   1      43.456  31.859  30.847  1.00  0.00     0.037 A 
ATOM     46  C   UNL A   1      42.687  25.308  28.486  1.00  0.00     0.037 A 
ATOM     47  C   UNL A   1      44.637  31.036  30.911  1.00  0.00     0.049 A 
ATOM     48  C   UNL A   1      44.025  25.836  28.931  1.00  0.00     0.074 A 
ATOM     49  C   UNL A   1      45.885  31.369  31.406  1.00  0.00     0.029 A 
ATOM     50  N   UNL A   1      44.724  29.731  30.452  1.00  0.00    -0.354 N 
ATOM     51  N   UNL A   1      44.316  27.006  29.448  1.00  0.00    -0.248 NA
ATOM     52  C   UNL A   1      45.183  24.943  28.778  1.00  0.00     0.031 C 
ATOM     53  C   UNL A   1      46.745  30.289  31.185  1.00  0.00     0.029 A 
ATOM     54  C   UNL A   1      46.017  29.261  30.609  1.00  0.00     0.049 A 
ATOM     55  H   UNL A   1      43.977  29.215  30.071  1.00  0.00     0.167 HD
ATOM     56  C   UNL A   1      45.684  26.979  29.701  1.00  0.00     0.074 A 
ATOM     57  C   UNL A   1      46.160  25.672  29.299  1.00  0.00     0.031 C 
ATOM     58  C   UNL A   1      46.476  27.952  30.216  1.00  0.00     0.037 A 
BRANCH  45  59
ATOM     59  C   UNL A   1      43.589  33.299  31.258  1.00  0.00     0.058 A 
ATOM     60  C   UNL A   1      43.324  33.724  32.569  1.00  0.00     0.135 A 
ATOM     61  C   UNL A   1      44.081  34.250  30.348  1.00  0.00     0.135 A 
ATOM     62  F   UNL A   1      42.840  32.862  33.475  1.00  0.00    -0.206 F 
ATOM     63  C   UNL A   1      43.536  35.043  32.962  1.00  0.00     0.059 A 
ATOM     64  C   UNL A   1      44.326  35.567  30.726  1.00  0.00     0.059 A 
ATOM     65  F   UNL A   1      44.348  33.898  29.081  1.00  0.00    -0.206 F 
ATOM     66  C   UNL A   1      44.046  35.955  32.035  1.00  0.00     0.060 A 
BRANCH  66  67
ATOM     67  S   UNL A   1      44.356  37.648  32.577  1.00  0.00     0.124 S 
ATOM     68  O   UNL A   1      43.833  38.417  31.451  1.00  0.00    -0.237 OA
ATOM     69  O   UNL A   1      43.582  37.726  33.811  1.00  0.00    -0.237 OA
ATOM     70  O   UNL A   1      45.806  37.693  32.745  1.00  0.00    -0.744 OA
ENDBRANCH  66  67
ENDBRANCH  45  59
BRANCH  46  71
ATOM     71  C   UNL A   1      42.570  23.941  27.906  1.00  0.00     0.058 A 
ATOM     72  C   UNL A   1      42.513  23.744  26.518  1.00  0.00     0.135 A 
ATOM     73  C   UNL A   1      42.487  22.805  28.728  1.00  0.00     0.135 A 
ATOM     74  F   UNL A   1      42.583  24.796  25.688  1.00  0.00    -0.206 F 
ATOM     75  C   UNL A   1      42.344  22.478  25.967  1.00  0.00     0.059 A 
ATOM     76  C   UNL A   1      42.349  21.526  28.200  1.00  0.00     0.059 A 
ATOM     77  F   UNL A   1      42.554  22.933  30.062  1.00  0.00    -0.206 F 
ATOM     78  C   UNL A   1      42.260  21.374  26.817  1.00  0.00     0.060 A 
BRANCH  78  79
ATOM     79  S   UNL A   1      42.051  19.734  26.091  1.00  0.00     0.124 S 
ATOM     80  O   UNL A   1      42.429  18.870  27.203  1.00  0.00    -0.237 OA
ATOM     81  O   UNL A   1      40.635  19.735  25.734  1.00  0.00    -0.237 OA
ATOM     82  O   UNL A   1      42.974  19.749  24.960  1.00  0.00    -0.744 OA
ENDBRANCH  78  79
ENDBRANCH  46  71
BRANCH  58  83
ATOM     83  C   UNL A   1      47.936  27.642  30.401  1.00  0.00     0.058 A 
ATOM     84  C   UNL A   1      48.887  27.973  29.424  1.00  0.00     0.135 A 
ATOM     85  C   UNL A   1      48.398  27.087  31.605  1.00  0.00     0.135 A 
ATOM     86  F   UNL A   1      48.497  28.496  28.250  1.00  0.00    -0.206 F 
ATOM     87  C   UNL A   1      50.245  27.758  29.630  1.00  0.00     0.059 A 
ATOM     88  C   UNL A   1      49.754  26.891  31.846  1.00  0.00     0.059 A 
ATOM     89  F   UNL A   1      47.531  26.759  32.576  1.00  0.00    -0.206 F 
ATOM     90  C   UNL A   1      50.670  27.226  30.850  1.00  0.00     0.060 A 
BRANCH  90  91
ATOM     91  S   UNL A   1      52.441  27.017  31.129  1.00  0.00     0.124 S 
ATOM     92  O   UNL A   1      53.006  27.932  30.142  1.00  0.00    -0.237 OA
ATOM     93  O   UNL A   1      52.585  27.422  32.525  1.00  0.00    -0.237 OA
ATOM     94  O   UNL A   1      52.664  25.598  30.869  1.00  0.00    -0.744 OA
ENDBRANCH  90  91
ENDBRANCH  58  83
ENDBRANCH  32  33
ENDBRANCH  24  27
ENDBRANCH  22  23
ENDBRANCH  21  22
ENDBRANCH   1  21
TORSDOF 17
ENDMDL
MODEL 2
REMARK VINA RESULT:     -10.6      5.206     10.608
REMARK SMILES C[C@@H](C(=O)NCCCNC(=O)c1ccc(-c2c3nc(c(-c4c(F)cc(S(=O)(=O)[O-])cc4F)c4ccc([nH]4)c(-c4c(F)cc(S(=O)(=O)[O-])cc4F)c4nc(c(-c5c(F)cc(S(=O)(=O)[O-])cc5F)c5ccc2[nH]5)C=C4)C=C3)cc1)[C@@H](C)c1ccc(OC(F)(F)F)cc1
REMARK SMILES IDX 6 1 5 2 3 3 4 4 2 6 1 7 78 8 79 9 80 10 81 11 90 12 82 13
REMARK SMILES IDX 89 14 83 15 84 16 85 17 86 18 87 19 88 20 7 21 8 22 9 23
REMARK SMILES IDX 10 24 11 26 12 27 13 28 77 29 14 30 76 31 15 32 16 33 17 34
REMARK SMILES IDX 70 35 18 36 75 37 69 38 71 39 19 40 74 41 68 42 67 43 20 45
REMARK SMILES IDX 54 46 33 47 53 48 34 49 37 50 52 51 72 52 35 53 36 54 51 56
REMARK SMILES IDX 73 57 38 58 21 59 22 60 31 61 23 62 24 63 30 64 32 65 25 66
REMARK SMILES IDX 26 67 27 68 28 69 29 70 55 71 56 72 65 73 57 74 58 75 64 76
REMARK SMILES IDX 66 77 59 78 60 79 61 80 62 81 63 82 39 83 40 84 49 85 41 86
REMARK SMILES IDX 42 87 48 88 50 89 43 90 44 91 45 92 46 93 47 94
REMARK H PARENT 5 5 9 25 71 44 37 55
REMARK Flexibility Score: inf
ROOT
ATOM      1  C   UNL A   1      39.261  22.631  26.519  1.00  0.00     0.117 C 
ENDROOT
BRANCH   1   2
ATOM      2  N   UNL A   1      38.906  21.644  25.518  1.00  0.00    -0.356 N 
ATOM      3  C   UNL A   1      37.673  21.214  25.127  1.00  0.00     0.223 C 
ATOM      4  O   UNL A   1      37.604  20.105  24.597  1.00  0.00    -0.275 OA
ATOM      5  H   UNL A   1      39.664  21.223  25.052  1.00  0.00     0.163 HD
BRANCH   3   6
ATOM      6  C   UNL A   1      36.444  22.089  25.384  1.00  0.00     0.082 C 
ATOM      7  C   UNL A   1      35.203  21.203  25.220  1.00  0.00     0.018 C 
BRANCH   6   8
ATOM      8  C   UNL A   1      36.420  23.328  24.431  1.00  0.00     0.028 C 
ATOM      9  C   UNL A   1      36.672  22.928  22.965  1.00  0.00     0.013 C 
BRANCH   8  10
ATOM     10  C   UNL A   1      35.126  24.141  24.579  1.00  0.00    -0.044 A 
ATOM     11  C   UNL A   1      34.274  24.284  23.474  1.00  0.00     0.008 A 
ATOM     12  C   UNL A   1      34.745  24.763  25.775  1.00  0.00     0.008 A 
ATOM     13  C   UNL A   1      33.112  25.054  23.549  1.00  0.00     0.047 A 
ATOM     14  C   UNL A   1      33.556  25.506  25.862  1.00  0.00     0.047 A 
ATOM     15  C   UNL A   1      32.741  25.667  24.743  1.00  0.00     0.129 A 
BRANCH  15  16
ATOM     16  O   UNL A   1      31.586  26.390  24.670  1.00  0.00    -0.406 OA
BRANCH  16  17
ATOM     17  C   UNL A   1      30.362  25.688  24.766  1.00  0.00     0.573 C 
ATOM     18  F   UNL A   1      30.216  24.818  23.743  1.00  0.00    -0.132 F 
ATOM     19  F   UNL A   1      30.260  25.026  25.938  1.00  0.00    -0.132 F 
ATOM     20  F   UNL A   1      29.346  26.579  24.703  1.00  0.00    -0.132 F 
ENDBRANCH  16  17
ENDBRANCH  15  16
ENDBRANCH   8  10
ENDBRANCH   6   8
ENDBRANCH   3   6
ENDBRANCH   1   2
BRANCH   1  21
ATOM     21  C   UNL A   1      40.429  22.139  27.374  1.00  0.00     0.042 C 
BRANCH  21  22
ATOM     22  C   UNL A   1      41.656  23.047  27.340  1.00  0.00     0.118 C 
BRANCH  22  23
ATOM     23  N   UNL A   1      41.660  23.935  26.187  1.00  0.00    -0.352 N 
ATOM     24  C   UNL A   1      41.456  25.292  26.126  1.00  0.00     0.251 C 
ATOM     25  H   UNL A   1      41.833  23.499  25.321  1.00  0.00     0.163 HD
ATOM     26  O   UNL A   1      41.301  25.834  25.033  1.00  0.00    -0.269 OA
BRANCH  24  27
ATOM     27  C   UNL A   1      41.396  26.096  27.367  1.00  0.00     0.039 A 
ATOM     28  C   UNL A   1      42.457  26.954  27.667  1.00  0.00     0.014 A 
ATOM     29  C   UNL A   1      40.303  26.007  28.233  1.00  0.00     0.014 A 
ATOM     30  C   UNL A   1      42.385  27.782  28.790  1.00  0.00     0.010 A 
ATOM     31  C   UNL A   1      40.201  26.882  29.314  1.00  0.00     0.010 A 
ATOM     32  C   UNL A   1      41.234  27.788  29.596  1.00  0.00    -0.014 A 
BRANCH  32  33
ATOM     33  C   UNL A   1      41.070  28.766  30.705  1.00  0.00     0.031 A 
ATOM     34  C   UNL A   1      41.878  28.631  31.966  1.00  0.00     0.074 A 
ATOM     35  C   UNL A   1      40.123  29.721  30.606  1.00  0.00     0.049 A 
ATOM     36  N   UNL A   1      41.793  29.318  33.076  1.00  0.00    -0.248 NA
ATOM     37  C   UNL A   1      42.900  27.570  31.996  1.00  0.00     0.031 C 
ATOM     38  C   UNL A   1      39.246  29.927  29.450  1.00  0.00     0.029 A 
ATOM     39  N   UNL A   1      39.719  30.685  31.499  1.00  0.00    -0.354 N 
ATOM     40  C   UNL A   1      42.730  28.763  33.941  1.00  0.00     0.074 A 
ATOM     41  C   UNL A   1      43.353  27.664  33.239  1.00  0.00     0.031 C 
ATOM     42  C   UNL A   1      38.414  30.951  29.701  1.00  0.00     0.029 A 
ATOM     43  C   UNL A   1      38.660  31.443  31.052  1.00  0.00     0.049 A 
ATOM     44  H   UNL A   1      40.146  30.820  32.375  1.00  0.00     0.167 HD
ATOM     45  C   UNL A   1      43.043  29.146  35.202  1.00  0.00     0.037 A 
ATOM     46  C   UNL A   1      37.948  32.407  31.669  1.00  0.00     0.037 A 
ATOM     47  C   UNL A   1      42.440  30.265  35.880  1.00  0.00     0.049 A 
ATOM     48  C   UNL A   1      38.307  32.796  33.078  1.00  0.00     0.074 A 
ATOM     49  C   UNL A   1      42.762  30.790  37.119  1.00  0.00     0.029 A 
ATOM     50  N   UNL A   1      41.385  31.018  35.389  1.00  0.00    -0.354 N 
ATOM     51  N   UNL A   1      39.265  32.327  33.842  1.00  0.00    -0.248 NA
ATOM     52  C   UNL A   1      37.491  33.841  33.713  1.00  0.00     0.031 C 
ATOM     53  C   UNL A   1      41.858  31.817  37.406  1.00  0.00     0.029 A 
ATOM     54  C   UNL A   1      41.012  31.973  36.321  1.00  0.00     0.049 A 
ATOM     55  H   UNL A   1      40.962  30.893  34.509  1.00  0.00     0.167 HD
ATOM     56  C   UNL A   1      39.179  33.036  35.036  1.00  0.00     0.074 A 
ATOM     57  C   UNL A   1      38.089  33.977  34.889  1.00  0.00     0.031 C 
ATOM     58  C   UNL A   1      39.933  32.913  36.157  1.00  0.00     0.037 A 
BRANCH  45  59
ATOM     59  C   UNL A   1      44.080  28.356  35.952  1.00  0.00     0.058 A 
ATOM     60  C   UNL A   1      43.739  27.253  36.749  1.00  0.00     0.135 A 
ATOM     61  C   UNL A   1      45.444  28.652  35.792  1.00  0.00     0.135 A 
ATOM     62  F   UNL A   1      42.452  26.933  36.947  1.00  0.00    -0.206 F 
ATOM     63  C   UNL A   1      44.714  26.474  37.367  1.00  0.00     0.059 A 
ATOM     64  C   UNL A   1      46.437  27.871  36.378  1.00  0.00     0.059 A 
ATOM     65  F   UNL A   1      45.826  29.698  35.043  1.00  0.00    -0.206 F 
ATOM     66  C   UNL A   1      46.061  26.787  37.168  1.00  0.00     0.060 A 
BRANCH  66  67
ATOM     67  S   UNL A   1      47.310  25.737  37.941  1.00  0.00     0.124 S 
ATOM     68  O   UNL A   1      47.111  24.476  37.233  1.00  0.00    -0.237 OA
ATOM     69  O   UNL A   1      48.546  26.448  37.632  1.00  0.00    -0.237 OA
ATOM     70  O   UNL A   1      46.927  25.732  39.350  1.00  0.00    -0.744 OA
ENDBRANCH  66  67
ENDBRANCH  45  59
BRANCH  46  71
ATOM     71  C   UNL A   1      36.801  33.058  30.975  1.00  0.00     0.058 A 
ATOM     72  C   UNL A   1      35.476  32.756  31.322  1.00  0.00     0.135 A 
ATOM     73  C   UNL A   1      37.007  33.975  29.931  1.00  0.00     0.135 A 
ATOM     74  F   UNL A   1      35.224  31.883  32.309  1.00  0.00    -0.206 F 
ATOM     75  C   UNL A   1      34.398  33.312  30.641  1.00  0.00     0.059 A 
ATOM     76  C   UNL A   1      35.946  34.568  29.256  1.00  0.00     0.059 A 
ATOM     77  F   UNL A   1      38.255  34.313  29.568  1.00  0.00    -0.206 F 
ATOM     78  C   UNL A   1      34.644  34.217  29.606  1.00  0.00     0.060 A 
BRANCH  78  79
ATOM     79  S   UNL A   1      33.238  34.940  28.735  1.00  0.00     0.124 S 
ATOM     80  O   UNL A   1      33.852  36.098  28.097  1.00  0.00    -0.237 OA
ATOM     81  O   UNL A   1      32.837  33.855  27.845  1.00  0.00    -0.237 OA
ATOM     82  O   UNL A   1      32.296  35.238  29.810  1.00  0.00    -0.744 OA
ENDBRANCH  78  79
ENDBRANCH  46  71
BRANCH  58  83
ATOM     83  C   UNL A   1      39.630  33.832  37.309  1.00  0.00     0.058 A 
ATOM     84  C   UNL A   1      38.767  33.448  38.348  1.00  0.00     0.135 A 
ATOM     85  C   UNL A   1      40.275  35.074  37.417  1.00  0.00     0.135 A 
ATOM     86  F   UNL A   1      38.116  32.275  38.287  1.00  0.00    -0.206 F 
ATOM     87  C   UNL A   1      38.550  34.266  39.451  1.00  0.00     0.059 A 
ATOM     88  C   UNL A   1      40.097  35.895  38.526  1.00  0.00     0.059 A 
ATOM     89  F   UNL A   1      41.115  35.486  36.455  1.00  0.00    -0.206 F 
ATOM     90  C   UNL A   1      39.228  35.484  39.536  1.00  0.00     0.060 A 
BRANCH  90  91
ATOM     91  S   UNL A   1      38.989  36.503  41.006  1.00  0.00     0.124 S 
ATOM     92  O   UNL A   1      37.988  35.735  41.739  1.00  0.00    -0.237 OA
ATOM     93  O   UNL A   1      40.326  36.522  41.592  1.00  0.00    -0.237 OA
ATOM     94  O   UNL A   1      38.529  37.779  40.467  1.00  0.00    -0.744 OA
ENDBRANCH  90  91
ENDBRANCH  58  83
ENDBRANCH  32  33
ENDBRANCH  24  27
ENDBRANCH  22  23
ENDBRANCH  21  22
ENDBRANCH   1  21
TORSDOF 17
ENDMDL
MODEL 3
REMARK VINA RESULT:     -10.5      4.351     10.425
REMARK SMILES C[C@@H](C(=O)NCCCNC(=O)c1ccc(-c2c3nc(c(-c4c(F)cc(S(=O)(=O)[O-])cc4F)c4ccc([nH]4)c(-c4c(F)cc(S(=O)(=O)[O-])cc4F)c4nc(c(-c5c(F)cc(S(=O)(=O)[O-])cc5F)c5ccc2[nH]5)C=C4)C=C3)cc1)[C@@H](C)c1ccc(OC(F)(F)F)cc1
REMARK SMILES IDX 6 1 5 2 3 3 4 4 2 6 1 7 78 8 79 9 80 10 81 11 90 12 82 13
REMARK SMILES IDX 89 14 83 15 84 16 85 17 86 18 87 19 88 20 7 21 8 22 9 23
REMARK SMILES IDX 10 24 11 26 12 27 13 28 77 29 14 30 76 31 15 32 16 33 17 34
REMARK SMILES IDX 70 35 18 36 75 37 69 38 71 39 19 40 74 41 68 42 67 43 20 45
REMARK SMILES IDX 54 46 33 47 53 48 34 49 37 50 52 51 72 52 35 53 36 54 51 56
REMARK SMILES IDX 73 57 38 58 21 59 22 60 31 61 23 62 24 63 30 64 32 65 25 66
REMARK SMILES IDX 26 67 27 68 28 69 29 70 55 71 56 72 65 73 57 74 58 75 64 76
REMARK SMILES IDX 66 77 59 78 60 79 61 80 62 81 63 82 39 83 40 84 49 85 41 86
REMARK SMILES IDX 42 87 48 88 50 89 43 90 44 91 45 92 46 93 47 94
REMARK H PARENT 5 5 9 25 71 44 37 55
REMARK Flexibility Score: inf
ROOT
ATOM      1  C   UNL A   1      42.459  20.097  25.782  1.00  0.00     0.117 C 
ENDROOT
BRANCH   1   2
ATOM      2  N   UNL A   1      43.895  19.885  25.791  1.00  0.00    -0.356 N 
ATOM      3  C   UNL A   1      44.898  20.745  25.459  1.00  0.00     0.223 C 
ATOM      4  O   UNL A   1      45.978  20.252  25.130  1.00  0.00    -0.275 OA
ATOM      5  H   UNL A   1      44.187  18.990  26.080  1.00  0.00     0.163 HD
BRANCH   3   6
ATOM      6  C   UNL A   1      44.644  22.254  25.474  1.00  0.00     0.082 C 
ATOM      7  C   UNL A   1      44.445  22.704  24.021  1.00  0.00     0.018 C 
BRANCH   6   8
ATOM      8  C   UNL A   1      45.812  23.019  26.177  1.00  0.00     0.028 C 
ATOM      9  C   UNL A   1      46.407  24.115  25.271  1.00  0.00     0.013 C 
BRANCH   8  10
ATOM     10  C   UNL A   1      45.390  23.583  27.540  1.00  0.00    -0.044 A 
ATOM     11  C   UNL A   1      46.277  24.408  28.248  1.00  0.00     0.008 A 
ATOM     12  C   UNL A   1      44.149  23.311  28.132  1.00  0.00     0.008 A 
ATOM     13  C   UNL A   1      45.955  24.904  29.513  1.00  0.00     0.047 A 
ATOM     14  C   UNL A   1      43.809  23.841  29.387  1.00  0.00     0.047 A 
ATOM     15  C   UNL A   1      44.717  24.629  30.091  1.00  0.00     0.129 A 
BRANCH  15  16
ATOM     16  O   UNL A   1      44.540  25.175  31.328  1.00  0.00    -0.406 OA
BRANCH  16  17
ATOM     17  C   UNL A   1      43.984  26.472  31.404  1.00  0.00     0.573 C 
ATOM     18  F   UNL A   1      43.520  26.734  32.645  1.00  0.00    -0.132 F 
ATOM     19  F   UNL A   1      44.880  27.419  31.049  1.00  0.00    -0.132 F 
ATOM     20  F   UNL A   1      42.941  26.547  30.545  1.00  0.00    -0.132 F 
ENDBRANCH  16  17
ENDBRANCH  15  16
ENDBRANCH   8  10
ENDBRANCH   6   8
ENDBRANCH   3   6
ENDBRANCH   1   2
BRANCH   1  21
ATOM     21  C   UNL A   1      41.924  20.237  27.207  1.00  0.00     0.042 C 
BRANCH  21  22
ATOM     22  C   UNL A   1      41.141  21.524  27.458  1.00  0.00     0.118 C 
BRANCH  22  23
ATOM     23  N   UNL A   1      39.892  21.571  26.712  1.00  0.00    -0.352 N 
ATOM     24  C   UNL A   1      39.056  22.633  26.471  1.00  0.00     0.251 C 
ATOM     25  H   UNL A   1      39.603  20.714  26.323  1.00  0.00     0.163 HD
ATOM     26  O   UNL A   1      37.944  22.432  25.987  1.00  0.00    -0.269 OA
BRANCH  24  27
ATOM     27  C   UNL A   1      39.476  24.009  26.815  1.00  0.00     0.039 A 
ATOM     28  C   UNL A   1      39.310  24.459  28.127  1.00  0.00     0.014 A 
ATOM     29  C   UNL A   1      40.032  24.856  25.852  1.00  0.00     0.014 A 
ATOM     30  C   UNL A   1      39.774  25.724  28.493  1.00  0.00     0.010 A 
ATOM     31  C   UNL A   1      40.557  26.091  26.233  1.00  0.00     0.010 A 
ATOM     32  C   UNL A   1      40.445  26.532  27.560  1.00  0.00    -0.014 A 
BRANCH  32  33
ATOM     33  C   UNL A   1      41.081  27.815  27.963  1.00  0.00     0.031 A 
ATOM     34  C   UNL A   1      42.573  27.986  27.876  1.00  0.00     0.074 A 
ATOM     35  C   UNL A   1      40.317  28.792  28.493  1.00  0.00     0.049 A 
ATOM     36  N   UNL A   1      43.312  28.986  28.282  1.00  0.00    -0.248 NA
ATOM     37  C   UNL A   1      43.340  26.880  27.277  1.00  0.00     0.031 C 
ATOM     38  C   UNL A   1      38.864  28.728  28.669  1.00  0.00     0.029 A 
ATOM     39  N   UNL A   1      40.655  30.022  29.006  1.00  0.00    -0.354 N 
ATOM     40  C   UNL A   1      44.627  28.624  28.010  1.00  0.00     0.074 A 
ATOM     41  C   UNL A   1      44.589  27.300  27.431  1.00  0.00     0.031 C 
ATOM     42  C   UNL A   1      38.436  29.865  29.241  1.00  0.00     0.029 A 
ATOM     43  C   UNL A   1      39.586  30.719  29.522  1.00  0.00     0.049 A 
ATOM     44  H   UNL A   1      41.574  30.371  29.004  1.00  0.00     0.167 HD
ATOM     45  C   UNL A   1      45.759  29.338  28.220  1.00  0.00     0.037 A 
ATOM     46  C   UNL A   1      39.537  31.897  30.174  1.00  0.00     0.037 A 
ATOM     47  C   UNL A   1      45.783  30.671  28.767  1.00  0.00     0.049 A 
ATOM     48  C   UNL A   1      40.814  32.658  30.409  1.00  0.00     0.074 A 
ATOM     49  C   UNL A   1      46.870  31.512  28.923  1.00  0.00     0.029 A 
ATOM     50  N   UNL A   1      44.679  31.348  29.262  1.00  0.00    -0.354 N 
ATOM     51  N   UNL A   1      42.036  32.344  30.051  1.00  0.00    -0.248 NA
ATOM     52  C   UNL A   1      40.711  33.931  31.138  1.00  0.00     0.031 C 
ATOM     53  C   UNL A   1      46.436  32.670  29.574  1.00  0.00     0.029 A 
ATOM     54  C   UNL A   1      45.067  32.577  29.767  1.00  0.00     0.049 A 
ATOM     55  H   UNL A   1      43.756  31.006  29.255  1.00  0.00     0.167 HD
ATOM     56  C   UNL A   1      42.841  33.390  30.492  1.00  0.00     0.074 A 
ATOM     57  C   UNL A   1      41.967  34.354  31.125  1.00  0.00     0.031 C 
ATOM     58  C   UNL A   1      44.185  33.535  30.385  1.00  0.00     0.037 A 
BRANCH  45  59
ATOM     59  C   UNL A   1      47.078  28.708  27.867  1.00  0.00     0.058 A 
ATOM     60  C   UNL A   1      47.603  28.763  26.567  1.00  0.00     0.135 A 
ATOM     61  C   UNL A   1      47.870  28.123  28.869  1.00  0.00     0.135 A 
ATOM     62  F   UNL A   1      46.884  29.299  25.569  1.00  0.00    -0.206 F 
ATOM     63  C   UNL A   1      48.864  28.255  26.271  1.00  0.00     0.059 A 
ATOM     64  C   UNL A   1      49.146  27.633  28.601  1.00  0.00     0.059 A 
ATOM     65  F   UNL A   1      47.415  28.041  30.129  1.00  0.00    -0.206 F 
ATOM     66  C   UNL A   1      49.632  27.699  27.297  1.00  0.00     0.060 A 
BRANCH  66  67
ATOM     67  S   UNL A   1      51.283  27.088  26.901  1.00  0.00     0.124 S 
ATOM     68  O   UNL A   1      52.014  27.406  28.124  1.00  0.00    -0.237 OA
ATOM     69  O   UNL A   1      51.039  25.670  26.660  1.00  0.00    -0.237 OA
ATOM     70  O   UNL A   1      51.662  27.865  25.725  1.00  0.00    -0.744 OA
ENDBRANCH  66  67
ENDBRANCH  45  59
BRANCH  46  71
ATOM     71  C   UNL A   1      38.238  32.425  30.679  1.00  0.00     0.058 A 
ATOM     72  C   UNL A   1      37.417  33.227  29.872  1.00  0.00     0.135 A 
ATOM     73  C   UNL A   1      37.804  32.161  31.989  1.00  0.00     0.135 A 
ATOM     74  F   UNL A   1      37.788  33.513  28.615  1.00  0.00    -0.206 F 
ATOM     75  C   UNL A   1      36.233  33.775  30.353  1.00  0.00     0.059 A 
ATOM     76  C   UNL A   1      36.609  32.672  32.482  1.00  0.00     0.059 A 
ATOM     77  F   UNL A   1      38.542  31.386  32.799  1.00  0.00    -0.206 F 
ATOM     78  C   UNL A   1      35.838  33.494  31.662  1.00  0.00     0.060 A 
BRANCH  78  79
ATOM     79  S   UNL A   1      34.294  34.202  32.273  1.00  0.00     0.124 S 
ATOM     80  O   UNL A   1      33.718  33.073  32.993  1.00  0.00    -0.237 OA
ATOM     81  O   UNL A   1      34.769  35.311  33.095  1.00  0.00    -0.237 OA
ATOM     82  O   UNL A   1      33.598  34.592  31.050  1.00  0.00    -0.744 OA
ENDBRANCH  78  79
ENDBRANCH  46  71
BRANCH  58  83
ATOM     83  C   UNL A   1      44.800  34.791  30.940  1.00  0.00     0.058 A 
ATOM     84  C   UNL A   1      45.330  34.837  32.239  1.00  0.00     0.135 A 
ATOM     85  C   UNL A   1      44.938  35.932  30.135  1.00  0.00     0.135 A 
ATOM     86  F   UNL A   1      45.215  33.777  33.055  1.00  0.00    -0.206 F 
ATOM     87  C   UNL A   1      45.969  35.974  32.723  1.00  0.00     0.059 A 
ATOM     88  C   UNL A   1      45.600  37.069  30.586  1.00  0.00     0.059 A 
ATOM     89  F   UNL A   1      44.456  35.938  28.882  1.00  0.00    -0.206 F 
ATOM     90  C   UNL A   1      46.108  37.082  31.884  1.00  0.00     0.060 A 
BRANCH  90  91
ATOM     91  S   UNL A   1      47.000  38.524  32.502  1.00  0.00     0.124 S 
ATOM     92  O   UNL A   1      47.942  38.777  31.416  1.00  0.00    -0.237 OA
ATOM     93  O   UNL A   1      45.932  39.508  32.656  1.00  0.00    -0.237 OA
ATOM     94  O   UNL A   1      47.593  38.051  33.749  1.00  0.00    -0.744 OA
ENDBRANCH  90  91
ENDBRANCH  58  83
ENDBRANCH  32  33
ENDBRANCH  24  27
ENDBRANCH  22  23
ENDBRANCH  21  22
ENDBRANCH   1  21
TORSDOF 17
ENDMDL
