MODEL 1
REMARK VINA RESULT:      -9.7      0.000      0.000
REMARK SMILES CC1(C)[C@H](C(=O)NCCCNC(=O)c2ccc(-c3c4nc(c(-c5c(F)cc(S(=O)(=O)[O-])cc5F)c5ccc([nH]5)c(-c5c(F)cc(S(=O)(=O)[O-])cc5F)c5nc(c(-c6c(F)cc(S(=O)(=O)[O-])cc6F)c6ccc3[nH]6)C=C5)C=C4)cc2)[C@@H]1C(=O)Nc1ccc(NC(=O)C2CCC2)cc1
REMARK SMILES IDX 8 1 7 2 5 3 6 4 4 6 1 7 2 8 3 9 80 10 81 11 82 12 83 13
REMARK SMILES IDX 84 15 85 16 96 17 86 18 95 19 87 20 88 21 89 22 90 24 91 25
REMARK SMILES IDX 92 26 94 27 93 28 9 29 10 30 11 31 12 32 13 34 14 35 15 36
REMARK SMILES IDX 79 37 16 38 78 39 17 40 18 41 19 42 72 43 20 44 77 45 71 46
REMARK SMILES IDX 73 47 21 48 76 49 70 50 69 51 22 53 56 54 35 55 55 56 36 57
REMARK SMILES IDX 39 58 54 59 74 60 37 61 38 62 53 64 75 65 40 66 23 67 24 68
REMARK SMILES IDX 33 69 25 70 26 71 32 72 34 73 27 74 28 75 29 76 30 77 31 78
REMARK SMILES IDX 57 79 58 80 67 81 59 82 60 83 66 84 68 85 61 86 62 87 63 88
REMARK SMILES IDX 64 89 65 90 41 91 42 92 51 93 43 94 44 95 50 96 52 97 45 98
REMARK SMILES IDX 46 99 47 100 48 101 49 102
REMARK H PARENT 7 5 83 14 88 23 11 33 73 52 39 63
REMARK Flexibility Score: inf
ROOT
ATOM      1  C   UNL A   1      34.810  32.789  30.692  1.00  0.00     0.117 C 
ENDROOT
BRANCH   1   2
ATOM      2  N   UNL A   1      35.217  33.832  31.610  1.00  0.00    -0.356 N 
ATOM      3  C   UNL A   1      36.372  34.179  32.242  1.00  0.00     0.224 C 
ATOM      4  O   UNL A   1      36.295  35.185  32.953  1.00  0.00    -0.275 OA
ATOM      5  H   UNL A   1      34.476  34.441  31.832  1.00  0.00     0.163 HD
BRANCH   3   6
ATOM      6  C   UNL A   1      37.696  33.517  32.183  1.00  0.00     0.098 C 
ATOM      7  C   UNL A   1      40.084  33.851  33.047  1.00  0.00     0.013 C 
ATOM      8  C   UNL A   1      38.678  33.368  33.332  1.00  0.00    -0.011 C 
ATOM      9  C   UNL A   1      38.253  33.682  34.746  1.00  0.00     0.013 C 
ATOM     10  C   UNL A   1      38.171  32.143  32.537  1.00  0.00     0.098 C 
BRANCH  10  11
ATOM     11  C   UNL A   1      37.379  31.029  33.094  1.00  0.00     0.228 C 
ATOM     12  O   UNL A   1      36.156  31.032  32.987  1.00  0.00    -0.274 OA
ATOM     13  N   UNL A   1      37.993  30.001  33.777  1.00  0.00    -0.326 N 
ATOM     14  H   UNL A   1      37.402  29.398  34.285  1.00  0.00     0.169 HD
BRANCH  13  15
ATOM     15  C   UNL A   1      39.361  29.724  33.828  1.00  0.00     0.041 A 
ATOM     16  C   UNL A   1      39.816  28.787  32.913  1.00  0.00     0.028 A 
ATOM     17  C   UNL A   1      40.277  30.403  34.625  1.00  0.00     0.028 A 
ATOM     18  C   UNL A   1      41.170  28.719  32.630  1.00  0.00     0.028 A 
ATOM     19  C   UNL A   1      41.650  30.143  34.476  1.00  0.00     0.028 A 
ATOM     20  C   UNL A   1      42.107  29.290  33.462  1.00  0.00     0.041 A 
BRANCH  20  21
ATOM     21  N   UNL A   1      43.479  29.051  33.336  1.00  0.00    -0.326 N 
ATOM     22  C   UNL A   1      44.262  27.912  33.343  1.00  0.00     0.227 C 
ATOM     23  H   UNL A   1      44.002  29.877  33.215  1.00  0.00     0.169 HD
ATOM     24  O   UNL A   1      45.481  28.140  33.200  1.00  0.00    -0.274 OA
BRANCH  22  25
ATOM     25  C   UNL A   1      43.764  26.450  33.505  1.00  0.00     0.079 C 
ATOM     26  C   UNL A   1      44.317  25.479  32.398  1.00  0.00     0.013 C 
ATOM     27  C   UNL A   1      44.322  25.378  34.498  1.00  0.00     0.013 C 
ATOM     28  C   UNL A   1      44.148  24.330  33.395  1.00  0.00     0.002 C 
ENDBRANCH  22  25
ENDBRANCH  20  21
ENDBRANCH  13  15
ENDBRANCH  10  11
ENDBRANCH   3   6
ENDBRANCH   1   2
BRANCH   1  29
ATOM     29  C   UNL A   1      34.178  33.362  29.435  1.00  0.00     0.042 C 
BRANCH  29  30
ATOM     30  C   UNL A   1      34.621  32.631  28.171  1.00  0.00     0.118 C 
BRANCH  30  31
ATOM     31  N   UNL A   1      33.971  31.334  28.007  1.00  0.00    -0.352 N 
ATOM     32  C   UNL A   1      34.537  30.081  27.960  1.00  0.00     0.251 C 
ATOM     33  H   UNL A   1      32.991  31.359  27.919  1.00  0.00     0.163 HD
ATOM     34  O   UNL A   1      33.860  29.111  27.633  1.00  0.00    -0.269 OA
BRANCH  32  35
ATOM     35  C   UNL A   1      35.969  29.926  28.283  1.00  0.00     0.039 A 
ATOM     36  C   UNL A   1      36.350  29.551  29.572  1.00  0.00     0.014 A 
ATOM     37  C   UNL A   1      36.930  30.098  27.283  1.00  0.00     0.014 A 
ATOM     38  C   UNL A   1      37.690  29.264  29.835  1.00  0.00     0.010 A 
ATOM     39  C   UNL A   1      38.243  29.714  27.521  1.00  0.00     0.010 A 
ATOM     40  C   UNL A   1      38.640  29.298  28.800  1.00  0.00    -0.014 A 
BRANCH  40  41
ATOM     41  C   UNL A   1      40.061  28.930  29.023  1.00  0.00     0.031 A 
ATOM     42  C   UNL A   1      41.018  29.964  29.554  1.00  0.00     0.074 A 
ATOM     43  C   UNL A   1      40.507  27.706  28.671  1.00  0.00     0.049 A 
ATOM     44  N   UNL A   1      42.317  29.899  29.686  1.00  0.00    -0.248 NA
ATOM     45  C   UNL A   1      40.440  31.261  29.952  1.00  0.00     0.031 C 
ATOM     46  C   UNL A   1      39.688  26.634  28.101  1.00  0.00     0.029 A 
ATOM     47  N   UNL A   1      41.766  27.162  28.728  1.00  0.00    -0.354 N 
ATOM     48  C   UNL A   1      42.711  31.146  30.160  1.00  0.00     0.074 A 
ATOM     49  C   UNL A   1      41.524  31.967  30.233  1.00  0.00     0.031 C 
ATOM     50  C   UNL A   1      40.459  25.555  27.885  1.00  0.00     0.029 A 
ATOM     51  C   UNL A   1      41.834  25.871  28.257  1.00  0.00     0.049 A 
ATOM     52  H   UNL A   1      42.547  27.651  29.073  1.00  0.00     0.167 HD
ATOM     53  C   UNL A   1      43.944  31.558  30.534  1.00  0.00     0.037 A 
ATOM     54  C   UNL A   1      42.888  25.041  28.133  1.00  0.00     0.037 A 
ATOM     55  C   UNL A   1      45.113  30.720  30.501  1.00  0.00     0.049 A 
ATOM     56  C   UNL A   1      44.250  25.523  28.562  1.00  0.00     0.074 A 
ATOM     57  C   UNL A   1      46.402  31.027  30.899  1.00  0.00     0.029 A 
ATOM     58  N   UNL A   1      45.131  29.406  30.059  1.00  0.00    -0.354 N 
ATOM     59  N   UNL A   1      44.595  26.692  29.048  1.00  0.00    -0.248 NA
ATOM     60  C   UNL A   1      45.364  24.573  28.431  1.00  0.00     0.031 C 
ATOM     61  C   UNL A   1      47.207  29.907  30.670  1.00  0.00     0.029 A 
ATOM     62  C   UNL A   1      46.409  28.889  30.171  1.00  0.00     0.049 A 
ATOM     63  H   UNL A   1      44.350  28.915  29.717  1.00  0.00     0.167 HD
ATOM     64  C   UNL A   1      45.958  26.604  29.314  1.00  0.00     0.074 A 
ATOM     65  C   UNL A   1      46.371  25.268  28.942  1.00  0.00     0.031 C 
ATOM     66  C   UNL A   1      46.792  27.544  29.821  1.00  0.00     0.037 A 
BRANCH  53  67
ATOM     67  C   UNL A   1      44.087  32.967  31.036  1.00  0.00     0.058 A 
ATOM     68  C   UNL A   1      44.418  34.023  30.170  1.00  0.00     0.135 A 
ATOM     69  C   UNL A   1      43.851  33.277  32.385  1.00  0.00     0.135 A 
ATOM     70  F   UNL A   1      44.675  33.780  28.876  1.00  0.00    -0.206 F 
ATOM     71  C   UNL A   1      44.532  35.331  30.628  1.00  0.00     0.059 A 
ATOM     72  C   UNL A   1      43.931  34.584  32.860  1.00  0.00     0.059 A 
ATOM     73  F   UNL A   1      43.535  32.305  33.256  1.00  0.00    -0.206 F 
ATOM     74  C   UNL A   1      44.283  35.601  31.974  1.00  0.00     0.060 A 
BRANCH  74  75
ATOM     75  S   UNL A   1      44.412  37.309  32.544  1.00  0.00     0.124 S 
ATOM     76  O   UNL A   1      43.641  37.260  33.783  1.00  0.00    -0.237 OA
ATOM     77  O   UNL A   1      45.852  37.478  32.701  1.00  0.00    -0.237 OA
ATOM     78  O   UNL A   1      43.808  38.076  31.460  1.00  0.00    -0.744 OA
ENDBRANCH  74  75
ENDBRANCH  53  67
BRANCH  54  79
ATOM     79  C   UNL A   1      42.706  23.663  27.602  1.00  0.00     0.058 A 
ATOM     80  C   UNL A   1      42.555  22.572  28.471  1.00  0.00     0.135 A 
ATOM     81  C   UNL A   1      42.700  23.404  26.223  1.00  0.00     0.135 A 
ATOM     82  F   UNL A   1      42.557  22.768  29.799  1.00  0.00    -0.206 F 
ATOM     83  C   UNL A   1      42.438  21.270  27.996  1.00  0.00     0.059 A 
ATOM     84  C   UNL A   1      42.558  22.113  25.721  1.00  0.00     0.059 A 
ATOM     85  F   UNL A   1      42.820  24.414  25.348  1.00  0.00    -0.206 F 
ATOM     86  C   UNL A   1      42.446  21.051  26.617  1.00  0.00     0.060 A 
BRANCH  86  87
ATOM     87  S   UNL A   1      42.281  19.358  26.008  1.00  0.00     0.124 S 
ATOM     88  O   UNL A   1      43.140  19.386  24.830  1.00  0.00    -0.237 OA
ATOM     89  O   UNL A   1      42.773  18.575  27.137  1.00  0.00    -0.237 OA
ATOM     90  O   UNL A   1      40.851  19.235  25.746  1.00  0.00    -0.744 OA
ENDBRANCH  86  87
ENDBRANCH  54  79
BRANCH  66  91
ATOM     91  C   UNL A   1      48.222  27.149  30.059  1.00  0.00     0.058 A 
ATOM     92  C   UNL A   1      49.240  27.483  29.154  1.00  0.00     0.135 A 
ATOM     93  C   UNL A   1      48.583  26.490  31.245  1.00  0.00     0.135 A 
ATOM     94  F   UNL A   1      48.944  28.107  28.003  1.00  0.00    -0.206 F 
ATOM     95  C   UNL A   1      50.569  27.160  29.409  1.00  0.00     0.059 A 
ATOM     96  C   UNL A   1      49.908  26.181  31.533  1.00  0.00     0.059 A 
ATOM     97  F   UNL A   1      47.646  26.159  32.149  1.00  0.00    -0.206 F 
ATOM     98  C   UNL A   1      50.893  26.514  30.603  1.00  0.00     0.060 A 
BRANCH  98  99
ATOM     99  S   UNL A   1      52.627  26.145  30.944  1.00  0.00     0.124 S 
ATOM    100  O   UNL A   1      53.175  26.037  29.597  1.00  0.00    -0.237 OA
ATOM    101  O   UNL A   1      53.050  27.314  31.709  1.00  0.00    -0.237 OA
ATOM    102  O   UNL A   1      52.567  24.898  31.701  1.00  0.00    -0.744 OA
ENDBRANCH  98  99
ENDBRANCH  66  91
ENDBRANCH  40  41
ENDBRANCH  32  35
ENDBRANCH  30  31
ENDBRANCH  29  30
ENDBRANCH   1  29
TORSDOF 17
ENDMDL
MODEL 2
REMARK VINA RESULT:      -9.6      5.120     12.615
REMARK SMILES CC1(C)[C@H](C(=O)NCCCNC(=O)c2ccc(-c3c4nc(c(-c5c(F)cc(S(=O)(=O)[O-])cc5F)c5ccc([nH]5)c(-c5c(F)cc(S(=O)(=O)[O-])cc5F)c5nc(c(-c6c(F)cc(S(=O)(=O)[O-])cc6F)c6ccc3[nH]6)C=C5)C=C4)cc2)[C@@H]1C(=O)Nc1ccc(NC(=O)C2CCC2)cc1
REMARK SMILES IDX 8 1 7 2 5 3 6 4 4 6 1 7 2 8 3 9 80 10 81 11 82 12 83 13
REMARK SMILES IDX 84 15 85 16 96 17 86 18 95 19 87 20 88 21 89 22 90 24 91 25
REMARK SMILES IDX 92 26 94 27 93 28 9 29 10 30 11 31 12 32 13 34 14 35 15 36
REMARK SMILES IDX 79 37 16 38 78 39 17 40 18 41 19 42 72 43 20 44 77 45 71 46
REMARK SMILES IDX 73 47 21 48 76 49 70 50 69 51 22 53 56 54 35 55 55 56 36 57
REMARK SMILES IDX 39 58 54 59 74 60 37 61 38 62 53 64 75 65 40 66 23 67 24 68
REMARK SMILES IDX 33 69 25 70 26 71 32 72 34 73 27 74 28 75 29 76 30 77 31 78
REMARK SMILES IDX 57 79 58 80 67 81 59 82 60 83 66 84 68 85 61 86 62 87 63 88
REMARK SMILES IDX 64 89 65 90 41 91 42 92 51 93 43 94 44 95 50 96 52 97 45 98
REMARK SMILES IDX 46 99 47 100 48 101 49 102
REMARK H PARENT 7 5 83 14 88 23 11 33 73 52 39 63
REMARK Flexibility Score: inf
ROOT
ATOM      1  C   UNL A   1      37.751  22.068  24.937  1.00  0.00     0.117 C 
ENDROOT
BRANCH   1   2
ATOM      2  N   UNL A   1      36.722  21.053  24.843  1.00  0.00    -0.356 N 
ATOM      3  C   UNL A   1      35.370  21.017  24.993  1.00  0.00     0.224 C 
ATOM      4  O   UNL A   1      34.852  19.913  24.801  1.00  0.00    -0.275 OA
ATOM      5  H   UNL A   1      37.092  20.171  24.613  1.00  0.00     0.163 HD
BRANCH   3   6
ATOM      6  C   UNL A   1      34.447  22.122  25.347  1.00  0.00     0.098 C 
ATOM      7  C   UNL A   1      34.484  24.659  25.691  1.00  0.00     0.013 C 
ATOM      8  C   UNL A   1      34.417  23.504  24.717  1.00  0.00    -0.011 C 
ATOM      9  C   UNL A   1      35.199  23.786  23.457  1.00  0.00     0.013 C 
ATOM     10  C   UNL A   1      33.159  22.607  24.760  1.00  0.00     0.098 C 
BRANCH  10  11
ATOM     11  C   UNL A   1      32.444  22.075  23.584  1.00  0.00     0.228 C 
ATOM     12  O   UNL A   1      32.541  20.887  23.292  1.00  0.00    -0.274 OA
ATOM     13  N   UNL A   1      31.702  22.908  22.774  1.00  0.00    -0.326 N 
ATOM     14  H   UNL A   1      31.414  22.537  21.909  1.00  0.00     0.169 HD
BRANCH  13  15
ATOM     15  C   UNL A   1      31.317  24.223  23.048  1.00  0.00     0.041 A 
ATOM     16  C   UNL A   1      31.955  25.201  22.302  1.00  0.00     0.028 A 
ATOM     17  C   UNL A   1      30.278  24.582  23.901  1.00  0.00     0.028 A 
ATOM     18  C   UNL A   1      31.397  26.466  22.225  1.00  0.00     0.028 A 
ATOM     19  C   UNL A   1      29.879  25.927  23.978  1.00  0.00     0.028 A 
ATOM     20  C   UNL A   1      30.444  26.887  23.126  1.00  0.00     0.041 A 
BRANCH  20  21
ATOM     21  N   UNL A   1      30.027  28.218  23.223  1.00  0.00    -0.326 N 
ATOM     22  C   UNL A   1      30.500  29.329  23.895  1.00  0.00     0.227 C 
ATOM     23  H   UNL A   1      29.216  28.405  22.694  1.00  0.00     0.169 HD
ATOM     24  O   UNL A   1      29.815  30.355  23.714  1.00  0.00    -0.274 OA
BRANCH  22  25
ATOM     25  C   UNL A   1      31.754  29.389  24.810  1.00  0.00     0.079 C 
ATOM     26  C   UNL A   1      31.681  28.396  26.029  1.00  0.00     0.013 C 
ATOM     27  C   UNL A   1      33.137  28.708  24.544  1.00  0.00     0.013 C 
ATOM     28  C   UNL A   1      33.212  28.377  26.037  1.00  0.00     0.002 C 
ENDBRANCH  22  25
ENDBRANCH  20  21
ENDBRANCH  13  15
ENDBRANCH  10  11
ENDBRANCH   3   6
ENDBRANCH   1   2
BRANCH   1  29
ATOM     29  C   UNL A   1      37.784  22.709  26.313  1.00  0.00     0.042 C 
BRANCH  29  30
ATOM     30  C   UNL A   1      38.562  24.021  26.330  1.00  0.00     0.118 C 
BRANCH  30  31
ATOM     31  N   UNL A   1      40.000  23.831  26.155  1.00  0.00    -0.352 N 
ATOM     32  C   UNL A   1      41.038  24.614  26.604  1.00  0.00     0.251 C 
ATOM     33  H   UNL A   1      40.262  23.031  25.646  1.00  0.00     0.163 HD
ATOM     34  O   UNL A   1      42.182  24.405  26.210  1.00  0.00    -0.269 OA
BRANCH  32  35
ATOM     35  C   UNL A   1      40.753  25.717  27.541  1.00  0.00     0.039 A 
ATOM     36  C   UNL A   1      39.753  25.565  28.503  1.00  0.00     0.014 A 
ATOM     37  C   UNL A   1      41.524  26.882  27.500  1.00  0.00     0.014 A 
ATOM     38  C   UNL A   1      39.585  26.549  29.479  1.00  0.00     0.010 A 
ATOM     39  C   UNL A   1      41.424  27.807  28.529  1.00  0.00     0.010 A 
ATOM     40  C   UNL A   1      40.450  27.655  29.528  1.00  0.00    -0.014 A 
BRANCH  40  41
ATOM     41  C   UNL A   1      40.351  28.686  30.592  1.00  0.00     0.031 A 
ATOM     42  C   UNL A   1      41.229  28.579  31.810  1.00  0.00     0.074 A 
ATOM     43  C   UNL A   1      39.421  29.661  30.506  1.00  0.00     0.049 A 
ATOM     44  N   UNL A   1      41.205  29.282  32.912  1.00  0.00    -0.248 NA
ATOM     45  C   UNL A   1      42.245  27.511  31.804  1.00  0.00     0.031 C 
ATOM     46  C   UNL A   1      38.479  29.842  29.399  1.00  0.00     0.029 A 
ATOM     47  N   UNL A   1      39.106  30.676  31.374  1.00  0.00    -0.354 N 
ATOM     48  C   UNL A   1      42.183  28.731  33.733  1.00  0.00     0.074 A 
ATOM     49  C   UNL A   1      42.738  27.597  33.029  1.00  0.00     0.031 C 
ATOM     50  C   UNL A   1      37.710  30.917  29.644  1.00  0.00     0.029 A 
ATOM     51  C   UNL A   1      38.072  31.474  30.943  1.00  0.00     0.049 A 
ATOM     52  H   UNL A   1      39.576  30.818  32.227  1.00  0.00     0.167 HD
ATOM     53  C   UNL A   1      42.604  29.151  34.948  1.00  0.00     0.037 A 
ATOM     54  C   UNL A   1      37.479  32.531  31.532  1.00  0.00     0.037 A 
ATOM     55  C   UNL A   1      42.077  30.308  35.622  1.00  0.00     0.049 A 
ATOM     56  C   UNL A   1      37.971  32.982  32.883  1.00  0.00     0.074 A 
ATOM     57  C   UNL A   1      42.465  30.846  36.837  1.00  0.00     0.029 A 
ATOM     58  N   UNL A   1      41.061  31.114  35.131  1.00  0.00    -0.354 N 
ATOM     59  N   UNL A   1      38.925  32.473  33.625  1.00  0.00    -0.248 NA
ATOM     60  C   UNL A   1      37.310  34.154  33.475  1.00  0.00     0.031 C 
ATOM     61  C   UNL A   1      41.662  31.961  37.095  1.00  0.00     0.029 A 
ATOM     62  C   UNL A   1      40.805  32.143  36.020  1.00  0.00     0.049 A 
ATOM     63  H   UNL A   1      40.593  30.974  34.277  1.00  0.00     0.167 HD
ATOM     64  C   UNL A   1      39.003  33.284  34.753  1.00  0.00     0.074 A 
ATOM     65  C   UNL A   1      38.004  34.319  34.592  1.00  0.00     0.031 C 
ATOM     66  C   UNL A   1      39.825  33.181  35.825  1.00  0.00     0.037 A 
BRANCH  53  67
ATOM     67  C   UNL A   1      43.704  28.374  35.613  1.00  0.00     0.058 A 
ATOM     68  C   UNL A   1      45.057  28.660  35.363  1.00  0.00     0.135 A 
ATOM     69  C   UNL A   1      43.411  27.362  36.542  1.00  0.00     0.135 A 
ATOM     70  F   UNL A   1      45.394  29.604  34.470  1.00  0.00    -0.206 F 
ATOM     71  C   UNL A   1      46.078  27.957  35.992  1.00  0.00     0.059 A 
ATOM     72  C   UNL A   1      44.417  26.665  37.204  1.00  0.00     0.059 A 
ATOM     73  F   UNL A   1      42.135  27.046  36.815  1.00  0.00    -0.206 F 
ATOM     74  C   UNL A   1      45.747  26.963  36.913  1.00  0.00     0.060 A 
BRANCH  74  75
ATOM     75  S   UNL A   1      47.087  26.077  37.738  1.00  0.00     0.124 S 
ATOM     76  O   UNL A   1      46.598  26.025  39.112  1.00  0.00    -0.237 OA
ATOM     77  O   UNL A   1      47.106  24.806  37.024  1.00  0.00    -0.237 OA
ATOM     78  O   UNL A   1      48.248  26.934  37.517  1.00  0.00    -0.744 OA
ENDBRANCH  74  75
ENDBRANCH  53  67
BRANCH  54  79
ATOM     79  C   UNL A   1      36.372  33.254  30.850  1.00  0.00     0.058 A 
ATOM     80  C   UNL A   1      36.626  34.080  29.746  1.00  0.00     0.135 A 
ATOM     81  C   UNL A   1      35.045  33.152  31.298  1.00  0.00     0.135 A 
ATOM     82  F   UNL A   1      37.878  34.213  29.282  1.00  0.00    -0.206 F 
ATOM     83  C   UNL A   1      35.613  34.807  29.128  1.00  0.00     0.059 A 
ATOM     84  C   UNL A   1      34.009  33.848  30.680  1.00  0.00     0.059 A 
ATOM     85  F   UNL A   1      34.744  32.359  32.337  1.00  0.00    -0.206 F 
ATOM     86  C   UNL A   1      34.307  34.687  29.607  1.00  0.00     0.060 A 
BRANCH  86  87
ATOM     87  S   UNL A   1      32.995  35.624  28.792  1.00  0.00     0.124 S 
ATOM     88  O   UNL A   1      33.763  36.618  28.052  1.00  0.00    -0.237 OA
ATOM     89  O   UNL A   1      32.337  34.598  27.989  1.00  0.00    -0.237 OA
ATOM     90  O   UNL A   1      32.207  36.135  29.909  1.00  0.00    -0.744 OA
ENDBRANCH  86  87
ENDBRANCH  54  79
BRANCH  66  91
ATOM     91  C   UNL A   1      39.725  34.244  36.882  1.00  0.00     0.058 A 
ATOM     92  C   UNL A   1      38.996  34.044  38.063  1.00  0.00     0.135 A 
ATOM     93  C   UNL A   1      40.430  35.450  36.738  1.00  0.00     0.135 A 
ATOM     94  F   UNL A   1      38.300  32.910  38.244  1.00  0.00    -0.206 F 
ATOM     95  C   UNL A   1      38.953  35.013  39.060  1.00  0.00     0.059 A 
ATOM     96  C   UNL A   1      40.424  36.421  37.733  1.00  0.00     0.059 A 
ATOM     97  F   UNL A   1      41.153  35.684  35.631  1.00  0.00    -0.206 F 
ATOM     98  C   UNL A   1      39.674  36.196  38.888  1.00  0.00     0.060 A 
BRANCH  98  99
ATOM     99  S   UNL A   1      39.651  37.424  40.211  1.00  0.00     0.124 S 
ATOM    100  O   UNL A   1      41.073  37.689  40.391  1.00  0.00    -0.237 OA
ATOM    101  O   UNL A   1      38.875  38.509  39.616  1.00  0.00    -0.237 OA
ATOM    102  O   UNL A   1      38.996  36.725  41.312  1.00  0.00    -0.744 OA
ENDBRANCH  98  99
ENDBRANCH  66  91
ENDBRANCH  40  41
ENDBRANCH  32  35
ENDBRANCH  30  31
ENDBRANCH  29  30
ENDBRANCH   1  29
TORSDOF 17
ENDMDL
MODEL 3
REMARK VINA RESULT:      -9.5      4.001      7.068
REMARK SMILES CC1(C)[C@H](C(=O)NCCCNC(=O)c2ccc(-c3c4nc(c(-c5c(F)cc(S(=O)(=O)[O-])cc5F)c5ccc([nH]5)c(-c5c(F)cc(S(=O)(=O)[O-])cc5F)c5nc(c(-c6c(F)cc(S(=O)(=O)[O-])cc6F)c6ccc3[nH]6)C=C5)C=C4)cc2)[C@@H]1C(=O)Nc1ccc(NC(=O)C2CCC2)cc1
REMARK SMILES IDX 8 1 7 2 5 3 6 4 4 6 1 7 2 8 3 9 80 10 81 11 82 12 83 13
REMARK SMILES IDX 84 15 85 16 96 17 86 18 95 19 87 20 88 21 89 22 90 24 91 25
REMARK SMILES IDX 92 26 94 27 93 28 9 29 10 30 11 31 12 32 13 34 14 35 15 36
REMARK SMILES IDX 79 37 16 38 78 39 17 40 18 41 19 42 72 43 20 44 77 45 71 46
REMARK SMILES IDX 73 47 21 48 76 49 70 50 69 51 22 53 56 54 35 55 55 56 36 57
REMARK SMILES IDX 39 58 54 59 74 60 37 61 38 62 53 64 75 65 40 66 23 67 24 68
REMARK SMILES IDX 33 69 25 70 26 71 32 72 34 73 27 74 28 75 29 76 30 77 31 78
REMARK SMILES IDX 57 79 58 80 67 81 59 82 60 83 66 84 68 85 61 86 62 87 63 88
REMARK SMILES IDX 64 89 65 90 41 91 42 92 51 93 43 94 44 95 50 96 52 97 45 98
REMARK SMILES IDX 46 99 47 100 48 101 49 102
REMARK H PARENT 7 5 83 14 88 23 11 33 73 52 39 63
REMARK Flexibility Score: inf
ROOT
ATOM      1  C   UNL A   1      33.125  30.271  27.368  1.00  0.00     0.117 C 
ENDROOT
BRANCH   1   2
ATOM      2  N   UNL A   1      32.134  30.365  26.315  1.00  0.00    -0.356 N 
ATOM      3  C   UNL A   1      31.770  29.603  25.248  1.00  0.00     0.224 C 
ATOM      4  O   UNL A   1      30.829  30.048  24.585  1.00  0.00    -0.275 OA
ATOM      5  H   UNL A   1      31.590  31.181  26.390  1.00  0.00     0.163 HD
BRANCH   3   6
ATOM      6  C   UNL A   1      32.346  28.317  24.787  1.00  0.00     0.098 C 
ATOM      7  C   UNL A   1      33.867  26.443  25.644  1.00  0.00     0.013 C 
ATOM      8  C   UNL A   1      32.480  27.047  25.609  1.00  0.00    -0.011 C 
ATOM      9  C   UNL A   1      31.780  26.921  26.941  1.00  0.00     0.013 C 
ATOM     10  C   UNL A   1      31.741  27.058  24.251  1.00  0.00     0.098 C 
BRANCH  10  11
ATOM     11  C   UNL A   1      30.311  26.756  24.051  1.00  0.00     0.228 C 
ATOM     12  O   UNL A   1      29.537  27.647  23.713  1.00  0.00    -0.274 OA
ATOM     13  N   UNL A   1      29.818  25.490  24.285  1.00  0.00    -0.326 N 
ATOM     14  H   UNL A   1      28.838  25.401  24.322  1.00  0.00     0.169 HD
BRANCH  13  15
ATOM     15  C   UNL A   1      30.560  24.321  24.478  1.00  0.00     0.041 A 
ATOM     16  C   UNL A   1      31.155  23.798  23.341  1.00  0.00     0.028 A 
ATOM     17  C   UNL A   1      30.830  23.751  25.717  1.00  0.00     0.028 A 
ATOM     18  C   UNL A   1      32.190  22.887  23.477  1.00  0.00     0.028 A 
ATOM     19  C   UNL A   1      31.718  22.664  25.799  1.00  0.00     0.028 A 
ATOM     20  C   UNL A   1      32.412  22.224  24.663  1.00  0.00     0.041 A 
BRANCH  20  21
ATOM     21  N   UNL A   1      33.291  21.143  24.775  1.00  0.00    -0.326 N 
ATOM     22  C   UNL A   1      34.667  21.014  24.753  1.00  0.00     0.227 C 
ATOM     23  H   UNL A   1      32.826  20.282  24.895  1.00  0.00     0.169 HD
ATOM     24  O   UNL A   1      35.064  19.839  24.885  1.00  0.00    -0.274 OA
BRANCH  22  25
ATOM     25  C   UNL A   1      35.698  22.164  24.588  1.00  0.00     0.079 C 
ATOM     26  C   UNL A   1      35.740  23.141  25.820  1.00  0.00     0.013 C 
ATOM     27  C   UNL A   1      37.243  22.072  24.811  1.00  0.00     0.013 C 
ATOM     28  C   UNL A   1      37.190  23.463  25.448  1.00  0.00     0.002 C 
ENDBRANCH  22  25
ENDBRANCH  20  21
ENDBRANCH  13  15
ENDBRANCH  10  11
ENDBRANCH   3   6
ENDBRANCH   1   2
BRANCH   1  29
ATOM     29  C   UNL A   1      34.514  30.017  26.811  1.00  0.00     0.042 C 
BRANCH  29  30
ATOM     30  C   UNL A   1      35.497  29.550  27.880  1.00  0.00     0.118 C 
BRANCH  30  31
ATOM     31  N   UNL A   1      35.322  30.242  29.154  1.00  0.00    -0.352 N 
ATOM     32  C   UNL A   1      36.258  30.530  30.120  1.00  0.00     0.251 C 
ATOM     33  H   UNL A   1      34.405  30.546  29.349  1.00  0.00     0.163 HD
ATOM     34  O   UNL A   1      35.902  30.958  31.214  1.00  0.00    -0.269 OA
BRANCH  32  35
ATOM     35  C   UNL A   1      37.685  30.295  29.830  1.00  0.00     0.039 A 
ATOM     36  C   UNL A   1      38.530  29.838  30.844  1.00  0.00     0.014 A 
ATOM     37  C   UNL A   1      38.170  30.473  28.532  1.00  0.00     0.014 A 
ATOM     38  C   UNL A   1      39.842  29.478  30.533  1.00  0.00     0.010 A 
ATOM     39  C   UNL A   1      39.441  30.019  28.207  1.00  0.00     0.010 A 
ATOM     40  C   UNL A   1      40.294  29.521  29.203  1.00  0.00    -0.014 A 
BRANCH  40  41
ATOM     41  C   UNL A   1      41.659  29.078  28.820  1.00  0.00     0.031 A 
ATOM     42  C   UNL A   1      42.775  30.086  28.767  1.00  0.00     0.074 A 
ATOM     43  C   UNL A   1      41.875  27.801  28.440  1.00  0.00     0.049 A 
ATOM     44  N   UNL A   1      43.997  29.945  28.324  1.00  0.00    -0.248 NA
ATOM     45  C   UNL A   1      42.463  31.448  29.238  1.00  0.00     0.031 C 
ATOM     46  C   UNL A   1      40.863  26.742  28.402  1.00  0.00     0.029 A 
ATOM     47  N   UNL A   1      43.016  27.180  27.999  1.00  0.00    -0.354 N 
ATOM     48  C   UNL A   1      44.589  31.198  28.445  1.00  0.00     0.074 A 
ATOM     49  C   UNL A   1      43.575  32.100  28.942  1.00  0.00     0.031 C 
ATOM     50  C   UNL A   1      41.434  25.599  27.986  1.00  0.00     0.029 A 
ATOM     51  C   UNL A   1      42.839  25.852  27.684  1.00  0.00     0.049 A 
ATOM     52  H   UNL A   1      43.880  27.643  27.913  1.00  0.00     0.167 HD
ATOM     53  C   UNL A   1      45.870  31.556  28.196  1.00  0.00     0.037 A 
ATOM     54  C   UNL A   1      43.711  24.945  27.201  1.00  0.00     0.037 A 
ATOM     55  C   UNL A   1      46.885  30.642  27.745  1.00  0.00     0.049 A 
ATOM     56  C   UNL A   1      45.133  25.369  26.938  1.00  0.00     0.074 A 
ATOM     57  C   UNL A   1      48.224  30.893  27.505  1.00  0.00     0.029 A 
ATOM     58  N   UNL A   1      46.675  29.296  27.481  1.00  0.00    -0.354 N 
ATOM     59  N   UNL A   1      45.684  26.549  27.098  1.00  0.00    -0.248 NA
ATOM     60  C   UNL A   1      46.052  24.339  26.435  1.00  0.00     0.031 C 
ATOM     61  C   UNL A   1      48.818  29.706  27.067  1.00  0.00     0.029 A 
ATOM     62  C   UNL A   1      47.858  28.706  27.077  1.00  0.00     0.049 A 
ATOM     63  H   UNL A   1      45.811  28.832  27.568  1.00  0.00     0.167 HD
ATOM     64  C   UNL A   1      47.022  26.392  26.750  1.00  0.00     0.074 A 
ATOM     65  C   UNL A   1      47.197  25.004  26.378  1.00  0.00     0.031 C 
ATOM     66  C   UNL A   1      48.016  27.313  26.739  1.00  0.00     0.037 A 
BRANCH  53  67
ATOM     67  C   UNL A   1      46.253  32.989  28.434  1.00  0.00     0.058 A 
ATOM     68  C   UNL A   1      46.158  33.951  27.414  1.00  0.00     0.135 A 
ATOM     69  C   UNL A   1      46.678  33.420  29.700  1.00  0.00     0.135 A 
ATOM     70  F   UNL A   1      45.776  33.591  26.178  1.00  0.00    -0.206 F 
ATOM     71  C   UNL A   1      46.492  35.282  27.635  1.00  0.00     0.059 A 
ATOM     72  C   UNL A   1      46.991  34.753  29.952  1.00  0.00     0.059 A 
ATOM     73  F   UNL A   1      46.791  32.541  30.710  1.00  0.00    -0.206 F 
ATOM     74  C   UNL A   1      46.905  35.673  28.909  1.00  0.00     0.060 A 
BRANCH  74  75
ATOM     75  S   UNL A   1      47.312  37.411  29.184  1.00  0.00     0.124 S 
ATOM     76  O   UNL A   1      47.226  37.946  27.828  1.00  0.00    -0.237 OA
ATOM     77  O   UNL A   1      46.260  37.836  30.100  1.00  0.00    -0.237 OA
ATOM     78  O   UNL A   1      48.654  37.360  29.754  1.00  0.00    -0.744 OA
ENDBRANCH  74  75
ENDBRANCH  53  67
BRANCH  54  79
ATOM     79  C   UNL A   1      43.281  23.543  26.952  1.00  0.00     0.058 A 
ATOM     80  C   UNL A   1      43.086  22.651  28.017  1.00  0.00     0.135 A 
ATOM     81  C   UNL A   1      43.078  23.059  25.650  1.00  0.00     0.135 A 
ATOM     82  F   UNL A   1      43.271  23.065  29.280  1.00  0.00    -0.206 F 
ATOM     83  C   UNL A   1      42.737  21.321  27.802  1.00  0.00     0.059 A 
ATOM     84  C   UNL A   1      42.703  21.740  25.410  1.00  0.00     0.059 A 
ATOM     85  F   UNL A   1      43.231  23.876  24.597  1.00  0.00    -0.206 F 
ATOM     86  C   UNL A   1      42.552  20.875  26.493  1.00  0.00     0.060 A 
BRANCH  86  87
ATOM     87  S   UNL A   1      42.087  19.150  26.223  1.00  0.00     0.124 S 
ATOM     88  O   UNL A   1      42.328  18.573  27.540  1.00  0.00    -0.237 OA
ATOM     89  O   UNL A   1      40.688  19.267  25.823  1.00  0.00    -0.237 OA
ATOM     90  O   UNL A   1      42.998  18.720  25.167  1.00  0.00    -0.744 OA
ENDBRANCH  86  87
ENDBRANCH  54  79
BRANCH  66  91
ATOM     91  C   UNL A   1      49.394  26.844  26.369  1.00  0.00     0.058 A 
ATOM     92  C   UNL A   1      50.215  26.171  27.285  1.00  0.00     0.135 A 
ATOM     93  C   UNL A   1      49.867  27.009  25.057  1.00  0.00     0.135 A 
ATOM     94  F   UNL A   1      49.810  25.994  28.553  1.00  0.00    -0.206 F 
ATOM     95  C   UNL A   1      51.468  25.692  26.918  1.00  0.00     0.059 A 
ATOM     96  C   UNL A   1      51.105  26.515  24.661  1.00  0.00     0.059 A 
ATOM     97  F   UNL A   1      49.113  27.637  24.139  1.00  0.00    -0.206 F 
ATOM     98  C   UNL A   1      51.902  25.865  25.602  1.00  0.00     0.060 A 
BRANCH  98  99
ATOM     99  S   UNL A   1      53.509  25.195  25.125  1.00  0.00     0.124 S 
ATOM    100  O   UNL A   1      54.402  25.889  26.046  1.00  0.00    -0.237 OA
ATOM    101  O   UNL A   1      53.336  23.766  25.367  1.00  0.00    -0.237 OA
ATOM    102  O   UNL A   1      53.634  25.576  23.721  1.00  0.00    -0.744 OA
ENDBRANCH  98  99
ENDBRANCH  66  91
ENDBRANCH  40  41
ENDBRANCH  32  35
ENDBRANCH  30  31
ENDBRANCH  29  30
ENDBRANCH   1  29
TORSDOF 17
ENDMDL
