MODEL 1
REMARK VINA RESULT:     -10.8      0.000      0.000
REMARK SMILES Cc1csc(C[NH2+]C2(C(=O)NCCCNC(=O)c3ccc(-c4c5nc(c(-c6c(F)cc(S(=O)(=O)[O-])cc6F)c6ccc([nH]6)c(-c6c(F)cc(S(=O)(=O)[O-])cc6F)c6nc(c(-c7c(F)cc(S(=O)(=O)[O-])cc7F)c7ccc4[nH]7)C=C6)C=C5)cc3)CC2)n1
REMARK SMILES IDX 13 1 12 2 11 3 9 4 10 5 8 7 84 8 85 9 7 10 6 13 5 14 1 15
REMARK SMILES IDX 2 16 3 17 86 18 4 19 14 20 15 21 16 22 17 24 18 25 19 26
REMARK SMILES IDX 83 27 20 28 82 29 21 30 22 31 23 32 76 33 24 34 81 35 75 36
REMARK SMILES IDX 77 37 25 38 80 39 74 40 73 41 26 43 60 44 39 45 59 46 40 47
REMARK SMILES IDX 43 48 58 49 78 50 41 51 42 52 57 54 79 55 44 56 27 57 28 58
REMARK SMILES IDX 37 59 29 60 30 61 36 62 38 63 31 64 32 65 33 66 34 67 35 68
REMARK SMILES IDX 61 69 62 70 71 71 63 72 64 73 70 74 72 75 65 76 66 77 67 78
REMARK SMILES IDX 68 79 69 80 45 81 46 82 55 83 47 84 48 85 54 86 56 87 49 88
REMARK SMILES IDX 50 89 51 90 52 91 53 92
REMARK H PARENT 11 6 7 11 7 12 15 23 77 42 43 53
REMARK Flexibility Score: inf
ROOT
ATOM      1  C   UNL A   1      41.804  21.918  27.727  1.00  0.00     0.042 C 
ENDROOT
BRANCH   1   2
ATOM      2  C   UNL A   1      41.842  20.910  26.574  1.00  0.00     0.118 C 
BRANCH   2   3
ATOM      3  N   UNL A   1      42.784  19.818  26.750  1.00  0.00    -0.351 N 
ATOM      4  C   UNL A   1      43.307  19.118  25.691  1.00  0.00     0.281 C 
ATOM      5  O   UNL A   1      42.865  17.990  25.485  1.00  0.00    -0.268 OA
ATOM      6  H   UNL A   1      43.057  19.570  27.663  1.00  0.00     0.163 HD
BRANCH   4   7
ATOM      7  C   UNL A   1      44.460  19.692  24.868  1.00  0.00     0.176 C 
ATOM      8  C   UNL A   1      44.896  19.068  23.550  1.00  0.00     0.086 C 
ATOM      9  C   UNL A   1      45.728  18.865  24.778  1.00  0.00     0.086 C 
BRANCH   7  10
ATOM     10  N   UNL A   1      44.609  21.196  24.882  1.00  0.00    -0.328 N 
ATOM     11  H   UNL A   1      44.891  21.495  23.948  1.00  0.00     0.347 HD
ATOM     12  H   UNL A   1      43.706  21.567  25.173  1.00  0.00     0.347 HD
BRANCH  10  13
ATOM     13  C   UNL A   1      45.595  21.718  25.843  1.00  0.00     0.330 C 
BRANCH  13  14
ATOM     14  C   UNL A   1      45.292  23.108  26.340  1.00  0.00     0.147 A 
ATOM     15  C   UNL A   1      44.252  25.227  29.051  1.00  0.00     0.067 C 
ATOM     16  C   UNL A   1      44.616  24.720  27.705  1.00  0.00     0.049 A 
ATOM     17  C   UNL A   1      44.525  25.399  26.507  1.00  0.00     0.090 A 
ATOM     18  N   UNL A   1      45.079  23.421  27.602  1.00  0.00    -0.240 NA
ATOM     19  S   UNL A   1      45.041  24.393  25.218  1.00  0.00    -0.121 S 
ENDBRANCH  13  14
ENDBRANCH  10  13
ENDBRANCH   7  10
ENDBRANCH   4   7
ENDBRANCH   2   3
ENDBRANCH   1   2
BRANCH   1  20
ATOM     20  C   UNL A   1      40.838  23.097  27.593  1.00  0.00     0.118 C 
BRANCH  20  21
ATOM     21  N   UNL A   1      41.013  23.868  26.377  1.00  0.00    -0.352 N 
ATOM     22  C   UNL A   1      41.034  25.223  26.164  1.00  0.00     0.251 C 
ATOM     23  H   UNL A   1      41.136  23.326  25.564  1.00  0.00     0.163 HD
ATOM     24  O   UNL A   1      41.155  25.631  25.010  1.00  0.00    -0.269 OA
BRANCH  22  25
ATOM     25  C   UNL A   1      40.873  26.194  27.272  1.00  0.00     0.039 A 
ATOM     26  C   UNL A   1      39.817  25.984  28.166  1.00  0.00     0.014 A 
ATOM     27  C   UNL A   1      41.692  27.318  27.421  1.00  0.00     0.014 A 
ATOM     28  C   UNL A   1      39.618  26.860  29.235  1.00  0.00     0.010 A 
ATOM     29  C   UNL A   1      41.523  28.166  28.522  1.00  0.00     0.010 A 
ATOM     30  C   UNL A   1      40.485  27.944  29.439  1.00  0.00    -0.014 A 
BRANCH  30  31
ATOM     31  C   UNL A   1      40.305  28.824  30.622  1.00  0.00     0.031 A 
ATOM     32  C   UNL A   1      41.168  28.665  31.842  1.00  0.00     0.074 A 
ATOM     33  C   UNL A   1      39.348  29.772  30.597  1.00  0.00     0.049 A 
ATOM     34  N   UNL A   1      41.182  29.380  32.939  1.00  0.00    -0.248 NA
ATOM     35  C   UNL A   1      42.127  27.551  31.839  1.00  0.00     0.031 C 
ATOM     36  C   UNL A   1      38.405  29.992  29.497  1.00  0.00     0.029 A 
ATOM     37  N   UNL A   1      39.014  30.733  31.517  1.00  0.00    -0.354 N 
ATOM     38  C   UNL A   1      42.140  28.799  33.760  1.00  0.00     0.074 A 
ATOM     39  C   UNL A   1      42.662  27.651  33.048  1.00  0.00     0.031 C 
ATOM     40  C   UNL A   1      37.618  31.038  29.797  1.00  0.00     0.029 A 
ATOM     41  C   UNL A   1      37.993  31.557  31.108  1.00  0.00     0.049 A 
ATOM     42  H   UNL A   1      39.463  30.824  32.389  1.00  0.00     0.167 HD
ATOM     43  C   UNL A   1      42.558  29.192  34.988  1.00  0.00     0.037 A 
ATOM     44  C   UNL A   1      37.433  32.623  31.712  1.00  0.00     0.037 A 
ATOM     45  C   UNL A   1      42.059  30.348  35.688  1.00  0.00     0.049 A 
ATOM     46  C   UNL A   1      37.964  33.084  33.039  1.00  0.00     0.074 A 
ATOM     47  C   UNL A   1      42.451  30.849  36.918  1.00  0.00     0.029 A 
ATOM     48  N   UNL A   1      41.062  31.187  35.216  1.00  0.00    -0.354 N 
ATOM     49  N   UNL A   1      38.912  32.556  33.775  1.00  0.00    -0.248 NA
ATOM     50  C   UNL A   1      37.362  34.297  33.608  1.00  0.00     0.031 C 
ATOM     51  C   UNL A   1      41.681  31.986  37.195  1.00  0.00     0.029 A 
ATOM     52  C   UNL A   1      40.826  32.203  36.128  1.00  0.00     0.049 A 
ATOM     53  H   UNL A   1      40.590  31.078  34.359  1.00  0.00     0.167 HD
ATOM     54  C   UNL A   1      39.033  33.382  34.885  1.00  0.00     0.074 A 
ATOM     55  C   UNL A   1      38.070  34.452  34.719  1.00  0.00     0.031 C 
ATOM     56  C   UNL A   1      39.868  33.265  35.946  1.00  0.00     0.037 A 
BRANCH  43  57
ATOM     57  C   UNL A   1      43.620  28.363  35.649  1.00  0.00     0.058 A 
ATOM     58  C   UNL A   1      44.980  28.551  35.358  1.00  0.00     0.135 A 
ATOM     59  C   UNL A   1      43.279  27.381  36.592  1.00  0.00     0.135 A 
ATOM     60  F   UNL A   1      45.356  29.467  34.451  1.00  0.00    -0.206 F 
ATOM     61  C   UNL A   1      45.966  27.774  35.958  1.00  0.00     0.059 A 
ATOM     62  C   UNL A   1      44.251  26.604  37.219  1.00  0.00     0.059 A 
ATOM     63  F   UNL A   1      41.993  27.161  36.905  1.00  0.00    -0.206 F 
ATOM     64  C   UNL A   1      45.590  26.798  36.882  1.00  0.00     0.060 A 
BRANCH  64  65
ATOM     65  S   UNL A   1      46.873  25.786  37.650  1.00  0.00     0.124 S 
ATOM     66  O   UNL A   1      46.216  24.484  37.714  1.00  0.00    -0.237 OA
ATOM     67  O   UNL A   1      47.976  25.892  36.700  1.00  0.00    -0.237 OA
ATOM     68  O   UNL A   1      47.095  26.442  38.935  1.00  0.00    -0.744 OA
ENDBRANCH  64  65
ENDBRANCH  43  57
BRANCH  44  69
ATOM     69  C   UNL A   1      36.341  33.360  31.032  1.00  0.00     0.058 A 
ATOM     70  C   UNL A   1      35.018  33.262  31.487  1.00  0.00     0.135 A 
ATOM     71  C   UNL A   1      36.602  34.197  29.939  1.00  0.00     0.135 A 
ATOM     72  F   UNL A   1      34.724  32.469  32.529  1.00  0.00    -0.206 F 
ATOM     73  C   UNL A   1      33.986  33.964  30.875  1.00  0.00     0.059 A 
ATOM     74  C   UNL A   1      35.588  34.921  29.319  1.00  0.00     0.059 A 
ATOM     75  F   UNL A   1      37.855  34.333  29.480  1.00  0.00    -0.206 F 
ATOM     76  C   UNL A   1      34.281  34.794  29.791  1.00  0.00     0.060 A 
BRANCH  76  77
ATOM     77  S   UNL A   1      32.953  35.760  29.043  1.00  0.00     0.124 S 
ATOM     78  O   UNL A   1      32.344  34.780  28.151  1.00  0.00    -0.237 OA
ATOM     79  O   UNL A   1      32.156  36.150  30.203  1.00  0.00    -0.237 OA
ATOM     80  O   UNL A   1      33.668  36.854  28.392  1.00  0.00    -0.744 OA
ENDBRANCH  76  77
ENDBRANCH  44  69
BRANCH  56  81
ATOM     81  C   UNL A   1      39.789  34.335  36.995  1.00  0.00     0.058 A 
ATOM     82  C   UNL A   1      38.936  34.213  38.102  1.00  0.00     0.135 A 
ATOM     83  C   UNL A   1      40.581  35.489  36.896  1.00  0.00     0.135 A 
ATOM     84  F   UNL A   1      38.154  33.130  38.237  1.00  0.00    -0.206 F 
ATOM     85  C   UNL A   1      38.849  35.214  39.065  1.00  0.00     0.059 A 
ATOM     86  C   UNL A   1      40.522  36.495  37.855  1.00  0.00     0.059 A 
ATOM     87  F   UNL A   1      41.418  35.647  35.859  1.00  0.00    -0.206 F 
ATOM     88  C   UNL A   1      39.640  36.356  38.927  1.00  0.00     0.060 A 
BRANCH  88  89
ATOM     89  S   UNL A   1      39.532  37.653  40.179  1.00  0.00     0.124 S 
ATOM     90  O   UNL A   1      39.126  36.890  41.355  1.00  0.00    -0.237 OA
ATOM     91  O   UNL A   1      40.892  38.185  40.208  1.00  0.00    -0.237 OA
ATOM     92  O   UNL A   1      38.524  38.559  39.636  1.00  0.00    -0.744 OA
ENDBRANCH  88  89
ENDBRANCH  56  81
ENDBRANCH  30  31
ENDBRANCH  22  25
ENDBRANCH  20  21
ENDBRANCH   1  20
TORSDOF 16
ENDMDL
MODEL 2
REMARK VINA RESULT:     -10.8      6.001     14.312
REMARK SMILES Cc1csc(C[NH2+]C2(C(=O)NCCCNC(=O)c3ccc(-c4c5nc(c(-c6c(F)cc(S(=O)(=O)[O-])cc6F)c6ccc([nH]6)c(-c6c(F)cc(S(=O)(=O)[O-])cc6F)c6nc(c(-c7c(F)cc(S(=O)(=O)[O-])cc7F)c7ccc4[nH]7)C=C6)C=C5)cc3)CC2)n1
REMARK SMILES IDX 13 1 12 2 11 3 9 4 10 5 8 7 84 8 85 9 7 10 6 13 5 14 1 15
REMARK SMILES IDX 2 16 3 17 86 18 4 19 14 20 15 21 16 22 17 24 18 25 19 26
REMARK SMILES IDX 83 27 20 28 82 29 21 30 22 31 23 32 76 33 24 34 81 35 75 36
REMARK SMILES IDX 77 37 25 38 80 39 74 40 73 41 26 43 60 44 39 45 59 46 40 47
REMARK SMILES IDX 43 48 58 49 78 50 41 51 42 52 57 54 79 55 44 56 27 57 28 58
REMARK SMILES IDX 37 59 29 60 30 61 36 62 38 63 31 64 32 65 33 66 34 67 35 68
REMARK SMILES IDX 61 69 62 70 71 71 63 72 64 73 70 74 72 75 65 76 66 77 67 78
REMARK SMILES IDX 68 79 69 80 45 81 46 82 55 83 47 84 48 85 54 86 56 87 49 88
REMARK SMILES IDX 50 89 51 90 52 91 53 92
REMARK H PARENT 11 6 7 11 7 12 15 23 77 42 43 53
REMARK Flexibility Score: inf
ROOT
ATOM      1  C   UNL A   1      35.532  33.397  28.107  1.00  0.00     0.042 C 
ENDROOT
BRANCH   1   2
ATOM      2  C   UNL A   1      34.728  34.591  28.630  1.00  0.00     0.118 C 
BRANCH   2   3
ATOM      3  N   UNL A   1      33.680  34.253  29.577  1.00  0.00    -0.351 N 
ATOM      4  C   UNL A   1      33.873  34.296  30.936  1.00  0.00     0.281 C 
ATOM      5  O   UNL A   1      34.005  33.225  31.523  1.00  0.00    -0.268 OA
ATOM      6  H   UNL A   1      32.799  33.983  29.233  1.00  0.00     0.163 HD
BRANCH   4   7
ATOM      7  C   UNL A   1      33.827  35.625  31.691  1.00  0.00     0.176 C 
ATOM      8  C   UNL A   1      32.542  36.152  32.314  1.00  0.00     0.086 C 
ATOM      9  C   UNL A   1      33.056  36.762  31.047  1.00  0.00     0.086 C 
BRANCH   7  10
ATOM     10  N   UNL A   1      35.057  35.983  32.492  1.00  0.00    -0.328 N 
ATOM     11  H   UNL A   1      35.839  36.084  31.844  1.00  0.00     0.347 HD
ATOM     12  H   UNL A   1      34.829  36.842  32.992  1.00  0.00     0.347 HD
BRANCH  10  13
ATOM     13  C   UNL A   1      35.443  35.002  33.520  1.00  0.00     0.330 C 
BRANCH  13  14
ATOM     14  C   UNL A   1      36.796  34.377  33.296  1.00  0.00     0.147 A 
ATOM     15  C   UNL A   1      39.500  33.669  31.036  1.00  0.00     0.067 C 
ATOM     16  C   UNL A   1      38.601  33.675  32.216  1.00  0.00     0.049 A 
ATOM     17  C   UNL A   1      38.698  32.880  33.341  1.00  0.00     0.090 A 
ATOM     18  N   UNL A   1      37.526  34.544  32.211  1.00  0.00    -0.240 NA
ATOM     19  S   UNL A   1      37.419  33.233  34.425  1.00  0.00    -0.121 S 
ENDBRANCH  13  14
ENDBRANCH  10  13
ENDBRANCH   7  10
ENDBRANCH   4   7
ENDBRANCH   2   3
ENDBRANCH   1   2
BRANCH   1  20
ATOM     20  C   UNL A   1      36.627  32.838  29.017  1.00  0.00     0.118 C 
BRANCH  20  21
ATOM     21  N   UNL A   1      36.145  31.903  30.016  1.00  0.00    -0.352 N 
ATOM     22  C   UNL A   1      36.711  30.766  30.533  1.00  0.00     0.251 C 
ATOM     23  H   UNL A   1      35.259  32.122  30.385  1.00  0.00     0.163 HD
ATOM     24  O   UNL A   1      36.065  30.113  31.352  1.00  0.00    -0.269 OA
BRANCH  22  25
ATOM     25  C   UNL A   1      38.045  30.287  30.101  1.00  0.00     0.039 A 
ATOM     26  C   UNL A   1      38.248  30.092  28.731  1.00  0.00     0.014 A 
ATOM     27  C   UNL A   1      39.070  29.981  31.002  1.00  0.00     0.014 A 
ATOM     28  C   UNL A   1      39.487  29.649  28.261  1.00  0.00     0.010 A 
ATOM     29  C   UNL A   1      40.325  29.587  30.527  1.00  0.00     0.010 A 
ATOM     30  C   UNL A   1      40.545  29.418  29.152  1.00  0.00    -0.014 A 
BRANCH  30  31
ATOM     31  C   UNL A   1      41.878  29.019  28.632  1.00  0.00     0.031 A 
ATOM     32  C   UNL A   1      43.002  30.013  28.540  1.00  0.00     0.074 A 
ATOM     33  C   UNL A   1      42.074  27.748  28.231  1.00  0.00     0.049 A 
ATOM     34  N   UNL A   1      44.241  29.822  28.161  1.00  0.00    -0.248 NA
ATOM     35  C   UNL A   1      42.693  31.403  28.905  1.00  0.00     0.031 C 
ATOM     36  C   UNL A   1      41.050  26.700  28.213  1.00  0.00     0.029 A 
ATOM     37  N   UNL A   1      43.201  27.117  27.769  1.00  0.00    -0.354 N 
ATOM     38  C   UNL A   1      44.857  31.065  28.231  1.00  0.00     0.074 A 
ATOM     39  C   UNL A   1      43.845  32.011  28.656  1.00  0.00     0.031 C 
ATOM     40  C   UNL A   1      41.603  25.552  27.789  1.00  0.00     0.029 A 
ATOM     41  C   UNL A   1      43.014  25.783  27.497  1.00  0.00     0.049 A 
ATOM     42  H   UNL A   1      44.063  27.576  27.644  1.00  0.00     0.167 HD
ATOM     43  C   UNL A   1      46.148  31.389  27.979  1.00  0.00     0.037 A 
ATOM     44  C   UNL A   1      43.885  24.844  27.079  1.00  0.00     0.037 A 
ATOM     45  C   UNL A   1      47.163  30.447  27.581  1.00  0.00     0.049 A 
ATOM     46  C   UNL A   1      45.327  25.211  26.878  1.00  0.00     0.074 A 
ATOM     47  C   UNL A   1      48.507  30.675  27.342  1.00  0.00     0.029 A 
ATOM     48  N   UNL A   1      46.944  29.095  27.367  1.00  0.00    -0.354 N 
ATOM     49  N   UNL A   1      45.904  26.382  27.006  1.00  0.00    -0.248 NA
ATOM     50  C   UNL A   1      46.241  24.126  26.495  1.00  0.00     0.031 C 
ATOM     51  C   UNL A   1      49.100  29.460  26.973  1.00  0.00     0.029 A 
ATOM     52  C   UNL A   1      48.128  28.474  27.003  1.00  0.00     0.049 A 
ATOM     53  H   UNL A   1      46.076  28.641  27.462  1.00  0.00     0.167 HD
ATOM     54  C   UNL A   1      47.251  26.171  26.737  1.00  0.00     0.074 A 
ATOM     55  C   UNL A   1      47.406  24.759  26.450  1.00  0.00     0.031 C 
ATOM     56  C   UNL A   1      48.268  27.067  26.728  1.00  0.00     0.037 A 
BRANCH  43  57
ATOM     57  C   UNL A   1      46.537  32.830  28.137  1.00  0.00     0.058 A 
ATOM     58  C   UNL A   1      46.369  33.750  27.091  1.00  0.00     0.135 A 
ATOM     59  C   UNL A   1      47.070  33.300  29.348  1.00  0.00     0.135 A 
ATOM     60  F   UNL A   1      45.878  33.346  25.909  1.00  0.00    -0.206 F 
ATOM     61  C   UNL A   1      46.742  35.083  27.229  1.00  0.00     0.059 A 
ATOM     62  C   UNL A   1      47.433  34.634  29.514  1.00  0.00     0.059 A 
ATOM     63  F   UNL A   1      47.252  32.460  30.378  1.00  0.00    -0.206 F 
ATOM     64  C   UNL A   1      47.280  35.514  28.443  1.00  0.00     0.060 A 
BRANCH  64  65
ATOM     65  S   UNL A   1      47.772  37.243  28.613  1.00  0.00     0.124 S 
ATOM     66  O   UNL A   1      49.092  37.111  29.222  1.00  0.00    -0.237 OA
ATOM     67  O   UNL A   1      47.758  37.717  27.232  1.00  0.00    -0.237 OA
ATOM     68  O   UNL A   1      46.735  37.804  29.474  1.00  0.00    -0.744 OA
ENDBRANCH  64  65
ENDBRANCH  43  57
BRANCH  44  69
ATOM     69  C   UNL A   1      43.420  23.450  26.878  1.00  0.00     0.058 A 
ATOM     70  C   UNL A   1      43.227  22.938  25.588  1.00  0.00     0.135 A 
ATOM     71  C   UNL A   1      43.190  22.599  27.968  1.00  0.00     0.135 A 
ATOM     72  F   UNL A   1      43.433  23.720  24.517  1.00  0.00    -0.206 F 
ATOM     73  C   UNL A   1      42.813  21.626  25.383  1.00  0.00     0.059 A 
ATOM     74  C   UNL A   1      42.791  21.279  27.787  1.00  0.00     0.059 A 
ATOM     75  F   UNL A   1      43.378  23.043  29.220  1.00  0.00    -0.206 F 
ATOM     76  C   UNL A   1      42.599  20.803  26.490  1.00  0.00     0.060 A 
BRANCH  76  77
ATOM     77  S   UNL A   1      42.131  19.080  26.220  1.00  0.00     0.124 S 
ATOM     78  O   UNL A   1      42.384  18.499  27.534  1.00  0.00    -0.237 OA
ATOM     79  O   UNL A   1      40.728  19.192  25.830  1.00  0.00    -0.237 OA
ATOM     80  O   UNL A   1      43.035  18.656  25.154  1.00  0.00    -0.744 OA
ENDBRANCH  76  77
ENDBRANCH  44  69
BRANCH  56  81
ATOM     81  C   UNL A   1      49.638  26.538  26.421  1.00  0.00     0.058 A 
ATOM     82  C   UNL A   1      50.141  26.524  25.112  1.00  0.00     0.135 A 
ATOM     83  C   UNL A   1      50.458  26.047  27.449  1.00  0.00     0.135 A 
ATOM     84  F   UNL A   1      49.391  26.977  24.095  1.00  0.00    -0.206 F 
ATOM     85  C   UNL A   1      51.405  26.016  24.826  1.00  0.00     0.059 A 
ATOM     86  C   UNL A   1      51.731  25.549  27.188  1.00  0.00     0.059 A 
ATOM     87  F   UNL A   1      50.023  26.046  28.718  1.00  0.00    -0.206 F 
ATOM     88  C   UNL A   1      52.188  25.522  25.870  1.00  0.00     0.060 A 
BRANCH  88  89
ATOM     89  S   UNL A   1      53.830  24.867  25.501  1.00  0.00     0.124 S 
ATOM     90  O   UNL A   1      54.246  25.729  24.399  1.00  0.00    -0.237 OA
ATOM     91  O   UNL A   1      54.544  25.061  26.760  1.00  0.00    -0.237 OA
ATOM     92  O   UNL A   1      53.564  23.476  25.147  1.00  0.00    -0.744 OA
ENDBRANCH  88  89
ENDBRANCH  56  81
ENDBRANCH  30  31
ENDBRANCH  22  25
ENDBRANCH  20  21
ENDBRANCH   1  20
TORSDOF 16
ENDMDL
MODEL 3
REMARK VINA RESULT:     -10.7      6.779     10.177
REMARK SMILES Cc1csc(C[NH2+]C2(C(=O)NCCCNC(=O)c3ccc(-c4c5nc(c(-c6c(F)cc(S(=O)(=O)[O-])cc6F)c6ccc([nH]6)c(-c6c(F)cc(S(=O)(=O)[O-])cc6F)c6nc(c(-c7c(F)cc(S(=O)(=O)[O-])cc7F)c7ccc4[nH]7)C=C6)C=C5)cc3)CC2)n1
REMARK SMILES IDX 13 1 12 2 11 3 9 4 10 5 8 7 84 8 85 9 7 10 6 13 5 14 1 15
REMARK SMILES IDX 2 16 3 17 86 18 4 19 14 20 15 21 16 22 17 24 18 25 19 26
REMARK SMILES IDX 83 27 20 28 82 29 21 30 22 31 23 32 76 33 24 34 81 35 75 36
REMARK SMILES IDX 77 37 25 38 80 39 74 40 73 41 26 43 60 44 39 45 59 46 40 47
REMARK SMILES IDX 43 48 58 49 78 50 41 51 42 52 57 54 79 55 44 56 27 57 28 58
REMARK SMILES IDX 37 59 29 60 30 61 36 62 38 63 31 64 32 65 33 66 34 67 35 68
REMARK SMILES IDX 61 69 62 70 71 71 63 72 64 73 70 74 72 75 65 76 66 77 67 78
REMARK SMILES IDX 68 79 69 80 45 81 46 82 55 83 47 84 48 85 54 86 56 87 49 88
REMARK SMILES IDX 50 89 51 90 52 91 53 92
REMARK H PARENT 11 6 7 11 7 12 15 23 77 42 43 53
REMARK Flexibility Score: inf
ROOT
ATOM      1  C   UNL A   1      38.272  20.010  24.957  1.00  0.00     0.042 C 
ENDROOT
BRANCH   1   2
ATOM      2  C   UNL A   1      37.215  21.113  24.855  1.00  0.00     0.118 C 
BRANCH   2   3
ATOM      3  N   UNL A   1      36.008  20.875  25.627  1.00  0.00    -0.351 N 
ATOM      4  C   UNL A   1      34.998  21.800  25.719  1.00  0.00     0.281 C 
ATOM      5  O   UNL A   1      34.900  22.429  26.771  1.00  0.00    -0.268 OA
ATOM      6  H   UNL A   1      35.911  20.019  26.102  1.00  0.00     0.163 HD
BRANCH   4   7
ATOM      7  C   UNL A   1      33.982  21.964  24.589  1.00  0.00     0.176 C 
ATOM      8  C   UNL A   1      34.186  22.969  23.464  1.00  0.00     0.086 C 
ATOM      9  C   UNL A   1      33.193  23.259  24.547  1.00  0.00     0.086 C 
BRANCH   7  10
ATOM     10  N   UNL A   1      33.281  20.706  24.131  1.00  0.00    -0.328 N 
ATOM     11  H   UNL A   1      32.486  20.979  23.551  1.00  0.00     0.347 HD
ATOM     12  H   UNL A   1      33.980  20.158  23.631  1.00  0.00     0.347 HD
BRANCH  10  13
ATOM     13  C   UNL A   1      32.779  19.840  25.211  1.00  0.00     0.330 C 
BRANCH  13  14
ATOM     14  C   UNL A   1      33.028  18.371  24.987  1.00  0.00     0.147 A 
ATOM     15  C   UNL A   1      32.147  14.970  25.747  1.00  0.00     0.067 C 
ATOM     16  C   UNL A   1      32.852  16.176  25.248  1.00  0.00     0.049 A 
ATOM     17  C   UNL A   1      34.088  16.222  24.634  1.00  0.00     0.090 A 
ATOM     18  N   UNL A   1      32.244  17.405  25.422  1.00  0.00    -0.240 NA
ATOM     19  S   UNL A   1      34.497  17.843  24.255  1.00  0.00    -0.121 S 
ENDBRANCH  13  14
ENDBRANCH  10  13
ENDBRANCH   7  10
ENDBRANCH   4   7
ENDBRANCH   2   3
ENDBRANCH   1   2
BRANCH   1  20
ATOM     20  C   UNL A   1      39.282  20.113  26.101  1.00  0.00     0.118 C 
BRANCH  20  21
ATOM     21  N   UNL A   1      40.403  19.198  25.984  1.00  0.00    -0.352 N 
ATOM     22  C   UNL A   1      41.751  19.403  26.125  1.00  0.00     0.251 C 
ATOM     23  H   UNL A   1      40.152  18.272  25.764  1.00  0.00     0.163 HD
ATOM     24  O   UNL A   1      42.510  18.455  25.926  1.00  0.00    -0.269 OA
BRANCH  22  25
ATOM     25  C   UNL A   1      42.312  20.732  26.464  1.00  0.00     0.039 A 
ATOM     26  C   UNL A   1      42.668  21.572  25.403  1.00  0.00     0.014 A 
ATOM     27  C   UNL A   1      42.541  21.147  27.780  1.00  0.00     0.014 A 
ATOM     28  C   UNL A   1      43.195  22.840  25.657  1.00  0.00     0.010 A 
ATOM     29  C   UNL A   1      43.020  22.437  28.034  1.00  0.00     0.010 A 
ATOM     30  C   UNL A   1      43.351  23.295  26.975  1.00  0.00    -0.014 A 
BRANCH  30  31
ATOM     31  C   UNL A   1      43.842  24.674  27.229  1.00  0.00     0.031 A 
ATOM     32  C   UNL A   1      45.282  25.037  26.997  1.00  0.00     0.074 A 
ATOM     33  C   UNL A   1      42.981  25.606  27.681  1.00  0.00     0.049 A 
ATOM     34  N   UNL A   1      45.867  26.203  27.117  1.00  0.00    -0.248 NA
ATOM     35  C   UNL A   1      46.187  23.950  26.595  1.00  0.00     0.031 C 
ATOM     36  C   UNL A   1      41.571  25.369  28.002  1.00  0.00     0.029 A 
ATOM     37  N   UNL A   1      43.160  26.941  27.941  1.00  0.00    -0.354 N 
ATOM     38  C   UNL A   1      47.206  25.990  26.817  1.00  0.00     0.074 A 
ATOM     39  C   UNL A   1      47.354  24.575  26.542  1.00  0.00     0.031 C 
ATOM     40  C   UNL A   1      41.009  26.525  28.391  1.00  0.00     0.029 A 
ATOM     41  C   UNL A   1      42.016  27.580  28.355  1.00  0.00     0.049 A 
ATOM     42  H   UNL A   1      44.026  27.398  27.842  1.00  0.00     0.167 HD
ATOM     43  C   UNL A   1      48.218  26.890  26.760  1.00  0.00     0.037 A 
ATOM     44  C   UNL A   1      41.796  28.875  28.652  1.00  0.00     0.037 A 
ATOM     45  C   UNL A   1      48.068  28.301  27.008  1.00  0.00     0.049 A 
ATOM     46  C   UNL A   1      42.914  29.867  28.511  1.00  0.00     0.074 A 
ATOM     47  C   UNL A   1      49.027  29.297  26.935  1.00  0.00     0.029 A 
ATOM     48  N   UNL A   1      46.882  28.917  27.372  1.00  0.00    -0.354 N 
ATOM     49  N   UNL A   1      44.162  29.656  28.168  1.00  0.00    -0.248 NA
ATOM     50  C   UNL A   1      42.590  31.275  28.777  1.00  0.00     0.031 C 
ATOM     51  C   UNL A   1      48.422  30.516  27.266  1.00  0.00     0.029 A 
ATOM     52  C   UNL A   1      47.082  30.280  27.525  1.00  0.00     0.049 A 
ATOM     53  H   UNL A   1      46.022  28.456  27.503  1.00  0.00     0.167 HD
ATOM     54  C   UNL A   1      44.768  30.906  28.159  1.00  0.00     0.074 A 
ATOM     55  C   UNL A   1      43.748  31.870  28.520  1.00  0.00     0.031 C 
ATOM     56  C   UNL A   1      46.055  31.227  27.878  1.00  0.00     0.037 A 
BRANCH  43  57
ATOM     57  C   UNL A   1      49.580  26.369  26.406  1.00  0.00     0.058 A 
ATOM     58  C   UNL A   1      50.429  25.824  27.381  1.00  0.00     0.135 A 
ATOM     59  C   UNL A   1      50.037  26.401  25.079  1.00  0.00     0.135 A 
ATOM     60  F   UNL A   1      50.044  25.785  28.666  1.00  0.00    -0.206 F 
ATOM     61  C   UNL A   1      51.698  25.354  27.059  1.00  0.00     0.059 A 
ATOM     62  C   UNL A   1      51.296  25.919  24.730  1.00  0.00     0.059 A 
ATOM     63  F   UNL A   1      49.264  26.913  24.109  1.00  0.00    -0.206 F 
ATOM     64  C   UNL A   1      52.126  25.413  25.731  1.00  0.00     0.060 A 
BRANCH  64  65
ATOM     65  S   UNL A   1      53.777  24.811  25.320  1.00  0.00     0.124 S 
ATOM     66  O   UNL A   1      54.118  25.653  24.178  1.00  0.00    -0.237 OA
ATOM     67  O   UNL A   1      54.527  25.072  26.545  1.00  0.00    -0.237 OA
ATOM     68  O   UNL A   1      53.555  23.400  25.016  1.00  0.00    -0.744 OA
ENDBRANCH  64  65
ENDBRANCH  43  57
BRANCH  44  69
ATOM     69  C   UNL A   1      40.439  29.313  29.061  1.00  0.00     0.058 A 
ATOM     70  C   UNL A   1      40.136  29.547  30.410  1.00  0.00     0.135 A 
ATOM     71  C   UNL A   1      39.432  29.534  28.111  1.00  0.00     0.135 A 
ATOM     72  F   UNL A   1      41.070  29.344  31.352  1.00  0.00    -0.206 F 
ATOM     73  C   UNL A   1      38.875  29.980  30.806  1.00  0.00     0.059 A 
ATOM     74  C   UNL A   1      38.168  29.982  28.482  1.00  0.00     0.059 A 
ATOM     75  F   UNL A   1      39.683  29.339  26.807  1.00  0.00    -0.206 F 
ATOM     76  C   UNL A   1      37.897  30.196  29.834  1.00  0.00     0.060 A 
BRANCH  76  77
ATOM     77  S   UNL A   1      36.284  30.826  30.342  1.00  0.00     0.124 S 
ATOM     78  O   UNL A   1      35.906  29.867  31.374  1.00  0.00    -0.237 OA
ATOM     79  O   UNL A   1      36.605  32.173  30.808  1.00  0.00    -0.237 OA
ATOM     80  O   UNL A   1      35.505  30.772  29.108  1.00  0.00    -0.744 OA
ENDBRANCH  76  77
ENDBRANCH  44  69
BRANCH  56  81
ATOM     81  C   UNL A   1      46.420  32.682  27.927  1.00  0.00     0.058 A 
ATOM     82  C   UNL A   1      46.182  33.532  26.836  1.00  0.00     0.135 A 
ATOM     83  C   UNL A   1      47.004  33.232  29.078  1.00  0.00     0.135 A 
ATOM     84  F   UNL A   1      45.631  33.050  25.711  1.00  0.00    -0.206 F 
ATOM     85  C   UNL A   1      46.537  34.877  26.874  1.00  0.00     0.059 A 
ATOM     86  C   UNL A   1      47.353  34.577  29.144  1.00  0.00     0.059 A 
ATOM     87  F   UNL A   1      47.244  32.459  30.148  1.00  0.00    -0.206 F 
ATOM     88  C   UNL A   1      47.131  35.388  28.030  1.00  0.00     0.060 A 
BRANCH  88  89
ATOM     89  S   UNL A   1      47.587  37.134  28.083  1.00  0.00     0.124 S 
ATOM     90  O   UNL A   1      46.752  37.686  27.022  1.00  0.00    -0.237 OA
ATOM     91  O   UNL A   1      47.221  37.521  29.443  1.00  0.00    -0.237 OA
ATOM     92  O   UNL A   1      49.021  37.114  27.810  1.00  0.00    -0.744 OA
ENDBRANCH  88  89
ENDBRANCH  56  81
ENDBRANCH  30  31
ENDBRANCH  22  25
ENDBRANCH  20  21
ENDBRANCH   1  20
TORSDOF 16
ENDMDL
