MODEL 1
REMARK VINA RESULT:     -14.9      0.000      0.000
REMARK SMILES Cc1ccccc1S(=O)(=O)Nc1ccc(N2CCOCC2)cc1C(=O)NCCCNC(=O)c1ccc(-c2c3nc(c(-c4c(F)cc(S(=O)(=O)[O-])cc4F)c4ccc([nH]4)c(-c4c(F)cc(S(=O)(=O)[O-])cc4F)c4nc(c(-c5c(F)cc(S(=O)(=O)[O-])cc5F)c5ccc2[nH]5)C=C4)C=C3)cc1
REMARK SMILES IDX 28 1 27 2 26 3 24 4 25 5 23 7 12 8 13 9 14 10 22 11 15 12
REMARK SMILES IDX 11 13 8 15 9 16 10 17 7 18 1 19 2 20 3 21 4 22 6 23 5 24
REMARK SMILES IDX 16 25 17 26 21 27 18 28 20 29 19 30 29 31 30 32 31 33 32 35
REMARK SMILES IDX 33 36 34 37 98 38 35 39 97 40 36 41 37 42 38 43 91 44 39 45
REMARK SMILES IDX 96 46 90 47 92 48 40 49 95 50 89 51 88 52 41 54 75 55 54 56
REMARK SMILES IDX 74 57 55 58 58 59 73 60 93 61 56 62 57 63 72 65 94 66 59 67
REMARK SMILES IDX 42 68 43 69 52 70 44 71 45 72 51 73 53 74 46 75 47 76 48 77
REMARK SMILES IDX 49 78 50 79 76 80 77 81 86 82 78 83 79 84 85 85 87 86 80 87
REMARK SMILES IDX 81 88 82 89 83 90 84 91 60 92 61 93 70 94 62 95 63 96 69 97
REMARK SMILES IDX 71 98 64 99 65 100 66 101 67 102 68 103
REMARK H PARENT 26 6 11 14 30 34 92 53 58 64
REMARK Flexibility Score: inf
ROOT
ATOM      1  C   UNL A   1      33.114  30.759  26.746  1.00  0.00     0.042 C 
ENDROOT
BRANCH   1   2
ATOM      2  C   UNL A   1      32.443  29.690  25.912  1.00  0.00     0.118 C 
BRANCH   2   3
ATOM      3  N   UNL A   1      33.162  29.384  24.675  1.00  0.00    -0.352 N 
ATOM      4  C   UNL A   1      32.730  28.850  23.480  1.00  0.00     0.253 C 
ATOM      5  O   UNL A   1      33.545  28.572  22.601  1.00  0.00    -0.269 OA
ATOM      6  H   UNL A   1      34.122  29.596  24.701  1.00  0.00     0.163 HD
BRANCH   4   7
ATOM      7  C   UNL A   1      31.298  28.537  23.247  1.00  0.00     0.066 A 
ATOM      8  C   UNL A   1      30.768  27.304  23.646  1.00  0.00     0.062 A 
ATOM      9  C   UNL A   1      29.397  27.099  23.520  1.00  0.00     0.030 A 
ATOM     10  C   UNL A   1      28.561  28.152  23.118  1.00  0.00     0.028 A 
ATOM     11  C   UNL A   1      30.459  29.497  22.665  1.00  0.00     0.042 A 
ATOM     12  C   UNL A   1      29.069  29.403  22.741  1.00  0.00     0.038 A 
BRANCH   8  13
ATOM     13  N   UNL A   1      31.603  26.253  24.140  1.00  0.00    -0.279 N 
ATOM     14  H   UNL A   1      32.080  26.372  24.992  1.00  0.00     0.180 HD
BRANCH  13  15
ATOM     15  S   UNL A   1      31.783  24.811  23.282  1.00  0.00     0.262 S 
ATOM     16  O   UNL A   1      32.162  25.205  21.938  1.00  0.00    -0.201 OA
ATOM     17  O   UNL A   1      30.612  23.979  23.467  1.00  0.00    -0.201 OA
BRANCH  15  18
ATOM     18  C   UNL A   1      33.205  23.998  24.025  1.00  0.00     0.090 A 
ATOM     19  C   UNL A   1      32.721  21.622  23.093  1.00  0.00     0.046 C 
ATOM     20  C   UNL A   1      33.553  22.650  23.803  1.00  0.00    -0.031 A 
ATOM     21  C   UNL A   1      34.764  22.176  24.351  1.00  0.00     0.005 A 
ATOM     22  C   UNL A   1      35.620  23.010  25.070  1.00  0.00     0.000 A 
ATOM     23  C   UNL A   1      34.074  24.828  24.762  1.00  0.00     0.022 A 
ATOM     24  C   UNL A   1      35.272  24.337  25.280  1.00  0.00     0.001 A 
ENDBRANCH  15  18
ENDBRANCH  13  15
ENDBRANCH   8  13
BRANCH  12  25
ATOM     25  N   UNL A   1      28.247  30.491  22.512  1.00  0.00    -0.367 N 
ATOM     26  C   UNL A   1      27.741  30.887  21.180  1.00  0.00     0.145 C 
ATOM     27  C   UNL A   1      28.134  31.566  23.522  1.00  0.00     0.145 C 
ATOM     28  C   UNL A   1      28.340  32.235  20.744  1.00  0.00     0.181 C 
ATOM     29  C   UNL A   1      28.688  32.896  22.972  1.00  0.00     0.181 C 
ATOM     30  O   UNL A   1      28.079  33.254  21.723  1.00  0.00    -0.378 OA
ENDBRANCH  12  25
ENDBRANCH   4   7
ENDBRANCH   2   3
ENDBRANCH   1   2
BRANCH   1  31
ATOM     31  C   UNL A   1      34.379  30.254  27.414  1.00  0.00     0.118 C 
BRANCH  31  32
ATOM     32  N   UNL A   1      35.186  31.360  27.933  1.00  0.00    -0.352 N 
ATOM     33  C   UNL A   1      36.445  31.306  28.506  1.00  0.00     0.251 C 
ATOM     34  H   UNL A   1      34.782  32.255  27.866  1.00  0.00     0.163 HD
ATOM     35  O   UNL A   1      36.991  32.287  28.980  1.00  0.00    -0.269 OA
BRANCH  33  36
ATOM     36  C   UNL A   1      37.116  29.995  28.476  1.00  0.00     0.039 A 
ATOM     37  C   UNL A   1      37.225  29.309  29.688  1.00  0.00     0.014 A 
ATOM     38  C   UNL A   1      37.938  29.703  27.391  1.00  0.00     0.014 A 
ATOM     39  C   UNL A   1      38.311  28.462  29.891  1.00  0.00     0.010 A 
ATOM     40  C   UNL A   1      39.058  28.925  27.626  1.00  0.00     0.010 A 
ATOM     41  C   UNL A   1      39.282  28.360  28.896  1.00  0.00    -0.014 A 
BRANCH  41  42
ATOM     42  C   UNL A   1      40.614  27.795  29.121  1.00  0.00     0.031 A 
ATOM     43  C   UNL A   1      40.904  26.397  28.720  1.00  0.00     0.074 A 
ATOM     44  C   UNL A   1      41.618  28.553  29.617  1.00  0.00     0.049 A 
ATOM     45  N   UNL A   1      41.978  25.747  29.022  1.00  0.00    -0.248 NA
ATOM     46  C   UNL A   1      39.928  25.580  28.009  1.00  0.00     0.031 C 
ATOM     47  C   UNL A   1      43.049  28.278  29.516  1.00  0.00     0.029 A 
ATOM     48  N   UNL A   1      41.534  29.619  30.515  1.00  0.00    -0.354 N 
ATOM     49  C   UNL A   1      41.959  24.543  28.355  1.00  0.00     0.074 A 
ATOM     50  C   UNL A   1      40.620  24.455  27.824  1.00  0.00     0.031 C 
ATOM     51  C   UNL A   1      43.695  28.959  30.472  1.00  0.00     0.029 A 
ATOM     52  C   UNL A   1      42.695  29.579  31.319  1.00  0.00     0.049 A 
ATOM     53  H   UNL A   1      40.803  30.275  30.577  1.00  0.00     0.167 HD
ATOM     54  C   UNL A   1      43.116  23.824  28.252  1.00  0.00     0.037 A 
ATOM     55  C   UNL A   1      42.620  29.424  32.674  1.00  0.00     0.037 A 
ATOM     56  C   UNL A   1      44.132  24.334  29.180  1.00  0.00     0.049 A 
ATOM     57  C   UNL A   1      43.253  28.158  33.211  1.00  0.00     0.074 A 
ATOM     58  C   UNL A   1      45.263  25.126  29.066  1.00  0.00     0.029 A 
ATOM     59  N   UNL A   1      43.899  24.204  30.540  1.00  0.00    -0.354 N 
ATOM     60  N   UNL A   1      43.839  27.257  32.471  1.00  0.00    -0.248 NA
ATOM     61  C   UNL A   1      43.201  27.766  34.622  1.00  0.00     0.031 C 
ATOM     62  C   UNL A   1      45.675  25.506  30.377  1.00  0.00     0.029 A 
ATOM     63  C   UNL A   1      44.798  24.939  31.285  1.00  0.00     0.049 A 
ATOM     64  H   UNL A   1      43.179  23.653  30.926  1.00  0.00     0.167 HD
ATOM     65  C   UNL A   1      44.143  26.169  33.242  1.00  0.00     0.074 A 
ATOM     66  C   UNL A   1      43.760  26.544  34.589  1.00  0.00     0.031 C 
ATOM     67  C   UNL A   1      44.626  25.006  32.726  1.00  0.00     0.037 A 
BRANCH  54  68
ATOM     68  C   UNL A   1      43.417  22.776  27.185  1.00  0.00     0.058 A 
ATOM     69  C   UNL A   1      42.728  21.539  27.190  1.00  0.00     0.135 A 
ATOM     70  C   UNL A   1      44.426  22.858  26.203  1.00  0.00     0.135 A 
ATOM     71  F   UNL A   1      41.694  21.316  28.013  1.00  0.00    -0.206 F 
ATOM     72  C   UNL A   1      43.078  20.459  26.368  1.00  0.00     0.059 A 
ATOM     73  C   UNL A   1      44.804  21.792  25.384  1.00  0.00     0.059 A 
ATOM     74  F   UNL A   1      45.103  23.977  25.953  1.00  0.00    -0.206 F 
ATOM     75  C   UNL A   1      44.141  20.586  25.488  1.00  0.00     0.060 A 
BRANCH  75  76
ATOM     76  S   UNL A   1      44.655  19.175  24.495  1.00  0.00     0.124 S 
ATOM     77  O   UNL A   1      46.040  18.997  24.917  1.00  0.00    -0.237 OA
ATOM     78  O   UNL A   1      43.719  18.141  24.921  1.00  0.00    -0.237 OA
ATOM     79  O   UNL A   1      44.483  19.644  23.121  1.00  0.00    -0.744 OA
ENDBRANCH  75  76
ENDBRANCH  54  68
BRANCH  55  80
ATOM     80  C   UNL A   1      41.449  30.120  33.267  1.00  0.00     0.058 A 
ATOM     81  C   UNL A   1      41.547  31.514  33.435  1.00  0.00     0.135 A 
ATOM     82  C   UNL A   1      40.170  29.553  33.217  1.00  0.00     0.135 A 
ATOM     83  F   UNL A   1      42.755  32.100  33.510  1.00  0.00    -0.206 F 
ATOM     84  C   UNL A   1      40.430  32.332  33.359  1.00  0.00     0.059 A 
ATOM     85  C   UNL A   1      39.031  30.356  33.150  1.00  0.00     0.059 A 
ATOM     86  F   UNL A   1      40.022  28.228  33.066  1.00  0.00    -0.206 F 
ATOM     87  C   UNL A   1      39.186  31.744  33.137  1.00  0.00     0.060 A 
BRANCH  87  88
ATOM     88  S   UNL A   1      37.837  32.822  32.604  1.00  0.00     0.124 S 
ATOM     89  O   UNL A   1      38.490  33.659  31.605  1.00  0.00    -0.237 OA
ATOM     90  O   UNL A   1      36.877  31.846  32.084  1.00  0.00    -0.237 OA
ATOM     91  O   UNL A   1      37.439  33.495  33.835  1.00  0.00    -0.744 OA
ENDBRANCH  87  88
ENDBRANCH  55  80
BRANCH  67  92
ATOM     92  C   UNL A   1      44.957  23.823  33.577  1.00  0.00     0.058 A 
ATOM     93  C   UNL A   1      46.282  23.508  33.915  1.00  0.00     0.135 A 
ATOM     94  C   UNL A   1      43.965  22.901  33.963  1.00  0.00     0.135 A 
ATOM     95  F   UNL A   1      47.286  24.332  33.572  1.00  0.00    -0.206 F 
ATOM     96  C   UNL A   1      46.608  22.338  34.599  1.00  0.00     0.059 A 
ATOM     97  C   UNL A   1      44.270  21.711  34.615  1.00  0.00     0.059 A 
ATOM     98  F   UNL A   1      42.666  23.149  33.725  1.00  0.00    -0.206 F 
ATOM     99  C   UNL A   1      45.596  21.441  34.939  1.00  0.00     0.060 A 
BRANCH  99 100
ATOM    100  S   UNL A   1      46.015  19.895  35.769  1.00  0.00     0.124 S 
ATOM    101  O   UNL A   1      45.165  18.922  35.090  1.00  0.00    -0.237 OA
ATOM    102  O   UNL A   1      47.443  19.791  35.485  1.00  0.00    -0.237 OA
ATOM    103  O   UNL A   1      45.665  20.159  37.161  1.00  0.00    -0.744 OA
ENDBRANCH  99 100
ENDBRANCH  67  92
ENDBRANCH  41  42
ENDBRANCH  33  36
ENDBRANCH  31  32
ENDBRANCH   1  31
TORSDOF 17
ENDMDL
MODEL 2
REMARK VINA RESULT:     -14.6      4.806     11.725
REMARK SMILES Cc1ccccc1S(=O)(=O)Nc1ccc(N2CCOCC2)cc1C(=O)NCCCNC(=O)c1ccc(-c2c3nc(c(-c4c(F)cc(S(=O)(=O)[O-])cc4F)c4ccc([nH]4)c(-c4c(F)cc(S(=O)(=O)[O-])cc4F)c4nc(c(-c5c(F)cc(S(=O)(=O)[O-])cc5F)c5ccc2[nH]5)C=C4)C=C3)cc1
REMARK SMILES IDX 28 1 27 2 26 3 24 4 25 5 23 7 12 8 13 9 14 10 22 11 15 12
REMARK SMILES IDX 11 13 8 15 9 16 10 17 7 18 1 19 2 20 3 21 4 22 6 23 5 24
REMARK SMILES IDX 16 25 17 26 21 27 18 28 20 29 19 30 29 31 30 32 31 33 32 35
REMARK SMILES IDX 33 36 34 37 98 38 35 39 97 40 36 41 37 42 38 43 91 44 39 45
REMARK SMILES IDX 96 46 90 47 92 48 40 49 95 50 89 51 88 52 41 54 75 55 54 56
REMARK SMILES IDX 74 57 55 58 58 59 73 60 93 61 56 62 57 63 72 65 94 66 59 67
REMARK SMILES IDX 42 68 43 69 52 70 44 71 45 72 51 73 53 74 46 75 47 76 48 77
REMARK SMILES IDX 49 78 50 79 76 80 77 81 86 82 78 83 79 84 85 85 87 86 80 87
REMARK SMILES IDX 81 88 82 89 83 90 84 91 60 92 61 93 70 94 62 95 63 96 69 97
REMARK SMILES IDX 71 98 64 99 65 100 66 101 67 102 68 103
REMARK H PARENT 26 6 11 14 30 34 92 53 58 64
REMARK Flexibility Score: inf
ROOT
ATOM      1  C   UNL A   1      37.877  21.990  25.119  1.00  0.00     0.042 C 
ENDROOT
BRANCH   1   2
ATOM      2  C   UNL A   1      36.565  21.275  25.359  1.00  0.00     0.118 C 
BRANCH   2   3
ATOM      3  N   UNL A   1      35.691  21.971  26.303  1.00  0.00    -0.352 N 
ATOM      4  C   UNL A   1      34.328  22.169  26.305  1.00  0.00     0.253 C 
ATOM      5  O   UNL A   1      33.812  22.893  27.156  1.00  0.00    -0.269 OA
ATOM      6  H   UNL A   1      36.159  22.369  27.072  1.00  0.00     0.163 HD
BRANCH   4   7
ATOM      7  C   UNL A   1      33.460  21.577  25.255  1.00  0.00     0.066 A 
ATOM      8  C   UNL A   1      33.053  22.345  24.157  1.00  0.00     0.062 A 
ATOM      9  C   UNL A   1      32.345  21.718  23.136  1.00  0.00     0.030 A 
ATOM     10  C   UNL A   1      32.156  20.328  23.159  1.00  0.00     0.028 A 
ATOM     11  C   UNL A   1      33.083  20.230  25.338  1.00  0.00     0.042 A 
ATOM     12  C   UNL A   1      32.581  19.536  24.236  1.00  0.00     0.038 A 
BRANCH   8  13
ATOM     13  N   UNL A   1      33.317  23.748  24.083  1.00  0.00    -0.279 N 
ATOM     14  H   UNL A   1      34.227  24.061  23.881  1.00  0.00     0.180 HD
BRANCH  13  15
ATOM     15  S   UNL A   1      32.090  24.877  24.340  1.00  0.00     0.262 S 
ATOM     16  O   UNL A   1      31.362  24.401  25.500  1.00  0.00    -0.201 OA
ATOM     17  O   UNL A   1      31.370  25.110  23.105  1.00  0.00    -0.201 OA
BRANCH  15  18
ATOM     18  C   UNL A   1      32.937  26.390  24.819  1.00  0.00     0.090 A 
ATOM     19  C   UNL A   1      33.570  27.161  22.421  1.00  0.00     0.046 C 
ATOM     20  C   UNL A   1      33.453  27.333  23.908  1.00  0.00    -0.031 A 
ATOM     21  C   UNL A   1      33.983  28.536  24.422  1.00  0.00     0.005 A 
ATOM     22  C   UNL A   1      33.979  28.814  25.789  1.00  0.00     0.000 A 
ATOM     23  C   UNL A   1      32.947  26.679  26.199  1.00  0.00     0.022 A 
ATOM     24  C   UNL A   1      33.464  27.883  26.679  1.00  0.00     0.001 A 
ENDBRANCH  15  18
ENDBRANCH  13  15
ENDBRANCH   8  13
BRANCH  12  25
ATOM     25  N   UNL A   1      32.554  18.155  24.189  1.00  0.00    -0.367 N 
ATOM     26  C   UNL A   1      32.557  17.281  25.381  1.00  0.00     0.145 C 
ATOM     27  C   UNL A   1      32.919  17.445  22.943  1.00  0.00     0.145 C 
ATOM     28  C   UNL A   1      33.865  16.475  25.468  1.00  0.00     0.181 C 
ATOM     29  C   UNL A   1      34.195  16.604  23.145  1.00  0.00     0.181 C 
ATOM     30  O   UNL A   1      34.081  15.717  24.266  1.00  0.00    -0.378 OA
ENDBRANCH  12  25
ENDBRANCH   4   7
ENDBRANCH   2   3
ENDBRANCH   1   2
BRANCH   1  31
ATOM     31  C   UNL A   1      38.136  23.072  26.149  1.00  0.00     0.118 C 
BRANCH  31  32
ATOM     32  N   UNL A   1      39.397  22.844  26.857  1.00  0.00    -0.352 N 
ATOM     33  C   UNL A   1      40.200  23.772  27.497  1.00  0.00     0.251 C 
ATOM     34  H   UNL A   1      39.714  21.913  26.879  1.00  0.00     0.163 HD
ATOM     35  O   UNL A   1      41.277  23.480  27.986  1.00  0.00    -0.269 OA
BRANCH  33  36
ATOM     36  C   UNL A   1      39.660  25.139  27.595  1.00  0.00     0.039 A 
ATOM     37  C   UNL A   1      40.239  26.112  26.776  1.00  0.00     0.014 A 
ATOM     38  C   UNL A   1      38.931  25.477  28.732  1.00  0.00     0.014 A 
ATOM     39  C   UNL A   1      40.269  27.433  27.211  1.00  0.00     0.010 A 
ATOM     40  C   UNL A   1      39.036  26.776  29.199  1.00  0.00     0.010 A 
ATOM     41  C   UNL A   1      39.763  27.739  28.473  1.00  0.00    -0.014 A 
BRANCH  41  42
ATOM     42  C   UNL A   1      40.048  28.992  29.177  1.00  0.00     0.031 A 
ATOM     43  C   UNL A   1      39.042  30.082  29.185  1.00  0.00     0.074 A 
ATOM     44  C   UNL A   1      41.185  29.147  29.893  1.00  0.00     0.049 A 
ATOM     45  N   UNL A   1      39.251  31.279  29.622  1.00  0.00    -0.248 NA
ATOM     46  C   UNL A   1      37.720  29.917  28.595  1.00  0.00     0.031 C 
ATOM     47  C   UNL A   1      41.422  30.128  30.948  1.00  0.00     0.029 A 
ATOM     48  N   UNL A   1      42.441  28.588  29.651  1.00  0.00    -0.354 N 
ATOM     49  C   UNL A   1      38.055  31.961  29.610  1.00  0.00     0.074 A 
ATOM     50  C   UNL A   1      37.165  31.098  28.871  1.00  0.00     0.031 C 
ATOM     51  C   UNL A   1      42.742  30.291  31.106  1.00  0.00     0.029 A 
ATOM     52  C   UNL A   1      43.404  29.538  30.060  1.00  0.00     0.049 A 
ATOM     53  H   UNL A   1      42.622  27.700  29.269  1.00  0.00     0.167 HD
ATOM     54  C   UNL A   1      37.947  33.123  30.319  1.00  0.00     0.037 A 
ATOM     55  C   UNL A   1      44.309  30.060  29.179  1.00  0.00     0.037 A 
ATOM     56  C   UNL A   1      39.271  33.615  30.719  1.00  0.00     0.049 A 
ATOM     57  C   UNL A   1      44.197  31.552  28.955  1.00  0.00     0.074 A 
ATOM     58  C   UNL A   1      40.009  33.614  31.891  1.00  0.00     0.029 A 
ATOM     59  N   UNL A   1      40.141  34.031  29.725  1.00  0.00    -0.354 N 
ATOM     60  N   UNL A   1      43.319  32.321  29.537  1.00  0.00    -0.248 NA
ATOM     61  C   UNL A   1      45.017  32.286  27.985  1.00  0.00     0.031 C 
ATOM     62  C   UNL A   1      41.348  33.991  31.574  1.00  0.00     0.029 A 
ATOM     63  C   UNL A   1      41.418  34.226  30.212  1.00  0.00     0.049 A 
ATOM     64  H   UNL A   1      39.880  34.170  28.785  1.00  0.00     0.167 HD
ATOM     65  C   UNL A   1      43.376  33.571  28.984  1.00  0.00     0.074 A 
ATOM     66  C   UNL A   1      44.477  33.516  28.043  1.00  0.00     0.031 C 
ATOM     67  C   UNL A   1      42.482  34.554  29.280  1.00  0.00     0.037 A 
BRANCH  54  68
ATOM     68  C   UNL A   1      36.645  33.735  30.827  1.00  0.00     0.058 A 
ATOM     69  C   UNL A   1      35.656  34.165  29.909  1.00  0.00     0.135 A 
ATOM     70  C   UNL A   1      36.336  34.031  32.171  1.00  0.00     0.135 A 
ATOM     71  F   UNL A   1      35.757  33.904  28.598  1.00  0.00    -0.206 F 
ATOM     72  C   UNL A   1      34.526  34.903  30.284  1.00  0.00     0.059 A 
ATOM     73  C   UNL A   1      35.226  34.779  32.568  1.00  0.00     0.059 A 
ATOM     74  F   UNL A   1      37.073  33.603  33.194  1.00  0.00    -0.206 F 
ATOM     75  C   UNL A   1      34.336  35.234  31.616  1.00  0.00     0.060 A 
BRANCH  75  76
ATOM     76  S   UNL A   1      32.937  36.260  32.094  1.00  0.00     0.124 S 
ATOM     77  O   UNL A   1      32.804  37.145  30.942  1.00  0.00    -0.237 OA
ATOM     78  O   UNL A   1      31.877  35.274  32.268  1.00  0.00    -0.237 OA
ATOM     79  O   UNL A   1      33.392  36.908  33.323  1.00  0.00    -0.744 OA
ENDBRANCH  75  76
ENDBRANCH  54  68
BRANCH  55  80
ATOM     80  C   UNL A   1      44.768  29.068  28.173  1.00  0.00     0.058 A 
ATOM     81  C   UNL A   1      45.708  28.110  28.596  1.00  0.00     0.135 A 
ATOM     82  C   UNL A   1      43.994  28.775  27.043  1.00  0.00     0.135 A 
ATOM     83  F   UNL A   1      46.487  28.357  29.663  1.00  0.00    -0.206 F 
ATOM     84  C   UNL A   1      45.742  26.838  28.044  1.00  0.00     0.059 A 
ATOM     85  C   UNL A   1      44.020  27.506  26.465  1.00  0.00     0.059 A 
ATOM     86  F   UNL A   1      43.089  29.658  26.594  1.00  0.00    -0.206 F 
ATOM     87  C   UNL A   1      44.838  26.525  27.031  1.00  0.00     0.060 A 
BRANCH  87  88
ATOM     88  S   UNL A   1      44.594  24.777  26.641  1.00  0.00     0.124 S 
ATOM     89  O   UNL A   1      44.481  24.181  27.965  1.00  0.00    -0.237 OA
ATOM     90  O   UNL A   1      43.357  24.827  25.860  1.00  0.00    -0.237 OA
ATOM     91  O   UNL A   1      45.794  24.431  25.888  1.00  0.00    -0.744 OA
ENDBRANCH  87  88
ENDBRANCH  55  80
BRANCH  67  92
ATOM     92  C   UNL A   1      42.554  35.917  28.671  1.00  0.00     0.058 A 
ATOM     93  C   UNL A   1      43.057  37.015  29.386  1.00  0.00     0.135 A 
ATOM     94  C   UNL A   1      41.997  36.182  27.406  1.00  0.00     0.135 A 
ATOM     95  F   UNL A   1      43.594  36.845  30.605  1.00  0.00    -0.206 F 
ATOM     96  C   UNL A   1      43.009  38.310  28.873  1.00  0.00     0.059 A 
ATOM     97  C   UNL A   1      41.907  37.470  26.888  1.00  0.00     0.059 A 
ATOM     98  F   UNL A   1      41.540  35.182  26.633  1.00  0.00    -0.206 F 
ATOM     99  C   UNL A   1      42.425  38.530  27.626  1.00  0.00     0.060 A 
BRANCH  99 100
ATOM    100  S   UNL A   1      42.302  40.210  26.981  1.00  0.00     0.124 S 
ATOM    101  O   UNL A   1      43.509  40.335  26.169  1.00  0.00    -0.237 OA
ATOM    102  O   UNL A   1      41.047  40.144  26.238  1.00  0.00    -0.237 OA
ATOM    103  O   UNL A   1      42.279  41.030  28.187  1.00  0.00    -0.744 OA
ENDBRANCH  99 100
ENDBRANCH  67  92
ENDBRANCH  41  42
ENDBRANCH  33  36
ENDBRANCH  31  32
ENDBRANCH   1  31
TORSDOF 17
ENDMDL
MODEL 3
REMARK VINA RESULT:     -14.5      5.061     11.723
REMARK SMILES Cc1ccccc1S(=O)(=O)Nc1ccc(N2CCOCC2)cc1C(=O)NCCCNC(=O)c1ccc(-c2c3nc(c(-c4c(F)cc(S(=O)(=O)[O-])cc4F)c4ccc([nH]4)c(-c4c(F)cc(S(=O)(=O)[O-])cc4F)c4nc(c(-c5c(F)cc(S(=O)(=O)[O-])cc5F)c5ccc2[nH]5)C=C4)C=C3)cc1
REMARK SMILES IDX 28 1 27 2 26 3 24 4 25 5 23 7 12 8 13 9 14 10 22 11 15 12
REMARK SMILES IDX 11 13 8 15 9 16 10 17 7 18 1 19 2 20 3 21 4 22 6 23 5 24
REMARK SMILES IDX 16 25 17 26 21 27 18 28 20 29 19 30 29 31 30 32 31 33 32 35
REMARK SMILES IDX 33 36 34 37 98 38 35 39 97 40 36 41 37 42 38 43 91 44 39 45
REMARK SMILES IDX 96 46 90 47 92 48 40 49 95 50 89 51 88 52 41 54 75 55 54 56
REMARK SMILES IDX 74 57 55 58 58 59 73 60 93 61 56 62 57 63 72 65 94 66 59 67
REMARK SMILES IDX 42 68 43 69 52 70 44 71 45 72 51 73 53 74 46 75 47 76 48 77
REMARK SMILES IDX 49 78 50 79 76 80 77 81 86 82 78 83 79 84 85 85 87 86 80 87
REMARK SMILES IDX 81 88 82 89 83 90 84 91 60 92 61 93 70 94 62 95 63 96 69 97
REMARK SMILES IDX 71 98 64 99 65 100 66 101 67 102 68 103
REMARK H PARENT 26 6 11 14 30 34 92 53 58 64
REMARK Flexibility Score: inf
ROOT
ATOM      1  C   UNL A   1      38.027  21.865  25.216  1.00  0.00     0.042 C 
ENDROOT
BRANCH   1   2
ATOM      2  C   UNL A   1      36.636  21.277  25.318  1.00  0.00     0.118 C 
BRANCH   2   3
ATOM      3  N   UNL A   1      35.873  21.789  26.456  1.00  0.00    -0.352 N 
ATOM      4  C   UNL A   1      34.516  21.915  26.659  1.00  0.00     0.253 C 
ATOM      5  O   UNL A   1      34.095  22.485  27.665  1.00  0.00    -0.269 OA
ATOM      6  H   UNL A   1      36.426  22.098  27.208  1.00  0.00     0.163 HD
BRANCH   4   7
ATOM      7  C   UNL A   1      33.537  21.433  25.652  1.00  0.00     0.066 A 
ATOM      8  C   UNL A   1      32.992  22.317  24.713  1.00  0.00     0.062 A 
ATOM      9  C   UNL A   1      32.174  21.800  23.712  1.00  0.00     0.030 A 
ATOM     10  C   UNL A   1      32.006  20.413  23.586  1.00  0.00     0.028 A 
ATOM     11  C   UNL A   1      33.188  20.076  25.611  1.00  0.00     0.042 A 
ATOM     12  C   UNL A   1      32.566  19.508  24.499  1.00  0.00     0.038 A 
BRANCH   8  13
ATOM     13  N   UNL A   1      33.229  23.725  24.783  1.00  0.00    -0.279 N 
ATOM     14  H   UNL A   1      34.119  24.080  24.558  1.00  0.00     0.180 HD
BRANCH  13  15
ATOM     15  S   UNL A   1      32.006  24.790  25.248  1.00  0.00     0.262 S 
ATOM     16  O   UNL A   1      31.646  24.400  26.598  1.00  0.00    -0.201 OA
ATOM     17  O   UNL A   1      30.977  24.831  24.230  1.00  0.00    -0.201 OA
BRANCH  15  18
ATOM     18  C   UNL A   1      32.798  26.401  25.348  1.00  0.00     0.090 A 
ATOM     19  C   UNL A   1      33.600  26.501  22.878  1.00  0.00     0.046 C 
ATOM     20  C   UNL A   1      33.371  27.073  24.248  1.00  0.00    -0.031 A 
ATOM     21  C   UNL A   1      33.848  28.386  24.444  1.00  0.00     0.005 A 
ATOM     22  C   UNL A   1      33.739  29.030  25.677  1.00  0.00     0.000 A 
ATOM     23  C   UNL A   1      32.702  27.059  26.591  1.00  0.00     0.022 A 
ATOM     24  C   UNL A   1      33.170  28.364  26.752  1.00  0.00     0.001 A 
ENDBRANCH  15  18
ENDBRANCH  13  15
ENDBRANCH   8  13
BRANCH  12  25
ATOM     25  N   UNL A   1      32.550  18.143  24.285  1.00  0.00    -0.367 N 
ATOM     26  C   UNL A   1      32.535  17.131  25.363  1.00  0.00     0.145 C 
ATOM     27  C   UNL A   1      32.944  17.590  22.970  1.00  0.00     0.145 C 
ATOM     28  C   UNL A   1      33.847  16.326  25.378  1.00  0.00     0.181 C 
ATOM     29  C   UNL A   1      34.222  16.737  23.095  1.00  0.00     0.181 C 
ATOM     30  O   UNL A   1      34.092  15.720  24.098  1.00  0.00    -0.378 OA
ENDBRANCH  12  25
ENDBRANCH   4   7
ENDBRANCH   2   3
ENDBRANCH   1   2
BRANCH   1  31
ATOM     31  C   UNL A   1      38.271  22.940  26.257  1.00  0.00     0.118 C 
BRANCH  31  32
ATOM     32  N   UNL A   1      39.568  22.764  26.912  1.00  0.00    -0.352 N 
ATOM     33  C   UNL A   1      40.334  23.714  27.565  1.00  0.00     0.251 C 
ATOM     34  H   UNL A   1      39.943  21.854  26.884  1.00  0.00     0.163 HD
ATOM     35  O   UNL A   1      41.444  23.470  28.005  1.00  0.00    -0.269 OA
BRANCH  33  36
ATOM     36  C   UNL A   1      39.715  25.039  27.739  1.00  0.00     0.039 A 
ATOM     37  C   UNL A   1      40.169  26.067  26.908  1.00  0.00     0.014 A 
ATOM     38  C   UNL A   1      39.049  25.301  28.933  1.00  0.00     0.014 A 
ATOM     39  C   UNL A   1      40.145  27.376  27.377  1.00  0.00     0.010 A 
ATOM     40  C   UNL A   1      39.103  26.593  29.427  1.00  0.00     0.010 A 
ATOM     41  C   UNL A   1      39.711  27.619  28.680  1.00  0.00    -0.014 A 
BRANCH  41  42
ATOM     42  C   UNL A   1      39.964  28.871  29.397  1.00  0.00     0.031 A 
ATOM     43  C   UNL A   1      38.972  29.972  29.336  1.00  0.00     0.074 A 
ATOM     44  C   UNL A   1      41.054  29.016  30.184  1.00  0.00     0.049 A 
ATOM     45  N   UNL A   1      39.166  31.168  29.782  1.00  0.00    -0.248 NA
ATOM     46  C   UNL A   1      37.689  29.819  28.662  1.00  0.00     0.031 C 
ATOM     47  C   UNL A   1      41.233  29.999  31.250  1.00  0.00     0.029 A 
ATOM     48  N   UNL A   1      42.317  28.443  30.027  1.00  0.00    -0.354 N 
ATOM     49  C   UNL A   1      37.980  31.863  29.690  1.00  0.00     0.074 A 
ATOM     50  C   UNL A   1      37.131  31.007  28.898  1.00  0.00     0.031 C 
ATOM     51  C   UNL A   1      42.542  30.148  31.492  1.00  0.00     0.029 A 
ATOM     52  C   UNL A   1      43.262  29.383  30.494  1.00  0.00     0.049 A 
ATOM     53  H   UNL A   1      42.512  27.551  29.660  1.00  0.00     0.167 HD
ATOM     54  C   UNL A   1      37.840  33.029  30.387  1.00  0.00     0.037 A 
ATOM     55  C   UNL A   1      44.228  29.893  29.672  1.00  0.00     0.037 A 
ATOM     56  C   UNL A   1      39.140  33.508  30.871  1.00  0.00     0.049 A 
ATOM     57  C   UNL A   1      44.147  31.385  29.436  1.00  0.00     0.074 A 
ATOM     58  C   UNL A   1      39.801  33.504  32.089  1.00  0.00     0.029 A 
ATOM     59  N   UNL A   1      40.078  33.911  29.934  1.00  0.00    -0.354 N 
ATOM     60  N   UNL A   1      43.242  32.166  29.958  1.00  0.00    -0.248 NA
ATOM     61  C   UNL A   1      45.036  32.106  28.520  1.00  0.00     0.031 C 
ATOM     62  C   UNL A   1      41.162  33.865  31.857  1.00  0.00     0.029 A 
ATOM     63  C   UNL A   1      41.322  34.094  30.502  1.00  0.00     0.049 A 
ATOM     64  H   UNL A   1      39.879  34.049  28.979  1.00  0.00     0.167 HD
ATOM     65  C   UNL A   1      43.348  33.413  29.406  1.00  0.00     0.074 A 
ATOM     66  C   UNL A   1      44.507  33.342  28.538  1.00  0.00     0.031 C 
ATOM     67  C   UNL A   1      42.448  34.406  29.640  1.00  0.00     0.037 A 
BRANCH  54  68
ATOM     68  C   UNL A   1      36.515  33.657  30.808  1.00  0.00     0.058 A 
ATOM     69  C   UNL A   1      35.603  34.118  29.827  1.00  0.00     0.135 A 
ATOM     70  C   UNL A   1      36.112  33.939  32.130  1.00  0.00     0.135 A 
ATOM     71  F   UNL A   1      35.796  33.875  28.523  1.00  0.00    -0.206 F 
ATOM     72  C   UNL A   1      34.462  34.872  30.129  1.00  0.00     0.059 A 
ATOM     73  C   UNL A   1      34.989  34.702  32.457  1.00  0.00     0.059 A 
ATOM     74  F   UNL A   1      36.765  33.483  33.197  1.00  0.00    -0.206 F 
ATOM     75  C   UNL A   1      34.179  35.186  31.449  1.00  0.00     0.060 A 
BRANCH  75  76
ATOM     76  S   UNL A   1      32.766  36.230  31.839  1.00  0.00     0.124 S 
ATOM     77  O   UNL A   1      33.330  37.147  32.824  1.00  0.00    -0.237 OA
ATOM     78  O   UNL A   1      32.443  36.808  30.540  1.00  0.00    -0.237 OA
ATOM     79  O   UNL A   1      31.780  35.288  32.364  1.00  0.00    -0.744 OA
ENDBRANCH  75  76
ENDBRANCH  54  68
BRANCH  55  80
ATOM     80  C   UNL A   1      44.739  28.892  28.701  1.00  0.00     0.058 A 
ATOM     81  C   UNL A   1      44.102  28.827  27.448  1.00  0.00     0.135 A 
ATOM     82  C   UNL A   1      46.042  28.386  28.803  1.00  0.00     0.135 A 
ATOM     83  F   UNL A   1      42.845  29.280  27.308  1.00  0.00    -0.206 F 
ATOM     84  C   UNL A   1      44.794  28.460  26.303  1.00  0.00     0.059 A 
ATOM     85  C   UNL A   1      46.752  28.001  27.666  1.00  0.00     0.059 A 
ATOM     86  F   UNL A   1      46.690  28.417  29.977  1.00  0.00    -0.206 F 
ATOM     87  C   UNL A   1      46.142  28.124  26.416  1.00  0.00     0.060 A 
BRANCH  87  88
ATOM     88  S   UNL A   1      47.122  28.086  24.898  1.00  0.00     0.124 S 
ATOM     89  O   UNL A   1      46.593  29.227  24.163  1.00  0.00    -0.237 OA
ATOM     90  O   UNL A   1      48.478  28.245  25.427  1.00  0.00    -0.237 OA
ATOM     91  O   UNL A   1      46.821  26.773  24.338  1.00  0.00    -0.744 OA
ENDBRANCH  87  88
ENDBRANCH  55  80
BRANCH  67  92
ATOM     92  C   UNL A   1      42.574  35.767  29.033  1.00  0.00     0.058 A 
ATOM     93  C   UNL A   1      43.282  36.794  29.675  1.00  0.00     0.135 A 
ATOM     94  C   UNL A   1      41.877  36.110  27.859  1.00  0.00     0.135 A 
ATOM     95  F   UNL A   1      43.963  36.548  30.807  1.00  0.00    -0.206 F 
ATOM     96  C   UNL A   1      43.297  38.097  29.180  1.00  0.00     0.059 A 
ATOM     97  C   UNL A   1      41.849  37.409  27.365  1.00  0.00     0.059 A 
ATOM     98  F   UNL A   1      41.218  35.176  27.153  1.00  0.00    -0.206 F 
ATOM     99  C   UNL A   1      42.571  38.398  28.027  1.00  0.00     0.060 A 
BRANCH  99 100
ATOM    100  S   UNL A   1      42.533  40.093  27.413  1.00  0.00     0.124 S 
ATOM    101  O   UNL A   1      43.363  40.808  28.379  1.00  0.00    -0.237 OA
ATOM    102  O   UNL A   1      43.112  39.933  26.082  1.00  0.00    -0.237 OA
ATOM    103  O   UNL A   1      41.113  40.430  27.448  1.00  0.00    -0.744 OA
ENDBRANCH  99 100
ENDBRANCH  67  92
ENDBRANCH  41  42
ENDBRANCH  33  36
ENDBRANCH  31  32
ENDBRANCH   1  31
TORSDOF 17
ENDMDL
