MODEL 1
REMARK VINA RESULT:     -12.1      0.000      0.000
REMARK SMILES CC1(C)OC(=O)C(/C=N/[C@@H](CCC(N)=O)C(=O)NCCCNC(=O)c2ccc(-c3c4nc(c(-c5c(F)cc(S(=O)(=O)[O-])cc5F)c5ccc([nH]5)c(-c5c(F)cc(S(=O)(=O)[O-])cc5F)c5nc(c(-c6c(F)cc(S(=O)(=O)[O-])cc6F)c6ccc3[nH]6)C=C5)C=C4)cc2)C(=O)O1
REMARK SMILES IDX 20 1 19 2 18 3 16 4 17 5 10 7 9 8 8 9 7 10 1 11 2 12 3 13
REMARK SMILES IDX 4 14 93 15 5 16 91 17 6 18 92 19 11 20 12 21 13 22 14 23
REMARK SMILES IDX 15 24 21 27 22 28 23 29 24 31 25 32 26 33 90 34 27 35 89 36
REMARK SMILES IDX 28 37 29 38 30 39 83 40 31 41 88 42 82 43 84 44 32 45 87 46
REMARK SMILES IDX 81 47 80 48 33 50 67 51 46 52 66 53 47 54 50 55 65 56 85 57
REMARK SMILES IDX 48 58 49 59 64 61 86 62 51 63 34 64 35 65 44 66 36 67 37 68
REMARK SMILES IDX 43 69 45 70 38 71 39 72 40 73 41 74 42 75 68 76 69 77 78 78
REMARK SMILES IDX 70 79 71 80 77 81 79 82 72 83 73 84 74 85 75 86 76 87 52 88
REMARK SMILES IDX 53 89 62 90 54 91 55 92 61 93 63 94 56 95 57 96 58 97 59 98
REMARK SMILES IDX 60 99
REMARK H PARENT 18 6 14 25 14 26 22 30 84 49 50 60
REMARK Flexibility Score: inf
ROOT
ATOM      1  C   UNL A   1      37.255  23.678  25.483  1.00  0.00     0.042 C 
ENDROOT
BRANCH   1   2
ATOM      2  C   UNL A   1      36.555  22.384  25.823  1.00  0.00     0.117 C 
BRANCH   2   3
ATOM      3  N   UNL A   1      35.551  22.512  26.839  1.00  0.00    -0.354 N 
ATOM      4  C   UNL A   1      34.197  22.475  26.716  1.00  0.00     0.244 C 
ATOM      5  O   UNL A   1      33.541  22.423  27.763  1.00  0.00    -0.273 OA
ATOM      6  H   UNL A   1      35.890  22.645  27.754  1.00  0.00     0.163 HD
BRANCH   4   7
ATOM      7  C   UNL A   1      33.492  22.524  25.346  1.00  0.00     0.194 C 
BRANCH   7   8
ATOM      8  N   UNL A   1      33.297  23.914  24.875  1.00  0.00    -0.283 NA
ATOM      9  C   UNL A   1      34.158  24.627  24.263  1.00  0.00     0.105 C 
BRANCH   9  10
ATOM     10  C   UNL A   1      33.836  26.047  23.846  1.00  0.00     0.250 C 
ATOM     11  C   UNL A   1      29.889  26.053  24.213  1.00  0.00     0.106 C 
ATOM     12  C   UNL A   1      31.121  26.853  23.793  1.00  0.00     0.252 C 
ATOM     13  C   UNL A   1      30.703  28.233  23.290  1.00  0.00     0.106 C 
ATOM     14  O   UNL A   1      31.716  26.141  22.713  1.00  0.00    -0.422 OA
ATOM     15  O   UNL A   1      31.921  27.030  24.964  1.00  0.00    -0.422 OA
ATOM     16  C   UNL A   1      33.050  26.093  22.589  1.00  0.00     0.329 C 
ATOM     17  C   UNL A   1      33.235  26.778  24.987  1.00  0.00     0.329 C 
ATOM     18  O   UNL A   1      33.561  25.943  21.485  1.00  0.00    -0.251 OA
ATOM     19  O   UNL A   1      33.893  27.034  25.993  1.00  0.00    -0.251 OA
ENDBRANCH   9  10
ENDBRANCH   7   8
BRANCH   7  20
ATOM     20  C   UNL A   1      33.746  21.418  24.304  1.00  0.00     0.047 C 
BRANCH  20  21
ATOM     21  C   UNL A   1      34.071  19.970  24.678  1.00  0.00     0.102 C 
BRANCH  21  22
ATOM     22  C   UNL A   1      32.926  19.185  25.288  1.00  0.00     0.217 C 
ATOM     23  N   UNL A   1      32.987  19.060  26.647  1.00  0.00    -0.370 N 
ATOM     24  O   UNL A   1      32.010  18.683  24.651  1.00  0.00    -0.275 OA
ATOM     25  H   UNL A   1      33.731  19.469  27.145  1.00  0.00     0.159 HD
ATOM     26  H   UNL A   1      32.287  18.562  27.127  1.00  0.00     0.159 HD
ENDBRANCH  21  22
ENDBRANCH  20  21
ENDBRANCH   7  20
ENDBRANCH   4   7
ENDBRANCH   2   3
ENDBRANCH   1   2
BRANCH   1  27
ATOM     27  C   UNL A   1      38.224  24.128  26.554  1.00  0.00     0.118 C 
BRANCH  27  28
ATOM     28  N   UNL A   1      39.607  24.164  26.084  1.00  0.00    -0.352 N 
ATOM     29  C   UNL A   1      40.647  25.000  26.416  1.00  0.00     0.251 C 
ATOM     30  H   UNL A   1      39.832  23.475  25.417  1.00  0.00     0.163 HD
ATOM     31  O   UNL A   1      41.693  24.926  25.786  1.00  0.00    -0.269 OA
BRANCH  29  32
ATOM     32  C   UNL A   1      40.484  26.001  27.496  1.00  0.00     0.039 A 
ATOM     33  C   UNL A   1      39.626  25.716  28.561  1.00  0.00     0.014 A 
ATOM     34  C   UNL A   1      41.171  27.214  27.465  1.00  0.00     0.014 A 
ATOM     35  C   UNL A   1      39.511  26.623  29.617  1.00  0.00     0.010 A 
ATOM     36  C   UNL A   1      41.166  28.043  28.575  1.00  0.00     0.010 A 
ATOM     37  C   UNL A   1      40.307  27.778  29.647  1.00  0.00    -0.014 A 
BRANCH  37  38
ATOM     38  C   UNL A   1      40.214  28.771  30.744  1.00  0.00     0.031 A 
ATOM     39  C   UNL A   1      41.116  28.632  31.944  1.00  0.00     0.074 A 
ATOM     40  C   UNL A   1      39.277  29.738  30.698  1.00  0.00     0.049 A 
ATOM     41  N   UNL A   1      41.127  29.319  33.056  1.00  0.00    -0.248 NA
ATOM     42  C   UNL A   1      42.107  27.541  31.911  1.00  0.00     0.031 C 
ATOM     43  C   UNL A   1      38.300  29.926  29.622  1.00  0.00     0.029 A 
ATOM     44  N   UNL A   1      38.990  30.744  31.583  1.00  0.00    -0.354 N 
ATOM     45  C   UNL A   1      42.091  28.721  33.860  1.00  0.00     0.074 A 
ATOM     46  C   UNL A   1      42.593  27.573  33.142  1.00  0.00     0.031 C 
ATOM     47  C   UNL A   1      37.547  31.005  29.895  1.00  0.00     0.029 A 
ATOM     48  C   UNL A   1      37.964  31.563  31.177  1.00  0.00     0.049 A 
ATOM     49  H   UNL A   1      39.474  30.869  32.432  1.00  0.00     0.167 HD
ATOM     50  C   UNL A   1      42.548  29.115  35.072  1.00  0.00     0.037 A 
ATOM     51  C   UNL A   1      37.428  32.646  31.771  1.00  0.00     0.037 A 
ATOM     52  C   UNL A   1      42.089  30.298  35.747  1.00  0.00     0.049 A 
ATOM     53  C   UNL A   1      38.002  33.109  33.083  1.00  0.00     0.074 A 
ATOM     54  C   UNL A   1      42.525  30.833  36.945  1.00  0.00     0.029 A 
ATOM     55  N   UNL A   1      41.099  31.143  35.265  1.00  0.00    -0.354 N 
ATOM     56  N   UNL A   1      38.951  32.562  33.806  1.00  0.00    -0.248 NA
ATOM     57  C   UNL A   1      37.445  34.342  33.652  1.00  0.00     0.031 C 
ATOM     58  C   UNL A   1      41.783  31.992  37.199  1.00  0.00     0.029 A 
ATOM     59  C   UNL A   1      40.914  32.199  36.139  1.00  0.00     0.049 A 
ATOM     60  H   UNL A   1      40.603  31.011  34.425  1.00  0.00     0.167 HD
ATOM     61  C   UNL A   1      39.132  33.405  34.896  1.00  0.00     0.074 A 
ATOM     62  C   UNL A   1      38.197  34.500  34.734  1.00  0.00     0.031 C 
ATOM     63  C   UNL A   1      39.992  33.287  35.938  1.00  0.00     0.037 A 
BRANCH  50  64
ATOM     64  C   UNL A   1      43.610  28.272  35.723  1.00  0.00     0.058 A 
ATOM     65  C   UNL A   1      44.975  28.474  35.460  1.00  0.00     0.135 A 
ATOM     66  C   UNL A   1      43.264  27.255  36.628  1.00  0.00     0.135 A 
ATOM     67  F   UNL A   1      45.363  29.419  34.588  1.00  0.00    -0.206 F 
ATOM     68  C   UNL A   1      45.956  27.675  36.038  1.00  0.00     0.059 A 
ATOM     69  C   UNL A   1      44.231  26.464  37.243  1.00  0.00     0.059 A 
ATOM     70  F   UNL A   1      41.975  27.016  36.915  1.00  0.00    -0.206 F 
ATOM     71  C   UNL A   1      45.574  26.671  36.928  1.00  0.00     0.060 A 
BRANCH  71  72
ATOM     72  S   UNL A   1      46.859  25.645  37.671  1.00  0.00     0.124 S 
ATOM     73  O   UNL A   1      46.105  24.935  38.699  1.00  0.00    -0.237 OA
ATOM     74  O   UNL A   1      47.305  24.835  36.540  1.00  0.00    -0.237 OA
ATOM     75  O   UNL A   1      47.829  26.619  38.162  1.00  0.00    -0.744 OA
ENDBRANCH  71  72
ENDBRANCH  50  64
BRANCH  51  76
ATOM     76  C   UNL A   1      36.334  33.397  31.103  1.00  0.00     0.058 A 
ATOM     77  C   UNL A   1      36.574  34.119  29.924  1.00  0.00     0.135 A 
ATOM     78  C   UNL A   1      35.026  33.392  31.613  1.00  0.00     0.135 A 
ATOM     79  F   UNL A   1      37.807  34.151  29.398  1.00  0.00    -0.206 F 
ATOM     80  C   UNL A   1      35.562  34.828  29.285  1.00  0.00     0.059 A 
ATOM     81  C   UNL A   1      33.993  34.075  30.978  1.00  0.00     0.059 A 
ATOM     82  F   UNL A   1      34.738  32.695  32.722  1.00  0.00    -0.206 F 
ATOM     83  C   UNL A   1      34.274  34.799  29.820  1.00  0.00     0.060 A 
BRANCH  83  84
ATOM     84  S   UNL A   1      32.955  35.680  28.954  1.00  0.00     0.124 S 
ATOM     85  O   UNL A   1      32.395  34.622  28.121  1.00  0.00    -0.237 OA
ATOM     86  O   UNL A   1      32.116  36.137  30.057  1.00  0.00    -0.237 OA
ATOM     87  O   UNL A   1      33.670  36.736  28.243  1.00  0.00    -0.744 OA
ENDBRANCH  83  84
ENDBRANCH  51  76
BRANCH  63  88
ATOM     88  C   UNL A   1      40.003  34.398  36.949  1.00  0.00     0.058 A 
ATOM     89  C   UNL A   1      40.868  35.497  36.831  1.00  0.00     0.135 A 
ATOM     90  C   UNL A   1      39.103  34.380  38.025  1.00  0.00     0.135 A 
ATOM     91  F   UNL A   1      41.750  35.557  35.820  1.00  0.00    -0.206 F 
ATOM     92  C   UNL A   1      40.861  36.526  37.764  1.00  0.00     0.059 A 
ATOM     93  C   UNL A   1      39.059  35.412  38.955  1.00  0.00     0.059 A 
ATOM     94  F   UNL A   1      38.246  33.357  38.173  1.00  0.00    -0.206 F 
ATOM     95  C   UNL A   1      39.953  36.473  38.824  1.00  0.00     0.060 A 
BRANCH  95  96
ATOM     96  S   UNL A   1      39.938  37.825  40.020  1.00  0.00     0.124 S 
ATOM     97  O   UNL A   1      41.202  38.491  39.724  1.00  0.00    -0.237 OA
ATOM     98  O   UNL A   1      38.731  38.558  39.650  1.00  0.00    -0.237 OA
ATOM     99  O   UNL A   1      39.875  37.137  41.307  1.00  0.00    -0.744 OA
ENDBRANCH  95  96
ENDBRANCH  63  88
ENDBRANCH  37  38
ENDBRANCH  29  32
ENDBRANCH  27  28
ENDBRANCH   1  27
TORSDOF 18
ENDMDL
MODEL 2
REMARK VINA RESULT:     -11.8      0.937      1.762
REMARK SMILES CC1(C)OC(=O)C(/C=N/[C@@H](CCC(N)=O)C(=O)NCCCNC(=O)c2ccc(-c3c4nc(c(-c5c(F)cc(S(=O)(=O)[O-])cc5F)c5ccc([nH]5)c(-c5c(F)cc(S(=O)(=O)[O-])cc5F)c5nc(c(-c6c(F)cc(S(=O)(=O)[O-])cc6F)c6ccc3[nH]6)C=C5)C=C4)cc2)C(=O)O1
REMARK SMILES IDX 20 1 19 2 18 3 16 4 17 5 10 7 9 8 8 9 7 10 1 11 2 12 3 13
REMARK SMILES IDX 4 14 93 15 5 16 91 17 6 18 92 19 11 20 12 21 13 22 14 23
REMARK SMILES IDX 15 24 21 27 22 28 23 29 24 31 25 32 26 33 90 34 27 35 89 36
REMARK SMILES IDX 28 37 29 38 30 39 83 40 31 41 88 42 82 43 84 44 32 45 87 46
REMARK SMILES IDX 81 47 80 48 33 50 67 51 46 52 66 53 47 54 50 55 65 56 85 57
REMARK SMILES IDX 48 58 49 59 64 61 86 62 51 63 34 64 35 65 44 66 36 67 37 68
REMARK SMILES IDX 43 69 45 70 38 71 39 72 40 73 41 74 42 75 68 76 69 77 78 78
REMARK SMILES IDX 70 79 71 80 77 81 79 82 72 83 73 84 74 85 75 86 76 87 52 88
REMARK SMILES IDX 53 89 62 90 54 91 55 92 61 93 63 94 56 95 57 96 58 97 59 98
REMARK SMILES IDX 60 99
REMARK H PARENT 18 6 14 25 14 26 22 30 84 49 50 60
REMARK Flexibility Score: inf
ROOT
ATOM      1  C   UNL A   1      39.256  22.243  26.322  1.00  0.00     0.042 C 
ENDROOT
BRANCH   1   2
ATOM      2  C   UNL A   1      37.819  22.237  25.858  1.00  0.00     0.117 C 
BRANCH   2   3
ATOM      3  N   UNL A   1      37.660  22.400  24.442  1.00  0.00    -0.354 N 
ATOM      4  C   UNL A   1      36.531  22.658  23.729  1.00  0.00     0.244 C 
ATOM      5  O   UNL A   1      36.675  22.940  22.534  1.00  0.00    -0.273 OA
ATOM      6  H   UNL A   1      38.485  22.313  23.912  1.00  0.00     0.163 HD
BRANCH   4   7
ATOM      7  C   UNL A   1      35.124  22.581  24.357  1.00  0.00     0.194 C 
BRANCH   7   8
ATOM      8  N   UNL A   1      34.348  23.820  24.123  1.00  0.00    -0.283 NA
ATOM      9  C   UNL A   1      34.670  24.992  24.506  1.00  0.00     0.105 C 
BRANCH   9  10
ATOM     10  C   UNL A   1      33.777  26.179  24.213  1.00  0.00     0.250 C 
ATOM     11  C   UNL A   1      30.343  24.352  23.446  1.00  0.00     0.106 C 
ATOM     12  C   UNL A   1      31.077  25.691  23.504  1.00  0.00     0.252 C 
ATOM     13  C   UNL A   1      30.137  26.823  23.096  1.00  0.00     0.106 C 
ATOM     14  O   UNL A   1      32.131  25.615  22.550  1.00  0.00    -0.422 OA
ATOM     15  O   UNL A   1      31.457  25.897  24.867  1.00  0.00    -0.422 OA
ATOM     16  C   UNL A   1      33.314  26.193  22.804  1.00  0.00     0.329 C 
ATOM     17  C   UNL A   1      32.697  26.253  25.225  1.00  0.00     0.329 C 
ATOM     18  O   UNL A   1      34.026  26.570  21.879  1.00  0.00    -0.251 OA
ATOM     19  O   UNL A   1      32.947  26.507  26.402  1.00  0.00    -0.251 OA
ENDBRANCH   9  10
ENDBRANCH   7   8
BRANCH   7  20
ATOM     20  C   UNL A   1      34.373  21.238  24.415  1.00  0.00     0.047 C 
BRANCH  20  21
ATOM     21  C   UNL A   1      33.811  20.645  25.709  1.00  0.00     0.102 C 
BRANCH  21  22
ATOM     22  C   UNL A   1      32.853  19.484  25.529  1.00  0.00     0.217 C 
ATOM     23  N   UNL A   1      32.860  18.582  26.555  1.00  0.00    -0.370 N 
ATOM     24  O   UNL A   1      32.122  19.329  24.561  1.00  0.00    -0.275 OA
ATOM     25  H   UNL A   1      33.454  18.719  27.327  1.00  0.00     0.159 HD
ATOM     26  H   UNL A   1      32.272  17.794  26.520  1.00  0.00     0.159 HD
ENDBRANCH  21  22
ENDBRANCH  20  21
ENDBRANCH   7  20
ENDBRANCH   4   7
ENDBRANCH   2   3
ENDBRANCH   1   2
BRANCH   1  27
ATOM     27  C   UNL A   1      39.719  23.601  26.800  1.00  0.00     0.118 C 
BRANCH  27  28
ATOM     28  N   UNL A   1      40.711  24.204  25.913  1.00  0.00    -0.352 N 
ATOM     29  C   UNL A   1      41.309  25.442  25.944  1.00  0.00     0.251 C 
ATOM     30  H   UNL A   1      41.000  23.627  25.169  1.00  0.00     0.163 HD
ATOM     31  O   UNL A   1      42.019  25.782  25.007  1.00  0.00    -0.269 OA
BRANCH  29  32
ATOM     32  C   UNL A   1      41.062  26.363  27.077  1.00  0.00     0.039 A 
ATOM     33  C   UNL A   1      40.204  25.959  28.104  1.00  0.00     0.014 A 
ATOM     34  C   UNL A   1      41.668  27.617  27.133  1.00  0.00     0.014 A 
ATOM     35  C   UNL A   1      40.011  26.791  29.209  1.00  0.00     0.010 A 
ATOM     36  C   UNL A   1      41.589  28.375  28.290  1.00  0.00     0.010 A 
ATOM     37  C   UNL A   1      40.729  27.991  29.325  1.00  0.00    -0.014 A 
BRANCH  37  38
ATOM     38  C   UNL A   1      40.551  28.907  30.477  1.00  0.00     0.031 A 
ATOM     39  C   UNL A   1      41.421  28.738  31.697  1.00  0.00     0.074 A 
ATOM     40  C   UNL A   1      39.568  29.829  30.458  1.00  0.00     0.049 A 
ATOM     41  N   UNL A   1      41.362  29.354  32.848  1.00  0.00    -0.248 NA
ATOM     42  C   UNL A   1      42.468  27.701  31.631  1.00  0.00     0.031 C 
ATOM     43  C   UNL A   1      38.617  30.036  29.362  1.00  0.00     0.029 A 
ATOM     44  N   UNL A   1      39.203  30.761  31.392  1.00  0.00    -0.354 N 
ATOM     45  C   UNL A   1      42.330  28.755  33.647  1.00  0.00     0.074 A 
ATOM     46  C   UNL A   1      42.912  27.680  32.877  1.00  0.00     0.031 C 
ATOM     47  C   UNL A   1      37.802  31.057  29.674  1.00  0.00     0.029 A 
ATOM     48  C   UNL A   1      38.149  31.554  31.002  1.00  0.00     0.049 A 
ATOM     49  H   UNL A   1      39.652  30.857  32.263  1.00  0.00     0.167 HD
ATOM     50  C   UNL A   1      42.728  29.093  34.896  1.00  0.00     0.037 A 
ATOM     51  C   UNL A   1      37.541  32.569  31.642  1.00  0.00     0.037 A 
ATOM     52  C   UNL A   1      42.188  30.208  35.625  1.00  0.00     0.049 A 
ATOM     53  C   UNL A   1      38.049  32.977  32.999  1.00  0.00     0.074 A 
ATOM     54  C   UNL A   1      42.559  30.688  36.868  1.00  0.00     0.029 A 
ATOM     55  N   UNL A   1      41.173  31.032  35.162  1.00  0.00    -0.354 N 
ATOM     56  N   UNL A   1      39.001  32.433  33.719  1.00  0.00    -0.248 NA
ATOM     57  C   UNL A   1      37.412  34.143  33.623  1.00  0.00     0.031 C 
ATOM     58  C   UNL A   1      41.751  31.791  37.166  1.00  0.00     0.029 A 
ATOM     59  C   UNL A   1      40.906  32.021  36.092  1.00  0.00     0.049 A 
ATOM     60  H   UNL A   1      40.710  30.929  34.299  1.00  0.00     0.167 HD
ATOM     61  C   UNL A   1      39.105  33.214  34.865  1.00  0.00     0.074 A 
ATOM     62  C   UNL A   1      38.120  34.270  34.737  1.00  0.00     0.031 C 
ATOM     63  C   UNL A   1      39.937  33.073  35.926  1.00  0.00     0.037 A 
BRANCH  50  64
ATOM     64  C   UNL A   1      43.811  28.264  35.530  1.00  0.00     0.058 A 
ATOM     65  C   UNL A   1      43.512  27.173  36.363  1.00  0.00     0.135 A 
ATOM     66  C   UNL A   1      45.165  28.555  35.298  1.00  0.00     0.135 A 
ATOM     67  F   UNL A   1      42.235  26.862  36.636  1.00  0.00    -0.206 F 
ATOM     68  C   UNL A   1      44.513  26.426  36.974  1.00  0.00     0.059 A 
ATOM     69  C   UNL A   1      46.183  27.800  35.873  1.00  0.00     0.059 A 
ATOM     70  F   UNL A   1      45.510  29.587  34.512  1.00  0.00    -0.206 F 
ATOM     71  C   UNL A   1      45.847  26.748  36.724  1.00  0.00     0.060 A 
BRANCH  71  72
ATOM     72  S   UNL A   1      47.134  25.767  37.523  1.00  0.00     0.124 S 
ATOM     73  O   UNL A   1      46.771  25.903  38.931  1.00  0.00    -0.237 OA
ATOM     74  O   UNL A   1      46.926  24.445  36.941  1.00  0.00    -0.237 OA
ATOM     75  O   UNL A   1      48.368  26.438  37.124  1.00  0.00    -0.744 OA
ENDBRANCH  71  72
ENDBRANCH  50  64
BRANCH  51  76
ATOM     76  C   UNL A   1      36.430  33.306  30.984  1.00  0.00     0.058 A 
ATOM     77  C   UNL A   1      36.679  34.161  29.899  1.00  0.00     0.135 A 
ATOM     78  C   UNL A   1      35.101  33.158  31.408  1.00  0.00     0.135 A 
ATOM     79  F   UNL A   1      37.934  34.333  29.456  1.00  0.00    -0.206 F 
ATOM     80  C   UNL A   1      35.653  34.859  29.270  1.00  0.00     0.059 A 
ATOM     81  C   UNL A   1      34.055  33.828  30.780  1.00  0.00     0.059 A 
ATOM     82  F   UNL A   1      34.806  32.331  32.423  1.00  0.00    -0.206 F 
ATOM     83  C   UNL A   1      34.344  34.685  29.718  1.00  0.00     0.060 A 
BRANCH  83  84
ATOM     84  S   UNL A   1      33.012  35.554  28.862  1.00  0.00     0.124 S 
ATOM     85  O   UNL A   1      33.755  36.549  28.098  1.00  0.00    -0.237 OA
ATOM     86  O   UNL A   1      32.395  34.483  28.087  1.00  0.00    -0.237 OA
ATOM     87  O   UNL A   1      32.196  36.074  29.956  1.00  0.00    -0.744 OA
ENDBRANCH  83  84
ENDBRANCH  51  76
BRANCH  63  88
ATOM     88  C   UNL A   1      39.860  34.118  37.002  1.00  0.00     0.058 A 
ATOM     89  C   UNL A   1      39.118  33.917  38.177  1.00  0.00     0.135 A 
ATOM     90  C   UNL A   1      40.576  35.317  36.871  1.00  0.00     0.135 A 
ATOM     91  F   UNL A   1      38.414  32.787  38.346  1.00  0.00    -0.206 F 
ATOM     92  C   UNL A   1      39.066  34.884  39.173  1.00  0.00     0.059 A 
ATOM     93  C   UNL A   1      40.560  36.288  37.866  1.00  0.00     0.059 A 
ATOM     94  F   UNL A   1      41.311  35.551  35.772  1.00  0.00    -0.206 F 
ATOM     95  C   UNL A   1      39.788  36.068  39.007  1.00  0.00     0.060 A 
BRANCH  95  96
ATOM     96  S   UNL A   1      39.729  37.310  40.315  1.00  0.00     0.124 S 
ATOM     97  O   UNL A   1      38.705  36.758  41.196  1.00  0.00    -0.237 OA
ATOM     98  O   UNL A   1      41.093  37.286  40.834  1.00  0.00    -0.237 OA
ATOM     99  O   UNL A   1      39.357  38.531  39.606  1.00  0.00    -0.744 OA
ENDBRANCH  95  96
ENDBRANCH  63  88
ENDBRANCH  37  38
ENDBRANCH  29  32
ENDBRANCH  27  28
ENDBRANCH   1  27
TORSDOF 18
ENDMDL
MODEL 3
REMARK VINA RESULT:     -11.7      1.130      2.253
REMARK SMILES CC1(C)OC(=O)C(/C=N/[C@@H](CCC(N)=O)C(=O)NCCCNC(=O)c2ccc(-c3c4nc(c(-c5c(F)cc(S(=O)(=O)[O-])cc5F)c5ccc([nH]5)c(-c5c(F)cc(S(=O)(=O)[O-])cc5F)c5nc(c(-c6c(F)cc(S(=O)(=O)[O-])cc6F)c6ccc3[nH]6)C=C5)C=C4)cc2)C(=O)O1
REMARK SMILES IDX 20 1 19 2 18 3 16 4 17 5 10 7 9 8 8 9 7 10 1 11 2 12 3 13
REMARK SMILES IDX 4 14 93 15 5 16 91 17 6 18 92 19 11 20 12 21 13 22 14 23
REMARK SMILES IDX 15 24 21 27 22 28 23 29 24 31 25 32 26 33 90 34 27 35 89 36
REMARK SMILES IDX 28 37 29 38 30 39 83 40 31 41 88 42 82 43 84 44 32 45 87 46
REMARK SMILES IDX 81 47 80 48 33 50 67 51 46 52 66 53 47 54 50 55 65 56 85 57
REMARK SMILES IDX 48 58 49 59 64 61 86 62 51 63 34 64 35 65 44 66 36 67 37 68
REMARK SMILES IDX 43 69 45 70 38 71 39 72 40 73 41 74 42 75 68 76 69 77 78 78
REMARK SMILES IDX 70 79 71 80 77 81 79 82 72 83 73 84 74 85 75 86 76 87 52 88
REMARK SMILES IDX 53 89 62 90 54 91 55 92 61 93 63 94 56 95 57 96 58 97 59 98
REMARK SMILES IDX 60 99
REMARK H PARENT 18 6 14 25 14 26 22 30 84 49 50 60
REMARK Flexibility Score: inf
ROOT
ATOM      1  C   UNL A   1      37.686  22.994  25.808  1.00  0.00     0.042 C 
ENDROOT
BRANCH   1   2
ATOM      2  C   UNL A   1      36.228  23.339  25.616  1.00  0.00     0.117 C 
BRANCH   2   3
ATOM      3  N   UNL A   1      35.424  23.154  26.788  1.00  0.00    -0.354 N 
ATOM      4  C   UNL A   1      34.081  22.958  26.885  1.00  0.00     0.244 C 
ATOM      5  O   UNL A   1      33.640  22.638  27.995  1.00  0.00    -0.273 OA
ATOM      6  H   UNL A   1      35.912  23.171  27.643  1.00  0.00     0.163 HD
BRANCH   4   7
ATOM      7  C   UNL A   1      33.131  23.148  25.685  1.00  0.00     0.194 C 
BRANCH   7   8
ATOM      8  N   UNL A   1      32.598  24.528  25.617  1.00  0.00    -0.283 NA
ATOM      9  C   UNL A   1      33.288  25.597  25.536  1.00  0.00     0.105 C 
BRANCH   9  10
ATOM     10  C   UNL A   1      32.617  26.953  25.487  1.00  0.00     0.250 C 
ATOM     11  C   UNL A   1      35.231  29.149  27.503  1.00  0.00     0.106 C 
ATOM     12  C   UNL A   1      33.878  29.128  26.792  1.00  0.00     0.252 C 
ATOM     13  C   UNL A   1      33.221  30.504  26.877  1.00  0.00     0.106 C 
ATOM     14  O   UNL A   1      33.065  28.197  27.498  1.00  0.00    -0.422 OA
ATOM     15  O   UNL A   1      34.136  28.843  25.416  1.00  0.00    -0.422 OA
ATOM     16  C   UNL A   1      32.201  27.416  26.833  1.00  0.00     0.329 C 
ATOM     17  C   UNL A   1      33.467  27.905  24.735  1.00  0.00     0.329 C 
ATOM     18  O   UNL A   1      31.193  26.998  27.394  1.00  0.00    -0.251 OA
ATOM     19  O   UNL A   1      33.665  27.762  23.529  1.00  0.00    -0.251 OA
ENDBRANCH   9  10
ENDBRANCH   7   8
BRANCH   7  20
ATOM     20  C   UNL A   1      33.382  22.386  24.370  1.00  0.00     0.047 C 
BRANCH  20  21
ATOM     21  C   UNL A   1      32.350  22.295  23.243  1.00  0.00     0.102 C 
BRANCH  21  22
ATOM     22  C   UNL A   1      32.133  20.907  22.672  1.00  0.00     0.217 C 
ATOM     23  N   UNL A   1      31.685  20.891  21.382  1.00  0.00    -0.370 N 
ATOM     24  O   UNL A   1      32.324  19.866  23.284  1.00  0.00    -0.275 OA
ATOM     25  H   UNL A   1      31.534  21.738  20.903  1.00  0.00     0.159 HD
ATOM     26  H   UNL A   1      31.513  20.033  20.932  1.00  0.00     0.159 HD
ENDBRANCH  21  22
ENDBRANCH  20  21
ENDBRANCH   7  20
ENDBRANCH   4   7
ENDBRANCH   2   3
ENDBRANCH   1   2
BRANCH   1  27
ATOM     27  C   UNL A   1      38.476  24.103  26.467  1.00  0.00     0.118 C 
BRANCH  27  28
ATOM     28  N   UNL A   1      39.877  24.121  26.052  1.00  0.00    -0.352 N 
ATOM     29  C   UNL A   1      40.912  24.947  26.421  1.00  0.00     0.251 C 
ATOM     30  H   UNL A   1      40.120  23.426  25.398  1.00  0.00     0.163 HD
ATOM     31  O   UNL A   1      41.982  24.858  25.834  1.00  0.00    -0.269 OA
BRANCH  29  32
ATOM     32  C   UNL A   1      40.718  25.955  27.488  1.00  0.00     0.039 A 
ATOM     33  C   UNL A   1      39.776  25.710  28.490  1.00  0.00     0.014 A 
ATOM     34  C   UNL A   1      41.458  27.137  27.507  1.00  0.00     0.014 A 
ATOM     35  C   UNL A   1      39.627  26.623  29.537  1.00  0.00     0.010 A 
ATOM     36  C   UNL A   1      41.412  27.968  28.615  1.00  0.00     0.010 A 
ATOM     37  C   UNL A   1      40.468  27.743  29.624  1.00  0.00    -0.014 A 
BRANCH  37  38
ATOM     38  C   UNL A   1      40.342  28.741  30.713  1.00  0.00     0.031 A 
ATOM     39  C   UNL A   1      41.222  28.618  31.933  1.00  0.00     0.074 A 
ATOM     40  C   UNL A   1      39.397  29.697  30.642  1.00  0.00     0.049 A 
ATOM     41  N   UNL A   1      41.202  29.312  33.040  1.00  0.00    -0.248 NA
ATOM     42  C   UNL A   1      42.225  27.538  31.925  1.00  0.00     0.031 C 
ATOM     43  C   UNL A   1      38.440  29.869  29.546  1.00  0.00     0.029 A 
ATOM     44  N   UNL A   1      39.081  30.704  31.516  1.00  0.00    -0.354 N 
ATOM     45  C   UNL A   1      42.156  28.729  33.867  1.00  0.00     0.074 A 
ATOM     46  C   UNL A   1      42.685  27.582  33.166  1.00  0.00     0.031 C 
ATOM     47  C   UNL A   1      37.669  30.940  29.797  1.00  0.00     0.029 A 
ATOM     48  C   UNL A   1      38.054  31.510  31.084  1.00  0.00     0.049 A 
ATOM     49  H   UNL A   1      39.545  30.839  32.374  1.00  0.00     0.167 HD
ATOM     50  C   UNL A   1      42.583  29.134  35.086  1.00  0.00     0.037 A 
ATOM     51  C   UNL A   1      37.495  32.590  31.661  1.00  0.00     0.037 A 
ATOM     52  C   UNL A   1      42.098  30.316  35.745  1.00  0.00     0.049 A 
ATOM     53  C   UNL A   1      38.036  33.067  32.982  1.00  0.00     0.074 A 
ATOM     54  C   UNL A   1      42.504  30.862  36.948  1.00  0.00     0.029 A 
ATOM     55  N   UNL A   1      41.110  31.147  35.237  1.00  0.00    -0.354 N 
ATOM     56  N   UNL A   1      38.976  32.534  33.727  1.00  0.00    -0.248 NA
ATOM     57  C   UNL A   1      37.455  34.297  33.533  1.00  0.00     0.031 C 
ATOM     58  C   UNL A   1      41.745  32.014  37.180  1.00  0.00     0.029 A 
ATOM     59  C   UNL A   1      40.895  32.206  36.102  1.00  0.00     0.049 A 
ATOM     60  H   UNL A   1      40.632  31.005  34.388  1.00  0.00     0.167 HD
ATOM     61  C   UNL A   1      39.126  33.386  34.816  1.00  0.00     0.074 A 
ATOM     62  C   UNL A   1      38.182  34.469  34.628  1.00  0.00     0.031 C 
ATOM     63  C   UNL A   1      39.966  33.283  35.876  1.00  0.00     0.037 A 
BRANCH  50  64
ATOM     64  C   UNL A   1      43.642  28.306  35.763  1.00  0.00     0.058 A 
ATOM     65  C   UNL A   1      45.010  28.530  35.535  1.00  0.00     0.135 A 
ATOM     66  C   UNL A   1      43.288  27.283  36.657  1.00  0.00     0.135 A 
ATOM     67  F   UNL A   1      45.405  29.482  34.675  1.00  0.00    -0.206 F 
ATOM     68  C   UNL A   1      45.987  27.745  36.139  1.00  0.00     0.059 A 
ATOM     69  C   UNL A   1      44.251  26.506  37.296  1.00  0.00     0.059 A 
ATOM     70  F   UNL A   1      41.996  27.023  36.911  1.00  0.00    -0.206 F 
ATOM     71  C   UNL A   1      45.598  26.734  37.017  1.00  0.00     0.060 A 
BRANCH  71  72
ATOM     72  S   UNL A   1      46.879  25.726  37.791  1.00  0.00     0.124 S 
ATOM     73  O   UNL A   1      48.086  26.260  37.167  1.00  0.00    -0.237 OA
ATOM     74  O   UNL A   1      46.708  26.037  39.207  1.00  0.00    -0.237 OA
ATOM     75  O   UNL A   1      46.520  24.365  37.403  1.00  0.00    -0.744 OA
ENDBRANCH  71  72
ENDBRANCH  50  64
BRANCH  51  76
ATOM     76  C   UNL A   1      36.406  33.326  30.966  1.00  0.00     0.058 A 
ATOM     77  C   UNL A   1      35.087  33.275  31.444  1.00  0.00     0.135 A 
ATOM     78  C   UNL A   1      36.661  34.108  29.829  1.00  0.00     0.135 A 
ATOM     79  F   UNL A   1      34.796  32.543  32.529  1.00  0.00    -0.206 F 
ATOM     80  C   UNL A   1      34.055  33.956  30.807  1.00  0.00     0.059 A 
ATOM     81  C   UNL A   1      35.648  34.817  29.189  1.00  0.00     0.059 A 
ATOM     82  F   UNL A   1      37.909  34.211  29.349  1.00  0.00    -0.206 F 
ATOM     83  C   UNL A   1      34.346  34.725  29.680  1.00  0.00     0.060 A 
BRANCH  83  84
ATOM     84  S   UNL A   1      33.009  35.649  28.891  1.00  0.00     0.124 S 
ATOM     85  O   UNL A   1      33.751  36.647  28.131  1.00  0.00    -0.237 OA
ATOM     86  O   UNL A   1      32.343  34.613  28.108  1.00  0.00    -0.237 OA
ATOM     87  O   UNL A   1      32.240  36.156  30.024  1.00  0.00    -0.744 OA
ENDBRANCH  83  84
ENDBRANCH  51  76
BRANCH  63  88
ATOM     88  C   UNL A   1      39.944  34.399  36.880  1.00  0.00     0.058 A 
ATOM     89  C   UNL A   1      39.115  34.362  38.011  1.00  0.00     0.135 A 
ATOM     90  C   UNL A   1      40.801  35.500  36.726  1.00  0.00     0.135 A 
ATOM     91  F   UNL A   1      38.275  33.331  38.199  1.00  0.00    -0.206 F 
ATOM     92  C   UNL A   1      39.113  35.393  38.941  1.00  0.00     0.059 A 
ATOM     93  C   UNL A   1      40.836  36.531  37.658  1.00  0.00     0.059 A 
ATOM     94  F   UNL A   1      41.623  35.576  35.668  1.00  0.00    -0.206 F 
ATOM     95  C   UNL A   1      39.976  36.476  38.755  1.00  0.00     0.060 A 
BRANCH  95  96
ATOM     96  S   UNL A   1      39.981  37.801  39.979  1.00  0.00     0.124 S 
ATOM     97  O   UNL A   1      38.794  38.559  39.594  1.00  0.00    -0.237 OA
ATOM     98  O   UNL A   1      39.886  37.068  41.237  1.00  0.00    -0.237 OA
ATOM     99  O   UNL A   1      41.258  38.472  39.747  1.00  0.00    -0.744 OA
ENDBRANCH  95  96
ENDBRANCH  63  88
ENDBRANCH  37  38
ENDBRANCH  29  32
ENDBRANCH  27  28
ENDBRANCH   1  27
TORSDOF 18
ENDMDL
