MODEL 1
REMARK VINA RESULT:     -13.0      0.000      0.000
REMARK SMILES O=C(NCCCNC(=O)[C@H]1C[C@](O)(c2ccccc2Cl)[C@@H](c2ccccc2Cl)O1)c1ccc(-c2c3nc(c(-c4c(F)cc(S(=O)(=O)[O-])cc4F)c4ccc([nH]4)c(-c4c(F)cc(S(=O)(=O)[O-])cc4F)c4nc(c(-c5c(F)cc(S(=O)(=O)[O-])cc5F)c5ccc2[nH]5)C=C4)C=C3)cc1
REMARK SMILES IDX 4 1 3 2 1 3 2 4 30 6 31 7 95 8 32 9 94 10 33 11 34 12 35 13
REMARK SMILES IDX 88 14 36 15 93 16 87 17 89 18 37 19 92 20 86 21 85 22 38 24
REMARK SMILES IDX 72 25 51 26 71 27 52 28 55 29 70 30 90 31 53 32 54 33 69 35
REMARK SMILES IDX 91 36 56 37 39 38 40 39 49 40 41 41 42 42 48 43 50 44 43 45
REMARK SMILES IDX 44 46 45 47 46 48 47 49 73 50 74 51 83 52 75 53 76 54 82 55
REMARK SMILES IDX 84 56 77 57 78 58 79 59 80 60 81 61 57 62 58 63 67 64 59 65
REMARK SMILES IDX 60 66 66 67 68 68 61 69 62 70 63 71 64 72 65 73 5 74 6 75
REMARK SMILES IDX 7 76 8 77 9 79 10 80 11 81 29 82 12 83 21 84 14 85 15 86
REMARK SMILES IDX 19 87 16 88 18 89 20 90 17 91 13 92 22 94 23 95 27 96 24 97
REMARK SMILES IDX 26 98 28 99 25 100
REMARK H PARENT 3 5 89 23 55 34 7 78 13 93
REMARK Flexibility Score: inf
ROOT
ATOM      1  C   UNL A   1      41.041  22.943  27.449  1.00  0.00     0.118 C 
ENDROOT
BRANCH   1   2
ATOM      2  N   UNL A   1      41.454  23.750  26.306  1.00  0.00    -0.352 N 
ATOM      3  O   UNL A   1      41.737  25.557  25.006  1.00  0.00    -0.269 OA
ATOM      4  C   UNL A   1      41.509  25.112  26.130  1.00  0.00     0.251 C 
ATOM      5  H   UNL A   1      41.744  23.228  25.523  1.00  0.00     0.163 HD
BRANCH   4   6
ATOM      6  C   UNL A   1      41.278  26.044  27.257  1.00  0.00     0.039 A 
ATOM      7  C   UNL A   1      42.187  27.057  27.561  1.00  0.00     0.014 A 
ATOM      8  C   UNL A   1      40.095  25.934  27.999  1.00  0.00     0.014 A 
ATOM      9  C   UNL A   1      42.001  27.843  28.695  1.00  0.00     0.010 A 
ATOM     10  C   UNL A   1      39.862  26.790  29.082  1.00  0.00     0.010 A 
ATOM     11  C   UNL A   1      40.833  27.727  29.465  1.00  0.00    -0.014 A 
BRANCH  11  12
ATOM     12  C   UNL A   1      40.638  28.626  30.635  1.00  0.00     0.031 A 
ATOM     13  C   UNL A   1      41.531  28.537  31.844  1.00  0.00     0.074 A 
ATOM     14  C   UNL A   1      39.667  29.561  30.581  1.00  0.00     0.049 A 
ATOM     15  N   UNL A   1      41.536  29.284  32.920  1.00  0.00    -0.248 NA
ATOM     16  C   UNL A   1      42.544  27.472  31.854  1.00  0.00     0.031 C 
ATOM     17  C   UNL A   1      38.727  29.735  29.472  1.00  0.00     0.029 A 
ATOM     18  N   UNL A   1      39.324  30.554  31.463  1.00  0.00    -0.354 N 
ATOM     19  C   UNL A   1      42.534  28.770  33.741  1.00  0.00     0.074 A 
ATOM     20  C   UNL A   1      43.095  27.628  33.050  1.00  0.00     0.031 C 
ATOM     21  C   UNL A   1      37.954  30.803  29.711  1.00  0.00     0.029 A 
ATOM     22  C   UNL A   1      38.300  31.356  31.015  1.00  0.00     0.049 A 
ATOM     23  H   UNL A   1      39.767  30.680  32.333  1.00  0.00     0.167 HD
ATOM     24  C   UNL A   1      42.951  29.215  34.951  1.00  0.00     0.037 A 
ATOM     25  C   UNL A   1      37.701  32.416  31.591  1.00  0.00     0.037 A 
ATOM     26  C   UNL A   1      42.398  30.363  35.627  1.00  0.00     0.049 A 
ATOM     27  C   UNL A   1      38.170  32.877  32.941  1.00  0.00     0.074 A 
ATOM     28  C   UNL A   1      42.781  30.918  36.836  1.00  0.00     0.029 A 
ATOM     29  N   UNL A   1      41.339  31.127  35.157  1.00  0.00    -0.354 N 
ATOM     30  N   UNL A   1      39.145  32.404  33.680  1.00  0.00    -0.248 NA
ATOM     31  C   UNL A   1      37.455  34.013  33.537  1.00  0.00     0.031 C 
ATOM     32  C   UNL A   1      41.923  31.987  37.120  1.00  0.00     0.029 A 
ATOM     33  C   UNL A   1      41.038  32.132  36.063  1.00  0.00     0.049 A 
ATOM     34  H   UNL A   1      40.868  30.977  34.305  1.00  0.00     0.167 HD
ATOM     35  C   UNL A   1      39.176  33.200  34.820  1.00  0.00     0.074 A 
ATOM     36  C   UNL A   1      38.132  34.192  34.663  1.00  0.00     0.031 C 
ATOM     37  C   UNL A   1      39.996  33.115  35.896  1.00  0.00     0.037 A 
BRANCH  24  38
ATOM     38  C   UNL A   1      44.049  28.446  35.640  1.00  0.00     0.058 A 
ATOM     39  C   UNL A   1      45.406  28.720  35.409  1.00  0.00     0.135 A 
ATOM     40  C   UNL A   1      43.736  27.438  36.569  1.00  0.00     0.135 A 
ATOM     41  F   UNL A   1      45.764  29.664  34.525  1.00  0.00    -0.206 F 
ATOM     42  C   UNL A   1      46.413  28.001  36.047  1.00  0.00     0.059 A 
ATOM     43  C   UNL A   1      44.728  26.727  37.239  1.00  0.00     0.059 A 
ATOM     44  F   UNL A   1      42.455  27.137  36.833  1.00  0.00    -0.206 F 
ATOM     45  C   UNL A   1      46.064  27.003  36.958  1.00  0.00     0.060 A 
BRANCH  45  46
ATOM     46  S   UNL A   1      47.381  26.071  37.769  1.00  0.00     0.124 S 
ATOM     47  O   UNL A   1      48.562  26.833  37.372  1.00  0.00    -0.237 OA
ATOM     48  O   UNL A   1      47.012  26.166  39.177  1.00  0.00    -0.237 OA
ATOM     49  O   UNL A   1      47.267  24.739  37.183  1.00  0.00    -0.744 OA
ENDBRANCH  45  46
ENDBRANCH  24  38
BRANCH  25  50
ATOM     50  C   UNL A   1      36.600  33.117  30.880  1.00  0.00     0.058 A 
ATOM     51  C   UNL A   1      35.268  32.980  31.299  1.00  0.00     0.135 A 
ATOM     52  C   UNL A   1      36.858  33.957  29.784  1.00  0.00     0.135 A 
ATOM     53  F   UNL A   1      34.970  32.186  32.337  1.00  0.00    -0.206 F 
ATOM     54  C   UNL A   1      34.229  33.641  30.651  1.00  0.00     0.059 A 
ATOM     55  C   UNL A   1      35.840  34.651  29.138  1.00  0.00     0.059 A 
ATOM     56  F   UNL A   1      38.117  34.134  29.356  1.00  0.00    -0.206 F 
ATOM     57  C   UNL A   1      34.527  34.478  29.573  1.00  0.00     0.060 A 
BRANCH  57  58
ATOM     58  S   UNL A   1      33.179  35.374  28.774  1.00  0.00     0.124 S 
ATOM     59  O   UNL A   1      32.449  35.893  29.924  1.00  0.00    -0.237 OA
ATOM     60  O   UNL A   1      33.898  36.362  27.975  1.00  0.00    -0.237 OA
ATOM     61  O   UNL A   1      32.496  34.337  28.007  1.00  0.00    -0.744 OA
ENDBRANCH  57  58
ENDBRANCH  25  50
BRANCH  37  62
ATOM     62  C   UNL A   1      39.819  34.148  36.975  1.00  0.00     0.058 A 
ATOM     63  C   UNL A   1      39.018  33.908  38.104  1.00  0.00     0.135 A 
ATOM     64  C   UNL A   1      40.478  35.384  36.891  1.00  0.00     0.135 A 
ATOM     65  F   UNL A   1      38.359  32.745  38.230  1.00  0.00    -0.206 F 
ATOM     66  C   UNL A   1      38.854  34.870  39.095  1.00  0.00     0.059 A 
ATOM     67  C   UNL A   1      40.351  36.350  37.884  1.00  0.00     0.059 A 
ATOM     68  F   UNL A   1      41.264  35.661  35.838  1.00  0.00    -0.206 F 
ATOM     69  C   UNL A   1      39.523  36.090  38.975  1.00  0.00     0.060 A 
BRANCH  69  70
ATOM     70  S   UNL A   1      39.316  37.324  40.277  1.00  0.00     0.124 S 
ATOM     71  O   UNL A   1      40.699  37.714  40.533  1.00  0.00    -0.237 OA
ATOM     72  O   UNL A   1      38.484  38.330  39.625  1.00  0.00    -0.237 OA
ATOM     73  O   UNL A   1      38.664  36.579  41.349  1.00  0.00    -0.744 OA
ENDBRANCH  69  70
ENDBRANCH  37  62
ENDBRANCH  11  12
ENDBRANCH   4   6
ENDBRANCH   1   2
BRANCH   1  74
ATOM     74  C   UNL A   1      40.501  21.574  27.054  1.00  0.00     0.042 C 
BRANCH  74  75
ATOM     75  C   UNL A   1      39.293  21.605  26.123  1.00  0.00     0.117 C 
BRANCH  75  76
ATOM     76  N   UNL A   1      38.462  22.784  26.284  1.00  0.00    -0.354 N 
ATOM     77  C   UNL A   1      37.237  23.047  25.739  1.00  0.00     0.249 C 
ATOM     78  H   UNL A   1      38.830  23.488  26.866  1.00  0.00     0.163 HD
ATOM     79  O   UNL A   1      36.664  24.078  26.101  1.00  0.00    -0.272 OA
BRANCH  77  80
ATOM     80  C   UNL A   1      36.615  22.042  24.743  1.00  0.00     0.211 C 
ATOM     81  C   UNL A   1      35.704  21.023  25.414  1.00  0.00     0.085 C 
ATOM     82  O   UNL A   1      35.875  22.683  23.710  1.00  0.00    -0.357 OA
ATOM     83  C   UNL A   1      34.312  21.183  24.784  1.00  0.00     0.124 C 
ATOM     84  C   UNL A   1      34.465  22.448  23.890  1.00  0.00     0.187 C 
BRANCH  83  85
ATOM     85  C   UNL A   1      33.870  19.813  24.225  1.00  0.00     0.005 A 
ATOM     86  C   UNL A   1      34.673  18.706  24.626  1.00  0.00     0.008 A 
ATOM     87  C   UNL A   1      32.810  19.510  23.350  1.00  0.00     0.047 A 
ATOM     88  C   UNL A   1      34.415  17.391  24.233  1.00  0.00     0.001 A 
ATOM     89  C   UNL A   1      32.529  18.176  22.990  1.00  0.00     0.021 A 
ATOM     90  Cl  UNL A   1      31.806  20.662  22.549  1.00  0.00    -0.084 Cl
ATOM     91  C   UNL A   1      33.322  17.122  23.428  1.00  0.00     0.002 A 
ENDBRANCH  83  85
BRANCH  83  92
ATOM     92  O   UNL A   1      33.379  21.459  25.853  1.00  0.00    -0.382 OA
ATOM     93  H   UNL A   1      33.404  22.404  26.069  1.00  0.00     0.212 HD
ENDBRANCH  83  92
BRANCH  84  94
ATOM     94  C   UNL A   1      33.818  23.765  24.320  1.00  0.00     0.003 A 
ATOM     95  C   UNL A   1      33.768  24.135  25.678  1.00  0.00     0.008 A 
ATOM     96  C   UNL A   1      33.305  24.687  23.384  1.00  0.00     0.046 A 
ATOM     97  C   UNL A   1      33.298  25.389  26.080  1.00  0.00     0.000 A 
ATOM     98  C   UNL A   1      32.831  25.941  23.790  1.00  0.00     0.021 A 
ATOM     99  Cl  UNL A   1      33.191  24.340  21.692  1.00  0.00    -0.084 Cl
ATOM    100  C   UNL A   1      32.842  26.298  25.135  1.00  0.00     0.002 A 
ENDBRANCH  84  94
ENDBRANCH  77  80
ENDBRANCH  75  76
ENDBRANCH  74  75
ENDBRANCH   1  74
TORSDOF 16
ENDMDL
MODEL 2
REMARK VINA RESULT:     -13.0      0.876      2.903
REMARK SMILES O=C(NCCCNC(=O)[C@H]1C[C@](O)(c2ccccc2Cl)[C@@H](c2ccccc2Cl)O1)c1ccc(-c2c3nc(c(-c4c(F)cc(S(=O)(=O)[O-])cc4F)c4ccc([nH]4)c(-c4c(F)cc(S(=O)(=O)[O-])cc4F)c4nc(c(-c5c(F)cc(S(=O)(=O)[O-])cc5F)c5ccc2[nH]5)C=C4)C=C3)cc1
REMARK SMILES IDX 4 1 3 2 1 3 2 4 30 6 31 7 95 8 32 9 94 10 33 11 34 12 35 13
REMARK SMILES IDX 88 14 36 15 93 16 87 17 89 18 37 19 92 20 86 21 85 22 38 24
REMARK SMILES IDX 72 25 51 26 71 27 52 28 55 29 70 30 90 31 53 32 54 33 69 35
REMARK SMILES IDX 91 36 56 37 39 38 40 39 49 40 41 41 42 42 48 43 50 44 43 45
REMARK SMILES IDX 44 46 45 47 46 48 47 49 73 50 74 51 83 52 75 53 76 54 82 55
REMARK SMILES IDX 84 56 77 57 78 58 79 59 80 60 81 61 57 62 58 63 67 64 59 65
REMARK SMILES IDX 60 66 66 67 68 68 61 69 62 70 63 71 64 72 65 73 5 74 6 75
REMARK SMILES IDX 7 76 8 77 9 79 10 80 11 81 29 82 12 83 21 84 14 85 15 86
REMARK SMILES IDX 19 87 16 88 18 89 20 90 17 91 13 92 22 94 23 95 27 96 24 97
REMARK SMILES IDX 26 98 28 99 25 100
REMARK H PARENT 3 5 89 23 55 34 7 78 13 93
REMARK Flexibility Score: inf
ROOT
ATOM      1  C   UNL A   1      41.018  22.998  27.294  1.00  0.00     0.118 C 
ENDROOT
BRANCH   1   2
ATOM      2  N   UNL A   1      41.553  23.808  26.206  1.00  0.00    -0.352 N 
ATOM      3  O   UNL A   1      42.026  25.627  24.980  1.00  0.00    -0.269 OA
ATOM      4  C   UNL A   1      41.696  25.168  26.073  1.00  0.00     0.251 C 
ATOM      5  H   UNL A   1      41.867  23.289  25.429  1.00  0.00     0.163 HD
BRANCH   4   6
ATOM      6  C   UNL A   1      41.441  26.083  27.208  1.00  0.00     0.039 A 
ATOM      7  C   UNL A   1      42.226  27.216  27.420  1.00  0.00     0.014 A 
ATOM      8  C   UNL A   1      40.354  25.830  28.055  1.00  0.00     0.014 A 
ATOM      9  C   UNL A   1      42.035  27.993  28.560  1.00  0.00     0.010 A 
ATOM     10  C   UNL A   1      40.102  26.668  29.147  1.00  0.00     0.010 A 
ATOM     11  C   UNL A   1      40.966  27.736  29.433  1.00  0.00    -0.014 A 
BRANCH  11  12
ATOM     12  C   UNL A   1      40.754  28.625  30.608  1.00  0.00     0.031 A 
ATOM     13  C   UNL A   1      41.643  28.540  31.820  1.00  0.00     0.074 A 
ATOM     14  C   UNL A   1      39.772  29.547  30.556  1.00  0.00     0.049 A 
ATOM     15  N   UNL A   1      41.633  29.279  32.901  1.00  0.00    -0.248 NA
ATOM     16  C   UNL A   1      42.670  27.487  31.827  1.00  0.00     0.031 C 
ATOM     17  C   UNL A   1      38.834  29.716  29.443  1.00  0.00     0.029 A 
ATOM     18  N   UNL A   1      39.411  30.529  31.443  1.00  0.00    -0.354 N 
ATOM     19  C   UNL A   1      42.635  28.773  33.723  1.00  0.00     0.074 A 
ATOM     20  C   UNL A   1      43.214  27.643  33.027  1.00  0.00     0.031 C 
ATOM     21  C   UNL A   1      38.047  30.772  29.686  1.00  0.00     0.029 A 
ATOM     22  C   UNL A   1      38.379  31.321  30.996  1.00  0.00     0.049 A 
ATOM     23  H   UNL A   1      39.849  30.655  32.316  1.00  0.00     0.167 HD
ATOM     24  C   UNL A   1      43.040  29.215  34.938  1.00  0.00     0.037 A 
ATOM     25  C   UNL A   1      37.764  32.369  31.575  1.00  0.00     0.037 A 
ATOM     26  C   UNL A   1      42.470  30.351  35.619  1.00  0.00     0.049 A 
ATOM     27  C   UNL A   1      38.221  32.827  32.931  1.00  0.00     0.074 A 
ATOM     28  C   UNL A   1      42.840  30.903  36.834  1.00  0.00     0.029 A 
ATOM     29  N   UNL A   1      41.402  31.104  35.149  1.00  0.00    -0.354 N 
ATOM     30  N   UNL A   1      39.198  32.362  33.671  1.00  0.00    -0.248 NA
ATOM     31  C   UNL A   1      37.488  33.950  33.531  1.00  0.00     0.031 C 
ATOM     32  C   UNL A   1      41.967  31.958  37.121  1.00  0.00     0.029 A 
ATOM     33  C   UNL A   1      41.085  32.099  36.061  1.00  0.00     0.049 A 
ATOM     34  H   UNL A   1      40.938  30.953  34.295  1.00  0.00     0.167 HD
ATOM     35  C   UNL A   1      39.214  33.150  34.816  1.00  0.00     0.074 A 
ATOM     36  C   UNL A   1      38.158  34.130  34.661  1.00  0.00     0.031 C 
ATOM     37  C   UNL A   1      40.031  33.069  35.895  1.00  0.00     0.037 A 
BRANCH  24  38
ATOM     38  C   UNL A   1      44.145  28.455  35.627  1.00  0.00     0.058 A 
ATOM     39  C   UNL A   1      45.500  28.761  35.418  1.00  0.00     0.135 A 
ATOM     40  C   UNL A   1      43.842  27.426  36.534  1.00  0.00     0.135 A 
ATOM     41  F   UNL A   1      45.849  29.727  34.554  1.00  0.00    -0.206 F 
ATOM     42  C   UNL A   1      46.513  28.051  36.056  1.00  0.00     0.059 A 
ATOM     43  C   UNL A   1      44.839  26.722  37.204  1.00  0.00     0.059 A 
ATOM     44  F   UNL A   1      42.564  27.094  36.777  1.00  0.00    -0.206 F 
ATOM     45  C   UNL A   1      46.173  27.030  36.945  1.00  0.00     0.060 A 
BRANCH  45  46
ATOM     46  S   UNL A   1      47.499  26.110  37.755  1.00  0.00     0.124 S 
ATOM     47  O   UNL A   1      47.795  26.972  38.896  1.00  0.00    -0.237 OA
ATOM     48  O   UNL A   1      46.852  24.841  38.072  1.00  0.00    -0.237 OA
ATOM     49  O   UNL A   1      48.540  26.041  36.734  1.00  0.00    -0.744 OA
ENDBRANCH  45  46
ENDBRANCH  24  38
BRANCH  25  50
ATOM     50  C   UNL A   1      36.656  33.060  30.864  1.00  0.00     0.058 A 
ATOM     51  C   UNL A   1      35.329  32.929  31.296  1.00  0.00     0.135 A 
ATOM     52  C   UNL A   1      36.905  33.885  29.756  1.00  0.00     0.135 A 
ATOM     53  F   UNL A   1      35.039  32.149  32.348  1.00  0.00    -0.206 F 
ATOM     54  C   UNL A   1      34.284  33.581  30.648  1.00  0.00     0.059 A 
ATOM     55  C   UNL A   1      35.882  34.571  29.109  1.00  0.00     0.059 A 
ATOM     56  F   UNL A   1      38.161  34.057  29.315  1.00  0.00    -0.206 F 
ATOM     57  C   UNL A   1      34.573  34.404  29.557  1.00  0.00     0.060 A 
BRANCH  57  58
ATOM     58  S   UNL A   1      33.218  35.289  28.757  1.00  0.00     0.124 S 
ATOM     59  O   UNL A   1      32.575  34.220  28.002  1.00  0.00    -0.237 OA
ATOM     60  O   UNL A   1      32.470  35.803  29.900  1.00  0.00    -0.237 OA
ATOM     61  O   UNL A   1      33.903  36.301  27.960  1.00  0.00    -0.744 OA
ENDBRANCH  57  58
ENDBRANCH  25  50
BRANCH  37  62
ATOM     62  C   UNL A   1      39.835  34.092  36.981  1.00  0.00     0.058 A 
ATOM     63  C   UNL A   1      39.041  33.830  38.110  1.00  0.00     0.135 A 
ATOM     64  C   UNL A   1      40.469  35.342  36.902  1.00  0.00     0.135 A 
ATOM     65  F   UNL A   1      38.405  32.654  38.230  1.00  0.00    -0.206 F 
ATOM     66  C   UNL A   1      38.859  34.784  39.107  1.00  0.00     0.059 A 
ATOM     67  C   UNL A   1      40.325  36.300  37.901  1.00  0.00     0.059 A 
ATOM     68  F   UNL A   1      41.247  35.640  35.849  1.00  0.00    -0.206 F 
ATOM     69  C   UNL A   1      39.505  36.017  38.992  1.00  0.00     0.060 A 
BRANCH  69  70
ATOM     70  S   UNL A   1      39.275  37.240  40.301  1.00  0.00     0.124 S 
ATOM     71  O   UNL A   1      38.535  36.470  41.295  1.00  0.00    -0.237 OA
ATOM     72  O   UNL A   1      40.649  37.580  40.656  1.00  0.00    -0.237 OA
ATOM     73  O   UNL A   1      38.523  38.303  39.642  1.00  0.00    -0.744 OA
ENDBRANCH  69  70
ENDBRANCH  37  62
ENDBRANCH  11  12
ENDBRANCH   4   6
ENDBRANCH   1   2
BRANCH   1  74
ATOM     74  C   UNL A   1      39.822  22.149  26.880  1.00  0.00     0.042 C 
BRANCH  74  75
ATOM     75  C   UNL A   1      38.611  22.941  26.397  1.00  0.00     0.117 C 
BRANCH  75  76
ATOM     76  N   UNL A   1      38.158  22.564  25.071  1.00  0.00    -0.354 N 
ATOM     77  C   UNL A   1      37.035  22.966  24.405  1.00  0.00     0.249 C 
ATOM     78  H   UNL A   1      38.739  21.934  24.586  1.00  0.00     0.163 HD
ATOM     79  O   UNL A   1      36.904  22.596  23.236  1.00  0.00    -0.272 OA
BRANCH  77  80
ATOM     80  C   UNL A   1      36.015  23.885  25.116  1.00  0.00     0.211 C 
ATOM     81  C   UNL A   1      35.083  24.603  24.149  1.00  0.00     0.085 C 
ATOM     82  O   UNL A   1      35.216  23.186  26.063  1.00  0.00    -0.357 OA
ATOM     83  C   UNL A   1      33.651  24.184  24.513  1.00  0.00     0.124 C 
ATOM     84  C   UNL A   1      33.862  23.074  25.582  1.00  0.00     0.187 C 
BRANCH  83  85
ATOM     85  C   UNL A   1      32.824  25.459  24.785  1.00  0.00     0.005 A 
ATOM     86  C   UNL A   1      32.196  25.514  26.063  1.00  0.00     0.008 A 
ATOM     87  C   UNL A   1      32.576  26.556  23.937  1.00  0.00     0.047 A 
ATOM     88  C   UNL A   1      31.423  26.597  26.490  1.00  0.00     0.001 A 
ATOM     89  C   UNL A   1      31.831  27.664  24.389  1.00  0.00     0.021 A 
ATOM     90  Cl  UNL A   1      33.036  26.669  22.279  1.00  0.00    -0.084 Cl
ATOM     91  C   UNL A   1      31.258  27.688  25.656  1.00  0.00     0.002 A 
ENDBRANCH  83  85
BRANCH  83  92
ATOM     92  O   UNL A   1      33.053  23.607  23.330  1.00  0.00    -0.382 OA
ATOM     93  H   UNL A   1      33.739  23.456  22.661  1.00  0.00     0.212 HD
ENDBRANCH  83  92
BRANCH  84  94
ATOM     94  C   UNL A   1      33.611  21.609  25.218  1.00  0.00     0.003 A 
ATOM     95  C   UNL A   1      34.677  20.761  24.864  1.00  0.00     0.008 A 
ATOM     96  C   UNL A   1      32.325  21.034  25.279  1.00  0.00     0.046 A 
ATOM     97  C   UNL A   1      34.488  19.392  24.653  1.00  0.00     0.000 A 
ATOM     98  C   UNL A   1      32.137  19.663  25.062  1.00  0.00     0.021 A 
ATOM     99  Cl  UNL A   1      30.897  21.961  25.589  1.00  0.00    -0.084 Cl
ATOM    100  C   UNL A   1      33.219  18.839  24.766  1.00  0.00     0.002 A 
ENDBRANCH  84  94
ENDBRANCH  77  80
ENDBRANCH  75  76
ENDBRANCH  74  75
ENDBRANCH   1  74
TORSDOF 16
ENDMDL
MODEL 3
REMARK VINA RESULT:     -12.9      6.658     12.260
REMARK SMILES O=C(NCCCNC(=O)[C@H]1C[C@](O)(c2ccccc2Cl)[C@@H](c2ccccc2Cl)O1)c1ccc(-c2c3nc(c(-c4c(F)cc(S(=O)(=O)[O-])cc4F)c4ccc([nH]4)c(-c4c(F)cc(S(=O)(=O)[O-])cc4F)c4nc(c(-c5c(F)cc(S(=O)(=O)[O-])cc5F)c5ccc2[nH]5)C=C4)C=C3)cc1
REMARK SMILES IDX 4 1 3 2 1 3 2 4 30 6 31 7 95 8 32 9 94 10 33 11 34 12 35 13
REMARK SMILES IDX 88 14 36 15 93 16 87 17 89 18 37 19 92 20 86 21 85 22 38 24
REMARK SMILES IDX 72 25 51 26 71 27 52 28 55 29 70 30 90 31 53 32 54 33 69 35
REMARK SMILES IDX 91 36 56 37 39 38 40 39 49 40 41 41 42 42 48 43 50 44 43 45
REMARK SMILES IDX 44 46 45 47 46 48 47 49 73 50 74 51 83 52 75 53 76 54 82 55
REMARK SMILES IDX 84 56 77 57 78 58 79 59 80 60 81 61 57 62 58 63 67 64 59 65
REMARK SMILES IDX 60 66 66 67 68 68 61 69 62 70 63 71 64 72 65 73 5 74 6 75
REMARK SMILES IDX 7 76 8 77 9 79 10 80 11 81 29 82 12 83 21 84 14 85 15 86
REMARK SMILES IDX 19 87 16 88 18 89 20 90 17 91 13 92 22 94 23 95 27 96 24 97
REMARK SMILES IDX 26 98 28 99 25 100
REMARK H PARENT 3 5 89 23 55 34 7 78 13 93
REMARK Flexibility Score: inf
ROOT
ATOM      1  C   UNL A   1      36.129  32.689  29.059  1.00  0.00     0.118 C 
ENDROOT
BRANCH   1   2
ATOM      2  N   UNL A   1      35.814  31.726  30.108  1.00  0.00    -0.352 N 
ATOM      3  O   UNL A   1      35.927  29.855  31.342  1.00  0.00    -0.269 OA
ATOM      4  C   UNL A   1      36.484  30.607  30.542  1.00  0.00     0.251 C 
ATOM      5  H   UNL A   1      34.974  31.909  30.589  1.00  0.00     0.163 HD
BRANCH   4   6
ATOM      6  C   UNL A   1      37.843  30.284  30.053  1.00  0.00     0.039 A 
ATOM      7  C   UNL A   1      38.108  30.123  28.693  1.00  0.00     0.014 A 
ATOM      8  C   UNL A   1      38.892  30.188  30.976  1.00  0.00     0.014 A 
ATOM      9  C   UNL A   1      39.368  29.705  28.274  1.00  0.00     0.010 A 
ATOM     10  C   UNL A   1      40.183  29.864  30.542  1.00  0.00     0.010 A 
ATOM     11  C   UNL A   1      40.425  29.579  29.190  1.00  0.00    -0.014 A 
BRANCH  11  12
ATOM     12  C   UNL A   1      41.775  29.192  28.697  1.00  0.00     0.031 A 
ATOM     13  C   UNL A   1      42.915  30.174  28.695  1.00  0.00     0.074 A 
ATOM     14  C   UNL A   1      41.976  27.923  28.287  1.00  0.00     0.049 A 
ATOM     15  N   UNL A   1      44.166  29.982  28.357  1.00  0.00    -0.248 NA
ATOM     16  C   UNL A   1      42.618  31.550  29.119  1.00  0.00     0.031 C 
ATOM     17  C   UNL A   1      40.946  26.884  28.227  1.00  0.00     0.029 A 
ATOM     18  N   UNL A   1      43.115  27.283  27.869  1.00  0.00    -0.354 N 
ATOM     19  C   UNL A   1      44.799  31.210  28.509  1.00  0.00     0.074 A 
ATOM     20  C   UNL A   1      43.787  32.151  28.941  1.00  0.00     0.031 C 
ATOM     21  C   UNL A   1      41.508  25.726  27.853  1.00  0.00     0.029 A 
ATOM     22  C   UNL A   1      42.924  25.949  27.590  1.00  0.00     0.049 A 
ATOM     23  H   UNL A   1      43.985  27.734  27.776  1.00  0.00     0.167 HD
ATOM     24  C   UNL A   1      46.104  31.523  28.315  1.00  0.00     0.037 A 
ATOM     25  C   UNL A   1      43.790  25.010  27.163  1.00  0.00     0.037 A 
ATOM     26  C   UNL A   1      47.110  30.578  27.899  1.00  0.00     0.049 A 
ATOM     27  C   UNL A   1      45.227  25.388  26.939  1.00  0.00     0.074 A 
ATOM     28  C   UNL A   1      48.467  30.788  27.717  1.00  0.00     0.029 A 
ATOM     29  N   UNL A   1      46.870  29.246  27.592  1.00  0.00    -0.354 N 
ATOM     30  N   UNL A   1      45.813  26.545  27.130  1.00  0.00    -0.248 NA
ATOM     31  C   UNL A   1      46.117  24.333  26.438  1.00  0.00     0.031 C 
ATOM     32  C   UNL A   1      49.037  29.597  27.253  1.00  0.00     0.029 A 
ATOM     33  C   UNL A   1      48.047  28.629  27.197  1.00  0.00     0.049 A 
ATOM     34  H   UNL A   1      45.992  28.804  27.645  1.00  0.00     0.167 HD
ATOM     35  C   UNL A   1      47.148  26.352  26.794  1.00  0.00     0.074 A 
ATOM     36  C   UNL A   1      47.283  24.964  26.403  1.00  0.00     0.031 C 
ATOM     37  C   UNL A   1      48.169  27.245  26.810  1.00  0.00     0.037 A 
BRANCH  24  38
ATOM     38  C   UNL A   1      46.520  32.956  28.531  1.00  0.00     0.058 A 
ATOM     39  C   UNL A   1      47.023  33.407  29.762  1.00  0.00     0.135 A 
ATOM     40  C   UNL A   1      46.442  33.885  27.479  1.00  0.00     0.135 A 
ATOM     41  F   UNL A   1      47.110  32.567  30.804  1.00  0.00    -0.206 F 
ATOM     42  C   UNL A   1      47.402  34.733  29.952  1.00  0.00     0.059 A 
ATOM     43  C   UNL A   1      46.841  35.209  27.640  1.00  0.00     0.059 A 
ATOM     44  F   UNL A   1      45.973  33.509  26.278  1.00  0.00    -0.206 F 
ATOM     45  C   UNL A   1      47.303  35.628  28.885  1.00  0.00     0.060 A 
BRANCH  45  46
ATOM     46  S   UNL A   1      47.785  37.348  29.151  1.00  0.00     0.124 S 
ATOM     47  O   UNL A   1      48.223  37.314  30.544  1.00  0.00    -0.237 OA
ATOM     48  O   UNL A   1      48.841  37.534  28.161  1.00  0.00    -0.237 OA
ATOM     49  O   UNL A   1      46.555  38.090  28.899  1.00  0.00    -0.744 OA
ENDBRANCH  45  46
ENDBRANCH  24  38
BRANCH  25  50
ATOM     50  C   UNL A   1      43.317  23.619  26.935  1.00  0.00     0.058 A 
ATOM     51  C   UNL A   1      43.070  23.145  25.638  1.00  0.00     0.135 A 
ATOM     52  C   UNL A   1      43.126  22.730  28.004  1.00  0.00     0.135 A 
ATOM     53  F   UNL A   1      43.234  23.958  24.584  1.00  0.00    -0.206 F 
ATOM     54  C   UNL A   1      42.640  21.842  25.409  1.00  0.00     0.059 A 
ATOM     55  C   UNL A   1      42.725  21.414  27.799  1.00  0.00     0.059 A 
ATOM     56  F   UNL A   1      43.366  23.130  29.262  1.00  0.00    -0.206 F 
ATOM     57  C   UNL A   1      42.475  20.982  26.497  1.00  0.00     0.060 A 
BRANCH  57  58
ATOM     58  S   UNL A   1      41.969  19.278  26.185  1.00  0.00     0.124 S 
ATOM     59  O   UNL A   1      42.787  18.937  25.027  1.00  0.00    -0.237 OA
ATOM     60  O   UNL A   1      42.328  18.617  27.437  1.00  0.00    -0.237 OA
ATOM     61  O   UNL A   1      40.536  19.393  25.935  1.00  0.00    -0.744 OA
ENDBRANCH  57  58
ENDBRANCH  25  50
BRANCH  37  62
ATOM     62  C   UNL A   1      49.531  26.736  26.424  1.00  0.00     0.058 A 
ATOM     63  C   UNL A   1      50.362  26.076  27.344  1.00  0.00     0.135 A 
ATOM     64  C   UNL A   1      50.000  26.890  25.110  1.00  0.00     0.135 A 
ATOM     65  F   UNL A   1      49.964  25.910  28.615  1.00  0.00    -0.206 F 
ATOM     66  C   UNL A   1      51.622  25.613  26.981  1.00  0.00     0.059 A 
ATOM     67  C   UNL A   1      51.246  26.410  24.718  1.00  0.00     0.059 A 
ATOM     68  F   UNL A   1      49.242  27.505  24.188  1.00  0.00    -0.206 F 
ATOM     69  C   UNL A   1      52.057  25.786  25.665  1.00  0.00     0.060 A 
BRANCH  69  70
ATOM     70  S   UNL A   1      53.688  25.166  25.202  1.00  0.00     0.124 S 
ATOM     71  O   UNL A   1      53.503  23.725  25.340  1.00  0.00    -0.237 OA
ATOM     72  O   UNL A   1      53.834  25.659  23.836  1.00  0.00    -0.237 OA
ATOM     73  O   UNL A   1      54.576  25.783  26.183  1.00  0.00    -0.744 OA
ENDBRANCH  69  70
ENDBRANCH  37  62
ENDBRANCH  11  12
ENDBRANCH   4   6
ENDBRANCH   1   2
BRANCH   1  74
ATOM     74  C   UNL A   1      35.038  32.803  28.001  1.00  0.00     0.042 C 
BRANCH  74  75
ATOM     75  C   UNL A   1      34.092  31.610  27.924  1.00  0.00     0.117 C 
BRANCH  75  76
ATOM     76  N   UNL A   1      34.681  30.435  27.309  1.00  0.00    -0.354 N 
ATOM     77  C   UNL A   1      34.080  29.482  26.537  1.00  0.00     0.249 C 
ATOM     78  H   UNL A   1      35.644  30.310  27.469  1.00  0.00     0.163 HD
ATOM     79  O   UNL A   1      34.804  28.622  26.029  1.00  0.00    -0.272 OA
BRANCH  77  80
ATOM     80  C   UNL A   1      32.553  29.543  26.301  1.00  0.00     0.211 C 
ATOM     81  C   UNL A   1      32.181  29.663  24.829  1.00  0.00     0.085 C 
ATOM     82  O   UNL A   1      31.871  28.417  26.839  1.00  0.00    -0.357 OA
ATOM     83  C   UNL A   1      31.311  28.444  24.487  1.00  0.00     0.124 C 
ATOM     84  C   UNL A   1      31.389  27.574  25.775  1.00  0.00     0.187 C 
BRANCH  83  85
ATOM     85  C   UNL A   1      29.975  28.948  23.899  1.00  0.00     0.005 A 
ATOM     86  C   UNL A   1      29.860  30.364  23.782  1.00  0.00     0.008 A 
ATOM     87  C   UNL A   1      28.846  28.210  23.496  1.00  0.00     0.047 A 
ATOM     88  C   UNL A   1      28.731  30.999  23.256  1.00  0.00     0.001 A 
ATOM     89  C   UNL A   1      27.728  28.853  22.928  1.00  0.00     0.021 A 
ATOM     90  Cl  UNL A   1      28.625  26.513  23.710  1.00  0.00    -0.084 Cl
ATOM     91  C   UNL A   1      27.668  30.237  22.806  1.00  0.00     0.002 A 
ENDBRANCH  83  85
BRANCH  83  92
ATOM     92  O   UNL A   1      31.950  27.746  23.394  1.00  0.00    -0.382 OA
ATOM     93  H   UNL A   1      31.329  27.668  22.653  1.00  0.00     0.212 HD
ENDBRANCH  83  92
BRANCH  84  94
ATOM     94  C   UNL A   1      32.221  26.290  25.775  1.00  0.00     0.003 A 
ATOM     95  C   UNL A   1      33.590  26.319  25.452  1.00  0.00     0.008 A 
ATOM     96  C   UNL A   1      31.676  25.047  26.157  1.00  0.00     0.046 A 
ATOM     97  C   UNL A   1      34.397  25.182  25.571  1.00  0.00     0.000 A 
ATOM     98  C   UNL A   1      32.485  23.908  26.270  1.00  0.00     0.021 A 
ATOM     99  Cl  UNL A   1      29.991  24.820  26.478  1.00  0.00    -0.084 Cl
ATOM    100  C   UNL A   1      33.847  23.980  25.994  1.00  0.00     0.002 A 
ENDBRANCH  84  94
ENDBRANCH  77  80
ENDBRANCH  75  76
ENDBRANCH  74  75
ENDBRANCH   1  74
TORSDOF 16
ENDMDL
