MODEL 1
REMARK VINA RESULT:     -11.1      0.000      0.000
REMARK SMILES CCNC(=O)[C@@H](C)Oc1ccc(OC)cc1/C=C/C(=O)NCCCNC(=O)c1ccc(-c2c3nc(c(-c4c(F)cc(S(=O)(=O)[O-])cc4F)c4ccc([nH]4)c(-c4c(F)cc(S(=O)(=O)[O-])cc4F)c4nc(c(-c5c(F)cc(S(=O)(=O)[O-])cc5F)c5ccc2[nH]5)C=C4)C=C3)cc1
REMARK SMILES IDX 22 1 21 2 19 3 20 4 18 6 17 7 16 8 9 9 10 10 11 11 15 12
REMARK SMILES IDX 12 13 8 14 6 15 7 16 4 17 3 18 5 20 2 21 1 22 13 23 14 24
REMARK SMILES IDX 23 25 24 26 25 27 26 28 27 30 28 31 29 32 93 33 30 34 92 35
REMARK SMILES IDX 31 36 32 37 33 38 86 39 34 40 91 41 85 42 87 43 35 44 90 45
REMARK SMILES IDX 84 46 83 47 36 49 70 50 49 51 69 52 50 53 53 54 68 55 88 56
REMARK SMILES IDX 51 57 52 58 67 60 89 61 54 62 37 63 38 64 47 65 39 66 40 67
REMARK SMILES IDX 46 68 48 69 41 70 42 71 43 72 44 73 45 74 71 75 72 76 81 77
REMARK SMILES IDX 73 78 74 79 80 80 82 81 75 82 76 83 77 84 78 85 79 86 55 87
REMARK SMILES IDX 56 88 65 89 57 90 58 91 64 92 66 93 59 94 60 95 61 96 62 97
REMARK SMILES IDX 63 98
REMARK H PARENT 21 5 3 19 25 29 87 48 53 59
REMARK Flexibility Score: inf
ROOT
ATOM      1  C   UNL A   1      32.789  28.116  24.637  1.00  0.00     0.118 C 
ENDROOT
BRANCH   1   2
ATOM      2  N   UNL A   1      33.142  27.828  23.259  1.00  0.00    -0.352 N 
ATOM      3  C   UNL A   1      33.509  26.639  22.707  1.00  0.00     0.244 C 
ATOM      4  O   UNL A   1      33.597  26.520  21.488  1.00  0.00    -0.270 OA
ATOM      5  H   UNL A   1      33.111  28.593  22.641  1.00  0.00     0.163 HD
BRANCH   3   6
ATOM      6  C   UNL A   1      33.674  25.441  23.561  1.00  0.00     0.072 C 
ATOM      7  C   UNL A   1      34.479  25.358  24.633  1.00  0.00     0.018 C 
BRANCH   7   8
ATOM      8  C   UNL A   1      34.548  24.146  25.468  1.00  0.00     0.020 A 
ATOM      9  C   UNL A   1      33.620  23.909  26.499  1.00  0.00     0.127 A 
ATOM     10  C   UNL A   1      33.777  22.802  27.336  1.00  0.00     0.051 A 
ATOM     11  C   UNL A   1      34.747  21.841  27.056  1.00  0.00     0.050 A 
ATOM     12  C   UNL A   1      35.542  23.185  25.219  1.00  0.00     0.058 A 
ATOM     13  C   UNL A   1      35.592  22.007  25.964  1.00  0.00     0.119 A 
BRANCH   9  14
ATOM     14  O   UNL A   1      32.632  24.815  26.750  1.00  0.00    -0.480 OA
BRANCH  14  15
ATOM     15  C   UNL A   1      31.338  24.596  26.179  1.00  0.00     0.258 C 
ATOM     16  C   UNL A   1      30.424  25.812  26.033  1.00  0.00     0.064 C 
BRANCH  15  17
ATOM     17  C   UNL A   1      30.544  23.314  26.535  1.00  0.00     0.260 C 
ATOM     18  N   UNL A   1      30.742  22.105  25.950  1.00  0.00    -0.353 N 
ATOM     19  H   UNL A   1      30.195  21.378  26.328  1.00  0.00     0.163 HD
ATOM     20  O   UNL A   1      29.677  23.349  27.420  1.00  0.00    -0.271 OA
BRANCH  18  21
ATOM     21  C   UNL A   1      31.613  21.691  24.872  1.00  0.00     0.112 C 
ATOM     22  C   UNL A   1      31.364  22.510  23.619  1.00  0.00     0.027 C 
ENDBRANCH  18  21
ENDBRANCH  15  17
ENDBRANCH  14  15
ENDBRANCH   9  14
BRANCH  13  23
ATOM     23  O   UNL A   1      36.459  20.980  25.705  1.00  0.00    -0.497 OA
ATOM     24  C   UNL A   1      37.371  21.267  24.644  1.00  0.00     0.278 C 
ENDBRANCH  13  23
ENDBRANCH   7   8
ENDBRANCH   3   6
ENDBRANCH   1   2
BRANCH   1  25
ATOM     25  C   UNL A   1      33.963  28.675  25.428  1.00  0.00     0.042 C 
BRANCH  25  26
ATOM     26  C   UNL A   1      33.719  28.632  26.927  1.00  0.00     0.118 C 
BRANCH  26  27
ATOM     27  N   UNL A   1      33.630  29.961  27.524  1.00  0.00    -0.352 N 
ATOM     28  C   UNL A   1      34.586  30.650  28.239  1.00  0.00     0.251 C 
ATOM     29  H   UNL A   1      32.773  30.427  27.400  1.00  0.00     0.163 HD
ATOM     30  O   UNL A   1      34.314  31.721  28.765  1.00  0.00    -0.269 OA
BRANCH  28  31
ATOM     31  C   UNL A   1      35.931  30.056  28.412  1.00  0.00     0.039 A 
ATOM     32  C   UNL A   1      36.839  30.118  27.351  1.00  0.00     0.014 A 
ATOM     33  C   UNL A   1      36.316  29.496  29.632  1.00  0.00     0.014 A 
ATOM     34  C   UNL A   1      38.158  29.700  27.543  1.00  0.00     0.010 A 
ATOM     35  C   UNL A   1      37.648  29.164  29.848  1.00  0.00     0.010 A 
ATOM     36  C   UNL A   1      38.586  29.267  28.807  1.00  0.00    -0.014 A 
BRANCH  36  37
ATOM     37  C   UNL A   1      40.005  28.917  29.080  1.00  0.00     0.031 A 
ATOM     38  C   UNL A   1      40.931  29.953  29.655  1.00  0.00     0.074 A 
ATOM     39  C   UNL A   1      40.481  27.708  28.720  1.00  0.00     0.049 A 
ATOM     40  N   UNL A   1      42.228  29.902  29.822  1.00  0.00    -0.248 NA
ATOM     41  C   UNL A   1      40.323  31.231  30.058  1.00  0.00     0.031 C 
ATOM     42  C   UNL A   1      39.696  26.634  28.107  1.00  0.00     0.029 A 
ATOM     43  N   UNL A   1      41.747  27.185  28.803  1.00  0.00    -0.354 N 
ATOM     44  C   UNL A   1      42.593  31.151  30.314  1.00  0.00     0.074 A 
ATOM     45  C   UNL A   1      41.389  31.951  30.372  1.00  0.00     0.031 C 
ATOM     46  C   UNL A   1      40.492  25.574  27.892  1.00  0.00     0.029 A 
ATOM     47  C   UNL A   1      41.851  25.906  28.310  1.00  0.00     0.049 A 
ATOM     48  H   UNL A   1      42.511  27.681  29.178  1.00  0.00     0.167 HD
ATOM     49  C   UNL A   1      43.817  31.584  30.701  1.00  0.00     0.037 A 
ATOM     50  C   UNL A   1      42.921  25.094  28.200  1.00  0.00     0.037 A 
ATOM     51  C   UNL A   1      45.002  30.769  30.685  1.00  0.00     0.049 A 
ATOM     52  C   UNL A   1      44.263  25.584  28.668  1.00  0.00     0.074 A 
ATOM     53  C   UNL A   1      46.277  31.091  31.113  1.00  0.00     0.029 A 
ATOM     54  N   UNL A   1      45.053  29.461  30.224  1.00  0.00    -0.354 N 
ATOM     55  N   UNL A   1      44.585  26.753  29.168  1.00  0.00    -0.248 NA
ATOM     56  C   UNL A   1      45.389  24.644  28.561  1.00  0.00     0.031 C 
ATOM     57  C   UNL A   1      47.107  29.986  30.890  1.00  0.00     0.029 A 
ATOM     58  C   UNL A   1      46.340  28.963  30.353  1.00  0.00     0.049 A 
ATOM     59  H   UNL A   1      44.289  28.960  29.859  1.00  0.00     0.167 HD
ATOM     60  C   UNL A   1      45.942  26.682  29.458  1.00  0.00     0.074 A 
ATOM     61  C   UNL A   1      46.380  25.353  29.085  1.00  0.00     0.031 C 
ATOM     62  C   UNL A   1      46.752  27.631  29.987  1.00  0.00     0.037 A 
BRANCH  49  63
ATOM     63  C   UNL A   1      43.923  33.006  31.179  1.00  0.00     0.058 A 
ATOM     64  C   UNL A   1      43.725  33.345  32.528  1.00  0.00     0.135 A 
ATOM     65  C   UNL A   1      44.222  34.042  30.281  1.00  0.00     0.135 A 
ATOM     66  F   UNL A   1      43.421  32.395  33.426  1.00  0.00    -0.206 F 
ATOM     67  C   UNL A   1      43.772  34.666  32.960  1.00  0.00     0.059 A 
ATOM     68  C   UNL A   1      44.303  35.369  30.697  1.00  0.00     0.059 A 
ATOM     69  F   UNL A   1      44.424  33.775  28.981  1.00  0.00    -0.206 F 
ATOM     70  C   UNL A   1      44.054  35.672  32.035  1.00  0.00     0.060 A 
BRANCH  70  71
ATOM     71  S   UNL A   1      44.088  37.385  32.604  1.00  0.00     0.124 S 
ATOM     72  O   UNL A   1      43.790  38.106  31.370  1.00  0.00    -0.237 OA
ATOM     73  O   UNL A   1      43.036  37.403  33.616  1.00  0.00    -0.237 OA
ATOM     74  O   UNL A   1      45.447  37.545  33.113  1.00  0.00    -0.744 OA
ENDBRANCH  70  71
ENDBRANCH  49  63
BRANCH  50  75
ATOM     75  C   UNL A   1      42.755  23.721  27.657  1.00  0.00     0.058 A 
ATOM     76  C   UNL A   1      42.528  22.635  28.516  1.00  0.00     0.135 A 
ATOM     77  C   UNL A   1      42.790  23.467  26.277  1.00  0.00     0.135 A 
ATOM     78  F   UNL A   1      42.493  22.827  29.843  1.00  0.00    -0.206 F 
ATOM     79  C   UNL A   1      42.349  21.345  28.029  1.00  0.00     0.059 A 
ATOM     80  C   UNL A   1      42.594  22.188  25.764  1.00  0.00     0.059 A 
ATOM     81  F   UNL A   1      42.989  24.474  25.413  1.00  0.00    -0.206 F 
ATOM     82  C   UNL A   1      42.381  21.132  26.650  1.00  0.00     0.060 A 
BRANCH  82  83
ATOM     83  S   UNL A   1      42.084  19.462  26.025  1.00  0.00     0.124 S 
ATOM     84  O   UNL A   1      40.643  19.482  25.809  1.00  0.00    -0.237 OA
ATOM     85  O   UNL A   1      42.910  19.432  24.822  1.00  0.00    -0.237 OA
ATOM     86  O   UNL A   1      42.549  18.610  27.114  1.00  0.00    -0.744 OA
ENDBRANCH  82  83
ENDBRANCH  50  75
BRANCH  62  87
ATOM     87  C   UNL A   1      48.186  27.257  30.232  1.00  0.00     0.058 A 
ATOM     88  C   UNL A   1      49.175  27.453  29.257  1.00  0.00     0.135 A 
ATOM     89  C   UNL A   1      48.583  26.749  31.480  1.00  0.00     0.135 A 
ATOM     90  F   UNL A   1      48.845  27.929  28.046  1.00  0.00    -0.206 F 
ATOM     91  C   UNL A   1      50.508  27.144  29.503  1.00  0.00     0.059 A 
ATOM     92  C   UNL A   1      49.913  26.454  31.757  1.00  0.00     0.059 A 
ATOM     93  F   UNL A   1      47.675  26.552  32.449  1.00  0.00    -0.206 F 
ATOM     94  C   UNL A   1      50.869  26.646  30.758  1.00  0.00     0.060 A 
BRANCH  94  95
ATOM     95  S   UNL A   1      52.608  26.288  31.084  1.00  0.00     0.124 S 
ATOM     96  O   UNL A   1      52.515  25.033  31.823  1.00  0.00    -0.237 OA
ATOM     97  O   UNL A   1      53.167  26.192  29.739  1.00  0.00    -0.237 OA
ATOM     98  O   UNL A   1      53.052  27.443  31.859  1.00  0.00    -0.744 OA
ENDBRANCH  94  95
ENDBRANCH  62  87
ENDBRANCH  36  37
ENDBRANCH  28  31
ENDBRANCH  26  27
ENDBRANCH  25  26
ENDBRANCH   1  25
TORSDOF 19
ENDMDL
MODEL 2
REMARK VINA RESULT:     -10.9      3.370      8.982
REMARK SMILES CCNC(=O)[C@@H](C)Oc1ccc(OC)cc1/C=C/C(=O)NCCCNC(=O)c1ccc(-c2c3nc(c(-c4c(F)cc(S(=O)(=O)[O-])cc4F)c4ccc([nH]4)c(-c4c(F)cc(S(=O)(=O)[O-])cc4F)c4nc(c(-c5c(F)cc(S(=O)(=O)[O-])cc5F)c5ccc2[nH]5)C=C4)C=C3)cc1
REMARK SMILES IDX 22 1 21 2 19 3 20 4 18 6 17 7 16 8 9 9 10 10 11 11 15 12
REMARK SMILES IDX 12 13 8 14 6 15 7 16 4 17 3 18 5 20 2 21 1 22 13 23 14 24
REMARK SMILES IDX 23 25 24 26 25 27 26 28 27 30 28 31 29 32 93 33 30 34 92 35
REMARK SMILES IDX 31 36 32 37 33 38 86 39 34 40 91 41 85 42 87 43 35 44 90 45
REMARK SMILES IDX 84 46 83 47 36 49 70 50 49 51 69 52 50 53 53 54 68 55 88 56
REMARK SMILES IDX 51 57 52 58 67 60 89 61 54 62 37 63 38 64 47 65 39 66 40 67
REMARK SMILES IDX 46 68 48 69 41 70 42 71 43 72 44 73 45 74 71 75 72 76 81 77
REMARK SMILES IDX 73 78 74 79 80 80 82 81 75 82 76 83 77 84 78 85 79 86 55 87
REMARK SMILES IDX 56 88 65 89 57 90 58 91 64 92 66 93 59 94 60 95 61 96 62 97
REMARK SMILES IDX 63 98
REMARK H PARENT 21 5 3 19 25 29 87 48 53 59
REMARK Flexibility Score: inf
ROOT
ATOM      1  C   UNL A   1      37.471  21.214  24.840  1.00  0.00     0.118 C 
ENDROOT
BRANCH   1   2
ATOM      2  N   UNL A   1      37.875  22.356  25.638  1.00  0.00    -0.352 N 
ATOM      3  C   UNL A   1      37.277  23.576  25.740  1.00  0.00     0.244 C 
ATOM      4  O   UNL A   1      37.637  24.374  26.601  1.00  0.00    -0.270 OA
ATOM      5  H   UNL A   1      38.688  22.234  26.179  1.00  0.00     0.163 HD
BRANCH   3   6
ATOM      6  C   UNL A   1      36.099  23.898  24.905  1.00  0.00     0.072 C 
ATOM      7  C   UNL A   1      34.992  24.526  25.333  1.00  0.00     0.018 C 
BRANCH   7   8
ATOM      8  C   UNL A   1      33.880  24.861  24.426  1.00  0.00     0.020 A 
ATOM      9  C   UNL A   1      32.544  24.861  24.867  1.00  0.00     0.127 A 
ATOM     10  C   UNL A   1      31.510  25.083  23.955  1.00  0.00     0.051 A 
ATOM     11  C   UNL A   1      31.797  25.469  22.648  1.00  0.00     0.050 A 
ATOM     12  C   UNL A   1      34.154  25.219  23.095  1.00  0.00     0.058 A 
ATOM     13  C   UNL A   1      33.120  25.592  22.235  1.00  0.00     0.119 A 
BRANCH   9  14
ATOM     14  O   UNL A   1      32.253  24.536  26.160  1.00  0.00    -0.480 OA
BRANCH  14  15
ATOM     15  C   UNL A   1      31.739  23.230  26.440  1.00  0.00     0.258 C 
ATOM     16  C   UNL A   1      30.265  23.130  26.833  1.00  0.00     0.064 C 
BRANCH  15  17
ATOM     17  C   UNL A   1      32.613  22.203  27.204  1.00  0.00     0.260 C 
ATOM     18  N   UNL A   1      33.057  21.034  26.674  1.00  0.00    -0.353 N 
ATOM     19  H   UNL A   1      33.647  20.519  27.270  1.00  0.00     0.163 HD
ATOM     20  O   UNL A   1      32.967  22.437  28.368  1.00  0.00    -0.271 OA
BRANCH  18  21
ATOM     21  C   UNL A   1      32.818  20.409  25.391  1.00  0.00     0.112 C 
ATOM     22  C   UNL A   1      33.650  21.058  24.301  1.00  0.00     0.027 C 
ENDBRANCH  18  21
ENDBRANCH  15  17
ENDBRANCH  14  15
ENDBRANCH   9  14
BRANCH  13  23
ATOM     23  O   UNL A   1      33.320  26.058  20.965  1.00  0.00    -0.497 OA
ATOM     24  C   UNL A   1      32.517  25.394  19.988  1.00  0.00     0.278 C 
ENDBRANCH  13  23
ENDBRANCH   7   8
ENDBRANCH   3   6
ENDBRANCH   1   2
BRANCH   1  25
ATOM     25  C   UNL A   1      38.391  20.017  25.038  1.00  0.00     0.042 C 
BRANCH  25  26
ATOM     26  C   UNL A   1      39.607  20.358  25.882  1.00  0.00     0.118 C 
BRANCH  26  27
ATOM     27  N   UNL A   1      40.558  19.255  25.975  1.00  0.00    -0.352 N 
ATOM     28  C   UNL A   1      41.923  19.306  26.153  1.00  0.00     0.251 C 
ATOM     29  H   UNL A   1      40.171  18.353  25.899  1.00  0.00     0.163 HD
ATOM     30  O   UNL A   1      42.594  18.283  26.104  1.00  0.00    -0.269 OA
BRANCH  28  31
ATOM     31  C   UNL A   1      42.580  20.618  26.351  1.00  0.00     0.039 A 
ATOM     32  C   UNL A   1      43.007  21.335  25.230  1.00  0.00     0.014 A 
ATOM     33  C   UNL A   1      42.719  21.165  27.628  1.00  0.00     0.014 A 
ATOM     34  C   UNL A   1      43.491  22.637  25.384  1.00  0.00     0.010 A 
ATOM     35  C   UNL A   1      43.115  22.490  27.770  1.00  0.00     0.010 A 
ATOM     36  C   UNL A   1      43.501  23.243  26.650  1.00  0.00    -0.014 A 
BRANCH  36  37
ATOM     37  C   UNL A   1      43.906  24.661  26.840  1.00  0.00     0.031 A 
ATOM     38  C   UNL A   1      45.348  25.053  26.669  1.00  0.00     0.074 A 
ATOM     39  C   UNL A   1      43.003  25.568  27.262  1.00  0.00     0.049 A 
ATOM     40  N   UNL A   1      45.933  26.192  26.937  1.00  0.00    -0.248 NA
ATOM     41  C   UNL A   1      46.260  24.013  26.168  1.00  0.00     0.031 C 
ATOM     42  C   UNL A   1      41.585  25.301  27.514  1.00  0.00     0.029 A 
ATOM     43  N   UNL A   1      43.149  26.897  27.571  1.00  0.00    -0.354 N 
ATOM     44  C   UNL A   1      47.284  25.994  26.672  1.00  0.00     0.074 A 
ATOM     45  C   UNL A   1      47.437  24.613  26.268  1.00  0.00     0.031 C 
ATOM     46  C   UNL A   1      40.988  26.435  27.915  1.00  0.00     0.029 A 
ATOM     47  C   UNL A   1      41.985  27.499  27.991  1.00  0.00     0.049 A 
ATOM     48  H   UNL A   1      44.006  27.376  27.500  1.00  0.00     0.167 HD
ATOM     49  C   UNL A   1      48.301  26.886  26.739  1.00  0.00     0.037 A 
ATOM     50  C   UNL A   1      41.750  28.761  28.398  1.00  0.00     0.037 A 
ATOM     51  C   UNL A   1      48.135  28.270  27.096  1.00  0.00     0.049 A 
ATOM     52  C   UNL A   1      42.888  29.744  28.431  1.00  0.00     0.074 A 
ATOM     53  C   UNL A   1      49.089  29.271  27.134  1.00  0.00     0.029 A 
ATOM     54  N   UNL A   1      46.930  28.851  27.466  1.00  0.00    -0.354 N 
ATOM     55  N   UNL A   1      44.151  29.551  28.139  1.00  0.00    -0.248 NA
ATOM     56  C   UNL A   1      42.568  31.118  28.846  1.00  0.00     0.031 C 
ATOM     57  C   UNL A   1      48.466  30.453  27.550  1.00  0.00     0.029 A 
ATOM     58  C   UNL A   1      47.117  30.196  27.739  1.00  0.00     0.049 A 
ATOM     59  H   UNL A   1      46.070  28.377  27.526  1.00  0.00     0.167 HD
ATOM     60  C   UNL A   1      44.773  30.782  28.310  1.00  0.00     0.074 A 
ATOM     61  C   UNL A   1      43.746  31.715  28.724  1.00  0.00     0.031 C 
ATOM     62  C   UNL A   1      46.077  31.111  28.138  1.00  0.00     0.037 A 
BRANCH  49  63
ATOM     63  C   UNL A   1      49.680  26.383  26.411  1.00  0.00     0.058 A 
ATOM     64  C   UNL A   1      50.211  26.486  25.115  1.00  0.00     0.135 A 
ATOM     65  C   UNL A   1      50.477  25.787  27.401  1.00  0.00     0.135 A 
ATOM     66  F   UNL A   1      49.484  27.032  24.128  1.00  0.00    -0.206 F 
ATOM     67  C   UNL A   1      51.466  25.974  24.801  1.00  0.00     0.059 A 
ATOM     68  C   UNL A   1      51.748  25.294  27.115  1.00  0.00     0.059 A 
ATOM     69  F   UNL A   1      50.021  25.666  28.657  1.00  0.00    -0.206 F 
ATOM     70  C   UNL A   1      52.223  25.372  25.807  1.00  0.00     0.060 A 
BRANCH  70  71
ATOM     71  S   UNL A   1      53.839  24.690  25.381  1.00  0.00     0.124 S 
ATOM     72  O   UNL A   1      54.579  24.900  26.621  1.00  0.00    -0.237 OA
ATOM     73  O   UNL A   1      53.522  23.300  25.062  1.00  0.00    -0.237 OA
ATOM     74  O   UNL A   1      54.264  25.507  24.249  1.00  0.00    -0.744 OA
ENDBRANCH  70  71
ENDBRANCH  49  63
BRANCH  50  75
ATOM     75  C   UNL A   1      40.371  29.174  28.770  1.00  0.00     0.058 A 
ATOM     76  C   UNL A   1      39.419  29.458  27.780  1.00  0.00     0.135 A 
ATOM     77  C   UNL A   1      39.968  29.265  30.111  1.00  0.00     0.135 A 
ATOM     78  F   UNL A   1      39.760  29.392  26.484  1.00  0.00    -0.206 F 
ATOM     79  C   UNL A   1      38.118  29.827  28.104  1.00  0.00     0.059 A 
ATOM     80  C   UNL A   1      38.666  29.611  30.460  1.00  0.00     0.059 A 
ATOM     81  F   UNL A   1      40.838  28.987  31.095  1.00  0.00    -0.206 F 
ATOM     82  C   UNL A   1      37.750  29.897  29.449  1.00  0.00     0.060 A 
BRANCH  82  83
ATOM     83  S   UNL A   1      36.039  30.314  29.857  1.00  0.00     0.124 S 
ATOM     84  O   UNL A   1      35.893  29.698  31.170  1.00  0.00    -0.237 OA
ATOM     85  O   UNL A   1      36.065  31.773  29.836  1.00  0.00    -0.237 OA
ATOM     86  O   UNL A   1      35.278  29.694  28.778  1.00  0.00    -0.744 OA
ENDBRANCH  82  83
ENDBRANCH  50  75
BRANCH  62  87
ATOM     87  C   UNL A   1      46.462  32.546  28.358  1.00  0.00     0.058 A 
ATOM     88  C   UNL A   1      46.455  33.480  27.312  1.00  0.00     0.135 A 
ATOM     89  C   UNL A   1      46.784  33.003  29.646  1.00  0.00     0.135 A 
ATOM     90  F   UNL A   1      46.160  33.090  26.061  1.00  0.00    -0.206 F 
ATOM     91  C   UNL A   1      46.771  34.816  27.530  1.00  0.00     0.059 A 
ATOM     92  C   UNL A   1      47.082  34.339  29.893  1.00  0.00     0.059 A 
ATOM     93  F   UNL A   1      46.795  32.150  30.684  1.00  0.00    -0.206 F 
ATOM     94  C   UNL A   1      47.082  35.237  28.825  1.00  0.00     0.060 A 
BRANCH  94  95
ATOM     95  S   UNL A   1      47.449  36.983  29.107  1.00  0.00     0.124 S 
ATOM     96  O   UNL A   1      48.202  37.322  27.903  1.00  0.00    -0.237 OA
ATOM     97  O   UNL A   1      46.118  37.571  29.209  1.00  0.00    -0.237 OA
ATOM     98  O   UNL A   1      48.219  36.970  30.347  1.00  0.00    -0.744 OA
ENDBRANCH  94  95
ENDBRANCH  62  87
ENDBRANCH  36  37
ENDBRANCH  28  31
ENDBRANCH  26  27
ENDBRANCH  25  26
ENDBRANCH   1  25
TORSDOF 19
ENDMDL
MODEL 3
REMARK VINA RESULT:     -10.8      3.303      9.114
REMARK SMILES CCNC(=O)[C@@H](C)Oc1ccc(OC)cc1/C=C/C(=O)NCCCNC(=O)c1ccc(-c2c3nc(c(-c4c(F)cc(S(=O)(=O)[O-])cc4F)c4ccc([nH]4)c(-c4c(F)cc(S(=O)(=O)[O-])cc4F)c4nc(c(-c5c(F)cc(S(=O)(=O)[O-])cc5F)c5ccc2[nH]5)C=C4)C=C3)cc1
REMARK SMILES IDX 22 1 21 2 19 3 20 4 18 6 17 7 16 8 9 9 10 10 11 11 15 12
REMARK SMILES IDX 12 13 8 14 6 15 7 16 4 17 3 18 5 20 2 21 1 22 13 23 14 24
REMARK SMILES IDX 23 25 24 26 25 27 26 28 27 30 28 31 29 32 93 33 30 34 92 35
REMARK SMILES IDX 31 36 32 37 33 38 86 39 34 40 91 41 85 42 87 43 35 44 90 45
REMARK SMILES IDX 84 46 83 47 36 49 70 50 49 51 69 52 50 53 53 54 68 55 88 56
REMARK SMILES IDX 51 57 52 58 67 60 89 61 54 62 37 63 38 64 47 65 39 66 40 67
REMARK SMILES IDX 46 68 48 69 41 70 42 71 43 72 44 73 45 74 71 75 72 76 81 77
REMARK SMILES IDX 73 78 74 79 80 80 82 81 75 82 76 83 77 84 78 85 79 86 55 87
REMARK SMILES IDX 56 88 65 89 57 90 58 91 64 92 66 93 59 94 60 95 61 96 62 97
REMARK SMILES IDX 63 98
REMARK H PARENT 21 5 3 19 25 29 87 48 53 59
REMARK Flexibility Score: inf
ROOT
ATOM      1  C   UNL A   1      37.570  21.108  24.840  1.00  0.00     0.118 C 
ENDROOT
BRANCH   1   2
ATOM      2  N   UNL A   1      38.108  22.321  25.426  1.00  0.00    -0.352 N 
ATOM      3  C   UNL A   1      37.438  23.356  26.003  1.00  0.00     0.244 C 
ATOM      4  O   UNL A   1      38.048  24.226  26.619  1.00  0.00    -0.270 OA
ATOM      5  H   UNL A   1      39.089  22.407  25.404  1.00  0.00     0.163 HD
BRANCH   3   6
ATOM      6  C   UNL A   1      35.958  23.372  26.010  1.00  0.00     0.072 C 
ATOM      7  C   UNL A   1      35.185  24.036  25.136  1.00  0.00     0.018 C 
BRANCH   7   8
ATOM      8  C   UNL A   1      33.714  23.959  25.174  1.00  0.00     0.020 A 
ATOM      9  C   UNL A   1      32.939  24.085  24.007  1.00  0.00     0.127 A 
ATOM     10  C   UNL A   1      31.546  24.109  24.095  1.00  0.00     0.051 A 
ATOM     11  C   UNL A   1      30.914  23.843  25.308  1.00  0.00     0.050 A 
ATOM     12  C   UNL A   1      33.062  23.725  26.397  1.00  0.00     0.058 A 
ATOM     13  C   UNL A   1      31.674  23.595  26.446  1.00  0.00     0.119 A 
BRANCH   9  14
ATOM     14  O   UNL A   1      33.548  24.292  22.803  1.00  0.00    -0.480 OA
BRANCH  14  15
ATOM     15  C   UNL A   1      33.572  25.619  22.267  1.00  0.00     0.258 C 
ATOM     16  C   UNL A   1      33.745  26.769  23.257  1.00  0.00     0.064 C 
BRANCH  15  17
ATOM     17  C   UNL A   1      32.625  25.997  21.100  1.00  0.00     0.260 C 
ATOM     18  N   UNL A   1      31.462  26.682  21.251  1.00  0.00    -0.353 N 
ATOM     19  H   UNL A   1      31.003  26.892  20.405  1.00  0.00     0.163 HD
ATOM     20  O   UNL A   1      32.922  25.690  19.937  1.00  0.00    -0.271 OA
BRANCH  18  21
ATOM     21  C   UNL A   1      30.775  27.160  22.432  1.00  0.00     0.112 C 
ATOM     22  C   UNL A   1      30.630  28.670  22.409  1.00  0.00     0.027 C 
ENDBRANCH  18  21
ENDBRANCH  15  17
ENDBRANCH  14  15
ENDBRANCH   9  14
BRANCH  13  23
ATOM     23  O   UNL A   1      30.982  23.258  27.577  1.00  0.00    -0.497 OA
ATOM     24  C   UNL A   1      29.642  22.839  27.315  1.00  0.00     0.278 C 
ENDBRANCH  13  23
ENDBRANCH   7   8
ENDBRANCH   3   6
ENDBRANCH   1   2
BRANCH   1  25
ATOM     25  C   UNL A   1      38.423  19.887  25.152  1.00  0.00     0.042 C 
BRANCH  25  26
ATOM     26  C   UNL A   1      39.674  20.244  25.937  1.00  0.00     0.118 C 
BRANCH  26  27
ATOM     27  N   UNL A   1      40.642  19.153  25.984  1.00  0.00    -0.352 N 
ATOM     28  C   UNL A   1      42.011  19.222  26.131  1.00  0.00     0.251 C 
ATOM     29  H   UNL A   1      40.268  18.247  25.897  1.00  0.00     0.163 HD
ATOM     30  O   UNL A   1      42.695  18.210  26.044  1.00  0.00    -0.269 OA
BRANCH  28  31
ATOM     31  C   UNL A   1      42.653  20.539  26.342  1.00  0.00     0.039 A 
ATOM     32  C   UNL A   1      43.153  21.231  25.236  1.00  0.00     0.014 A 
ATOM     33  C   UNL A   1      42.707  21.114  27.613  1.00  0.00     0.014 A 
ATOM     34  C   UNL A   1      43.625  22.537  25.393  1.00  0.00     0.010 A 
ATOM     35  C   UNL A   1      43.093  22.442  27.752  1.00  0.00     0.010 A 
ATOM     36  C   UNL A   1      43.552  23.170  26.643  1.00  0.00    -0.014 A 
BRANCH  36  37
ATOM     37  C   UNL A   1      43.943  24.593  26.828  1.00  0.00     0.031 A 
ATOM     38  C   UNL A   1      45.382  24.999  26.656  1.00  0.00     0.074 A 
ATOM     39  C   UNL A   1      43.031  25.493  27.245  1.00  0.00     0.049 A 
ATOM     40  N   UNL A   1      45.955  26.144  26.920  1.00  0.00    -0.248 NA
ATOM     41  C   UNL A   1      46.304  23.966  26.160  1.00  0.00     0.031 C 
ATOM     42  C   UNL A   1      41.615  25.215  27.496  1.00  0.00     0.029 A 
ATOM     43  N   UNL A   1      43.163  26.825  27.548  1.00  0.00    -0.354 N 
ATOM     44  C   UNL A   1      47.308  25.958  26.657  1.00  0.00     0.074 A 
ATOM     45  C   UNL A   1      47.475  24.577  26.259  1.00  0.00     0.031 C 
ATOM     46  C   UNL A   1      41.007  26.344  27.892  1.00  0.00     0.029 A 
ATOM     47  C   UNL A   1      41.994  27.417  27.965  1.00  0.00     0.049 A 
ATOM     48  H   UNL A   1      44.017  27.312  27.477  1.00  0.00     0.167 HD
ATOM     49  C   UNL A   1      48.316  26.860  26.722  1.00  0.00     0.037 A 
ATOM     50  C   UNL A   1      41.746  28.679  28.366  1.00  0.00     0.037 A 
ATOM     51  C   UNL A   1      48.137  28.244  27.072  1.00  0.00     0.049 A 
ATOM     52  C   UNL A   1      42.874  29.673  28.397  1.00  0.00     0.074 A 
ATOM     53  C   UNL A   1      49.081  29.254  27.107  1.00  0.00     0.029 A 
ATOM     54  N   UNL A   1      46.927  28.814  27.439  1.00  0.00    -0.354 N 
ATOM     55  N   UNL A   1      44.140  29.491  28.107  1.00  0.00    -0.248 NA
ATOM     56  C   UNL A   1      42.541  31.045  28.806  1.00  0.00     0.031 C 
ATOM     57  C   UNL A   1      48.447  30.432  27.518  1.00  0.00     0.029 A 
ATOM     58  C   UNL A   1      47.100  30.162  27.706  1.00  0.00     0.049 A 
ATOM     59  H   UNL A   1      46.071  28.333  27.500  1.00  0.00     0.167 HD
ATOM     60  C   UNL A   1      44.750  30.729  28.273  1.00  0.00     0.074 A 
ATOM     61  C   UNL A   1      43.713  31.653  28.682  1.00  0.00     0.031 C 
ATOM     62  C   UNL A   1      46.051  31.069  28.101  1.00  0.00     0.037 A 
BRANCH  49  63
ATOM     63  C   UNL A   1      49.700  26.369  26.397  1.00  0.00     0.058 A 
ATOM     64  C   UNL A   1      50.205  26.405  25.087  1.00  0.00     0.135 A 
ATOM     65  C   UNL A   1      50.530  25.852  27.404  1.00  0.00     0.135 A 
ATOM     66  F   UNL A   1      49.447  26.874  24.083  1.00  0.00    -0.206 F 
ATOM     67  C   UNL A   1      51.465  25.903  24.779  1.00  0.00     0.059 A 
ATOM     68  C   UNL A   1      51.806  25.371  27.123  1.00  0.00     0.059 A 
ATOM     69  F   UNL A   1      50.100  25.797  28.675  1.00  0.00    -0.206 F 
ATOM     70  C   UNL A   1      52.255  25.380  25.804  1.00  0.00     0.060 A 
BRANCH  70  71
ATOM     71  S   UNL A   1      53.878  24.709  25.387  1.00  0.00     0.124 S 
ATOM     72  O   UNL A   1      53.550  23.318  25.093  1.00  0.00    -0.237 OA
ATOM     73  O   UNL A   1      54.272  25.522  24.240  1.00  0.00    -0.237 OA
ATOM     74  O   UNL A   1      54.657  24.928  26.602  1.00  0.00    -0.744 OA
ENDBRANCH  70  71
ENDBRANCH  49  63
BRANCH  50  75
ATOM     75  C   UNL A   1      40.364  29.080  28.735  1.00  0.00     0.058 A 
ATOM     76  C   UNL A   1      39.987  29.187  30.082  1.00  0.00     0.135 A 
ATOM     77  C   UNL A   1      39.403  29.390  27.761  1.00  0.00     0.135 A 
ATOM     78  F   UNL A   1      40.869  28.894  31.050  1.00  0.00    -0.206 F 
ATOM     79  C   UNL A   1      38.705  29.579  30.452  1.00  0.00     0.059 A 
ATOM     80  C   UNL A   1      38.120  29.805  28.105  1.00  0.00     0.059 A 
ATOM     81  F   UNL A   1      39.719  29.318  26.458  1.00  0.00    -0.206 F 
ATOM     82  C   UNL A   1      37.778  29.890  29.455  1.00  0.00     0.060 A 
BRANCH  82  83
ATOM     83  S   UNL A   1      36.135  30.460  29.947  1.00  0.00     0.124 S 
ATOM     84  O   UNL A   1      35.313  29.967  28.849  1.00  0.00    -0.237 OA
ATOM     85  O   UNL A   1      35.951  29.795  31.233  1.00  0.00    -0.237 OA
ATOM     86  O   UNL A   1      36.293  31.909  30.018  1.00  0.00    -0.744 OA
ENDBRANCH  82  83
ENDBRANCH  50  75
BRANCH  62  87
ATOM     87  C   UNL A   1      46.422  32.509  28.316  1.00  0.00     0.058 A 
ATOM     88  C   UNL A   1      46.896  32.970  29.552  1.00  0.00     0.135 A 
ATOM     89  C   UNL A   1      46.357  33.423  27.253  1.00  0.00     0.135 A 
ATOM     90  F   UNL A   1      46.970  32.135  30.602  1.00  0.00    -0.206 F 
ATOM     91  C   UNL A   1      47.278  34.295  29.735  1.00  0.00     0.059 A 
ATOM     92  C   UNL A   1      46.755  34.747  27.405  1.00  0.00     0.059 A 
ATOM     93  F   UNL A   1      45.919  33.028  26.046  1.00  0.00    -0.206 F 
ATOM     94  C   UNL A   1      47.206  35.176  28.654  1.00  0.00     0.060 A 
BRANCH  94  95
ATOM     95  S   UNL A   1      47.745  36.884  28.887  1.00  0.00     0.124 S 
ATOM     96  O   UNL A   1      47.373  37.120  30.279  1.00  0.00    -0.237 OA
ATOM     97  O   UNL A   1      49.177  36.801  28.618  1.00  0.00    -0.237 OA
ATOM     98  O   UNL A   1      46.969  37.622  27.895  1.00  0.00    -0.744 OA
ENDBRANCH  94  95
ENDBRANCH  62  87
ENDBRANCH  36  37
ENDBRANCH  28  31
ENDBRANCH  26  27
ENDBRANCH  25  26
ENDBRANCH   1  25
TORSDOF 19
ENDMDL
