MODEL 1
REMARK VINA RESULT:     -10.8      0.000      0.000
REMARK SMILES C[C@H]([C@H](C)C(=O)NCCCNC(=O)c1ccc(-c2c3nc(c(-c4c(F)cc(S(=O)(=O)[O-])cc4F)c4ccc([nH]4)c(-c4c(F)cc(S(=O)(=O)[O-])cc4F)c4nc(c(-c5c(F)cc(S(=O)(=O)[O-])cc5F)c5ccc2[nH]5)C=C4)C=C3)cc1)[C@H](O)c1cncn1C1CC1
REMARK SMILES IDX 8 1 7 2 5 3 6 4 3 6 4 7 2 8 1 9 80 10 82 11 83 12 86 13
REMARK SMILES IDX 84 14 85 15 87 16 88 17 89 18 81 19 9 21 10 22 11 23 12 24
REMARK SMILES IDX 13 26 14 27 15 28 79 29 16 30 78 31 17 32 18 33 19 34 72 35
REMARK SMILES IDX 20 36 77 37 71 38 73 39 21 40 76 41 70 42 69 43 22 45 56 46
REMARK SMILES IDX 35 47 55 48 36 49 39 50 54 51 74 52 37 53 38 54 53 56 75 57
REMARK SMILES IDX 40 58 23 59 24 60 33 61 25 62 26 63 32 64 34 65 27 66 28 67
REMARK SMILES IDX 29 68 30 69 31 70 57 71 58 72 67 73 59 74 60 75 66 76 68 77
REMARK SMILES IDX 61 78 62 79 63 80 64 81 65 82 41 83 42 84 51 85 43 86 44 87
REMARK SMILES IDX 50 88 52 89 45 90 46 91 47 92 48 93 49 94
REMARK H PARENT 7 5 81 20 11 25 73 44 39 55
REMARK Flexibility Score: inf
ROOT
ATOM      1  C   UNL A   1      32.151  29.210  25.245  1.00  0.00     0.117 C 
ENDROOT
BRANCH   1   2
ATOM      2  N   UNL A   1      31.971  29.513  23.850  1.00  0.00    -0.356 N 
ATOM      3  C   UNL A   1      31.145  28.860  22.985  1.00  0.00     0.223 C 
ATOM      4  O   UNL A   1      30.499  29.564  22.201  1.00  0.00    -0.275 OA
ATOM      5  H   UNL A   1      32.493  30.264  23.487  1.00  0.00     0.163 HD
BRANCH   3   6
ATOM      6  C   UNL A   1      31.190  27.341  22.796  1.00  0.00     0.081 C 
ATOM      7  C   UNL A   1      32.639  26.986  22.417  1.00  0.00     0.018 C 
BRANCH   6   8
ATOM      8  C   UNL A   1      30.562  26.319  23.792  1.00  0.00     0.033 C 
ATOM      9  C   UNL A   1      29.055  26.469  24.063  1.00  0.00     0.011 C 
BRANCH   8  10
ATOM     10  C   UNL A   1      31.103  24.854  23.777  1.00  0.00     0.166 C 
BRANCH  10  11
ATOM     11  C   UNL A   1      31.335  24.181  25.085  1.00  0.00     0.067 A 
ATOM     12  C   UNL A   1      30.627  23.152  25.686  1.00  0.00     0.137 A 
ATOM     13  N   UNL A   1      32.359  24.404  25.987  1.00  0.00    -0.329 N 
ATOM     14  N   UNL A   1      30.989  22.988  26.996  1.00  0.00    -0.245 NA
ATOM     15  C   UNL A   1      32.019  23.783  27.160  1.00  0.00     0.199 A 
BRANCH  13  16
ATOM     16  C   UNL A   1      33.700  24.928  25.802  1.00  0.00     0.088 C 
ATOM     17  C   UNL A   1      34.868  23.949  25.770  1.00  0.00     0.027 C 
ATOM     18  C   UNL A   1      34.603  24.831  24.598  1.00  0.00     0.027 C 
ENDBRANCH  13  16
ENDBRANCH  10  11
BRANCH  10  19
ATOM     19  O   UNL A   1      30.203  24.026  23.049  1.00  0.00    -0.387 OA
ATOM     20  H   UNL A   1      30.634  23.716  22.237  1.00  0.00     0.211 HD
ENDBRANCH  10  19
ENDBRANCH   8  10
ENDBRANCH   6   8
ENDBRANCH   3   6
ENDBRANCH   1   2
BRANCH   1  21
ATOM     21  C   UNL A   1      33.492  28.626  25.625  1.00  0.00     0.042 C 
BRANCH  21  22
ATOM     22  C   UNL A   1      33.706  28.665  27.130  1.00  0.00     0.118 C 
BRANCH  22  23
ATOM     23  N   UNL A   1      33.689  30.011  27.709  1.00  0.00    -0.352 N 
ATOM     24  C   UNL A   1      34.717  30.702  28.316  1.00  0.00     0.251 C 
ATOM     25  H   UNL A   1      32.829  30.487  27.657  1.00  0.00     0.163 HD
ATOM     26  O   UNL A   1      34.530  31.810  28.797  1.00  0.00    -0.269 OA
BRANCH  24  27
ATOM     27  C   UNL A   1      36.037  30.048  28.438  1.00  0.00     0.039 A 
ATOM     28  C   UNL A   1      36.920  30.107  27.356  1.00  0.00     0.014 A 
ATOM     29  C   UNL A   1      36.437  29.472  29.645  1.00  0.00     0.014 A 
ATOM     30  C   UNL A   1      38.239  29.685  27.523  1.00  0.00     0.010 A 
ATOM     31  C   UNL A   1      37.773  29.162  29.841  1.00  0.00     0.010 A 
ATOM     32  C   UNL A   1      38.690  29.264  28.784  1.00  0.00    -0.014 A 
BRANCH  32  33
ATOM     33  C   UNL A   1      40.106  28.903  29.035  1.00  0.00     0.031 A 
ATOM     34  C   UNL A   1      41.043  29.948  29.575  1.00  0.00     0.074 A 
ATOM     35  C   UNL A   1      40.568  27.690  28.675  1.00  0.00     0.049 A 
ATOM     36  N   UNL A   1      42.344  29.914  29.692  1.00  0.00    -0.248 NA
ATOM     37  C   UNL A   1      40.437  31.227  29.985  1.00  0.00     0.031 C 
ATOM     38  C   UNL A   1      39.769  26.617  28.079  1.00  0.00     0.029 A 
ATOM     39  N   UNL A   1      41.832  27.161  28.740  1.00  0.00    -0.354 N 
ATOM     40  C   UNL A   1      42.714  31.177  30.137  1.00  0.00     0.074 A 
ATOM     41  C   UNL A   1      41.508  31.970  30.219  1.00  0.00     0.031 C 
ATOM     42  C   UNL A   1      40.556  25.551  27.858  1.00  0.00     0.029 A 
ATOM     43  C   UNL A   1      41.921  25.877  28.257  1.00  0.00     0.049 A 
ATOM     44  H   UNL A   1      42.605  27.656  29.098  1.00  0.00     0.167 HD
ATOM     45  C   UNL A   1      43.945  31.629  30.473  1.00  0.00     0.037 A 
ATOM     46  C   UNL A   1      42.985  25.059  28.143  1.00  0.00     0.037 A 
ATOM     47  C   UNL A   1      45.126  30.809  30.455  1.00  0.00     0.049 A 
ATOM     48  C   UNL A   1      44.329  25.551  28.601  1.00  0.00     0.074 A 
ATOM     49  C   UNL A   1      46.411  31.137  30.844  1.00  0.00     0.029 A 
ATOM     50  N   UNL A   1      45.156  29.484  30.041  1.00  0.00    -0.354 N 
ATOM     51  N   UNL A   1      44.659  26.736  29.060  1.00  0.00    -0.248 NA
ATOM     52  C   UNL A   1      45.446  24.599  28.535  1.00  0.00     0.031 C 
ATOM     53  C   UNL A   1      47.224  30.013  30.651  1.00  0.00     0.029 A 
ATOM     54  C   UNL A   1      46.438  28.978  30.170  1.00  0.00     0.049 A 
ATOM     55  H   UNL A   1      44.381  28.979  29.705  1.00  0.00     0.167 HD
ATOM     56  C   UNL A   1      46.014  26.665  29.360  1.00  0.00     0.074 A 
ATOM     57  C   UNL A   1      46.441  25.318  29.038  1.00  0.00     0.031 C 
ATOM     58  C   UNL A   1      46.830  27.626  29.859  1.00  0.00     0.037 A 
BRANCH  45  59
ATOM     59  C   UNL A   1      44.058  33.067  30.895  1.00  0.00     0.058 A 
ATOM     60  C   UNL A   1      43.751  33.478  32.202  1.00  0.00     0.135 A 
ATOM     61  C   UNL A   1      44.453  34.052  29.976  1.00  0.00     0.135 A 
ATOM     62  F   UNL A   1      43.350  32.579  33.116  1.00  0.00    -0.206 F 
ATOM     63  C   UNL A   1      43.778  34.819  32.570  1.00  0.00     0.059 A 
ATOM     64  C   UNL A   1      44.517  35.397  30.330  1.00  0.00     0.059 A 
ATOM     65  F   UNL A   1      44.760  33.716  28.713  1.00  0.00    -0.206 F 
ATOM     66  C   UNL A   1      44.153  35.772  31.623  1.00  0.00     0.060 A 
BRANCH  66  67
ATOM     67  S   UNL A   1      44.154  37.512  32.101  1.00  0.00     0.124 S 
ATOM     68  O   UNL A   1      43.270  37.494  33.262  1.00  0.00    -0.237 OA
ATOM     69  O   UNL A   1      45.564  37.762  32.384  1.00  0.00    -0.237 OA
ATOM     70  O   UNL A   1      43.627  38.187  30.919  1.00  0.00    -0.744 OA
ENDBRANCH  66  67
ENDBRANCH  45  59
BRANCH  46  71
ATOM     71  C   UNL A   1      42.804  23.681  27.618  1.00  0.00     0.058 A 
ATOM     72  C   UNL A   1      42.610  22.602  28.493  1.00  0.00     0.135 A 
ATOM     73  C   UNL A   1      42.775  23.419  26.240  1.00  0.00     0.135 A 
ATOM     74  F   UNL A   1      42.633  22.803  29.819  1.00  0.00    -0.206 F 
ATOM     75  C   UNL A   1      42.396  21.310  28.023  1.00  0.00     0.059 A 
ATOM     76  C   UNL A   1      42.545  22.138  25.745  1.00  0.00     0.059 A 
ATOM     77  F   UNL A   1      42.938  24.420  25.362  1.00  0.00    -0.206 F 
ATOM     78  C   UNL A   1      42.361  21.089  26.645  1.00  0.00     0.060 A 
BRANCH  78  79
ATOM     79  S   UNL A   1      42.007  19.422  26.044  1.00  0.00     0.124 S 
ATOM     80  O   UNL A   1      42.442  18.605  27.172  1.00  0.00    -0.237 OA
ATOM     81  O   UNL A   1      40.567  19.477  25.813  1.00  0.00    -0.237 OA
ATOM     82  O   UNL A   1      42.823  19.322  24.838  1.00  0.00    -0.744 OA
ENDBRANCH  78  79
ENDBRANCH  46  71
BRANCH  58  83
ATOM     83  C   UNL A   1      48.258  27.247  30.125  1.00  0.00     0.058 A 
ATOM     84  C   UNL A   1      49.263  27.458  29.171  1.00  0.00     0.135 A 
ATOM     85  C   UNL A   1      48.631  26.739  31.379  1.00  0.00     0.135 A 
ATOM     86  F   UNL A   1      48.953  27.936  27.956  1.00  0.00    -0.206 F 
ATOM     87  C   UNL A   1      50.594  27.165  29.447  1.00  0.00     0.059 A 
ATOM     88  C   UNL A   1      49.958  26.459  31.683  1.00  0.00     0.059 A 
ATOM     89  F   UNL A   1      47.704  26.530  32.327  1.00  0.00    -0.206 F 
ATOM     90  C   UNL A   1      50.932  26.669  30.707  1.00  0.00     0.060 A 
BRANCH  90  91
ATOM     91  S   UNL A   1      52.669  26.342  31.074  1.00  0.00     0.124 S 
ATOM     92  O   UNL A   1      52.579  25.098  31.832  1.00  0.00    -0.237 OA
ATOM     93  O   UNL A   1      53.256  26.233  29.743  1.00  0.00    -0.237 OA
ATOM     94  O   UNL A   1      53.080  27.516  31.839  1.00  0.00    -0.744 OA
ENDBRANCH  90  91
ENDBRANCH  58  83
ENDBRANCH  32  33
ENDBRANCH  24  27
ENDBRANCH  22  23
ENDBRANCH  21  22
ENDBRANCH   1  21
TORSDOF 18
ENDMDL
MODEL 2
REMARK VINA RESULT:     -10.8      1.048      2.511
REMARK SMILES C[C@H]([C@H](C)C(=O)NCCCNC(=O)c1ccc(-c2c3nc(c(-c4c(F)cc(S(=O)(=O)[O-])cc4F)c4ccc([nH]4)c(-c4c(F)cc(S(=O)(=O)[O-])cc4F)c4nc(c(-c5c(F)cc(S(=O)(=O)[O-])cc5F)c5ccc2[nH]5)C=C4)C=C3)cc1)[C@H](O)c1cncn1C1CC1
REMARK SMILES IDX 8 1 7 2 5 3 6 4 3 6 4 7 2 8 1 9 80 10 82 11 83 12 86 13
REMARK SMILES IDX 84 14 85 15 87 16 88 17 89 18 81 19 9 21 10 22 11 23 12 24
REMARK SMILES IDX 13 26 14 27 15 28 79 29 16 30 78 31 17 32 18 33 19 34 72 35
REMARK SMILES IDX 20 36 77 37 71 38 73 39 21 40 76 41 70 42 69 43 22 45 56 46
REMARK SMILES IDX 35 47 55 48 36 49 39 50 54 51 74 52 37 53 38 54 53 56 75 57
REMARK SMILES IDX 40 58 23 59 24 60 33 61 25 62 26 63 32 64 34 65 27 66 28 67
REMARK SMILES IDX 29 68 30 69 31 70 57 71 58 72 67 73 59 74 60 75 66 76 68 77
REMARK SMILES IDX 61 78 62 79 63 80 64 81 65 82 41 83 42 84 51 85 43 86 44 87
REMARK SMILES IDX 50 88 52 89 45 90 46 91 47 92 48 93 49 94
REMARK H PARENT 7 5 81 20 11 25 73 44 39 55
REMARK Flexibility Score: inf
ROOT
ATOM      1  C   UNL A   1      31.515  27.931  26.190  1.00  0.00     0.117 C 
ENDROOT
BRANCH   1   2
ATOM      2  N   UNL A   1      31.155  26.558  26.423  1.00  0.00    -0.356 N 
ATOM      3  C   UNL A   1      31.962  25.474  26.255  1.00  0.00     0.223 C 
ATOM      4  O   UNL A   1      31.904  24.602  27.128  1.00  0.00    -0.275 OA
ATOM      5  H   UNL A   1      30.237  26.386  26.734  1.00  0.00     0.163 HD
BRANCH   3   6
ATOM      6  C   UNL A   1      32.714  25.204  24.948  1.00  0.00     0.081 C 
ATOM      7  C   UNL A   1      33.996  24.440  25.327  1.00  0.00     0.018 C 
BRANCH   6   8
ATOM      8  C   UNL A   1      32.044  24.649  23.654  1.00  0.00     0.033 C 
ATOM      9  C   UNL A   1      30.634  24.054  23.818  1.00  0.00     0.011 C 
BRANCH   8  10
ATOM     10  C   UNL A   1      32.307  25.403  22.312  1.00  0.00     0.166 C 
BRANCH  10  11
ATOM     11  C   UNL A   1      32.577  26.866  22.373  1.00  0.00     0.067 A 
ATOM     12  C   UNL A   1      33.765  27.554  22.180  1.00  0.00     0.137 A 
ATOM     13  N   UNL A   1      31.673  27.889  22.593  1.00  0.00    -0.329 N 
ATOM     14  N   UNL A   1      33.663  28.859  22.577  1.00  0.00    -0.245 NA
ATOM     15  C   UNL A   1      32.392  29.027  22.853  1.00  0.00     0.199 A 
BRANCH  13  16
ATOM     16  C   UNL A   1      30.243  27.969  22.360  1.00  0.00     0.088 C 
ATOM     17  C   UNL A   1      29.299  27.379  23.401  1.00  0.00     0.027 C 
ATOM     18  C   UNL A   1      29.210  28.824  23.049  1.00  0.00     0.027 C 
ENDBRANCH  13  16
ENDBRANCH  10  11
BRANCH  10  19
ATOM     19  O   UNL A   1      33.420  24.813  21.650  1.00  0.00    -0.387 OA
ATOM     20  H   UNL A   1      34.070  25.501  21.434  1.00  0.00     0.211 HD
ENDBRANCH  10  19
ENDBRANCH   8  10
ENDBRANCH   6   8
ENDBRANCH   3   6
ENDBRANCH   1   2
BRANCH   1  21
ATOM     21  C   UNL A   1      32.992  28.245  26.250  1.00  0.00     0.042 C 
BRANCH  21  22
ATOM     22  C   UNL A   1      33.423  28.609  27.662  1.00  0.00     0.118 C 
BRANCH  22  23
ATOM     23  N   UNL A   1      33.512  30.050  27.915  1.00  0.00    -0.352 N 
ATOM     24  C   UNL A   1      34.618  30.799  28.257  1.00  0.00     0.251 C 
ATOM     25  H   UNL A   1      32.668  30.551  27.830  1.00  0.00     0.163 HD
ATOM     26  O   UNL A   1      34.518  31.996  28.485  1.00  0.00    -0.269 OA
BRANCH  24  27
ATOM     27  C   UNL A   1      35.919  30.114  28.411  1.00  0.00     0.039 A 
ATOM     28  C   UNL A   1      36.807  30.106  27.333  1.00  0.00     0.014 A 
ATOM     29  C   UNL A   1      36.297  29.577  29.642  1.00  0.00     0.014 A 
ATOM     30  C   UNL A   1      38.114  29.655  27.523  1.00  0.00     0.010 A 
ATOM     31  C   UNL A   1      37.624  29.239  29.858  1.00  0.00     0.010 A 
ATOM     32  C   UNL A   1      38.547  29.273  28.802  1.00  0.00    -0.014 A 
BRANCH  32  33
ATOM     33  C   UNL A   1      39.952  28.884  29.075  1.00  0.00     0.031 A 
ATOM     34  C   UNL A   1      40.899  29.907  29.639  1.00  0.00     0.074 A 
ATOM     35  C   UNL A   1      40.398  27.665  28.713  1.00  0.00     0.049 A 
ATOM     36  N   UNL A   1      42.196  29.847  29.778  1.00  0.00    -0.248 NA
ATOM     37  C   UNL A   1      40.310  31.193  30.049  1.00  0.00     0.031 C 
ATOM     38  C   UNL A   1      39.589  26.611  28.094  1.00  0.00     0.029 A 
ATOM     39  N   UNL A   1      41.651  27.112  28.795  1.00  0.00    -0.354 N 
ATOM     40  C   UNL A   1      42.582  31.100  30.239  1.00  0.00     0.074 A 
ATOM     41  C   UNL A   1      41.390  31.915  30.307  1.00  0.00     0.031 C 
ATOM     42  C   UNL A   1      40.360  25.533  27.879  1.00  0.00     0.029 A 
ATOM     43  C   UNL A   1      41.724  25.831  28.303  1.00  0.00     0.049 A 
ATOM     44  H   UNL A   1      42.426  27.590  29.170  1.00  0.00     0.167 HD
ATOM     45  C   UNL A   1      43.816  31.526  30.600  1.00  0.00     0.037 A 
ATOM     46  C   UNL A   1      42.775  24.994  28.202  1.00  0.00     0.037 A 
ATOM     47  C   UNL A   1      44.981  30.685  30.595  1.00  0.00     0.049 A 
ATOM     48  C   UNL A   1      44.120  25.457  28.687  1.00  0.00     0.074 A 
ATOM     49  C   UNL A   1      46.266  30.986  31.009  1.00  0.00     0.029 A 
ATOM     50  N   UNL A   1      44.994  29.363  30.172  1.00  0.00    -0.354 N 
ATOM     51  N   UNL A   1      44.463  26.632  29.161  1.00  0.00    -0.248 NA
ATOM     52  C   UNL A   1      45.219  24.485  28.632  1.00  0.00     0.031 C 
ATOM     53  C   UNL A   1      47.060  29.849  30.821  1.00  0.00     0.029 A 
ATOM     54  C   UNL A   1      46.264  28.832  30.319  1.00  0.00     0.049 A 
ATOM     55  H   UNL A   1      44.216  28.875  29.819  1.00  0.00     0.167 HD
ATOM     56  C   UNL A   1      45.811  26.533  29.483  1.00  0.00     0.074 A 
ATOM     57  C   UNL A   1      46.219  25.182  29.157  1.00  0.00     0.031 C 
ATOM     58  C   UNL A   1      46.636  27.475  30.003  1.00  0.00     0.037 A 
BRANCH  45  59
ATOM     59  C   UNL A   1      43.948  32.959  31.035  1.00  0.00     0.058 A 
ATOM     60  C   UNL A   1      43.744  33.345  32.370  1.00  0.00     0.135 A 
ATOM     61  C   UNL A   1      44.256  33.963  30.104  1.00  0.00     0.135 A 
ATOM     62  F   UNL A   1      43.429  32.428  33.299  1.00  0.00    -0.206 F 
ATOM     63  C   UNL A   1      43.787  34.680  32.757  1.00  0.00     0.059 A 
ATOM     64  C   UNL A   1      44.335  35.302  30.474  1.00  0.00     0.059 A 
ATOM     65  F   UNL A   1      44.462  33.650  28.815  1.00  0.00    -0.206 F 
ATOM     66  C   UNL A   1      44.074  35.653  31.799  1.00  0.00     0.060 A 
BRANCH  66  67
ATOM     67  S   UNL A   1      44.096  37.385  32.304  1.00  0.00     0.124 S 
ATOM     68  O   UNL A   1      43.083  37.393  33.355  1.00  0.00    -0.237 OA
ATOM     69  O   UNL A   1      45.473  37.567  32.752  1.00  0.00    -0.237 OA
ATOM     70  O   UNL A   1      43.739  38.098  31.081  1.00  0.00    -0.744 OA
ENDBRANCH  66  67
ENDBRANCH  45  59
BRANCH  46  71
ATOM     71  C   UNL A   1      42.577  23.623  27.663  1.00  0.00     0.058 A 
ATOM     72  C   UNL A   1      42.635  23.382  26.282  1.00  0.00     0.135 A 
ATOM     73  C   UNL A   1      42.374  22.524  28.511  1.00  0.00     0.135 A 
ATOM     74  F   UNL A   1      42.824  24.402  25.432  1.00  0.00    -0.206 F 
ATOM     75  C   UNL A   1      42.496  22.101  25.759  1.00  0.00     0.059 A 
ATOM     76  C   UNL A   1      42.250  21.230  28.013  1.00  0.00     0.059 A 
ATOM     77  F   UNL A   1      42.329  22.700  29.841  1.00  0.00    -0.206 F 
ATOM     78  C   UNL A   1      42.308  21.029  26.634  1.00  0.00     0.060 A 
BRANCH  78  79
ATOM     79  S   UNL A   1      42.205  19.360  25.950  1.00  0.00     0.124 S 
ATOM     80  O   UNL A   1      42.728  18.557  27.050  1.00  0.00    -0.237 OA
ATOM     81  O   UNL A   1      40.777  19.224  25.682  1.00  0.00    -0.237 OA
ATOM     82  O   UNL A   1      43.052  19.434  24.762  1.00  0.00    -0.744 OA
ENDBRANCH  78  79
ENDBRANCH  46  71
BRANCH  58  83
ATOM     83  C   UNL A   1      48.052  27.068  30.291  1.00  0.00     0.058 A 
ATOM     84  C   UNL A   1      49.087  27.321  29.381  1.00  0.00     0.135 A 
ATOM     85  C   UNL A   1      48.382  26.487  31.525  1.00  0.00     0.135 A 
ATOM     86  F   UNL A   1      48.819  27.869  28.186  1.00  0.00    -0.206 F 
ATOM     87  C   UNL A   1      50.407  26.999  29.680  1.00  0.00     0.059 A 
ATOM     88  C   UNL A   1      49.697  26.178  31.854  1.00  0.00     0.059 A 
ATOM     89  F   UNL A   1      47.425  26.236  32.432  1.00  0.00    -0.206 F 
ATOM     90  C   UNL A   1      50.702  26.431  30.921  1.00  0.00     0.060 A 
BRANCH  90  91
ATOM     91  S   UNL A   1      52.424  26.067  31.321  1.00  0.00     0.124 S 
ATOM     92  O   UNL A   1      52.765  27.187  32.192  1.00  0.00    -0.237 OA
ATOM     93  O   UNL A   1      52.327  24.765  31.972  1.00  0.00    -0.237 OA
ATOM     94  O   UNL A   1      53.081  26.061  30.017  1.00  0.00    -0.744 OA
ENDBRANCH  90  91
ENDBRANCH  58  83
ENDBRANCH  32  33
ENDBRANCH  24  27
ENDBRANCH  22  23
ENDBRANCH  21  22
ENDBRANCH   1  21
TORSDOF 18
ENDMDL
MODEL 3
REMARK VINA RESULT:     -10.6      3.155      9.408
REMARK SMILES C[C@H]([C@H](C)C(=O)NCCCNC(=O)c1ccc(-c2c3nc(c(-c4c(F)cc(S(=O)(=O)[O-])cc4F)c4ccc([nH]4)c(-c4c(F)cc(S(=O)(=O)[O-])cc4F)c4nc(c(-c5c(F)cc(S(=O)(=O)[O-])cc5F)c5ccc2[nH]5)C=C4)C=C3)cc1)[C@H](O)c1cncn1C1CC1
REMARK SMILES IDX 8 1 7 2 5 3 6 4 3 6 4 7 2 8 1 9 80 10 82 11 83 12 86 13
REMARK SMILES IDX 84 14 85 15 87 16 88 17 89 18 81 19 9 21 10 22 11 23 12 24
REMARK SMILES IDX 13 26 14 27 15 28 79 29 16 30 78 31 17 32 18 33 19 34 72 35
REMARK SMILES IDX 20 36 77 37 71 38 73 39 21 40 76 41 70 42 69 43 22 45 56 46
REMARK SMILES IDX 35 47 55 48 36 49 39 50 54 51 74 52 37 53 38 54 53 56 75 57
REMARK SMILES IDX 40 58 23 59 24 60 33 61 25 62 26 63 32 64 34 65 27 66 28 67
REMARK SMILES IDX 29 68 30 69 31 70 57 71 58 72 67 73 59 74 60 75 66 76 68 77
REMARK SMILES IDX 61 78 62 79 63 80 64 81 65 82 41 83 42 84 51 85 43 86 44 87
REMARK SMILES IDX 50 88 52 89 45 90 46 91 47 92 48 93 49 94
REMARK H PARENT 7 5 81 20 11 25 73 44 39 55
REMARK Flexibility Score: inf
ROOT
ATOM      1  C   UNL A   1      35.331  21.423  25.430  1.00  0.00     0.117 C 
ENDROOT
BRANCH   1   2
ATOM      2  N   UNL A   1      34.217  20.742  26.035  1.00  0.00    -0.356 N 
ATOM      3  C   UNL A   1      32.948  20.682  25.543  1.00  0.00     0.223 C 
ATOM      4  O   UNL A   1      32.379  19.587  25.617  1.00  0.00    -0.275 OA
ATOM      5  H   UNL A   1      34.388  20.276  26.884  1.00  0.00     0.163 HD
BRANCH   3   6
ATOM      6  C   UNL A   1      32.156  21.935  25.156  1.00  0.00     0.081 C 
ATOM      7  C   UNL A   1      32.104  22.828  26.409  1.00  0.00     0.018 C 
BRANCH   6   8
ATOM      8  C   UNL A   1      32.396  22.749  23.848  1.00  0.00     0.033 C 
ATOM      9  C   UNL A   1      32.642  21.928  22.570  1.00  0.00     0.011 C 
BRANCH   8  10
ATOM     10  C   UNL A   1      31.596  24.076  23.654  1.00  0.00     0.166 C 
BRANCH  10  11
ATOM     11  C   UNL A   1      32.272  25.204  22.955  1.00  0.00     0.067 A 
ATOM     12  C   UNL A   1      32.388  25.459  21.598  1.00  0.00     0.137 A 
ATOM     13  N   UNL A   1      32.908  26.296  23.518  1.00  0.00    -0.329 N 
ATOM     14  N   UNL A   1      33.302  26.445  21.344  1.00  0.00    -0.245 NA
ATOM     15  C   UNL A   1      33.625  26.913  22.526  1.00  0.00     0.199 A 
BRANCH  13  16
ATOM     16  C   UNL A   1      32.733  26.946  24.803  1.00  0.00     0.088 C 
ATOM     17  C   UNL A   1      33.432  26.355  26.022  1.00  0.00     0.027 C 
ATOM     18  C   UNL A   1      33.721  27.756  25.605  1.00  0.00     0.027 C 
ENDBRANCH  13  16
ENDBRANCH  10  11
BRANCH  10  19
ATOM     19  O   UNL A   1      30.402  23.807  22.929  1.00  0.00    -0.387 OA
ATOM     20  H   UNL A   1      30.399  24.324  22.107  1.00  0.00     0.211 HD
ENDBRANCH  10  19
ENDBRANCH   8  10
ENDBRANCH   6   8
ENDBRANCH   3   6
ENDBRANCH   1   2
BRANCH   1  21
ATOM     21  C   UNL A   1      35.665  22.781  26.003  1.00  0.00     0.042 C 
BRANCH  21  22
ATOM     22  C   UNL A   1      36.902  23.370  25.344  1.00  0.00     0.118 C 
BRANCH  22  23
ATOM     23  N   UNL A   1      38.113  22.557  25.494  1.00  0.00    -0.352 N 
ATOM     24  C   UNL A   1      39.287  22.870  26.147  1.00  0.00     0.251 C 
ATOM     25  H   UNL A   1      38.084  21.668  25.072  1.00  0.00     0.163 HD
ATOM     26  O   UNL A   1      40.233  22.096  26.140  1.00  0.00    -0.269 OA
BRANCH  24  27
ATOM     27  C   UNL A   1      39.406  24.193  26.797  1.00  0.00     0.039 A 
ATOM     28  C   UNL A   1      38.948  24.342  28.108  1.00  0.00     0.014 A 
ATOM     29  C   UNL A   1      40.059  25.245  26.153  1.00  0.00     0.014 A 
ATOM     30  C   UNL A   1      39.241  25.512  28.809  1.00  0.00     0.010 A 
ATOM     31  C   UNL A   1      40.448  26.355  26.886  1.00  0.00     0.010 A 
ATOM     32  C   UNL A   1      40.044  26.502  28.221  1.00  0.00    -0.014 A 
BRANCH  32  33
ATOM     33  C   UNL A   1      40.467  27.715  28.962  1.00  0.00     0.031 A 
ATOM     34  C   UNL A   1      41.798  27.718  29.663  1.00  0.00     0.074 A 
ATOM     35  C   UNL A   1      39.620  28.754  29.097  1.00  0.00     0.049 A 
ATOM     36  N   UNL A   1      42.284  28.582  30.513  1.00  0.00    -0.248 NA
ATOM     37  C   UNL A   1      42.674  26.560  29.416  1.00  0.00     0.031 C 
ATOM     38  C   UNL A   1      38.276  28.838  28.519  1.00  0.00     0.029 A 
ATOM     39  N   UNL A   1      39.757  29.933  29.784  1.00  0.00    -0.354 N 
ATOM     40  C   UNL A   1      43.494  28.049  30.940  1.00  0.00     0.074 A 
ATOM     41  C   UNL A   1      43.643  26.763  30.296  1.00  0.00     0.031 C 
ATOM     42  C   UNL A   1      37.725  30.016  28.853  1.00  0.00     0.029 A 
ATOM     43  C   UNL A   1      38.656  30.753  29.702  1.00  0.00     0.049 A 
ATOM     44  H   UNL A   1      40.568  30.171  30.289  1.00  0.00     0.167 HD
ATOM     45  C   UNL A   1      44.412  28.592  31.774  1.00  0.00     0.037 A 
ATOM     46  C   UNL A   1      38.423  31.959  30.254  1.00  0.00     0.037 A 
ATOM     47  C   UNL A   1      44.285  29.902  32.351  1.00  0.00     0.049 A 
ATOM     48  C   UNL A   1      39.491  32.583  31.108  1.00  0.00     0.074 A 
ATOM     49  C   UNL A   1      45.184  30.585  33.149  1.00  0.00     0.029 A 
ATOM     50  N   UNL A   1      43.190  30.738  32.171  1.00  0.00    -0.354 N 
ATOM     51  N   UNL A   1      40.649  32.085  31.471  1.00  0.00    -0.248 NA
ATOM     52  C   UNL A   1      39.228  33.933  31.624  1.00  0.00     0.031 C 
ATOM     53  C   UNL A   1      44.626  31.830  33.465  1.00  0.00     0.029 A 
ATOM     54  C   UNL A   1      43.393  31.933  32.839  1.00  0.00     0.049 A 
ATOM     55  H   UNL A   1      42.388  30.513  31.647  1.00  0.00     0.167 HD
ATOM     56  C   UNL A   1      41.265  33.069  32.237  1.00  0.00     0.074 A 
ATOM     57  C   UNL A   1      40.352  34.193  32.279  1.00  0.00     0.031 C 
ATOM     58  C   UNL A   1      42.475  33.043  32.847  1.00  0.00     0.037 A 
BRANCH  45  59
ATOM     59  C   UNL A   1      45.627  27.767  32.090  1.00  0.00     0.058 A 
ATOM     60  C   UNL A   1      45.655  26.882  33.180  1.00  0.00     0.135 A 
ATOM     61  C   UNL A   1      46.790  27.880  31.311  1.00  0.00     0.135 A 
ATOM     62  F   UNL A   1      44.576  26.749  33.970  1.00  0.00    -0.206 F 
ATOM     63  C   UNL A   1      46.806  26.179  33.520  1.00  0.00     0.059 A 
ATOM     64  C   UNL A   1      47.944  27.163  31.613  1.00  0.00     0.059 A 
ATOM     65  F   UNL A   1      46.819  28.709  30.256  1.00  0.00    -0.206 F 
ATOM     66  C   UNL A   1      47.949  26.334  32.735  1.00  0.00     0.060 A 
BRANCH  66  67
ATOM     67  S   UNL A   1      49.447  25.444  33.203  1.00  0.00     0.124 S 
ATOM     68  O   UNL A   1      50.283  26.528  33.707  1.00  0.00    -0.237 OA
ATOM     69  O   UNL A   1      48.956  24.505  34.208  1.00  0.00    -0.237 OA
ATOM     70  O   UNL A   1      49.886  24.840  31.949  1.00  0.00    -0.744 OA
ENDBRANCH  66  67
ENDBRANCH  45  59
BRANCH  46  71
ATOM     71  C   UNL A   1      37.147  32.666  29.972  1.00  0.00     0.058 A 
ATOM     72  C   UNL A   1      36.005  32.420  30.748  1.00  0.00     0.135 A 
ATOM     73  C   UNL A   1      37.053  33.631  28.958  1.00  0.00     0.135 A 
ATOM     74  F   UNL A   1      36.047  31.503  31.727  1.00  0.00    -0.206 F 
ATOM     75  C   UNL A   1      34.813  33.101  30.530  1.00  0.00     0.059 A 
ATOM     76  C   UNL A   1      35.875  34.340  28.731  1.00  0.00     0.059 A 
ATOM     77  F   UNL A   1      38.122  33.917  28.199  1.00  0.00    -0.206 F 
ATOM     78  C   UNL A   1      34.759  34.065  29.520  1.00  0.00     0.060 A 
BRANCH  78  79
ATOM     79  S   UNL A   1      33.229  34.998  29.294  1.00  0.00     0.124 S 
ATOM     80  O   UNL A   1      33.731  36.264  28.770  1.00  0.00    -0.237 OA
ATOM     81  O   UNL A   1      32.494  34.162  28.350  1.00  0.00    -0.237 OA
ATOM     82  O   UNL A   1      32.667  35.049  30.642  1.00  0.00    -0.744 OA
ENDBRANCH  78  79
ENDBRANCH  46  71
BRANCH  58  83
ATOM     83  C   UNL A   1      42.902  34.282  33.580  1.00  0.00     0.058 A 
ATOM     84  C   UNL A   1      42.616  34.465  34.940  1.00  0.00     0.135 A 
ATOM     85  C   UNL A   1      43.671  35.257  32.928  1.00  0.00     0.135 A 
ATOM     86  F   UNL A   1      41.878  33.561  35.604  1.00  0.00    -0.206 F 
ATOM     87  C   UNL A   1      43.069  35.583  35.630  1.00  0.00     0.059 A 
ATOM     88  C   UNL A   1      44.153  36.373  33.603  1.00  0.00     0.059 A 
ATOM     89  F   UNL A   1      43.979  35.120  31.629  1.00  0.00    -0.206 F 
ATOM     90  C   UNL A   1      43.841  36.531  34.953  1.00  0.00     0.060 A 
BRANCH  90  91
ATOM     91  S   UNL A   1      44.471  37.953  35.870  1.00  0.00     0.124 S 
ATOM     92  O   UNL A   1      45.886  37.620  35.990  1.00  0.00    -0.237 OA
ATOM     93  O   UNL A   1      44.153  39.065  34.981  1.00  0.00    -0.237 OA
ATOM     94  O   UNL A   1      43.709  37.917  37.115  1.00  0.00    -0.744 OA
ENDBRANCH  90  91
ENDBRANCH  58  83
ENDBRANCH  32  33
ENDBRANCH  24  27
ENDBRANCH  22  23
ENDBRANCH  21  22
ENDBRANCH   1  21
TORSDOF 18
ENDMDL
