MODEL 1
REMARK VINA RESULT:     -11.3      0.000      0.000
REMARK SMILES O=C(/C=C/c1ccc(O)c(O)c1)NCCCNC(=O)c1ccc(-c2c3nc(c(-c4c(F)cc(S(=O)(=O)[O-])cc4F)c4ccc([nH]4)c(-c4c(F)cc(S(=O)(=O)[O-])cc4F)c4nc(c(-c5c(F)cc(S(=O)(=O)[O-])cc5F)c5ccc2[nH]5)C=C4)C=C3)cc1
REMARK SMILES IDX 15 1 14 2 13 3 1 4 2 5 3 7 4 8 5 9 6 10 12 11 7 12 10 13
REMARK SMILES IDX 8 14 11 15 9 17 16 19 17 20 18 21 19 23 20 24 21 25 85 26
REMARK SMILES IDX 22 27 84 28 23 29 24 30 25 31 78 32 26 33 83 34 77 35 79 36
REMARK SMILES IDX 27 37 82 38 76 39 75 40 28 42 62 43 41 44 61 45 42 46 45 47
REMARK SMILES IDX 60 48 80 49 43 50 44 51 59 53 81 54 46 55 29 56 30 57 39 58
REMARK SMILES IDX 31 59 32 60 38 61 40 62 33 63 34 64 35 65 36 66 37 67 63 68
REMARK SMILES IDX 64 69 73 70 65 71 66 72 72 73 74 74 67 75 68 76 69 77 70 78
REMARK SMILES IDX 71 79 47 80 48 81 57 82 49 83 50 84 56 85 58 86 51 87 52 88
REMARK SMILES IDX 53 89 54 90 55 91
REMARK H PARENT 13 6 11 16 9 18 17 22 79 41 45 52
REMARK Flexibility Score: inf
ROOT
ATOM      1  C   UNL A   1      35.582  32.751  28.068  1.00  0.00     0.042 C 
ENDROOT
BRANCH   1   2
ATOM      2  C   UNL A   1      34.325  31.891  27.979  1.00  0.00     0.118 C 
BRANCH   2   3
ATOM      3  N   UNL A   1      34.491  30.745  27.105  1.00  0.00    -0.352 N 
ATOM      4  O   UNL A   1      32.340  29.961  27.292  1.00  0.00    -0.270 OA
ATOM      5  C   UNL A   1      33.479  29.858  26.849  1.00  0.00     0.244 C 
ATOM      6  H   UNL A   1      35.366  30.599  26.679  1.00  0.00     0.163 HD
BRANCH   5   7
ATOM      7  C   UNL A   1      33.797  28.730  25.931  1.00  0.00     0.072 C 
ATOM      8  C   UNL A   1      33.577  27.426  26.164  1.00  0.00     0.014 C 
BRANCH   8   9
ATOM      9  C   UNL A   1      33.881  26.357  25.201  1.00  0.00    -0.022 A 
ATOM     10  C   UNL A   1      34.345  25.090  25.598  1.00  0.00     0.012 A 
ATOM     11  C   UNL A   1      33.632  26.593  23.843  1.00  0.00     0.058 A 
ATOM     12  C   UNL A   1      34.579  24.082  24.653  1.00  0.00     0.051 A 
ATOM     13  C   UNL A   1      33.865  25.589  22.913  1.00  0.00     0.157 A 
ATOM     14  C   UNL A   1      34.336  24.342  23.310  1.00  0.00     0.157 A 
BRANCH  13  15
ATOM     15  O   UNL A   1      33.620  25.838  21.593  1.00  0.00    -0.504 OA
ATOM     16  H   UNL A   1      33.604  25.131  20.978  1.00  0.00     0.293 HD
ENDBRANCH  13  15
BRANCH  14  17
ATOM     17  O   UNL A   1      34.537  23.398  22.342  1.00  0.00    -0.504 OA
ATOM     18  H   UNL A   1      34.052  22.597  22.360  1.00  0.00     0.293 HD
ENDBRANCH  14  17
ENDBRANCH   8   9
ENDBRANCH   5   7
ENDBRANCH   2   3
ENDBRANCH   1   2
BRANCH   1  19
ATOM     19  C   UNL A   1      36.224  32.814  29.453  1.00  0.00     0.118 C 
BRANCH  19  20
ATOM     20  N   UNL A   1      35.864  31.693  30.311  1.00  0.00    -0.352 N 
ATOM     21  C   UNL A   1      36.556  30.544  30.615  1.00  0.00     0.251 C 
ATOM     22  H   UNL A   1      34.984  31.770  30.744  1.00  0.00     0.163 HD
ATOM     23  O   UNL A   1      36.000  29.666  31.271  1.00  0.00    -0.269 OA
BRANCH  21  24
ATOM     24  C   UNL A   1      37.941  30.337  30.135  1.00  0.00     0.039 A 
ATOM     25  C   UNL A   1      38.988  30.405  31.060  1.00  0.00     0.014 A 
ATOM     26  C   UNL A   1      38.221  30.087  28.788  1.00  0.00     0.014 A 
ATOM     27  C   UNL A   1      40.298  30.136  30.653  1.00  0.00     0.010 A 
ATOM     28  C   UNL A   1      39.518  29.752  28.397  1.00  0.00     0.010 A 
ATOM     29  C   UNL A   1      40.569  29.756  29.328  1.00  0.00    -0.014 A 
BRANCH  29  30
ATOM     30  C   UNL A   1      41.926  29.310  28.914  1.00  0.00     0.031 A 
ATOM     31  C   UNL A   1      43.058  30.294  28.802  1.00  0.00     0.074 A 
ATOM     32  C   UNL A   1      42.120  28.021  28.564  1.00  0.00     0.049 A 
ATOM     33  N   UNL A   1      44.279  30.101  28.372  1.00  0.00    -0.248 NA
ATOM     34  C   UNL A   1      42.777  31.679  29.208  1.00  0.00     0.031 C 
ATOM     35  C   UNL A   1      41.094  26.975  28.593  1.00  0.00     0.029 A 
ATOM     36  N   UNL A   1      43.237  27.372  28.100  1.00  0.00    -0.354 N 
ATOM     37  C   UNL A   1      44.909  31.338  28.444  1.00  0.00     0.074 A 
ATOM     38  C   UNL A   1      43.920  32.284  28.918  1.00  0.00     0.031 C 
ATOM     39  C   UNL A   1      41.632  25.817  28.181  1.00  0.00     0.029 A 
ATOM     40  C   UNL A   1      43.025  26.044  27.811  1.00  0.00     0.049 A 
ATOM     41  H   UNL A   1      44.108  27.816  27.985  1.00  0.00     0.167 HD
ATOM     42  C   UNL A   1      46.196  31.652  28.159  1.00  0.00     0.037 A 
ATOM     43  C   UNL A   1      43.850  25.115  27.288  1.00  0.00     0.037 A 
ATOM     44  C   UNL A   1      47.179  30.703  27.697  1.00  0.00     0.049 A 
ATOM     45  C   UNL A   1      45.265  25.497  26.946  1.00  0.00     0.074 A 
ATOM     46  C   UNL A   1      48.521  30.916  27.434  1.00  0.00     0.029 A 
ATOM     47  N   UNL A   1      46.926  29.368  27.417  1.00  0.00    -0.354 N 
ATOM     48  N   UNL A   1      45.861  26.658  27.084  1.00  0.00    -0.248 NA
ATOM     49  C   UNL A   1      46.120  24.446  26.379  1.00  0.00     0.031 C 
ATOM     50  C   UNL A   1      49.066  29.724  26.943  1.00  0.00     0.029 A 
ATOM     51  C   UNL A   1      48.079  28.753  26.954  1.00  0.00     0.049 A 
ATOM     52  H   UNL A   1      46.055  28.922  27.531  1.00  0.00     0.167 HD
ATOM     53  C   UNL A   1      47.167  26.469  26.641  1.00  0.00     0.074 A 
ATOM     54  C   UNL A   1      47.277  25.079  26.250  1.00  0.00     0.031 C 
ATOM     55  C   UNL A   1      48.180  27.367  26.564  1.00  0.00     0.037 A 
BRANCH  42  56
ATOM     56  C   UNL A   1      46.622  33.086  28.332  1.00  0.00     0.058 A 
ATOM     57  C   UNL A   1      46.489  34.026  27.297  1.00  0.00     0.135 A 
ATOM     58  C   UNL A   1      47.125  33.539  29.564  1.00  0.00     0.135 A 
ATOM     59  F   UNL A   1      46.026  33.648  26.095  1.00  0.00    -0.206 F 
ATOM     60  C   UNL A   1      46.867  35.354  27.467  1.00  0.00     0.059 A 
ATOM     61  C   UNL A   1      47.480  34.870  29.765  1.00  0.00     0.059 A 
ATOM     62  F   UNL A   1      47.270  32.685  30.589  1.00  0.00    -0.206 F 
ATOM     63  C   UNL A   1      47.361  35.767  28.706  1.00  0.00     0.060 A 
BRANCH  63  64
ATOM     64  S   UNL A   1      47.842  37.495  28.909  1.00  0.00     0.124 S 
ATOM     65  O   UNL A   1      46.550  38.129  29.158  1.00  0.00    -0.237 OA
ATOM     66  O   UNL A   1      48.747  37.435  30.053  1.00  0.00    -0.237 OA
ATOM     67  O   UNL A   1      48.469  37.828  27.634  1.00  0.00    -0.744 OA
ENDBRANCH  63  64
ENDBRANCH  42  56
BRANCH  43  68
ATOM     68  C   UNL A   1      43.358  23.731  27.054  1.00  0.00     0.058 A 
ATOM     69  C   UNL A   1      43.038  23.286  25.762  1.00  0.00     0.135 A 
ATOM     70  C   UNL A   1      43.207  22.821  28.112  1.00  0.00     0.135 A 
ATOM     71  F   UNL A   1      43.156  24.121  24.718  1.00  0.00    -0.206 F 
ATOM     72  C   UNL A   1      42.571  21.997  25.528  1.00  0.00     0.059 A 
ATOM     73  C   UNL A   1      42.770  21.517  27.901  1.00  0.00     0.059 A 
ATOM     74  F   UNL A   1      43.513  23.190  29.365  1.00  0.00    -0.206 F 
ATOM     75  C   UNL A   1      42.444  21.118  26.606  1.00  0.00     0.060 A 
BRANCH  75  76
ATOM     76  S   UNL A   1      41.883  19.432  26.283  1.00  0.00     0.124 S 
ATOM     77  O   UNL A   1      42.346  18.734  27.476  1.00  0.00    -0.237 OA
ATOM     78  O   UNL A   1      40.438  19.608  26.167  1.00  0.00    -0.237 OA
ATOM     79  O   UNL A   1      42.566  19.082  25.041  1.00  0.00    -0.744 OA
ENDBRANCH  75  76
ENDBRANCH  43  68
BRANCH  55  80
ATOM     80  C   UNL A   1      49.508  26.873  26.056  1.00  0.00     0.058 A 
ATOM     81  C   UNL A   1      49.907  27.066  24.725  1.00  0.00     0.135 A 
ATOM     82  C   UNL A   1      50.413  26.241  26.926  1.00  0.00     0.135 A 
ATOM     83  F   UNL A   1      49.078  27.657  23.850  1.00  0.00    -0.206 F 
ATOM     84  C   UNL A   1      51.148  26.630  24.267  1.00  0.00     0.059 A 
ATOM     85  C   UNL A   1      51.670  25.825  26.497  1.00  0.00     0.059 A 
ATOM     86  F   UNL A   1      50.086  26.038  28.212  1.00  0.00    -0.206 F 
ATOM     87  C   UNL A   1      52.024  26.014  25.162  1.00  0.00     0.060 A 
BRANCH  87  88
ATOM     88  S   UNL A   1      53.643  25.487  24.562  1.00  0.00     0.124 S 
ATOM     89  O   UNL A   1      53.654  24.079  24.942  1.00  0.00    -0.237 OA
ATOM     90  O   UNL A   1      53.548  25.758  23.131  1.00  0.00    -0.237 OA
ATOM     91  O   UNL A   1      54.573  26.343  25.295  1.00  0.00    -0.744 OA
ENDBRANCH  87  88
ENDBRANCH  55  80
ENDBRANCH  29  30
ENDBRANCH  21  24
ENDBRANCH  19  20
ENDBRANCH   1  19
TORSDOF 16
ENDMDL
MODEL 2
REMARK VINA RESULT:     -11.3      6.826     12.541
REMARK SMILES O=C(/C=C/c1ccc(O)c(O)c1)NCCCNC(=O)c1ccc(-c2c3nc(c(-c4c(F)cc(S(=O)(=O)[O-])cc4F)c4ccc([nH]4)c(-c4c(F)cc(S(=O)(=O)[O-])cc4F)c4nc(c(-c5c(F)cc(S(=O)(=O)[O-])cc5F)c5ccc2[nH]5)C=C4)C=C3)cc1
REMARK SMILES IDX 15 1 14 2 13 3 1 4 2 5 3 7 4 8 5 9 6 10 12 11 7 12 10 13
REMARK SMILES IDX 8 14 11 15 9 17 16 19 17 20 18 21 19 23 20 24 21 25 85 26
REMARK SMILES IDX 22 27 84 28 23 29 24 30 25 31 78 32 26 33 83 34 77 35 79 36
REMARK SMILES IDX 27 37 82 38 76 39 75 40 28 42 62 43 41 44 61 45 42 46 45 47
REMARK SMILES IDX 60 48 80 49 43 50 44 51 59 53 81 54 46 55 29 56 30 57 39 58
REMARK SMILES IDX 31 59 32 60 38 61 40 62 33 63 34 64 35 65 36 66 37 67 63 68
REMARK SMILES IDX 64 69 73 70 65 71 66 72 72 73 74 74 67 75 68 76 69 77 70 78
REMARK SMILES IDX 71 79 47 80 48 81 57 82 49 83 50 84 56 85 58 86 51 87 52 88
REMARK SMILES IDX 53 89 54 90 55 91
REMARK H PARENT 13 6 11 16 9 18 17 22 79 41 45 52
REMARK Flexibility Score: inf
ROOT
ATOM      1  C   UNL A   1      40.597  21.935  27.417  1.00  0.00     0.042 C 
ENDROOT
BRANCH   1   2
ATOM      2  C   UNL A   1      39.832  21.616  26.135  1.00  0.00     0.118 C 
BRANCH   2   3
ATOM      3  N   UNL A   1      38.449  22.054  26.186  1.00  0.00    -0.352 N 
ATOM      4  O   UNL A   1      37.647  20.559  24.637  1.00  0.00    -0.270 OA
ATOM      5  C   UNL A   1      37.469  21.494  25.410  1.00  0.00     0.244 C 
ATOM      6  H   UNL A   1      38.207  22.781  26.802  1.00  0.00     0.163 HD
BRANCH   5   7
ATOM      7  C   UNL A   1      36.096  22.047  25.570  1.00  0.00     0.072 C 
ATOM      8  C   UNL A   1      35.767  23.209  26.158  1.00  0.00     0.014 C 
BRANCH   8   9
ATOM      9  C   UNL A   1      34.392  23.721  26.254  1.00  0.00    -0.022 A 
ATOM     10  C   UNL A   1      33.995  24.939  25.673  1.00  0.00     0.012 A 
ATOM     11  C   UNL A   1      33.430  22.929  26.892  1.00  0.00     0.058 A 
ATOM     12  C   UNL A   1      32.664  25.370  25.747  1.00  0.00     0.051 A 
ATOM     13  C   UNL A   1      32.113  23.363  26.961  1.00  0.00     0.157 A 
ATOM     14  C   UNL A   1      31.729  24.574  26.395  1.00  0.00     0.157 A 
BRANCH  13  15
ATOM     15  O   UNL A   1      31.189  22.579  27.591  1.00  0.00    -0.504 OA
ATOM     16  H   UNL A   1      30.364  22.942  27.849  1.00  0.00     0.293 HD
ENDBRANCH  13  15
BRANCH  14  17
ATOM     17  O   UNL A   1      30.415  24.936  26.494  1.00  0.00    -0.504 OA
ATOM     18  H   UNL A   1      30.124  25.752  26.136  1.00  0.00     0.293 HD
ENDBRANCH  14  17
ENDBRANCH   8   9
ENDBRANCH   5   7
ENDBRANCH   2   3
ENDBRANCH   1   2
BRANCH   1  19
ATOM     19  C   UNL A   1      41.775  22.891  27.244  1.00  0.00     0.118 C 
BRANCH  19  20
ATOM     20  N   UNL A   1      41.624  23.800  26.115  1.00  0.00    -0.352 N 
ATOM     21  C   UNL A   1      41.378  25.152  26.085  1.00  0.00     0.251 C 
ATOM     22  H   UNL A   1      41.714  23.377  25.231  1.00  0.00     0.163 HD
ATOM     23  O   UNL A   1      41.162  25.697  25.004  1.00  0.00    -0.269 OA
BRANCH  21  24
ATOM     24  C   UNL A   1      41.333  25.948  27.332  1.00  0.00     0.039 A 
ATOM     25  C   UNL A   1      42.372  26.848  27.590  1.00  0.00     0.014 A 
ATOM     26  C   UNL A   1      40.289  25.813  28.252  1.00  0.00     0.014 A 
ATOM     27  C   UNL A   1      42.319  27.672  28.719  1.00  0.00     0.010 A 
ATOM     28  C   UNL A   1      40.203  26.682  29.340  1.00  0.00     0.010 A 
ATOM     29  C   UNL A   1      41.209  27.632  29.577  1.00  0.00    -0.014 A 
BRANCH  29  30
ATOM     30  C   UNL A   1      41.057  28.609  30.689  1.00  0.00     0.031 A 
ATOM     31  C   UNL A   1      41.901  28.500  31.929  1.00  0.00     0.074 A 
ATOM     32  C   UNL A   1      40.098  29.556  30.611  1.00  0.00     0.049 A 
ATOM     33  N   UNL A   1      41.843  29.205  33.031  1.00  0.00    -0.248 NA
ATOM     34  C   UNL A   1      42.931  27.450  31.941  1.00  0.00     0.031 C 
ATOM     35  C   UNL A   1      39.188  29.744  29.477  1.00  0.00     0.029 A 
ATOM     36  N   UNL A   1      39.715  30.526  31.503  1.00  0.00    -0.354 N 
ATOM     37  C   UNL A   1      42.818  28.680  33.870  1.00  0.00     0.074 A 
ATOM     38  C   UNL A   1      43.423  27.568  33.166  1.00  0.00     0.031 C 
ATOM     39  C   UNL A   1      38.366  30.772  29.737  1.00  0.00     0.029 A 
ATOM     40  C   UNL A   1      38.654  31.287  31.072  1.00  0.00     0.049 A 
ATOM     41  H   UNL A   1      40.160  30.664  32.371  1.00  0.00     0.167 HD
ATOM     42  C   UNL A   1      43.188  29.097  35.106  1.00  0.00     0.037 A 
ATOM     43  C   UNL A   1      37.973  32.274  31.686  1.00  0.00     0.037 A 
ATOM     44  C   UNL A   1      42.589  30.212  35.798  1.00  0.00     0.049 A 
ATOM     45  C   UNL A   1      38.379  32.697  33.072  1.00  0.00     0.074 A 
ATOM     46  C   UNL A   1      42.932  30.744  37.029  1.00  0.00     0.029 A 
ATOM     47  N   UNL A   1      41.518  30.958  35.327  1.00  0.00    -0.354 N 
ATOM     48  N   UNL A   1      39.348  32.231  33.824  1.00  0.00    -0.248 NA
ATOM     49  C   UNL A   1      37.602  33.778  33.694  1.00  0.00     0.031 C 
ATOM     50  C   UNL A   1      42.034  31.774  37.327  1.00  0.00     0.029 A 
ATOM     51  C   UNL A   1      41.167  31.924  36.258  1.00  0.00     0.049 A 
ATOM     52  H   UNL A   1      41.072  30.821  34.461  1.00  0.00     0.167 HD
ATOM     53  C   UNL A   1      39.310  32.977  34.998  1.00  0.00     0.074 A 
ATOM     54  C   UNL A   1      38.235  33.936  34.847  1.00  0.00     0.031 C 
ATOM     55  C   UNL A   1      40.093  32.875  36.100  1.00  0.00     0.037 A 
BRANCH  42  56
ATOM     56  C   UNL A   1      44.291  28.342  35.799  1.00  0.00     0.058 A 
ATOM     57  C   UNL A   1      44.022  27.262  36.655  1.00  0.00     0.135 A 
ATOM     58  C   UNL A   1      45.638  28.672  35.568  1.00  0.00     0.135 A 
ATOM     59  F   UNL A   1      42.755  26.910  36.922  1.00  0.00    -0.206 F 
ATOM     60  C   UNL A   1      45.045  26.555  37.280  1.00  0.00     0.059 A 
ATOM     61  C   UNL A   1      46.678  27.959  36.159  1.00  0.00     0.059 A 
ATOM     62  F   UNL A   1      45.954  29.693  34.757  1.00  0.00    -0.206 F 
ATOM     63  C   UNL A   1      46.371  26.911  37.025  1.00  0.00     0.060 A 
BRANCH  63  64
ATOM     64  S   UNL A   1      47.685  25.981  37.841  1.00  0.00     0.124 S 
ATOM     65  O   UNL A   1      48.515  27.056  38.374  1.00  0.00    -0.237 OA
ATOM     66  O   UNL A   1      46.947  25.202  38.831  1.00  0.00    -0.237 OA
ATOM     67  O   UNL A   1      48.280  25.207  36.756  1.00  0.00    -0.744 OA
ENDBRANCH  63  64
ENDBRANCH  42  56
BRANCH  43  68
ATOM     68  C   UNL A   1      36.832  32.934  30.994  1.00  0.00     0.058 A 
ATOM     69  C   UNL A   1      35.507  32.573  31.280  1.00  0.00     0.135 A 
ATOM     70  C   UNL A   1      37.042  33.943  30.041  1.00  0.00     0.135 A 
ATOM     71  F   UNL A   1      35.254  31.606  32.176  1.00  0.00    -0.206 F 
ATOM     72  C   UNL A   1      34.431  33.176  30.636  1.00  0.00     0.059 A 
ATOM     73  C   UNL A   1      35.982  34.581  29.405  1.00  0.00     0.059 A 
ATOM     74  F   UNL A   1      38.289  34.336  29.741  1.00  0.00    -0.206 F 
ATOM     75  C   UNL A   1      34.680  34.182  29.702  1.00  0.00     0.060 A 
BRANCH  75  76
ATOM     76  S   UNL A   1      33.273  34.991  28.908  1.00  0.00     0.124 S 
ATOM     77  O   UNL A   1      33.922  36.097  28.215  1.00  0.00    -0.237 OA
ATOM     78  O   UNL A   1      32.748  33.926  28.060  1.00  0.00    -0.237 OA
ATOM     79  O   UNL A   1      32.420  35.363  30.034  1.00  0.00    -0.744 OA
ENDBRANCH  75  76
ENDBRANCH  43  68
BRANCH  55  80
ATOM     80  C   UNL A   1      39.834  33.838  37.228  1.00  0.00     0.058 A 
ATOM     81  C   UNL A   1      40.396  35.124  37.244  1.00  0.00     0.135 A 
ATOM     82  C   UNL A   1      38.973  33.487  38.282  1.00  0.00     0.135 A 
ATOM     83  F   UNL A   1      41.231  35.508  36.266  1.00  0.00    -0.206 F 
ATOM     84  C   UNL A   1      40.132  36.020  38.276  1.00  0.00     0.059 A 
ATOM     85  C   UNL A   1      38.672  34.377  39.307  1.00  0.00     0.059 A 
ATOM     86  F   UNL A   1      38.402  32.272  38.312  1.00  0.00    -0.206 F 
ATOM     87  C   UNL A   1      39.265  35.639  39.302  1.00  0.00     0.060 A 
BRANCH  87  88
ATOM     88  S   UNL A   1      38.905  36.825  40.614  1.00  0.00     0.124 S 
ATOM     89  O   UNL A   1      38.318  37.928  39.862  1.00  0.00    -0.237 OA
ATOM     90  O   UNL A   1      37.985  36.078  41.466  1.00  0.00    -0.237 OA
ATOM     91  O   UNL A   1      40.216  37.092  41.200  1.00  0.00    -0.744 OA
ENDBRANCH  87  88
ENDBRANCH  55  80
ENDBRANCH  29  30
ENDBRANCH  21  24
ENDBRANCH  19  20
ENDBRANCH   1  19
TORSDOF 16
ENDMDL
MODEL 3
REMARK VINA RESULT:     -11.3      6.774     12.435
REMARK SMILES O=C(/C=C/c1ccc(O)c(O)c1)NCCCNC(=O)c1ccc(-c2c3nc(c(-c4c(F)cc(S(=O)(=O)[O-])cc4F)c4ccc([nH]4)c(-c4c(F)cc(S(=O)(=O)[O-])cc4F)c4nc(c(-c5c(F)cc(S(=O)(=O)[O-])cc5F)c5ccc2[nH]5)C=C4)C=C3)cc1
REMARK SMILES IDX 15 1 14 2 13 3 1 4 2 5 3 7 4 8 5 9 6 10 12 11 7 12 10 13
REMARK SMILES IDX 8 14 11 15 9 17 16 19 17 20 18 21 19 23 20 24 21 25 85 26
REMARK SMILES IDX 22 27 84 28 23 29 24 30 25 31 78 32 26 33 83 34 77 35 79 36
REMARK SMILES IDX 27 37 82 38 76 39 75 40 28 42 62 43 41 44 61 45 42 46 45 47
REMARK SMILES IDX 60 48 80 49 43 50 44 51 59 53 81 54 46 55 29 56 30 57 39 58
REMARK SMILES IDX 31 59 32 60 38 61 40 62 33 63 34 64 35 65 36 66 37 67 63 68
REMARK SMILES IDX 64 69 73 70 65 71 66 72 72 73 74 74 67 75 68 76 69 77 70 78
REMARK SMILES IDX 71 79 47 80 48 81 57 82 49 83 50 84 56 85 58 86 51 87 52 88
REMARK SMILES IDX 53 89 54 90 55 91
REMARK H PARENT 13 6 11 16 9 18 17 22 79 41 45 52
REMARK Flexibility Score: inf
ROOT
ATOM      1  C   UNL A   1      40.559  22.243  27.518  1.00  0.00     0.042 C 
ENDROOT
BRANCH   1   2
ATOM      2  C   UNL A   1      39.668  22.050  26.294  1.00  0.00     0.118 C 
BRANCH   2   3
ATOM      3  N   UNL A   1      38.344  22.618  26.472  1.00  0.00    -0.352 N 
ATOM      4  O   UNL A   1      37.423  21.729  24.564  1.00  0.00    -0.270 OA
ATOM      5  C   UNL A   1      37.330  22.422  25.571  1.00  0.00     0.244 C 
ATOM      6  H   UNL A   1      38.168  23.165  27.270  1.00  0.00     0.163 HD
BRANCH   5   7
ATOM      7  C   UNL A   1      36.026  23.066  25.887  1.00  0.00     0.072 C 
ATOM      8  C   UNL A   1      35.574  24.233  25.399  1.00  0.00     0.014 C 
BRANCH   8   9
ATOM      9  C   UNL A   1      34.257  24.803  25.720  1.00  0.00    -0.022 A 
ATOM     10  C   UNL A   1      33.888  26.110  25.354  1.00  0.00     0.012 A 
ATOM     11  C   UNL A   1      33.314  23.985  26.355  1.00  0.00     0.058 A 
ATOM     12  C   UNL A   1      32.607  26.601  25.637  1.00  0.00     0.051 A 
ATOM     13  C   UNL A   1      32.046  24.479  26.632  1.00  0.00     0.157 A 
ATOM     14  C   UNL A   1      31.691  25.777  26.278  1.00  0.00     0.157 A 
BRANCH  13  15
ATOM     15  O   UNL A   1      31.141  23.669  27.256  1.00  0.00    -0.504 OA
ATOM     16  H   UNL A   1      31.189  23.540  28.183  1.00  0.00     0.293 HD
ENDBRANCH  13  15
BRANCH  14  17
ATOM     17  O   UNL A   1      30.425  26.195  26.575  1.00  0.00    -0.504 OA
ATOM     18  H   UNL A   1      30.263  27.095  26.779  1.00  0.00     0.293 HD
ENDBRANCH  14  17
ENDBRANCH   8   9
ENDBRANCH   5   7
ENDBRANCH   2   3
ENDBRANCH   1   2
BRANCH   1  19
ATOM     19  C   UNL A   1      41.930  22.851  27.228  1.00  0.00     0.118 C 
BRANCH  19  20
ATOM     20  N   UNL A   1      41.926  23.782  26.107  1.00  0.00    -0.352 N 
ATOM     21  C   UNL A   1      41.756  25.146  26.081  1.00  0.00     0.251 C 
ATOM     22  H   UNL A   1      42.070  23.367  25.226  1.00  0.00     0.163 HD
ATOM     23  O   UNL A   1      41.665  25.716  24.996  1.00  0.00    -0.269 OA
BRANCH  21  24
ATOM     24  C   UNL A   1      41.646  25.926  27.334  1.00  0.00     0.039 A 
ATOM     25  C   UNL A   1      42.713  26.751  27.705  1.00  0.00     0.014 A 
ATOM     26  C   UNL A   1      40.513  25.849  28.149  1.00  0.00     0.014 A 
ATOM     27  C   UNL A   1      42.607  27.561  28.840  1.00  0.00     0.010 A 
ATOM     28  C   UNL A   1      40.381  26.707  29.242  1.00  0.00     0.010 A 
ATOM     29  C   UNL A   1      41.420  27.584  29.590  1.00  0.00    -0.014 A 
BRANCH  29  30
ATOM     30  C   UNL A   1      41.228  28.554  30.702  1.00  0.00     0.031 A 
ATOM     31  C   UNL A   1      42.052  28.459  31.956  1.00  0.00     0.074 A 
ATOM     32  C   UNL A   1      40.251  29.480  30.610  1.00  0.00     0.049 A 
ATOM     33  N   UNL A   1      41.960  29.159  33.059  1.00  0.00    -0.248 NA
ATOM     34  C   UNL A   1      43.104  27.431  31.984  1.00  0.00     0.031 C 
ATOM     35  C   UNL A   1      39.356  29.653  29.461  1.00  0.00     0.029 A 
ATOM     36  N   UNL A   1      39.831  30.438  31.499  1.00  0.00    -0.354 N 
ATOM     37  C   UNL A   1      42.932  28.652  33.914  1.00  0.00     0.074 A 
ATOM     38  C   UNL A   1      43.572  27.555  33.218  1.00  0.00     0.031 C 
ATOM     39  C   UNL A   1      38.508  30.662  29.710  1.00  0.00     0.029 A 
ATOM     40  C   UNL A   1      38.762  31.178  31.051  1.00  0.00     0.049 A 
ATOM     41  H   UNL A   1      40.258  30.583  32.374  1.00  0.00     0.167 HD
ATOM     42  C   UNL A   1      43.271  29.073  35.157  1.00  0.00     0.037 A 
ATOM     43  C   UNL A   1      38.048  32.149  31.656  1.00  0.00     0.037 A 
ATOM     44  C   UNL A   1      42.636  30.172  35.842  1.00  0.00     0.049 A 
ATOM     45  C   UNL A   1      38.422  32.575  33.050  1.00  0.00     0.074 A 
ATOM     46  C   UNL A   1      42.946  30.707  37.080  1.00  0.00     0.029 A 
ATOM     47  N   UNL A   1      41.557  30.897  35.355  1.00  0.00    -0.354 N 
ATOM     48  N   UNL A   1      39.387  32.128  33.818  1.00  0.00    -0.248 NA
ATOM     49  C   UNL A   1      37.611  33.637  33.661  1.00  0.00     0.031 C 
ATOM     50  C   UNL A   1      42.021  31.717  37.366  1.00  0.00     0.029 A 
ATOM     51  C   UNL A   1      41.169  31.852  36.282  1.00  0.00     0.049 A 
ATOM     52  H   UNL A   1      41.130  30.753  34.480  1.00  0.00     0.167 HD
ATOM     53  C   UNL A   1      39.312  32.869  34.993  1.00  0.00     0.074 A 
ATOM     54  C   UNL A   1      38.220  33.805  34.826  1.00  0.00     0.031 C 
ATOM     55  C   UNL A   1      40.078  32.780  36.108  1.00  0.00     0.037 A 
BRANCH  42  56
ATOM     56  C   UNL A   1      44.378  28.340  35.867  1.00  0.00     0.058 A 
ATOM     57  C   UNL A   1      45.726  28.687  35.689  1.00  0.00     0.135 A 
ATOM     58  C   UNL A   1      44.085  27.308  36.776  1.00  0.00     0.135 A 
ATOM     59  F   UNL A   1      46.067  29.656  34.826  1.00  0.00    -0.206 F 
ATOM     60  C   UNL A   1      46.746  28.020  36.361  1.00  0.00     0.059 A 
ATOM     61  C   UNL A   1      45.086  26.648  37.482  1.00  0.00     0.059 A 
ATOM     62  F   UNL A   1      42.813  26.936  36.988  1.00  0.00    -0.206 F 
ATOM     63  C   UNL A   1      46.415  27.000  37.257  1.00  0.00     0.060 A 
BRANCH  63  64
ATOM     64  S   UNL A   1      47.750  26.149  38.123  1.00  0.00     0.124 S 
ATOM     65  O   UNL A   1      48.425  27.263  38.783  1.00  0.00    -0.237 OA
ATOM     66  O   UNL A   1      47.021  25.241  39.004  1.00  0.00    -0.237 OA
ATOM     67  O   UNL A   1      48.500  25.507  37.050  1.00  0.00    -0.744 OA
ENDBRANCH  63  64
ENDBRANCH  42  56
BRANCH  43  68
ATOM     68  C   UNL A   1      36.906  32.786  30.946  1.00  0.00     0.058 A 
ATOM     69  C   UNL A   1      37.113  33.849  30.054  1.00  0.00     0.135 A 
ATOM     70  C   UNL A   1      35.589  32.339  31.134  1.00  0.00     0.135 A 
ATOM     71  F   UNL A   1      38.353  34.319  29.847  1.00  0.00    -0.206 F 
ATOM     72  C   UNL A   1      36.054  34.459  29.388  1.00  0.00     0.059 A 
ATOM     73  C   UNL A   1      34.517  32.912  30.457  1.00  0.00     0.059 A 
ATOM     74  F   UNL A   1      35.338  31.315  31.965  1.00  0.00    -0.206 F 
ATOM     75  C   UNL A   1      34.760  33.980  29.594  1.00  0.00     0.060 A 
BRANCH  75  76
ATOM     76  S   UNL A   1      33.400  34.748  28.687  1.00  0.00     0.124 S 
ATOM     77  O   UNL A   1      34.068  35.879  28.055  1.00  0.00    -0.237 OA
ATOM     78  O   UNL A   1      32.983  33.672  27.793  1.00  0.00    -0.237 OA
ATOM     79  O   UNL A   1      32.443  35.085  29.738  1.00  0.00    -0.744 OA
ENDBRANCH  75  76
ENDBRANCH  43  68
BRANCH  55  80
ATOM     80  C   UNL A   1      39.779  33.733  37.234  1.00  0.00     0.058 A 
ATOM     81  C   UNL A   1      38.910  33.390  38.281  1.00  0.00     0.135 A 
ATOM     82  C   UNL A   1      40.408  34.989  37.291  1.00  0.00     0.135 A 
ATOM     83  F   UNL A   1      38.276  32.207  38.272  1.00  0.00    -0.206 F 
ATOM     84  C   UNL A   1      38.657  34.266  39.333  1.00  0.00     0.059 A 
ATOM     85  C   UNL A   1      40.194  35.867  38.349  1.00  0.00     0.059 A 
ATOM     86  F   UNL A   1      41.256  35.365  36.320  1.00  0.00    -0.206 F 
ATOM     87  C   UNL A   1      39.307  35.501  39.360  1.00  0.00     0.060 A 
BRANCH  87  88
ATOM     88  S   UNL A   1      38.996  36.611  40.750  1.00  0.00     0.124 S 
ATOM     89  O   UNL A   1      38.485  37.797  40.072  1.00  0.00    -0.237 OA
ATOM     90  O   UNL A   1      38.022  35.860  41.536  1.00  0.00    -0.237 OA
ATOM     91  O   UNL A   1      40.311  36.758  41.368  1.00  0.00    -0.744 OA
ENDBRANCH  87  88
ENDBRANCH  55  80
ENDBRANCH  29  30
ENDBRANCH  21  24
ENDBRANCH  19  20
ENDBRANCH   1  19
TORSDOF 16
ENDMDL
