MODEL 1
REMARK VINA RESULT:     -10.6      0.000      0.000
REMARK SMILES C[C@@H](Cc1ccco1)C(=O)NCCCNC(=O)c1ccc(-c2c3nc(c(-c4c(F)cc(S(=O)(=O)[O-])cc4F)c4ccc([nH]4)c(-c4c(F)cc(S(=O)(=O)[O-])cc4F)c4nc(c(-c5c(F)cc(S(=O)(=O)[O-])cc5F)c5ccc2[nH]5)C=C4)C=C3)cc1
REMARK SMILES IDX 13 1 12 2 11 3 9 4 10 5 2 7 1 8 3 9 4 10 5 11 8 12 6 13 7 14
REMARK SMILES IDX 14 15 15 16 16 17 17 19 18 20 19 21 83 22 20 23 82 24 21 25
REMARK SMILES IDX 22 26 23 27 76 28 24 29 81 30 75 31 77 32 25 33 80 34 74 35
REMARK SMILES IDX 73 36 26 38 60 39 39 40 59 41 40 42 43 43 58 44 78 45 41 46
REMARK SMILES IDX 42 47 57 49 79 50 44 51 27 52 28 53 37 54 29 55 30 56 36 57
REMARK SMILES IDX 38 58 31 59 32 60 33 61 34 62 35 63 61 64 62 65 71 66 63 67
REMARK SMILES IDX 64 68 70 69 72 70 65 71 66 72 67 73 68 74 69 75 45 76 46 77
REMARK SMILES IDX 55 78 47 79 48 80 54 81 56 82 49 83 50 84 51 85 52 86 53 87
REMARK H PARENT 11 6 15 18 77 37 43 48
REMARK Flexibility Score: inf
ROOT
ATOM      1  C   UNL A   1      33.621  28.192  25.695  1.00  0.00     0.042 C 
ENDROOT
BRANCH   1   2
ATOM      2  C   UNL A   1      33.026  26.902  25.172  1.00  0.00     0.117 C 
BRANCH   2   3
ATOM      3  N   UNL A   1      33.412  26.555  23.824  1.00  0.00    -0.356 N 
ATOM      4  C   UNL A   1      32.820  26.908  22.652  1.00  0.00     0.223 C 
ATOM      5  O   UNL A   1      33.457  26.698  21.613  1.00  0.00    -0.275 OA
ATOM      6  H   UNL A   1      34.211  25.987  23.743  1.00  0.00     0.163 HD
BRANCH   4   7
ATOM      7  C   UNL A   1      31.412  27.507  22.571  1.00  0.00     0.083 C 
ATOM      8  C   UNL A   1      30.347  26.644  23.244  1.00  0.00     0.018 C 
BRANCH   7   9
ATOM      9  C   UNL A   1      31.319  29.025  22.804  1.00  0.00     0.088 C 
BRANCH   9  10
ATOM     10  C   UNL A   1      29.993  29.676  22.619  1.00  0.00     0.104 A 
ATOM     11  C   UNL A   1      29.096  30.301  23.464  1.00  0.00     0.045 A 
ATOM     12  O   UNL A   1      29.512  29.705  21.341  1.00  0.00    -0.469 OA
ATOM     13  C   UNL A   1      28.047  30.793  22.646  1.00  0.00     0.042 A 
ATOM     14  C   UNL A   1      28.337  30.385  21.366  1.00  0.00     0.195 A 
ENDBRANCH   9  10
ENDBRANCH   7   9
ENDBRANCH   4   7
ENDBRANCH   2   3
ENDBRANCH   1   2
BRANCH   1  15
ATOM     15  C   UNL A   1      33.422  28.395  27.185  1.00  0.00     0.118 C 
BRANCH  15  16
ATOM     16  N   UNL A   1      33.418  29.803  27.575  1.00  0.00    -0.352 N 
ATOM     17  C   UNL A   1      34.378  30.590  28.172  1.00  0.00     0.251 C 
ATOM     18  H   UNL A   1      32.578  30.275  27.375  1.00  0.00     0.163 HD
ATOM     19  O   UNL A   1      34.073  31.711  28.561  1.00  0.00    -0.269 OA
BRANCH  17  20
ATOM     20  C   UNL A   1      35.757  30.086  28.374  1.00  0.00     0.039 A 
ATOM     21  C   UNL A   1      36.645  30.074  27.294  1.00  0.00     0.014 A 
ATOM     22  C   UNL A   1      36.177  29.611  29.614  1.00  0.00     0.014 A 
ATOM     23  C   UNL A   1      37.972  29.676  27.488  1.00  0.00     0.010 A 
ATOM     24  C   UNL A   1      37.520  29.340  29.836  1.00  0.00     0.010 A 
ATOM     25  C   UNL A   1      38.435  29.355  28.774  1.00  0.00    -0.014 A 
BRANCH  25  26
ATOM     26  C   UNL A   1      39.852  29.002  29.045  1.00  0.00     0.031 A 
ATOM     27  C   UNL A   1      40.787  30.046  29.599  1.00  0.00     0.074 A 
ATOM     28  C   UNL A   1      40.322  27.786  28.700  1.00  0.00     0.049 A 
ATOM     29  N   UNL A   1      42.085  29.999  29.751  1.00  0.00    -0.248 NA
ATOM     30  C   UNL A   1      40.186  31.333  29.991  1.00  0.00     0.031 C 
ATOM     31  C   UNL A   1      39.533  26.708  28.099  1.00  0.00     0.029 A 
ATOM     32  N   UNL A   1      41.586  27.259  28.785  1.00  0.00    -0.354 N 
ATOM     33  C   UNL A   1      42.457  31.257  30.214  1.00  0.00     0.074 A 
ATOM     34  C   UNL A   1      41.257  32.061  30.266  1.00  0.00     0.031 C 
ATOM     35  C   UNL A   1      40.323  25.642  27.896  1.00  0.00     0.029 A 
ATOM     36  C   UNL A   1      41.683  25.973  28.308  1.00  0.00     0.049 A 
ATOM     37  H   UNL A   1      42.353  27.755  29.155  1.00  0.00     0.167 HD
ATOM     38  C   UNL A   1      43.682  31.693  30.591  1.00  0.00     0.037 A 
ATOM     39  C   UNL A   1      42.750  25.158  28.203  1.00  0.00     0.037 A 
ATOM     40  C   UNL A   1      44.860  30.867  30.596  1.00  0.00     0.049 A 
ATOM     41  C   UNL A   1      44.094  25.649  28.668  1.00  0.00     0.074 A 
ATOM     42  C   UNL A   1      46.134  31.187  31.029  1.00  0.00     0.029 A 
ATOM     43  N   UNL A   1      44.904  29.552  30.157  1.00  0.00    -0.354 N 
ATOM     44  N   UNL A   1      44.418  26.825  29.151  1.00  0.00    -0.248 NA
ATOM     45  C   UNL A   1      45.215  24.704  28.579  1.00  0.00     0.031 C 
ATOM     46  C   UNL A   1      46.956  30.073  30.826  1.00  0.00     0.029 A 
ATOM     47  C   UNL A   1      46.184  29.047  30.302  1.00  0.00     0.049 A 
ATOM     48  H   UNL A   1      44.137  29.051  29.796  1.00  0.00     0.167 HD
ATOM     49  C   UNL A   1      45.775  26.753  29.447  1.00  0.00     0.074 A 
ATOM     50  C   UNL A   1      46.206  25.415  29.098  1.00  0.00     0.031 C 
ATOM     51  C   UNL A   1      46.589  27.707  29.961  1.00  0.00     0.037 A 
BRANCH  38  52
ATOM     52  C   UNL A   1      43.803  33.122  31.046  1.00  0.00     0.058 A 
ATOM     53  C   UNL A   1      44.053  34.165  30.139  1.00  0.00     0.135 A 
ATOM     54  C   UNL A   1      43.651  33.456  32.401  1.00  0.00     0.135 A 
ATOM     55  F   UNL A   1      44.224  33.899  28.835  1.00  0.00    -0.206 F 
ATOM     56  C   UNL A   1      44.186  35.482  30.564  1.00  0.00     0.059 A 
ATOM     57  C   UNL A   1      43.750  34.773  32.845  1.00  0.00     0.059 A 
ATOM     58  F   UNL A   1      43.411  32.500  33.312  1.00  0.00    -0.206 F 
ATOM     59  C   UNL A   1      44.036  35.776  31.920  1.00  0.00     0.060 A 
BRANCH  59  60
ATOM     60  S   UNL A   1      44.213  37.490  32.455  1.00  0.00     0.124 S 
ATOM     61  O   UNL A   1      43.315  37.529  33.605  1.00  0.00    -0.237 OA
ATOM     62  O   UNL A   1      45.637  37.578  32.763  1.00  0.00    -0.237 OA
ATOM     63  O   UNL A   1      43.778  38.256  31.291  1.00  0.00    -0.744 OA
ENDBRANCH  59  60
ENDBRANCH  38  52
BRANCH  39  64
ATOM     64  C   UNL A   1      42.584  23.781  27.665  1.00  0.00     0.058 A 
ATOM     65  C   UNL A   1      42.433  22.687  28.529  1.00  0.00     0.135 A 
ATOM     66  C   UNL A   1      42.554  23.531  26.285  1.00  0.00     0.135 A 
ATOM     67  F   UNL A   1      42.460  22.874  29.858  1.00  0.00    -0.206 F 
ATOM     68  C   UNL A   1      42.274  21.392  28.047  1.00  0.00     0.059 A 
ATOM     69  C   UNL A   1      42.373  22.249  25.776  1.00  0.00     0.059 A 
ATOM     70  F   UNL A   1      42.675  24.547  25.415  1.00  0.00    -0.206 F 
ATOM     71  C   UNL A   1      42.244  21.184  26.667  1.00  0.00     0.060 A 
BRANCH  71  72
ATOM     72  S   UNL A   1      41.984  19.506  26.051  1.00  0.00     0.124 S 
ATOM     73  O   UNL A   1      42.332  18.706  27.219  1.00  0.00    -0.237 OA
ATOM     74  O   UNL A   1      40.571  19.526  25.688  1.00  0.00    -0.237 OA
ATOM     75  O   UNL A   1      42.910  19.416  24.924  1.00  0.00    -0.744 OA
ENDBRANCH  71  72
ENDBRANCH  39  64
BRANCH  51  76
ATOM     76  C   UNL A   1      48.021  27.330  30.212  1.00  0.00     0.058 A 
ATOM     77  C   UNL A   1      49.026  27.585  29.267  1.00  0.00     0.135 A 
ATOM     78  C   UNL A   1      48.399  26.759  31.438  1.00  0.00     0.135 A 
ATOM     79  F   UNL A   1      48.713  28.123  28.077  1.00  0.00    -0.206 F 
ATOM     80  C   UNL A   1      50.356  27.269  29.521  1.00  0.00     0.059 A 
ATOM     81  C   UNL A   1      49.727  26.458  31.722  1.00  0.00     0.059 A 
ATOM     82  F   UNL A   1      47.476  26.506  32.378  1.00  0.00    -0.206 F 
ATOM     83  C   UNL A   1      50.697  26.708  30.753  1.00  0.00     0.060 A 
BRANCH  83  84
ATOM     84  S   UNL A   1      52.432  26.339  31.087  1.00  0.00     0.124 S 
ATOM     85  O   UNL A   1      52.975  26.237  29.736  1.00  0.00    -0.237 OA
ATOM     86  O   UNL A   1      52.859  27.503  31.856  1.00  0.00    -0.237 OA
ATOM     87  O   UNL A   1      52.374  25.087  31.837  1.00  0.00    -0.744 OA
ENDBRANCH  83  84
ENDBRANCH  51  76
ENDBRANCH  25  26
ENDBRANCH  17  20
ENDBRANCH  15  16
ENDBRANCH   1  15
TORSDOF 15
ENDMDL
MODEL 2
REMARK VINA RESULT:     -10.5      4.541     11.315
REMARK SMILES C[C@@H](Cc1ccco1)C(=O)NCCCNC(=O)c1ccc(-c2c3nc(c(-c4c(F)cc(S(=O)(=O)[O-])cc4F)c4ccc([nH]4)c(-c4c(F)cc(S(=O)(=O)[O-])cc4F)c4nc(c(-c5c(F)cc(S(=O)(=O)[O-])cc5F)c5ccc2[nH]5)C=C4)C=C3)cc1
REMARK SMILES IDX 13 1 12 2 11 3 9 4 10 5 2 7 1 8 3 9 4 10 5 11 8 12 6 13 7 14
REMARK SMILES IDX 14 15 15 16 16 17 17 19 18 20 19 21 83 22 20 23 82 24 21 25
REMARK SMILES IDX 22 26 23 27 76 28 24 29 81 30 75 31 77 32 25 33 80 34 74 35
REMARK SMILES IDX 73 36 26 38 60 39 39 40 59 41 40 42 43 43 58 44 78 45 41 46
REMARK SMILES IDX 42 47 57 49 79 50 44 51 27 52 28 53 37 54 29 55 30 56 36 57
REMARK SMILES IDX 38 58 31 59 32 60 33 61 34 62 35 63 61 64 62 65 71 66 63 67
REMARK SMILES IDX 64 68 70 69 72 70 65 71 66 72 67 73 68 74 69 75 45 76 46 77
REMARK SMILES IDX 55 78 47 79 48 80 54 81 56 82 49 83 50 84 51 85 52 86 53 87
REMARK H PARENT 11 6 15 18 77 37 43 48
REMARK Flexibility Score: inf
ROOT
ATOM      1  C   UNL A   1      41.564  21.461  25.962  1.00  0.00     0.042 C 
ENDROOT
BRANCH   1   2
ATOM      2  C   UNL A   1      42.378  22.734  26.046  1.00  0.00     0.117 C 
BRANCH   2   3
ATOM      3  N   UNL A   1      43.640  22.607  26.738  1.00  0.00    -0.356 N 
ATOM      4  C   UNL A   1      44.873  23.023  26.343  1.00  0.00     0.223 C 
ATOM      5  O   UNL A   1      45.768  23.024  27.197  1.00  0.00    -0.275 OA
ATOM      6  H   UNL A   1      43.602  22.158  27.612  1.00  0.00     0.163 HD
BRANCH   4   7
ATOM      7  C   UNL A   1      45.193  23.446  24.906  1.00  0.00     0.083 C 
ATOM      8  C   UNL A   1      46.341  24.449  24.812  1.00  0.00     0.018 C 
BRANCH   7   9
ATOM      9  C   UNL A   1      45.173  22.320  23.858  1.00  0.00     0.088 C 
BRANCH   9  10
ATOM     10  C   UNL A   1      45.312  20.919  24.341  1.00  0.00     0.104 A 
ATOM     11  C   UNL A   1      46.344  20.185  24.894  1.00  0.00     0.045 A 
ATOM     12  O   UNL A   1      44.191  20.142  24.260  1.00  0.00    -0.469 OA
ATOM     13  C   UNL A   1      45.804  18.917  25.225  1.00  0.00     0.042 A 
ATOM     14  C   UNL A   1      44.497  18.934  24.800  1.00  0.00     0.195 A 
ENDBRANCH   9  10
ENDBRANCH   7   9
ENDBRANCH   4   7
ENDBRANCH   2   3
ENDBRANCH   1   2
BRANCH   1  15
ATOM     15  C   UNL A   1      40.233  21.538  26.686  1.00  0.00     0.118 C 
BRANCH  15  16
ATOM     16  N   UNL A   1      39.174  22.132  25.874  1.00  0.00    -0.352 N 
ATOM     17  C   UNL A   1      38.599  23.383  25.891  1.00  0.00     0.251 C 
ATOM     18  H   UNL A   1      38.803  21.528  25.190  1.00  0.00     0.163 HD
ATOM     19  O   UNL A   1      37.596  23.589  25.219  1.00  0.00    -0.269 OA
BRANCH  17  20
ATOM     20  C   UNL A   1      39.160  24.466  26.732  1.00  0.00     0.039 A 
ATOM     21  C   UNL A   1      39.983  25.432  26.144  1.00  0.00     0.014 A 
ATOM     22  C   UNL A   1      38.896  24.529  28.099  1.00  0.00     0.014 A 
ATOM     23  C   UNL A   1      40.455  26.504  26.908  1.00  0.00     0.010 A 
ATOM     24  C   UNL A   1      39.256  25.656  28.825  1.00  0.00     0.010 A 
ATOM     25  C   UNL A   1      40.052  26.653  28.244  1.00  0.00    -0.014 A 
BRANCH  25  26
ATOM     26  C   UNL A   1      40.462  27.815  29.076  1.00  0.00     0.031 A 
ATOM     27  C   UNL A   1      41.763  27.764  29.835  1.00  0.00     0.074 A 
ATOM     28  C   UNL A   1      39.626  28.861  29.231  1.00  0.00     0.049 A 
ATOM     29  N   UNL A   1      42.226  28.587  30.740  1.00  0.00    -0.248 NA
ATOM     30  C   UNL A   1      42.637  26.608  29.576  1.00  0.00     0.031 C 
ATOM     31  C   UNL A   1      38.313  29.002  28.598  1.00  0.00     0.029 A 
ATOM     32  N   UNL A   1      39.749  29.998  29.989  1.00  0.00    -0.354 N 
ATOM     33  C   UNL A   1      43.420  28.028  31.184  1.00  0.00     0.074 A 
ATOM     34  C   UNL A   1      43.581  26.769  30.491  1.00  0.00     0.031 C 
ATOM     35  C   UNL A   1      37.765  30.170  28.973  1.00  0.00     0.029 A 
ATOM     36  C   UNL A   1      38.664  30.839  29.906  1.00  0.00     0.049 A 
ATOM     37  H   UNL A   1      40.541  30.195  30.541  1.00  0.00     0.167 HD
ATOM     38  C   UNL A   1      44.315  28.531  32.066  1.00  0.00     0.037 A 
ATOM     39  C   UNL A   1      38.418  32.012  30.521  1.00  0.00     0.037 A 
ATOM     40  C   UNL A   1      44.178  29.813  32.703  1.00  0.00     0.049 A 
ATOM     41  C   UNL A   1      39.447  32.572  31.465  1.00  0.00     0.074 A 
ATOM     42  C   UNL A   1      45.062  30.450  33.555  1.00  0.00     0.029 A 
ATOM     43  N   UNL A   1      43.090  30.659  32.549  1.00  0.00    -0.354 N 
ATOM     44  N   UNL A   1      40.594  32.053  31.835  1.00  0.00    -0.248 NA
ATOM     45  C   UNL A   1      39.152  33.877  32.072  1.00  0.00     0.031 C 
ATOM     46  C   UNL A   1      44.496  31.671  33.938  1.00  0.00     0.029 A 
ATOM     47  C   UNL A   1      43.276  31.811  33.294  1.00  0.00     0.049 A 
ATOM     48  H   UNL A   1      42.301  30.469  31.990  1.00  0.00     0.167 HD
ATOM     49  C   UNL A   1      41.169  32.980  32.697  1.00  0.00     0.074 A 
ATOM     50  C   UNL A   1      40.248  34.095  32.785  1.00  0.00     0.031 C 
ATOM     51  C   UNL A   1      42.352  32.915  33.357  1.00  0.00     0.037 A 
BRANCH  38  52
ATOM     52  C   UNL A   1      45.530  27.698  32.376  1.00  0.00     0.058 A 
ATOM     53  C   UNL A   1      45.571  26.842  33.488  1.00  0.00     0.135 A 
ATOM     54  C   UNL A   1      46.660  27.745  31.544  1.00  0.00     0.135 A 
ATOM     55  F   UNL A   1      44.524  26.771  34.326  1.00  0.00    -0.206 F 
ATOM     56  C   UNL A   1      46.701  26.089  33.785  1.00  0.00     0.059 A 
ATOM     57  C   UNL A   1      47.792  26.978  31.806  1.00  0.00     0.059 A 
ATOM     58  F   UNL A   1      46.676  28.547  30.468  1.00  0.00    -0.206 F 
ATOM     59  C   UNL A   1      47.809  26.167  32.940  1.00  0.00     0.060 A 
BRANCH  59  60
ATOM     60  S   UNL A   1      49.270  25.186  33.341  1.00  0.00     0.124 S 
ATOM     61  O   UNL A   1      48.671  24.031  34.002  1.00  0.00    -0.237 OA
ATOM     62  O   UNL A   1      49.849  24.931  32.025  1.00  0.00    -0.237 OA
ATOM     63  O   UNL A   1      50.047  26.071  34.203  1.00  0.00    -0.744 OA
ENDBRANCH  59  60
ENDBRANCH  38  52
BRANCH  39  64
ATOM     64  C   UNL A   1      37.158  32.750  30.238  1.00  0.00     0.058 A 
ATOM     65  C   UNL A   1      36.036  32.599  31.066  1.00  0.00     0.135 A 
ATOM     66  C   UNL A   1      37.053  33.632  29.152  1.00  0.00     0.135 A 
ATOM     67  F   UNL A   1      36.086  31.763  32.115  1.00  0.00    -0.206 F 
ATOM     68  C   UNL A   1      34.850  33.282  30.820  1.00  0.00     0.059 A 
ATOM     69  C   UNL A   1      35.885  34.345  28.897  1.00  0.00     0.059 A 
ATOM     70  F   UNL A   1      38.105  33.827  28.340  1.00  0.00    -0.206 F 
ATOM     71  C   UNL A   1      34.785  34.154  29.733  1.00  0.00     0.060 A 
BRANCH  71  72
ATOM     72  S   UNL A   1      33.258  35.077  29.453  1.00  0.00     0.124 S 
ATOM     73  O   UNL A   1      32.639  35.029  30.773  1.00  0.00    -0.237 OA
ATOM     74  O   UNL A   1      33.758  36.380  29.028  1.00  0.00    -0.237 OA
ATOM     75  O   UNL A   1      32.586  34.303  28.411  1.00  0.00    -0.744 OA
ENDBRANCH  71  72
ENDBRANCH  39  64
BRANCH  51  76
ATOM     76  C   UNL A   1      42.737  34.094  34.203  1.00  0.00     0.058 A 
ATOM     77  C   UNL A   1      42.451  34.140  35.575  1.00  0.00     0.135 A 
ATOM     78  C   UNL A   1      43.452  35.165  33.642  1.00  0.00     0.135 A 
ATOM     79  F   UNL A   1      41.764  33.143  36.156  1.00  0.00    -0.206 F 
ATOM     80  C   UNL A   1      42.845  35.217  36.361  1.00  0.00     0.059 A 
ATOM     81  C   UNL A   1      43.876  36.241  34.414  1.00  0.00     0.059 A 
ATOM     82  F   UNL A   1      43.758  35.163  32.335  1.00  0.00    -0.206 F 
ATOM     83  C   UNL A   1      43.559  36.263  35.772  1.00  0.00     0.060 A 
BRANCH  83  84
ATOM     84  S   UNL A   1      44.099  37.637  36.810  1.00  0.00     0.124 S 
ATOM     85  O   UNL A   1      45.390  37.154  37.286  1.00  0.00    -0.237 OA
ATOM     86  O   UNL A   1      44.146  38.746  35.862  1.00  0.00    -0.237 OA
ATOM     87  O   UNL A   1      43.049  37.730  37.821  1.00  0.00    -0.744 OA
ENDBRANCH  83  84
ENDBRANCH  51  76
ENDBRANCH  25  26
ENDBRANCH  17  20
ENDBRANCH  15  16
ENDBRANCH   1  15
TORSDOF 15
ENDMDL
MODEL 3
REMARK VINA RESULT:     -10.5      3.780      6.241
REMARK SMILES C[C@@H](Cc1ccco1)C(=O)NCCCNC(=O)c1ccc(-c2c3nc(c(-c4c(F)cc(S(=O)(=O)[O-])cc4F)c4ccc([nH]4)c(-c4c(F)cc(S(=O)(=O)[O-])cc4F)c4nc(c(-c5c(F)cc(S(=O)(=O)[O-])cc5F)c5ccc2[nH]5)C=C4)C=C3)cc1
REMARK SMILES IDX 13 1 12 2 11 3 9 4 10 5 2 7 1 8 3 9 4 10 5 11 8 12 6 13 7 14
REMARK SMILES IDX 14 15 15 16 16 17 17 19 18 20 19 21 83 22 20 23 82 24 21 25
REMARK SMILES IDX 22 26 23 27 76 28 24 29 81 30 75 31 77 32 25 33 80 34 74 35
REMARK SMILES IDX 73 36 26 38 60 39 39 40 59 41 40 42 43 43 58 44 78 45 41 46
REMARK SMILES IDX 42 47 57 49 79 50 44 51 27 52 28 53 37 54 29 55 30 56 36 57
REMARK SMILES IDX 38 58 31 59 32 60 33 61 34 62 35 63 61 64 62 65 71 66 63 67
REMARK SMILES IDX 64 68 70 69 72 70 65 71 66 72 67 73 68 74 69 75 45 76 46 77
REMARK SMILES IDX 55 78 47 79 48 80 54 81 56 82 49 83 50 84 51 85 52 86 53 87
REMARK H PARENT 11 6 15 18 77 37 43 48
REMARK Flexibility Score: inf
ROOT
ATOM      1  C   UNL A   1      34.399  33.364  29.608  1.00  0.00     0.042 C 
ENDROOT
BRANCH   1   2
ATOM      2  C   UNL A   1      34.043  34.811  29.878  1.00  0.00     0.117 C 
BRANCH   2   3
ATOM      3  N   UNL A   1      32.902  35.007  30.742  1.00  0.00    -0.356 N 
ATOM      4  C   UNL A   1      32.795  35.799  31.842  1.00  0.00     0.223 C 
ATOM      5  O   UNL A   1      31.657  35.996  32.285  1.00  0.00    -0.275 OA
ATOM      6  H   UNL A   1      32.095  34.498  30.502  1.00  0.00     0.163 HD
BRANCH   4   7
ATOM      7  C   UNL A   1      34.005  36.411  32.555  1.00  0.00     0.083 C 
ATOM      8  C   UNL A   1      34.019  37.938  32.521  1.00  0.00     0.018 C 
BRANCH   7   9
ATOM      9  C   UNL A   1      34.403  35.746  33.884  1.00  0.00     0.088 C 
BRANCH   9  10
ATOM     10  C   UNL A   1      35.232  34.512  33.822  1.00  0.00     0.104 A 
ATOM     11  C   UNL A   1      35.036  33.240  33.316  1.00  0.00     0.045 A 
ATOM     12  O   UNL A   1      36.486  34.603  34.355  1.00  0.00    -0.469 OA
ATOM     13  C   UNL A   1      36.259  32.544  33.493  1.00  0.00     0.042 A 
ATOM     14  C   UNL A   1      37.101  33.410  34.149  1.00  0.00     0.195 A 
ENDBRANCH   9  10
ENDBRANCH   7   9
ENDBRANCH   4   7
ENDBRANCH   2   3
ENDBRANCH   1   2
BRANCH   1  15
ATOM     15  C   UNL A   1      34.817  33.096  28.174  1.00  0.00     0.118 C 
BRANCH  15  16
ATOM     16  N   UNL A   1      34.110  31.968  27.574  1.00  0.00    -0.352 N 
ATOM     17  C   UNL A   1      34.471  30.652  27.392  1.00  0.00     0.251 C 
ATOM     18  H   UNL A   1      33.210  32.188  27.237  1.00  0.00     0.163 HD
ATOM     19  O   UNL A   1      33.766  29.929  26.698  1.00  0.00    -0.269 OA
BRANCH  17  20
ATOM     20  C   UNL A   1      35.711  30.114  27.999  1.00  0.00     0.039 A 
ATOM     21  C   UNL A   1      36.893  30.114  27.251  1.00  0.00     0.014 A 
ATOM     22  C   UNL A   1      35.716  29.594  29.291  1.00  0.00     0.014 A 
ATOM     23  C   UNL A   1      38.088  29.683  27.836  1.00  0.00     0.010 A 
ATOM     24  C   UNL A   1      36.920  29.288  29.912  1.00  0.00     0.010 A 
ATOM     25  C   UNL A   1      38.121  29.315  29.190  1.00  0.00    -0.014 A 
BRANCH  25  26
ATOM     26  C   UNL A   1      39.378  28.924  29.879  1.00  0.00     0.031 A 
ATOM     27  C   UNL A   1      39.841  29.703  31.083  1.00  0.00     0.074 A 
ATOM     28  C   UNL A   1      40.151  27.945  29.367  1.00  0.00     0.049 A 
ATOM     29  N   UNL A   1      40.978  29.638  31.725  1.00  0.00    -0.248 NA
ATOM     30  C   UNL A   1      38.919  30.726  31.605  1.00  0.00     0.031 C 
ATOM     31  C   UNL A   1      39.844  27.156  28.172  1.00  0.00     0.029 A 
ATOM     32  N   UNL A   1      41.367  27.460  29.777  1.00  0.00    -0.354 N 
ATOM     33  C   UNL A   1      40.923  30.634  32.694  1.00  0.00     0.074 A 
ATOM     34  C   UNL A   1      39.665  31.325  32.521  1.00  0.00     0.031 C 
ATOM     35  C   UNL A   1      40.831  26.270  27.962  1.00  0.00     0.029 A 
ATOM     36  C   UNL A   1      41.861  26.456  28.977  1.00  0.00     0.049 A 
ATOM     37  H   UNL A   1      41.843  27.799  30.571  1.00  0.00     0.167 HD
ATOM     38  C   UNL A   1      41.825  30.927  33.661  1.00  0.00     0.037 A 
ATOM     39  C   UNL A   1      43.020  25.772  29.048  1.00  0.00     0.037 A 
ATOM     40  C   UNL A   1      43.045  30.194  33.866  1.00  0.00     0.049 A 
ATOM     41  C   UNL A   1      43.987  26.086  30.156  1.00  0.00     0.074 A 
ATOM     42  C   UNL A   1      43.992  30.360  34.861  1.00  0.00     0.029 A 
ATOM     43  N   UNL A   1      43.482  29.147  33.068  1.00  0.00    -0.354 N 
ATOM     44  N   UNL A   1      43.896  26.998  31.096  1.00  0.00    -0.248 NA
ATOM     45  C   UNL A   1      45.212  25.277  30.218  1.00  0.00     0.031 C 
ATOM     46  C   UNL A   1      45.016  29.431  34.648  1.00  0.00     0.029 A 
ATOM     47  C   UNL A   1      44.688  28.660  33.543  1.00  0.00     0.049 A 
ATOM     48  H   UNL A   1      43.004  28.801  32.279  1.00  0.00     0.167 HD
ATOM     49  C   UNL A   1      45.038  26.855  31.876  1.00  0.00     0.074 A 
ATOM     50  C   UNL A   1      45.799  25.763  31.304  1.00  0.00     0.031 C 
ATOM     51  C   UNL A   1      45.422  27.563  32.966  1.00  0.00     0.037 A 
BRANCH  38  52
ATOM     52  C   UNL A   1      41.512  32.078  34.579  1.00  0.00     0.058 A 
ATOM     53  C   UNL A   1      40.739  31.906  35.739  1.00  0.00     0.135 A 
ATOM     54  C   UNL A   1      42.002  33.365  34.304  1.00  0.00     0.135 A 
ATOM     55  F   UNL A   1      40.231  30.701  36.040  1.00  0.00    -0.206 F 
ATOM     56  C   UNL A   1      40.434  32.974  36.574  1.00  0.00     0.059 A 
ATOM     57  C   UNL A   1      41.734  34.443  35.143  1.00  0.00     0.059 A 
ATOM     58  F   UNL A   1      42.746  33.586  33.209  1.00  0.00    -0.206 F 
ATOM     59  C   UNL A   1      40.933  34.241  36.265  1.00  0.00     0.060 A 
BRANCH  59  60
ATOM     60  S   UNL A   1      40.525  35.618  37.359  1.00  0.00     0.124 S 
ATOM     61  O   UNL A   1      41.852  36.082  37.748  1.00  0.00    -0.237 OA
ATOM     62  O   UNL A   1      39.777  36.509  36.476  1.00  0.00    -0.237 OA
ATOM     63  O   UNL A   1      39.742  34.990  38.418  1.00  0.00    -0.744 OA
ENDBRANCH  59  60
ENDBRANCH  38  52
BRANCH  39  64
ATOM     64  C   UNL A   1      43.312  24.700  28.059  1.00  0.00     0.058 A 
ATOM     65  C   UNL A   1      43.996  24.988  26.870  1.00  0.00     0.135 A 
ATOM     66  C   UNL A   1      42.933  23.368  28.289  1.00  0.00     0.135 A 
ATOM     67  F   UNL A   1      44.374  26.248  26.603  1.00  0.00    -0.206 F 
ATOM     68  C   UNL A   1      44.280  24.000  25.933  1.00  0.00     0.059 A 
ATOM     69  C   UNL A   1      43.227  22.357  27.379  1.00  0.00     0.059 A 
ATOM     70  F   UNL A   1      42.294  23.036  29.421  1.00  0.00    -0.206 F 
ATOM     71  C   UNL A   1      43.893  22.686  26.198  1.00  0.00     0.060 A 
BRANCH  71  72
ATOM     72  S   UNL A   1      44.314  21.401  25.001  1.00  0.00     0.124 S 
ATOM     73  O   UNL A   1      44.152  22.111  23.738  1.00  0.00    -0.237 OA
ATOM     74  O   UNL A   1      45.684  21.067  25.376  1.00  0.00    -0.237 OA
ATOM     75  O   UNL A   1      43.328  20.357  25.270  1.00  0.00    -0.744 OA
ENDBRANCH  71  72
ENDBRANCH  39  64
BRANCH  51  76
ATOM     76  C   UNL A   1      46.704  27.159  33.635  1.00  0.00     0.058 A 
ATOM     77  C   UNL A   1      47.930  27.747  33.293  1.00  0.00     0.135 A 
ATOM     78  C   UNL A   1      46.694  26.212  34.672  1.00  0.00     0.135 A 
ATOM     79  F   UNL A   1      47.992  28.653  32.304  1.00  0.00    -0.206 F 
ATOM     80  C   UNL A   1      49.108  27.397  33.944  1.00  0.00     0.059 A 
ATOM     81  C   UNL A   1      47.856  25.865  35.352  1.00  0.00     0.059 A 
ATOM     82  F   UNL A   1      45.544  25.628  35.043  1.00  0.00    -0.206 F 
ATOM     83  C   UNL A   1      49.061  26.455  34.974  1.00  0.00     0.060 A 
BRANCH  83  84
ATOM     84  S   UNL A   1      50.590  26.037  35.837  1.00  0.00     0.124 S 
ATOM     85  O   UNL A   1      51.032  24.861  35.096  1.00  0.00    -0.237 OA
ATOM     86  O   UNL A   1      51.393  27.242  35.654  1.00  0.00    -0.237 OA
ATOM     87  O   UNL A   1      50.148  25.789  37.207  1.00  0.00    -0.744 OA
ENDBRANCH  83  84
ENDBRANCH  51  76
ENDBRANCH  25  26
ENDBRANCH  17  20
ENDBRANCH  15  16
ENDBRANCH   1  15
TORSDOF 15
ENDMDL
