MODEL 1
REMARK VINA RESULT:     -12.2      0.000      0.000
REMARK SMILES CC(C)(C)c1ccc(NC(=O)Nc2cccc(C(=O)NCCCNC(=O)c3ccc(-c4c5nc(c(-c6c(F)cc(S(=O)(=O)[O-])cc6F)c6ccc([nH]6)c(-c6c(F)cc(S(=O)(=O)[O-])cc6F)c6nc(c(-c7c(F)cc(S(=O)(=O)[O-])cc7F)c7ccc4[nH]7)C=C6)C=C5)cc3)c2)cc1
REMARK SMILES IDX 22 1 21 2 20 3 18 4 19 5 17 7 13 8 14 9 93 10 15 11 16 12
REMARK SMILES IDX 12 13 9 14 10 15 11 17 8 19 5 20 6 21 95 22 7 23 94 24 2 25
REMARK SMILES IDX 1 26 3 27 4 28 23 29 24 30 25 31 26 33 27 34 28 35 92 36
REMARK SMILES IDX 29 37 91 38 30 39 31 40 32 41 85 42 33 43 90 44 84 45 86 46
REMARK SMILES IDX 34 47 89 48 83 49 82 50 35 52 69 53 48 54 68 55 49 56 52 57
REMARK SMILES IDX 67 58 87 59 50 60 51 61 66 63 88 64 53 65 36 66 37 67 46 68
REMARK SMILES IDX 38 69 39 70 45 71 47 72 40 73 41 74 42 75 43 76 44 77 70 78
REMARK SMILES IDX 71 79 80 80 72 81 73 82 79 83 81 84 74 85 75 86 76 87 77 88
REMARK SMILES IDX 78 89 54 90 55 91 64 92 56 93 57 94 63 95 65 96 58 97 59 98
REMARK SMILES IDX 60 99 61 100 62 101
REMARK H PARENT 20 6 9 16 12 18 24 32 86 51 52 62
REMARK Flexibility Score: inf
ROOT
ATOM      1  C   UNL A   1      32.142  27.780  27.501  1.00  0.00     0.042 C 
ENDROOT
BRANCH   1   2
ATOM      2  C   UNL A   1      31.791  26.869  26.342  1.00  0.00     0.118 C 
BRANCH   2   3
ATOM      3  N   UNL A   1      31.319  25.586  26.811  1.00  0.00    -0.352 N 
ATOM      4  C   UNL A   1      31.595  24.307  26.403  1.00  0.00     0.251 C 
ATOM      5  O   UNL A   1      31.052  23.391  27.022  1.00  0.00    -0.269 OA
ATOM      6  H   UNL A   1      30.682  25.641  27.560  1.00  0.00     0.163 HD
BRANCH   4   7
ATOM      7  C   UNL A   1      32.576  23.974  25.328  1.00  0.00     0.041 A 
ATOM      8  C   UNL A   1      34.794  23.883  24.353  1.00  0.00     0.043 A 
ATOM      9  C   UNL A   1      34.314  23.115  23.292  1.00  0.00     0.026 A 
ATOM     10  C   UNL A   1      33.905  24.403  25.296  1.00  0.00     0.040 A 
ATOM     11  C   UNL A   1      32.977  22.720  23.278  1.00  0.00     0.003 A 
ATOM     12  C   UNL A   1      32.123  23.125  24.306  1.00  0.00     0.014 A 
BRANCH   8  13
ATOM     13  N   UNL A   1      36.186  24.026  24.488  1.00  0.00    -0.308 N 
ATOM     14  N   UNL A   1      36.835  22.379  26.105  1.00  0.00    -0.308 N 
ATOM     15  C   UNL A   1      37.036  23.547  25.434  1.00  0.00     0.323 C 
ATOM     16  H   UNL A   1      37.355  22.316  26.939  1.00  0.00     0.171 HD
ATOM     17  O   UNL A   1      38.066  24.183  25.678  1.00  0.00    -0.248 OA
ATOM     18  H   UNL A   1      36.615  24.561  23.781  1.00  0.00     0.171 HD
BRANCH  14  19
ATOM     19  C   UNL A   1      36.039  21.241  25.858  1.00  0.00     0.042 A 
ATOM     20  C   UNL A   1      34.138  19.364  24.882  1.00  0.00    -0.042 A 
ATOM     21  C   UNL A   1      35.501  19.271  24.560  1.00  0.00     0.006 A 
ATOM     22  C   UNL A   1      33.791  20.309  25.862  1.00  0.00     0.006 A 
ATOM     23  C   UNL A   1      36.443  20.168  25.080  1.00  0.00     0.026 A 
ATOM     24  C   UNL A   1      34.737  21.222  26.365  1.00  0.00     0.026 A 
BRANCH  20  25
ATOM     25  C   UNL A   1      33.085  18.527  24.127  1.00  0.00    -0.013 C 
ATOM     26  C   UNL A   1      32.199  19.374  23.189  1.00  0.00     0.016 C 
ATOM     27  C   UNL A   1      32.145  17.768  25.090  1.00  0.00     0.016 C 
ATOM     28  C   UNL A   1      33.809  17.477  23.256  1.00  0.00     0.016 C 
ENDBRANCH  20  25
ENDBRANCH  14  19
ENDBRANCH   8  13
ENDBRANCH   4   7
ENDBRANCH   2   3
ENDBRANCH   1   2
BRANCH   1  29
ATOM     29  C   UNL A   1      33.469  28.469  27.249  1.00  0.00     0.118 C 
BRANCH  29  30
ATOM     30  N   UNL A   1      33.397  29.895  27.557  1.00  0.00    -0.352 N 
ATOM     31  C   UNL A   1      34.344  30.684  28.163  1.00  0.00     0.251 C 
ATOM     32  H   UNL A   1      32.562  30.348  27.298  1.00  0.00     0.163 HD
ATOM     33  O   UNL A   1      34.052  31.810  28.554  1.00  0.00    -0.269 OA
BRANCH  31  34
ATOM     34  C   UNL A   1      35.702  30.140  28.358  1.00  0.00     0.039 A 
ATOM     35  C   UNL A   1      36.602  30.142  27.293  1.00  0.00     0.014 A 
ATOM     36  C   UNL A   1      36.097  29.687  29.621  1.00  0.00     0.014 A 
ATOM     37  C   UNL A   1      37.925  29.754  27.515  1.00  0.00     0.010 A 
ATOM     38  C   UNL A   1      37.434  29.410  29.862  1.00  0.00     0.010 A 
ATOM     39  C   UNL A   1      38.360  29.425  28.810  1.00  0.00    -0.014 A 
BRANCH  39  40
ATOM     40  C   UNL A   1      39.772  29.069  29.093  1.00  0.00     0.031 A 
ATOM     41  C   UNL A   1      40.700  30.109  29.663  1.00  0.00     0.074 A 
ATOM     42  C   UNL A   1      40.237  27.848  28.764  1.00  0.00     0.049 A 
ATOM     43  N   UNL A   1      41.985  30.036  29.889  1.00  0.00    -0.248 NA
ATOM     44  C   UNL A   1      40.109  31.420  29.991  1.00  0.00     0.031 C 
ATOM     45  C   UNL A   1      39.446  26.776  28.152  1.00  0.00     0.029 A 
ATOM     46  N   UNL A   1      41.491  27.304  28.883  1.00  0.00    -0.354 N 
ATOM     47  C   UNL A   1      42.359  31.289  30.359  1.00  0.00     0.074 A 
ATOM     48  C   UNL A   1      41.179  32.123  30.329  1.00  0.00     0.031 C 
ATOM     49  C   UNL A   1      40.227  25.699  27.973  1.00  0.00     0.029 A 
ATOM     50  C   UNL A   1      41.582  26.015  28.413  1.00  0.00     0.049 A 
ATOM     51  H   UNL A   1      42.254  27.791  29.270  1.00  0.00     0.167 HD
ATOM     52  C   UNL A   1      43.569  31.699  30.803  1.00  0.00     0.037 A 
ATOM     53  C   UNL A   1      42.642  25.186  28.333  1.00  0.00     0.037 A 
ATOM     54  C   UNL A   1      44.729  30.850  30.859  1.00  0.00     0.049 A 
ATOM     55  C   UNL A   1      43.978  25.663  28.837  1.00  0.00     0.074 A 
ATOM     56  C   UNL A   1      45.986  31.144  31.354  1.00  0.00     0.029 A 
ATOM     57  N   UNL A   1      44.773  29.540  30.403  1.00  0.00    -0.354 N 
ATOM     58  N   UNL A   1      44.298  26.830  29.346  1.00  0.00    -0.248 NA
ATOM     59  C   UNL A   1      45.095  24.712  28.762  1.00  0.00     0.031 C 
ATOM     60  C   UNL A   1      46.806  30.031  31.149  1.00  0.00     0.029 A 
ATOM     61  C   UNL A   1      46.045  29.021  30.583  1.00  0.00     0.049 A 
ATOM     62  H   UNL A   1      44.014  29.052  30.010  1.00  0.00     0.167 HD
ATOM     63  C   UNL A   1      45.645  26.742  29.681  1.00  0.00     0.074 A 
ATOM     64  C   UNL A   1      46.077  25.406  29.325  1.00  0.00     0.031 C 
ATOM     65  C   UNL A   1      46.452  27.682  30.233  1.00  0.00     0.037 A 
BRANCH  52  66
ATOM     66  C   UNL A   1      43.700  33.126  31.266  1.00  0.00     0.058 A 
ATOM     67  C   UNL A   1      43.479  33.492  32.603  1.00  0.00     0.135 A 
ATOM     68  C   UNL A   1      44.085  34.133  30.368  1.00  0.00     0.135 A 
ATOM     69  F   UNL A   1      43.093  32.574  33.503  1.00  0.00    -0.206 F 
ATOM     70  C   UNL A   1      43.607  34.811  33.027  1.00  0.00     0.059 A 
ATOM     71  C   UNL A   1      44.249  35.454  30.776  1.00  0.00     0.059 A 
ATOM     72  F   UNL A   1      44.305  33.841  29.076  1.00  0.00    -0.206 F 
ATOM     73  C   UNL A   1      43.995  35.786  32.106  1.00  0.00     0.060 A 
BRANCH  73  74
ATOM     74  S   UNL A   1      44.168  37.488  32.677  1.00  0.00     0.124 S 
ATOM     75  O   UNL A   1      45.541  37.491  33.173  1.00  0.00    -0.237 OA
ATOM     76  O   UNL A   1      43.935  38.252  31.455  1.00  0.00    -0.237 OA
ATOM     77  O   UNL A   1      43.133  37.613  33.698  1.00  0.00    -0.744 OA
ENDBRANCH  73  74
ENDBRANCH  52  66
BRANCH  53  78
ATOM     78  C   UNL A   1      42.476  23.818  27.773  1.00  0.00     0.058 A 
ATOM     79  C   UNL A   1      42.400  22.697  28.612  1.00  0.00     0.135 A 
ATOM     80  C   UNL A   1      42.373  23.604  26.389  1.00  0.00     0.135 A 
ATOM     81  F   UNL A   1      42.498  22.847  29.942  1.00  0.00    -0.206 F 
ATOM     82  C   UNL A   1      42.247  21.411  28.103  1.00  0.00     0.059 A 
ATOM     83  C   UNL A   1      42.191  22.331  25.856  1.00  0.00     0.059 A 
ATOM     84  F   UNL A   1      42.421  24.643  25.542  1.00  0.00    -0.206 F 
ATOM     85  C   UNL A   1      42.139  21.240  26.721  1.00  0.00     0.060 A 
BRANCH  85  86
ATOM     86  S   UNL A   1      41.893  19.572  26.074  1.00  0.00     0.124 S 
ATOM     87  O   UNL A   1      42.272  18.753  27.220  1.00  0.00    -0.237 OA
ATOM     88  O   UNL A   1      40.473  19.580  25.737  1.00  0.00    -0.237 OA
ATOM     89  O   UNL A   1      42.800  19.517  24.932  1.00  0.00    -0.744 OA
ENDBRANCH  85  86
ENDBRANCH  53  78
BRANCH  65  90
ATOM     90  C   UNL A   1      47.873  27.292  30.531  1.00  0.00     0.058 A 
ATOM     91  C   UNL A   1      48.901  27.468  29.593  1.00  0.00     0.135 A 
ATOM     92  C   UNL A   1      48.219  26.802  31.801  1.00  0.00     0.135 A 
ATOM     93  F   UNL A   1      48.623  27.927  28.363  1.00  0.00    -0.206 F 
ATOM     94  C   UNL A   1      50.222  27.153  29.897  1.00  0.00     0.059 A 
ATOM     95  C   UNL A   1      49.538  26.510  32.136  1.00  0.00     0.059 A 
ATOM     96  F   UNL A   1      47.276  26.626  32.739  1.00  0.00    -0.206 F 
ATOM     97  C   UNL A   1      50.531  26.681  31.174  1.00  0.00     0.060 A 
BRANCH  97  98
ATOM     98  S   UNL A   1      52.255  26.321  31.569  1.00  0.00     0.124 S 
ATOM     99  O   UNL A   1      52.919  26.640  30.308  1.00  0.00    -0.237 OA
ATOM    100  O   UNL A   1      52.518  27.238  32.673  1.00  0.00    -0.237 OA
ATOM    101  O   UNL A   1      52.234  24.907  31.927  1.00  0.00    -0.744 OA
ENDBRANCH  97  98
ENDBRANCH  65  90
ENDBRANCH  39  40
ENDBRANCH  31  34
ENDBRANCH  29  30
ENDBRANCH   1  29
TORSDOF 16
ENDMDL
MODEL 2
REMARK VINA RESULT:     -12.1      4.890     10.485
REMARK SMILES CC(C)(C)c1ccc(NC(=O)Nc2cccc(C(=O)NCCCNC(=O)c3ccc(-c4c5nc(c(-c6c(F)cc(S(=O)(=O)[O-])cc6F)c6ccc([nH]6)c(-c6c(F)cc(S(=O)(=O)[O-])cc6F)c6nc(c(-c7c(F)cc(S(=O)(=O)[O-])cc7F)c7ccc4[nH]7)C=C6)C=C5)cc3)c2)cc1
REMARK SMILES IDX 22 1 21 2 20 3 18 4 19 5 17 7 13 8 14 9 93 10 15 11 16 12
REMARK SMILES IDX 12 13 9 14 10 15 11 17 8 19 5 20 6 21 95 22 7 23 94 24 2 25
REMARK SMILES IDX 1 26 3 27 4 28 23 29 24 30 25 31 26 33 27 34 28 35 92 36
REMARK SMILES IDX 29 37 91 38 30 39 31 40 32 41 85 42 33 43 90 44 84 45 86 46
REMARK SMILES IDX 34 47 89 48 83 49 82 50 35 52 69 53 48 54 68 55 49 56 52 57
REMARK SMILES IDX 67 58 87 59 50 60 51 61 66 63 88 64 53 65 36 66 37 67 46 68
REMARK SMILES IDX 38 69 39 70 45 71 47 72 40 73 41 74 42 75 43 76 44 77 70 78
REMARK SMILES IDX 71 79 80 80 72 81 73 82 79 83 81 84 74 85 75 86 76 87 77 88
REMARK SMILES IDX 78 89 54 90 55 91 64 92 56 93 57 94 63 95 65 96 58 97 59 98
REMARK SMILES IDX 60 99 61 100 62 101
REMARK H PARENT 20 6 9 16 12 18 24 32 86 51 52 62
REMARK Flexibility Score: inf
ROOT
ATOM      1  C   UNL A   1      37.826  23.038  25.772  1.00  0.00     0.042 C 
ENDROOT
BRANCH   1   2
ATOM      2  C   UNL A   1      36.428  23.568  25.518  1.00  0.00     0.118 C 
BRANCH   2   3
ATOM      3  N   UNL A   1      35.526  23.191  26.582  1.00  0.00    -0.352 N 
ATOM      4  C   UNL A   1      34.160  23.254  26.687  1.00  0.00     0.251 C 
ATOM      5  O   UNL A   1      33.656  22.828  27.726  1.00  0.00    -0.269 OA
ATOM      6  H   UNL A   1      35.974  22.823  27.379  1.00  0.00     0.163 HD
BRANCH   4   7
ATOM      7  C   UNL A   1      33.267  23.719  25.585  1.00  0.00     0.041 A 
ATOM      8  C   UNL A   1      32.800  24.477  23.330  1.00  0.00     0.043 A 
ATOM      9  C   UNL A   1      31.427  24.397  23.569  1.00  0.00     0.026 A 
ATOM     10  C   UNL A   1      33.703  24.252  24.370  1.00  0.00     0.040 A 
ATOM     11  C   UNL A   1      30.970  23.916  24.796  1.00  0.00     0.003 A 
ATOM     12  C   UNL A   1      31.886  23.553  25.784  1.00  0.00     0.014 A 
BRANCH   8  13
ATOM     13  N   UNL A   1      33.228  24.691  22.008  1.00  0.00    -0.308 N 
ATOM     14  N   UNL A   1      32.357  26.842  21.405  1.00  0.00    -0.308 N 
ATOM     15  C   UNL A   1      32.823  25.603  21.085  1.00  0.00     0.323 C 
ATOM     16  H   UNL A   1      31.840  27.262  20.680  1.00  0.00     0.171 HD
ATOM     17  O   UNL A   1      32.913  25.311  19.888  1.00  0.00    -0.248 OA
ATOM     18  H   UNL A   1      33.936  24.080  21.701  1.00  0.00     0.171 HD
BRANCH  14  19
ATOM     19  C   UNL A   1      32.459  27.652  22.556  1.00  0.00     0.042 A 
ATOM     20  C   UNL A   1      32.525  28.682  25.206  1.00  0.00    -0.042 A 
ATOM     21  C   UNL A   1      33.698  28.480  24.462  1.00  0.00     0.006 A 
ATOM     22  C   UNL A   1      31.313  28.536  24.512  1.00  0.00     0.006 A 
ATOM     23  C   UNL A   1      33.661  28.018  23.141  1.00  0.00     0.026 A 
ATOM     24  C   UNL A   1      31.280  28.049  23.191  1.00  0.00     0.026 A 
BRANCH  20  25
ATOM     25  C   UNL A   1      32.585  28.962  26.722  1.00  0.00    -0.013 C 
ATOM     26  C   UNL A   1      31.651  28.047  27.543  1.00  0.00     0.016 C 
ATOM     27  C   UNL A   1      32.213  30.423  27.059  1.00  0.00     0.016 C 
ATOM     28  C   UNL A   1      34.026  28.719  27.221  1.00  0.00     0.016 C 
ENDBRANCH  20  25
ENDBRANCH  14  19
ENDBRANCH   8  13
ENDBRANCH   4   7
ENDBRANCH   2   3
ENDBRANCH   1   2
BRANCH   1  29
ATOM     29  C   UNL A   1      38.647  24.058  26.536  1.00  0.00     0.118 C 
BRANCH  29  30
ATOM     30  N   UNL A   1      40.071  23.924  26.242  1.00  0.00    -0.352 N 
ATOM     31  C   UNL A   1      41.095  24.771  26.590  1.00  0.00     0.251 C 
ATOM     32  H   UNL A   1      40.330  23.126  25.727  1.00  0.00     0.163 HD
ATOM     33  O   UNL A   1      42.205  24.641  26.082  1.00  0.00    -0.269 OA
BRANCH  31  34
ATOM     34  C   UNL A   1      40.826  25.850  27.560  1.00  0.00     0.039 A 
ATOM     35  C   UNL A   1      39.860  25.661  28.548  1.00  0.00     0.014 A 
ATOM     36  C   UNL A   1      41.583  27.026  27.523  1.00  0.00     0.014 A 
ATOM     37  C   UNL A   1      39.702  26.627  29.544  1.00  0.00     0.010 A 
ATOM     38  C   UNL A   1      41.501  27.926  28.573  1.00  0.00     0.010 A 
ATOM     39  C   UNL A   1      40.550  27.746  29.587  1.00  0.00    -0.014 A 
BRANCH  39  40
ATOM     40  C   UNL A   1      40.453  28.758  30.668  1.00  0.00     0.031 A 
ATOM     41  C   UNL A   1      41.326  28.629  31.887  1.00  0.00     0.074 A 
ATOM     42  C   UNL A   1      39.530  29.738  30.589  1.00  0.00     0.049 A 
ATOM     43  N   UNL A   1      41.327  29.344  32.982  1.00  0.00    -0.248 NA
ATOM     44  C   UNL A   1      42.305  27.527  31.891  1.00  0.00     0.031 C 
ATOM     45  C   UNL A   1      38.589  29.930  29.482  1.00  0.00     0.029 A 
ATOM     46  N   UNL A   1      39.220  30.749  31.463  1.00  0.00    -0.354 N 
ATOM     47  C   UNL A   1      42.284  28.766  33.809  1.00  0.00     0.074 A 
ATOM     48  C   UNL A   1      42.799  27.607  33.117  1.00  0.00     0.031 C 
ATOM     49  C   UNL A   1      37.826  31.005  29.734  1.00  0.00     0.029 A 
ATOM     50  C   UNL A   1      38.190  31.553  31.038  1.00  0.00     0.049 A 
ATOM     51  H   UNL A   1      39.693  30.886  32.316  1.00  0.00     0.167 HD
ATOM     52  C   UNL A   1      42.714  29.181  35.023  1.00  0.00     0.037 A 
ATOM     53  C   UNL A   1      37.596  32.604  31.635  1.00  0.00     0.037 A 
ATOM     54  C   UNL A   1      42.216  30.357  35.687  1.00  0.00     0.049 A 
ATOM     55  C   UNL A   1      38.094  33.051  32.983  1.00  0.00     0.074 A 
ATOM     56  C   UNL A   1      42.630  30.905  36.887  1.00  0.00     0.029 A 
ATOM     57  N   UNL A   1      41.194  31.163  35.208  1.00  0.00    -0.354 N 
ATOM     58  N   UNL A   1      39.050  32.536  33.722  1.00  0.00    -0.248 NA
ATOM     59  C   UNL A   1      37.440  34.224  33.580  1.00  0.00     0.031 C 
ATOM     60  C   UNL A   1      41.823  32.012  37.161  1.00  0.00     0.029 A 
ATOM     61  C   UNL A   1      40.947  32.192  36.102  1.00  0.00     0.049 A 
ATOM     62  H   UNL A   1      40.715  31.025  34.359  1.00  0.00     0.167 HD
ATOM     63  C   UNL A   1      39.132  33.339  34.854  1.00  0.00     0.074 A 
ATOM     64  C   UNL A   1      38.137  34.380  34.699  1.00  0.00     0.031 C 
ATOM     65  C   UNL A   1      39.958  33.227  35.924  1.00  0.00     0.037 A 
BRANCH  52  66
ATOM     66  C   UNL A   1      43.775  28.363  35.708  1.00  0.00     0.058 A 
ATOM     67  C   UNL A   1      45.143  28.580  35.473  1.00  0.00     0.135 A 
ATOM     68  C   UNL A   1      43.422  27.373  36.638  1.00  0.00     0.135 A 
ATOM     69  F   UNL A   1      45.539  29.502  34.581  1.00  0.00    -0.206 F 
ATOM     70  C   UNL A   1      46.120  27.825  36.113  1.00  0.00     0.059 A 
ATOM     71  C   UNL A   1      44.384  26.627  37.314  1.00  0.00     0.059 A 
ATOM     72  F   UNL A   1      42.130  27.121  36.899  1.00  0.00    -0.206 F 
ATOM     73  C   UNL A   1      45.731  26.852  37.034  1.00  0.00     0.060 A 
BRANCH  73  74
ATOM     74  S   UNL A   1      47.013  25.891  37.864  1.00  0.00     0.124 S 
ATOM     75  O   UNL A   1      47.534  25.088  36.763  1.00  0.00    -0.237 OA
ATOM     76  O   UNL A   1      47.906  26.932  38.366  1.00  0.00    -0.237 OA
ATOM     77  O   UNL A   1      46.278  25.152  38.886  1.00  0.00    -0.744 OA
ENDBRANCH  73  74
ENDBRANCH  52  66
BRANCH  53  78
ATOM     78  C   UNL A   1      36.481  33.317  30.953  1.00  0.00     0.058 A 
ATOM     79  C   UNL A   1      35.161  33.196  31.408  1.00  0.00     0.135 A 
ATOM     80  C   UNL A   1      36.716  34.144  29.844  1.00  0.00     0.135 A 
ATOM     81  F   UNL A   1      34.883  32.412  32.461  1.00  0.00    -0.206 F 
ATOM     82  C   UNL A   1      34.108  33.854  30.779  1.00  0.00     0.059 A 
ATOM     83  C   UNL A   1      35.685  34.836  29.215  1.00  0.00     0.059 A 
ATOM     84  F   UNL A   1      37.964  34.309  29.379  1.00  0.00    -0.206 F 
ATOM     85  C   UNL A   1      34.382  34.676  29.685  1.00  0.00     0.060 A 
BRANCH  85  86
ATOM     86  S   UNL A   1      33.015  35.563  28.905  1.00  0.00     0.124 S 
ATOM     87  O   UNL A   1      32.378  34.501  28.135  1.00  0.00    -0.237 OA
ATOM     88  O   UNL A   1      32.269  36.050  30.061  1.00  0.00    -0.237 OA
ATOM     89  O   UNL A   1      33.687  36.595  28.121  1.00  0.00    -0.744 OA
ENDBRANCH  85  86
ENDBRANCH  53  78
BRANCH  65  90
ATOM     90  C   UNL A   1      39.856  34.277  36.996  1.00  0.00     0.058 A 
ATOM     91  C   UNL A   1      40.496  35.519  36.876  1.00  0.00     0.135 A 
ATOM     92  C   UNL A   1      39.048  34.059  38.123  1.00  0.00     0.135 A 
ATOM     93  F   UNL A   1      41.285  35.777  35.821  1.00  0.00    -0.206 F 
ATOM     94  C   UNL A   1      40.352  36.505  37.848  1.00  0.00     0.059 A 
ATOM     95  C   UNL A   1      38.866  35.041  39.091  1.00  0.00     0.059 A 
ATOM     96  F   UNL A   1      38.405  32.891  38.279  1.00  0.00    -0.206 F 
ATOM     97  C   UNL A   1      39.530  36.258  38.950  1.00  0.00     0.060 A 
BRANCH  97  98
ATOM     98  S   UNL A   1      39.316  37.562  40.179  1.00  0.00     0.124 S 
ATOM     99  O   UNL A   1      40.649  38.156  40.212  1.00  0.00    -0.237 OA
ATOM    100  O   UNL A   1      38.270  38.385  39.581  1.00  0.00    -0.237 OA
ATOM    101  O   UNL A   1      38.923  36.835  41.382  1.00  0.00    -0.744 OA
ENDBRANCH  97  98
ENDBRANCH  65  90
ENDBRANCH  39  40
ENDBRANCH  31  34
ENDBRANCH  29  30
ENDBRANCH   1  29
TORSDOF 16
ENDMDL
MODEL 3
REMARK VINA RESULT:     -11.8      2.573      3.361
REMARK SMILES CC(C)(C)c1ccc(NC(=O)Nc2cccc(C(=O)NCCCNC(=O)c3ccc(-c4c5nc(c(-c6c(F)cc(S(=O)(=O)[O-])cc6F)c6ccc([nH]6)c(-c6c(F)cc(S(=O)(=O)[O-])cc6F)c6nc(c(-c7c(F)cc(S(=O)(=O)[O-])cc7F)c7ccc4[nH]7)C=C6)C=C5)cc3)c2)cc1
REMARK SMILES IDX 22 1 21 2 20 3 18 4 19 5 17 7 13 8 14 9 93 10 15 11 16 12
REMARK SMILES IDX 12 13 9 14 10 15 11 17 8 19 5 20 6 21 95 22 7 23 94 24 2 25
REMARK SMILES IDX 1 26 3 27 4 28 23 29 24 30 25 31 26 33 27 34 28 35 92 36
REMARK SMILES IDX 29 37 91 38 30 39 31 40 32 41 85 42 33 43 90 44 84 45 86 46
REMARK SMILES IDX 34 47 89 48 83 49 82 50 35 52 69 53 48 54 68 55 49 56 52 57
REMARK SMILES IDX 67 58 87 59 50 60 51 61 66 63 88 64 53 65 36 66 37 67 46 68
REMARK SMILES IDX 38 69 39 70 45 71 47 72 40 73 41 74 42 75 43 76 44 77 70 78
REMARK SMILES IDX 71 79 80 80 72 81 73 82 79 83 81 84 74 85 75 86 76 87 77 88
REMARK SMILES IDX 78 89 54 90 55 91 64 92 56 93 57 94 63 95 65 96 58 97 59 98
REMARK SMILES IDX 60 99 61 100 62 101
REMARK H PARENT 20 6 9 16 12 18 24 32 86 51 52 62
REMARK Flexibility Score: inf
ROOT
ATOM      1  C   UNL A   1      32.763  27.836  27.089  1.00  0.00     0.042 C 
ENDROOT
BRANCH   1   2
ATOM      2  C   UNL A   1      31.787  27.113  26.182  1.00  0.00     0.118 C 
BRANCH   2   3
ATOM      3  N   UNL A   1      31.373  25.855  26.758  1.00  0.00    -0.352 N 
ATOM      4  C   UNL A   1      31.706  24.559  26.457  1.00  0.00     0.251 C 
ATOM      5  O   UNL A   1      31.204  23.674  27.152  1.00  0.00    -0.269 OA
ATOM      6  H   UNL A   1      30.735  25.943  27.503  1.00  0.00     0.163 HD
BRANCH   4   7
ATOM      7  C   UNL A   1      32.699  24.182  25.408  1.00  0.00     0.041 A 
ATOM      8  C   UNL A   1      34.934  24.013  24.483  1.00  0.00     0.043 A 
ATOM      9  C   UNL A   1      34.454  23.241  23.423  1.00  0.00     0.026 A 
ATOM     10  C   UNL A   1      34.040  24.572  25.398  1.00  0.00     0.040 A 
ATOM     11  C   UNL A   1      33.107  22.884  23.386  1.00  0.00     0.003 A 
ATOM     12  C   UNL A   1      32.244  23.329  24.389  1.00  0.00     0.014 A 
BRANCH   8  13
ATOM     13  N   UNL A   1      36.326  24.118  24.645  1.00  0.00    -0.308 N 
ATOM     14  N   UNL A   1      36.904  22.430  26.247  1.00  0.00    -0.308 N 
ATOM     15  C   UNL A   1      37.146  23.603  25.599  1.00  0.00     0.323 C 
ATOM     16  H   UNL A   1      37.406  22.340  27.089  1.00  0.00     0.171 HD
ATOM     17  O   UNL A   1      38.187  24.209  25.872  1.00  0.00    -0.248 OA
ATOM     18  H   UNL A   1      36.782  24.654  23.956  1.00  0.00     0.171 HD
BRANCH  14  19
ATOM     19  C   UNL A   1      36.083  21.316  25.966  1.00  0.00     0.042 A 
ATOM     20  C   UNL A   1      34.148  19.507  24.932  1.00  0.00    -0.042 A 
ATOM     21  C   UNL A   1      35.510  19.393  24.615  1.00  0.00     0.006 A 
ATOM     22  C   UNL A   1      33.816  20.434  25.935  1.00  0.00     0.006 A 
ATOM     23  C   UNL A   1      36.468  20.255  25.163  1.00  0.00     0.026 A 
ATOM     24  C   UNL A   1      34.779  21.313  26.466  1.00  0.00     0.026 A 
BRANCH  20  25
ATOM     25  C   UNL A   1      33.081  18.714  24.150  1.00  0.00    -0.013 C 
ATOM     26  C   UNL A   1      32.227  19.602  23.221  1.00  0.00     0.016 C 
ATOM     27  C   UNL A   1      32.111  17.961  25.089  1.00  0.00     0.016 C 
ATOM     28  C   UNL A   1      33.786  17.662  23.266  1.00  0.00     0.016 C 
ENDBRANCH  20  25
ENDBRANCH  14  19
ENDBRANCH   8  13
ENDBRANCH   4   7
ENDBRANCH   2   3
ENDBRANCH   1   2
BRANCH   1  29
ATOM     29  C   UNL A   1      33.775  28.611  26.269  1.00  0.00     0.118 C 
BRANCH  29  30
ATOM     30  N   UNL A   1      33.673  30.047  26.513  1.00  0.00    -0.352 N 
ATOM     31  C   UNL A   1      34.434  30.823  27.353  1.00  0.00     0.251 C 
ATOM     32  H   UNL A   1      32.968  30.519  26.014  1.00  0.00     0.163 HD
ATOM     33  O   UNL A   1      34.087  31.970  27.620  1.00  0.00    -0.269 OA
BRANCH  31  34
ATOM     34  C   UNL A   1      35.655  30.242  27.946  1.00  0.00     0.039 A 
ATOM     35  C   UNL A   1      36.859  30.313  27.246  1.00  0.00     0.014 A 
ATOM     36  C   UNL A   1      35.610  29.685  29.228  1.00  0.00     0.014 A 
ATOM     37  C   UNL A   1      38.035  29.885  27.865  1.00  0.00     0.010 A 
ATOM     38  C   UNL A   1      36.792  29.367  29.879  1.00  0.00     0.010 A 
ATOM     39  C   UNL A   1      38.016  29.448  29.200  1.00  0.00    -0.014 A 
BRANCH  39  40
ATOM     40  C   UNL A   1      39.256  29.047  29.909  1.00  0.00     0.031 A 
ATOM     41  C   UNL A   1      39.687  29.804  31.137  1.00  0.00     0.074 A 
ATOM     42  C   UNL A   1      40.030  28.065  29.406  1.00  0.00     0.049 A 
ATOM     43  N   UNL A   1      40.781  29.681  31.842  1.00  0.00    -0.248 NA
ATOM     44  C   UNL A   1      38.782  30.864  31.617  1.00  0.00     0.031 C 
ATOM     45  C   UNL A   1      39.745  27.300  28.189  1.00  0.00     0.029 A 
ATOM     46  N   UNL A   1      41.224  27.552  29.845  1.00  0.00    -0.354 N 
ATOM     47  C   UNL A   1      40.708  30.659  32.828  1.00  0.00     0.074 A 
ATOM     48  C   UNL A   1      39.493  31.406  32.595  1.00  0.00     0.031 C 
ATOM     49  C   UNL A   1      40.722  26.400  27.995  1.00  0.00     0.029 A 
ATOM     50  C   UNL A   1      41.726  26.554  29.043  1.00  0.00     0.049 A 
ATOM     51  H   UNL A   1      41.679  27.868  30.659  1.00  0.00     0.167 HD
ATOM     52  C   UNL A   1      41.561  30.893  33.851  1.00  0.00     0.037 A 
ATOM     53  C   UNL A   1      42.872  25.851  29.135  1.00  0.00     0.037 A 
ATOM     54  C   UNL A   1      42.751  30.120  34.092  1.00  0.00     0.049 A 
ATOM     55  C   UNL A   1      43.803  26.126  30.285  1.00  0.00     0.074 A 
ATOM     56  C   UNL A   1      43.648  30.230  35.138  1.00  0.00     0.029 A 
ATOM     57  N   UNL A   1      43.208  29.096  33.275  1.00  0.00    -0.354 N 
ATOM     58  N   UNL A   1      43.684  27.007  31.251  1.00  0.00    -0.248 NA
ATOM     59  C   UNL A   1      45.023  25.310  30.364  1.00  0.00     0.031 C 
ATOM     60  C   UNL A   1      44.677  29.308  34.926  1.00  0.00     0.029 A 
ATOM     61  C   UNL A   1      44.390  28.581  33.782  1.00  0.00     0.049 A 
ATOM     62  H   UNL A   1      42.759  28.782  32.457  1.00  0.00     0.167 HD
ATOM     63  C   UNL A   1      44.795  26.831  32.068  1.00  0.00     0.074 A 
ATOM     64  C   UNL A   1      45.570  25.752  31.489  1.00  0.00     0.031 C 
ATOM     65  C   UNL A   1      45.142  27.499  33.196  1.00  0.00     0.037 A 
BRANCH  52  66
ATOM     66  C   UNL A   1      41.237  32.026  34.787  1.00  0.00     0.058 A 
ATOM     67  C   UNL A   1      41.766  33.314  34.601  1.00  0.00     0.135 A 
ATOM     68  C   UNL A   1      40.359  31.831  35.865  1.00  0.00     0.135 A 
ATOM     69  F   UNL A   1      42.625  33.555  33.598  1.00  0.00    -0.206 F 
ATOM     70  C   UNL A   1      41.459  34.359  35.466  1.00  0.00     0.059 A 
ATOM     71  C   UNL A   1      40.013  32.870  36.724  1.00  0.00     0.059 A 
ATOM     72  F   UNL A   1      39.826  30.620  36.092  1.00  0.00    -0.206 F 
ATOM     73  C   UNL A   1      40.579  34.128  36.525  1.00  0.00     0.060 A 
BRANCH  73  74
ATOM     74  S   UNL A   1      40.183  35.499  37.628  1.00  0.00     0.124 S 
ATOM     75  O   UNL A   1      39.025  34.971  38.345  1.00  0.00    -0.237 OA
ATOM     76  O   UNL A   1      41.406  35.630  38.414  1.00  0.00    -0.237 OA
ATOM     77  O   UNL A   1      39.905  36.603  36.716  1.00  0.00    -0.744 OA
ENDBRANCH  73  74
ENDBRANCH  52  66
BRANCH  53  78
ATOM     78  C   UNL A   1      43.189  24.808  28.122  1.00  0.00     0.058 A 
ATOM     79  C   UNL A   1      43.814  25.141  26.912  1.00  0.00     0.135 A 
ATOM     80  C   UNL A   1      42.888  23.455  28.350  1.00  0.00     0.135 A 
ATOM     81  F   UNL A   1      44.118  26.420  26.644  1.00  0.00    -0.206 F 
ATOM     82  C   UNL A   1      44.115  24.177  25.955  1.00  0.00     0.059 A 
ATOM     83  C   UNL A   1      43.204  22.469  27.421  1.00  0.00     0.059 A 
ATOM     84  F   UNL A   1      42.306  23.080  29.499  1.00  0.00    -0.206 F 
ATOM     85  C   UNL A   1      43.808  22.841  26.222  1.00  0.00     0.060 A 
BRANCH  85  86
ATOM     86  S   UNL A   1      44.245  21.592  24.992  1.00  0.00     0.124 S 
ATOM     87  O   UNL A   1      45.586  21.212  25.424  1.00  0.00    -0.237 OA
ATOM     88  O   UNL A   1      43.203  20.590  25.190  1.00  0.00    -0.237 OA
ATOM     89  O   UNL A   1      44.172  22.321  23.730  1.00  0.00    -0.744 OA
ENDBRANCH  85  86
ENDBRANCH  53  78
BRANCH  65  90
ATOM     90  C   UNL A   1      46.391  27.060  33.909  1.00  0.00     0.058 A 
ATOM     91  C   UNL A   1      46.369  26.060  34.893  1.00  0.00     0.135 A 
ATOM     92  C   UNL A   1      47.636  27.601  33.550  1.00  0.00     0.135 A 
ATOM     93  F   UNL A   1      45.204  25.515  35.278  1.00  0.00    -0.206 F 
ATOM     94  C   UNL A   1      47.537  25.623  35.509  1.00  0.00     0.059 A 
ATOM     95  C   UNL A   1      48.819  27.158  34.131  1.00  0.00     0.059 A 
ATOM     96  F   UNL A   1      47.713  28.553  32.606  1.00  0.00    -0.206 F 
ATOM     97  C   UNL A   1      48.759  26.175  35.117  1.00  0.00     0.060 A 
BRANCH  97  98
ATOM     98  S   UNL A   1      50.271  25.566  35.892  1.00  0.00     0.124 S 
ATOM     99  O   UNL A   1      49.789  24.372  36.580  1.00  0.00    -0.237 OA
ATOM    100  O   UNL A   1      51.136  25.329  34.741  1.00  0.00    -0.237 OA
ATOM    101  O   UNL A   1      50.677  26.669  36.758  1.00  0.00    -0.744 OA
ENDBRANCH  97  98
ENDBRANCH  65  90
ENDBRANCH  39  40
ENDBRANCH  31  34
ENDBRANCH  29  30
ENDBRANCH   1  29
TORSDOF 16
ENDMDL
