MODEL 1
REMARK VINA RESULT:     -11.8      0.000      0.000
REMARK SMILES Cc1cc(C(=O)N[C@H]2C=C[C@@H](C(=O)NCCCNC(=O)c3ccc(-c4c5nc(c(-c6c(F)cc(S(=O)(=O)[O-])cc6F)c6ccc([nH]6)c(-c6c(F)cc(S(=O)(=O)[O-])cc6F)c6nc(c(-c7c(F)cc(S(=O)(=O)[O-])cc7F)c7ccc4[nH]7)C=C6)C=C5)cc3)C2)no1
REMARK SMILES IDX 16 1 15 2 14 3 12 4 13 5 11 7 8 8 9 9 87 10 10 11 7 12 5 13
REMARK SMILES IDX 6 14 4 16 1 17 2 18 3 19 89 20 88 21 17 22 18 23 19 24 20 26
REMARK SMILES IDX 21 27 22 28 86 29 23 30 85 31 24 32 25 33 26 34 79 35 27 36
REMARK SMILES IDX 84 37 78 38 80 39 28 40 83 41 77 42 76 43 29 45 63 46 42 47
REMARK SMILES IDX 62 48 43 49 46 50 61 51 81 52 44 53 45 54 60 56 82 57 47 58
REMARK SMILES IDX 30 59 31 60 40 61 32 62 33 63 39 64 41 65 34 66 35 67 36 68
REMARK SMILES IDX 37 69 38 70 64 71 65 72 74 73 66 74 67 75 73 76 75 77 68 78
REMARK SMILES IDX 69 79 70 80 71 81 72 82 48 83 49 84 58 85 50 86 51 87 57 88
REMARK SMILES IDX 59 89 52 90 53 91 54 92 55 93 56 94
REMARK H PARENT 14 6 7 15 18 25 80 44 46 55
REMARK Flexibility Score: inf
ROOT
ATOM      1  C   UNL A   1      32.781  27.650  25.683  1.00  0.00     0.042 C 
ENDROOT
BRANCH   1   2
ATOM      2  C   UNL A   1      33.189  26.369  24.965  1.00  0.00     0.117 C 
BRANCH   2   3
ATOM      3  N   UNL A   1      33.559  26.599  23.576  1.00  0.00    -0.356 N 
ATOM      4  C   UNL A   1      33.361  25.860  22.452  1.00  0.00     0.227 C 
ATOM      5  O   UNL A   1      33.735  26.351  21.382  1.00  0.00    -0.274 OA
ATOM      6  H   UNL A   1      34.039  27.445  23.423  1.00  0.00     0.163 HD
BRANCH   4   7
ATOM      7  C   UNL A   1      32.707  24.476  22.463  1.00  0.00     0.103 C 
ATOM      8  C   UNL A   1      32.504  22.579  24.020  1.00  0.00     0.106 C 
ATOM      9  C   UNL A   1      31.280  23.437  24.004  1.00  0.00    -0.006 C 
ATOM     10  C   UNL A   1      33.512  23.392  23.185  1.00  0.00     0.047 C 
ATOM     11  C   UNL A   1      31.375  24.452  23.140  1.00  0.00    -0.016 C 
BRANCH   8  12
ATOM     12  N   UNL A   1      32.984  22.352  25.366  1.00  0.00    -0.344 N 
ATOM     13  C   UNL A   1      33.388  21.197  25.997  1.00  0.00     0.273 C 
ATOM     14  O   UNL A   1      33.808  21.297  27.150  1.00  0.00    -0.267 OA
ATOM     15  H   UNL A   1      33.030  23.161  25.925  1.00  0.00     0.164 HD
BRANCH  13  16
ATOM     16  C   UNL A   1      33.256  19.911  25.315  1.00  0.00     0.171 A 
ATOM     17  C   UNL A   1      33.859  16.994  23.164  1.00  0.00     0.091 C 
ATOM     18  C   UNL A   1      33.521  18.105  24.068  1.00  0.00     0.134 A 
ATOM     19  C   UNL A   1      34.225  19.158  24.598  1.00  0.00     0.082 A 
ATOM     20  O   UNL A   1      32.236  18.166  24.497  1.00  0.00    -0.361 OA
ATOM     21  N   UNL A   1      32.068  19.283  25.286  1.00  0.00    -0.074 NA
ENDBRANCH  13  16
ENDBRANCH   8  12
ENDBRANCH   4   7
ENDBRANCH   2   3
ENDBRANCH   1   2
BRANCH   1  22
ATOM     22  C   UNL A   1      33.768  28.116  26.748  1.00  0.00     0.118 C 
BRANCH  22  23
ATOM     23  N   UNL A   1      33.561  29.500  27.142  1.00  0.00    -0.352 N 
ATOM     24  C   UNL A   1      34.409  30.348  27.814  1.00  0.00     0.251 C 
ATOM     25  H   UNL A   1      32.689  29.884  26.892  1.00  0.00     0.163 HD
ATOM     26  O   UNL A   1      34.000  31.443  28.188  1.00  0.00    -0.269 OA
BRANCH  24  27
ATOM     27  C   UNL A   1      35.799  29.937  28.106  1.00  0.00     0.039 A 
ATOM     28  C   UNL A   1      36.763  30.058  27.099  1.00  0.00     0.014 A 
ATOM     29  C   UNL A   1      36.151  29.412  29.354  1.00  0.00     0.014 A 
ATOM     30  C   UNL A   1      38.090  29.705  27.359  1.00  0.00     0.010 A 
ATOM     31  C   UNL A   1      37.482  29.102  29.626  1.00  0.00     0.010 A 
ATOM     32  C   UNL A   1      38.462  29.246  28.632  1.00  0.00    -0.014 A 
BRANCH  32  33
ATOM     33  C   UNL A   1      39.869  28.892  28.943  1.00  0.00     0.031 A 
ATOM     34  C   UNL A   1      40.781  29.918  29.552  1.00  0.00     0.074 A 
ATOM     35  C   UNL A   1      40.344  27.677  28.612  1.00  0.00     0.049 A 
ATOM     36  N   UNL A   1      42.071  29.854  29.762  1.00  0.00    -0.248 NA
ATOM     37  C   UNL A   1      40.166  31.192  29.953  1.00  0.00     0.031 C 
ATOM     38  C   UNL A   1      39.569  26.603  27.987  1.00  0.00     0.029 A 
ATOM     39  N   UNL A   1      41.603  27.148  28.743  1.00  0.00    -0.354 N 
ATOM     40  C   UNL A   1      42.432  31.094  30.274  1.00  0.00     0.074 A 
ATOM     41  C   UNL A   1      41.223  31.890  30.346  1.00  0.00     0.031 C 
ATOM     42  C   UNL A   1      40.368  25.539  27.799  1.00  0.00     0.029 A 
ATOM     43  C   UNL A   1      41.713  25.865  28.265  1.00  0.00     0.049 A 
ATOM     44  H   UNL A   1      42.356  27.641  29.141  1.00  0.00     0.167 HD
ATOM     45  C   UNL A   1      43.657  31.532  30.646  1.00  0.00     0.037 A 
ATOM     46  C   UNL A   1      42.781  25.046  28.203  1.00  0.00     0.037 A 
ATOM     47  C   UNL A   1      44.850  30.729  30.625  1.00  0.00     0.049 A 
ATOM     48  C   UNL A   1      44.112  25.522  28.708  1.00  0.00     0.074 A 
ATOM     49  C   UNL A   1      46.133  31.076  31.011  1.00  0.00     0.029 A 
ATOM     50  N   UNL A   1      44.900  29.407  30.212  1.00  0.00    -0.354 N 
ATOM     51  N   UNL A   1      44.435  26.699  29.186  1.00  0.00    -0.248 NA
ATOM     52  C   UNL A   1      45.221  24.560  28.667  1.00  0.00     0.031 C 
ATOM     53  C   UNL A   1      46.960  29.960  30.833  1.00  0.00     0.029 A 
ATOM     54  C   UNL A   1      46.189  28.919  30.343  1.00  0.00     0.049 A 
ATOM     55  H   UNL A   1      44.133  28.892  29.873  1.00  0.00     0.167 HD
ATOM     56  C   UNL A   1      45.784  26.618  29.509  1.00  0.00     0.074 A 
ATOM     57  C   UNL A   1      46.215  25.274  29.182  1.00  0.00     0.031 C 
ATOM     58  C   UNL A   1      46.592  27.573  30.026  1.00  0.00     0.037 A 
BRANCH  45  59
ATOM     59  C   UNL A   1      43.758  32.958  31.093  1.00  0.00     0.058 A 
ATOM     60  C   UNL A   1      44.023  33.995  30.185  1.00  0.00     0.135 A 
ATOM     61  C   UNL A   1      43.606  33.290  32.448  1.00  0.00     0.135 A 
ATOM     62  F   UNL A   1      44.196  33.722  28.883  1.00  0.00    -0.206 F 
ATOM     63  C   UNL A   1      44.166  35.311  30.610  1.00  0.00     0.059 A 
ATOM     64  C   UNL A   1      43.732  34.601  32.893  1.00  0.00     0.059 A 
ATOM     65  F   UNL A   1      43.358  32.331  33.355  1.00  0.00    -0.206 F 
ATOM     66  C   UNL A   1      44.032  35.603  31.969  1.00  0.00     0.060 A 
BRANCH  66  67
ATOM     67  S   UNL A   1      44.248  37.303  32.534  1.00  0.00     0.124 S 
ATOM     68  O   UNL A   1      45.595  37.250  33.094  1.00  0.00    -0.237 OA
ATOM     69  O   UNL A   1      44.106  38.075  31.303  1.00  0.00    -0.237 OA
ATOM     70  O   UNL A   1      43.169  37.471  33.501  1.00  0.00    -0.744 OA
ENDBRANCH  66  67
ENDBRANCH  45  59
BRANCH  46  71
ATOM     71  C   UNL A   1      42.623  23.678  27.656  1.00  0.00     0.058 A 
ATOM     72  C   UNL A   1      42.760  23.440  26.280  1.00  0.00     0.135 A 
ATOM     73  C   UNL A   1      42.364  22.584  28.493  1.00  0.00     0.135 A 
ATOM     74  F   UNL A   1      43.005  24.461  25.446  1.00  0.00    -0.206 F 
ATOM     75  C   UNL A   1      42.642  22.161  25.751  1.00  0.00     0.059 A 
ATOM     76  C   UNL A   1      42.252  21.294  27.987  1.00  0.00     0.059 A 
ATOM     77  F   UNL A   1      42.240  22.767  29.817  1.00  0.00    -0.206 F 
ATOM     78  C   UNL A   1      42.386  21.093  26.613  1.00  0.00     0.060 A 
BRANCH  78  79
ATOM     79  S   UNL A   1      42.296  19.420  25.939  1.00  0.00     0.124 S 
ATOM     80  O   UNL A   1      43.089  19.551  24.722  1.00  0.00    -0.237 OA
ATOM     81  O   UNL A   1      42.889  18.616  27.003  1.00  0.00    -0.237 OA
ATOM     82  O   UNL A   1      40.862  19.223  25.744  1.00  0.00    -0.744 OA
ENDBRANCH  78  79
ENDBRANCH  46  71
BRANCH  58  83
ATOM     83  C   UNL A   1      48.017  27.192  30.289  1.00  0.00     0.058 A 
ATOM     84  C   UNL A   1      49.020  27.433  29.338  1.00  0.00     0.135 A 
ATOM     85  C   UNL A   1      48.389  26.623  31.516  1.00  0.00     0.135 A 
ATOM     86  F   UNL A   1      48.708  27.971  28.149  1.00  0.00    -0.206 F 
ATOM     87  C   UNL A   1      50.349  27.113  29.593  1.00  0.00     0.059 A 
ATOM     88  C   UNL A   1      49.713  26.302  31.794  1.00  0.00     0.059 A 
ATOM     89  F   UNL A   1      47.462  26.376  32.455  1.00  0.00    -0.206 F 
ATOM     90  C   UNL A   1      50.686  26.544  30.823  1.00  0.00     0.060 A 
BRANCH  90  91
ATOM     91  S   UNL A   1      52.416  26.162  31.172  1.00  0.00     0.124 S 
ATOM     92  O   UNL A   1      52.302  24.865  31.828  1.00  0.00    -0.237 OA
ATOM     93  O   UNL A   1      53.019  26.150  29.843  1.00  0.00    -0.237 OA
ATOM     94  O   UNL A   1      52.833  27.269  32.028  1.00  0.00    -0.744 OA
ENDBRANCH  90  91
ENDBRANCH  58  83
ENDBRANCH  32  33
ENDBRANCH  24  27
ENDBRANCH  22  23
ENDBRANCH   1  22
TORSDOF 15
ENDMDL
MODEL 2
REMARK VINA RESULT:     -11.6      5.019     10.390
REMARK SMILES Cc1cc(C(=O)N[C@H]2C=C[C@@H](C(=O)NCCCNC(=O)c3ccc(-c4c5nc(c(-c6c(F)cc(S(=O)(=O)[O-])cc6F)c6ccc([nH]6)c(-c6c(F)cc(S(=O)(=O)[O-])cc6F)c6nc(c(-c7c(F)cc(S(=O)(=O)[O-])cc7F)c7ccc4[nH]7)C=C6)C=C5)cc3)C2)no1
REMARK SMILES IDX 16 1 15 2 14 3 12 4 13 5 11 7 8 8 9 9 87 10 10 11 7 12 5 13
REMARK SMILES IDX 6 14 4 16 1 17 2 18 3 19 89 20 88 21 17 22 18 23 19 24 20 26
REMARK SMILES IDX 21 27 22 28 86 29 23 30 85 31 24 32 25 33 26 34 79 35 27 36
REMARK SMILES IDX 84 37 78 38 80 39 28 40 83 41 77 42 76 43 29 45 63 46 42 47
REMARK SMILES IDX 62 48 43 49 46 50 61 51 81 52 44 53 45 54 60 56 82 57 47 58
REMARK SMILES IDX 30 59 31 60 40 61 32 62 33 63 39 64 41 65 34 66 35 67 36 68
REMARK SMILES IDX 37 69 38 70 64 71 65 72 74 73 66 74 67 75 73 76 75 77 68 78
REMARK SMILES IDX 69 79 70 80 71 81 72 82 48 83 49 84 58 85 50 86 51 87 57 88
REMARK SMILES IDX 59 89 52 90 53 91 54 92 55 93 56 94
REMARK H PARENT 14 6 7 15 18 25 80 44 46 55
REMARK Flexibility Score: inf
ROOT
ATOM      1  C   UNL A   1      40.720  21.569  27.184  1.00  0.00     0.042 C 
ENDROOT
BRANCH   1   2
ATOM      2  C   UNL A   1      39.507  21.608  26.263  1.00  0.00     0.117 C 
BRANCH   2   3
ATOM      3  N   UNL A   1      38.685  22.791  26.469  1.00  0.00    -0.356 N 
ATOM      4  C   UNL A   1      37.548  23.221  25.859  1.00  0.00     0.227 C 
ATOM      5  O   UNL A   1      37.027  24.251  26.299  1.00  0.00    -0.274 OA
ATOM      6  H   UNL A   1      39.011  23.388  27.180  1.00  0.00     0.163 HD
BRANCH   4   7
ATOM      7  C   UNL A   1      36.905  22.494  24.675  1.00  0.00     0.103 C 
ATOM      8  C   UNL A   1      34.648  21.780  23.995  1.00  0.00     0.106 C 
ATOM      9  C   UNL A   1      35.077  23.041  23.315  1.00  0.00    -0.006 C 
ATOM     10  C   UNL A   1      35.752  21.558  25.048  1.00  0.00     0.047 C 
ATOM     11  C   UNL A   1      36.312  23.416  23.660  1.00  0.00    -0.016 C 
BRANCH   8  12
ATOM     12  N   UNL A   1      33.344  21.917  24.608  1.00  0.00    -0.344 N 
ATOM     13  C   UNL A   1      32.364  20.983  24.862  1.00  0.00     0.273 C 
ATOM     14  O   UNL A   1      31.354  21.366  25.454  1.00  0.00    -0.267 OA
ATOM     15  H   UNL A   1      33.119  22.832  24.892  1.00  0.00     0.164 HD
BRANCH  13  16
ATOM     16  C   UNL A   1      32.525  19.611  24.384  1.00  0.00     0.171 A 
ATOM     17  C   UNL A   1      33.563  16.102  24.051  1.00  0.00     0.091 C 
ATOM     18  C   UNL A   1      33.075  17.490  24.090  1.00  0.00     0.134 A 
ATOM     19  C   UNL A   1      33.044  18.469  25.052  1.00  0.00     0.082 A 
ATOM     20  O   UNL A   1      32.538  17.975  22.943  1.00  0.00    -0.361 OA
ATOM     21  N   UNL A   1      32.181  19.293  23.124  1.00  0.00    -0.074 NA
ENDBRANCH  13  16
ENDBRANCH   8  12
ENDBRANCH   4   7
ENDBRANCH   2   3
ENDBRANCH   1   2
BRANCH   1  22
ATOM     22  C   UNL A   1      41.327  22.936  27.485  1.00  0.00     0.118 C 
BRANCH  22  23
ATOM     23  N   UNL A   1      41.682  23.672  26.282  1.00  0.00    -0.352 N 
ATOM     24  C   UNL A   1      41.752  25.030  26.085  1.00  0.00     0.251 C 
ATOM     25  H   UNL A   1      41.902  23.118  25.498  1.00  0.00     0.163 HD
ATOM     26  O   UNL A   1      41.930  25.470  24.953  1.00  0.00    -0.269 OA
BRANCH  24  27
ATOM     27  C   UNL A   1      41.594  25.960  27.224  1.00  0.00     0.039 A 
ATOM     28  C   UNL A   1      42.553  26.960  27.415  1.00  0.00     0.014 A 
ATOM     29  C   UNL A   1      40.524  25.835  28.116  1.00  0.00     0.014 A 
ATOM     30  C   UNL A   1      42.410  27.870  28.466  1.00  0.00     0.010 A 
ATOM     31  C   UNL A   1      40.358  26.769  29.137  1.00  0.00     0.010 A 
ATOM     32  C   UNL A   1      41.299  27.794  29.320  1.00  0.00    -0.014 A 
BRANCH  32  33
ATOM     33  C   UNL A   1      41.107  28.765  30.426  1.00  0.00     0.031 A 
ATOM     34  C   UNL A   1      41.974  28.684  31.650  1.00  0.00     0.074 A 
ATOM     35  C   UNL A   1      40.111  29.667  30.362  1.00  0.00     0.049 A 
ATOM     36  N   UNL A   1      41.871  29.338  32.779  1.00  0.00    -0.248 NA
ATOM     37  C   UNL A   1      43.086  27.723  31.608  1.00  0.00     0.031 C 
ATOM     38  C   UNL A   1      39.180  29.826  29.243  1.00  0.00     0.029 A 
ATOM     39  N   UNL A   1      39.706  30.612  31.271  1.00  0.00    -0.354 N 
ATOM     40  C   UNL A   1      42.872  28.834  33.599  1.00  0.00     0.074 A 
ATOM     41  C   UNL A   1      43.575  27.822  32.837  1.00  0.00     0.031 C 
ATOM     42  C   UNL A   1      38.319  30.819  29.528  1.00  0.00     0.029 A 
ATOM     43  C   UNL A   1      38.621  31.345  30.856  1.00  0.00     0.049 A 
ATOM     44  H   UNL A   1      40.150  30.750  32.138  1.00  0.00     0.167 HD
ATOM     45  C   UNL A   1      43.177  29.180  34.872  1.00  0.00     0.037 A 
ATOM     46  C   UNL A   1      37.942  32.326  31.480  1.00  0.00     0.037 A 
ATOM     47  C   UNL A   1      42.516  30.220  35.614  1.00  0.00     0.049 A 
ATOM     48  C   UNL A   1      38.357  32.757  32.857  1.00  0.00     0.074 A 
ATOM     49  C   UNL A   1      42.774  30.663  36.899  1.00  0.00     0.029 A 
ATOM     50  N   UNL A   1      41.476  30.995  35.125  1.00  0.00    -0.354 N 
ATOM     51  N   UNL A   1      39.305  32.267  33.619  1.00  0.00    -0.248 NA
ATOM     52  C   UNL A   1      37.613  33.872  33.458  1.00  0.00     0.031 C 
ATOM     53  C   UNL A   1      41.889  31.709  37.187  1.00  0.00     0.029 A 
ATOM     54  C   UNL A   1      41.088  31.921  36.077  1.00  0.00     0.049 A 
ATOM     55  H   UNL A   1      41.072  30.900  34.232  1.00  0.00     0.167 HD
ATOM     56  C   UNL A   1      39.275  33.019  34.787  1.00  0.00     0.074 A 
ATOM     57  C   UNL A   1      38.223  34.002  34.629  1.00  0.00     0.031 C 
ATOM     58  C   UNL A   1      40.048  32.901  35.893  1.00  0.00     0.037 A 
BRANCH  45  59
ATOM     59  C   UNL A   1      44.270  28.404  35.540  1.00  0.00     0.058 A 
ATOM     60  C   UNL A   1      43.998  27.252  36.292  1.00  0.00     0.135 A 
ATOM     61  C   UNL A   1      45.604  28.828  35.441  1.00  0.00     0.135 A 
ATOM     62  F   UNL A   1      42.734  26.820  36.430  1.00  0.00    -0.206 F 
ATOM     63  C   UNL A   1      45.008  26.561  36.952  1.00  0.00     0.059 A 
ATOM     64  C   UNL A   1      46.632  28.146  36.082  1.00  0.00     0.059 A 
ATOM     65  F   UNL A   1      45.913  29.929  34.737  1.00  0.00    -0.206 F 
ATOM     66  C   UNL A   1      46.322  27.025  36.853  1.00  0.00     0.060 A 
BRANCH  66  67
ATOM     67  S   UNL A   1      47.636  26.155  37.733  1.00  0.00     0.124 S 
ATOM     68  O   UNL A   1      47.131  26.184  39.102  1.00  0.00    -0.237 OA
ATOM     69  O   UNL A   1      47.645  24.844  37.091  1.00  0.00    -0.237 OA
ATOM     70  O   UNL A   1      48.811  26.981  37.475  1.00  0.00    -0.744 OA
ENDBRANCH  66  67
ENDBRANCH  45  59
BRANCH  46  71
ATOM     71  C   UNL A   1      36.806  32.982  30.791  1.00  0.00     0.058 A 
ATOM     72  C   UNL A   1      35.485  32.709  31.175  1.00  0.00     0.135 A 
ATOM     73  C   UNL A   1      37.016  33.911  29.763  1.00  0.00     0.135 A 
ATOM     74  F   UNL A   1      35.242  31.823  32.153  1.00  0.00    -0.206 F 
ATOM     75  C   UNL A   1      34.407  33.334  30.560  1.00  0.00     0.059 A 
ATOM     76  C   UNL A   1      35.954  34.557  29.140  1.00  0.00     0.059 A 
ATOM     77  F   UNL A   1      38.266  34.212  29.375  1.00  0.00    -0.206 F 
ATOM     78  C   UNL A   1      34.652  34.256  29.541  1.00  0.00     0.060 A 
BRANCH  78  79
ATOM     79  S   UNL A   1      33.258  35.119  28.781  1.00  0.00     0.124 S 
ATOM     80  O   UNL A   1      33.934  36.201  28.076  1.00  0.00    -0.237 OA
ATOM     81  O   UNL A   1      32.663  34.084  27.942  1.00  0.00    -0.237 OA
ATOM     82  O   UNL A   1      32.454  35.517  29.934  1.00  0.00    -0.744 OA
ENDBRANCH  78  79
ENDBRANCH  46  71
BRANCH  58  83
ATOM     83  C   UNL A   1      39.799  33.871  37.007  1.00  0.00     0.058 A 
ATOM     84  C   UNL A   1      38.915  33.564  38.052  1.00  0.00     0.135 A 
ATOM     85  C   UNL A   1      40.480  35.096  37.051  1.00  0.00     0.135 A 
ATOM     86  F   UNL A   1      38.239  32.405  38.047  1.00  0.00    -0.206 F 
ATOM     87  C   UNL A   1      38.709  34.448  39.106  1.00  0.00     0.059 A 
ATOM     88  C   UNL A   1      40.293  35.991  38.099  1.00  0.00     0.059 A 
ATOM     89  F   UNL A   1      41.335  35.430  36.072  1.00  0.00    -0.206 F 
ATOM     90  C   UNL A   1      39.399  35.661  39.119  1.00  0.00     0.060 A 
BRANCH  90  91
ATOM     91  S   UNL A   1      39.162  36.794  40.505  1.00  0.00     0.124 S 
ATOM     92  O   UNL A   1      38.314  36.002  41.388  1.00  0.00    -0.237 OA
ATOM     93  O   UNL A   1      40.526  37.022  40.973  1.00  0.00    -0.237 OA
ATOM     94  O   UNL A   1      38.522  37.950  39.883  1.00  0.00    -0.744 OA
ENDBRANCH  90  91
ENDBRANCH  58  83
ENDBRANCH  32  33
ENDBRANCH  24  27
ENDBRANCH  22  23
ENDBRANCH   1  22
TORSDOF 15
ENDMDL
MODEL 3
REMARK VINA RESULT:     -11.6      5.019     10.801
REMARK SMILES Cc1cc(C(=O)N[C@H]2C=C[C@@H](C(=O)NCCCNC(=O)c3ccc(-c4c5nc(c(-c6c(F)cc(S(=O)(=O)[O-])cc6F)c6ccc([nH]6)c(-c6c(F)cc(S(=O)(=O)[O-])cc6F)c6nc(c(-c7c(F)cc(S(=O)(=O)[O-])cc7F)c7ccc4[nH]7)C=C6)C=C5)cc3)C2)no1
REMARK SMILES IDX 16 1 15 2 14 3 12 4 13 5 11 7 8 8 9 9 87 10 10 11 7 12 5 13
REMARK SMILES IDX 6 14 4 16 1 17 2 18 3 19 89 20 88 21 17 22 18 23 19 24 20 26
REMARK SMILES IDX 21 27 22 28 86 29 23 30 85 31 24 32 25 33 26 34 79 35 27 36
REMARK SMILES IDX 84 37 78 38 80 39 28 40 83 41 77 42 76 43 29 45 63 46 42 47
REMARK SMILES IDX 62 48 43 49 46 50 61 51 81 52 44 53 45 54 60 56 82 57 47 58
REMARK SMILES IDX 30 59 31 60 40 61 32 62 33 63 39 64 41 65 34 66 35 67 36 68
REMARK SMILES IDX 37 69 38 70 64 71 65 72 74 73 66 74 67 75 73 76 75 77 68 78
REMARK SMILES IDX 69 79 70 80 71 81 72 82 48 83 49 84 58 85 50 86 51 87 57 88
REMARK SMILES IDX 59 89 52 90 53 91 54 92 55 93 56 94
REMARK H PARENT 14 6 7 15 18 25 80 44 46 55
REMARK Flexibility Score: inf
ROOT
ATOM      1  C   UNL A   1      40.597  21.528  27.441  1.00  0.00     0.042 C 
ENDROOT
BRANCH   1   2
ATOM      2  C   UNL A   1      40.510  21.072  25.989  1.00  0.00     0.117 C 
BRANCH   2   3
ATOM      3  N   UNL A   1      39.290  20.332  25.707  1.00  0.00    -0.356 N 
ATOM      4  C   UNL A   1      38.091  20.724  25.198  1.00  0.00     0.227 C 
ATOM      5  O   UNL A   1      37.246  19.843  25.004  1.00  0.00    -0.274 OA
ATOM      6  H   UNL A   1      39.342  19.373  25.923  1.00  0.00     0.163 HD
BRANCH   4   7
ATOM      7  C   UNL A   1      37.757  22.179  24.863  1.00  0.00     0.103 C 
ATOM      8  C   UNL A   1      35.750  23.502  24.324  1.00  0.00     0.106 C 
ATOM      9  C   UNL A   1      36.172  23.660  25.750  1.00  0.00    -0.006 C 
ATOM     10  C   UNL A   1      36.652  22.360  23.818  1.00  0.00     0.047 C 
ATOM     11  C   UNL A   1      37.277  22.966  26.039  1.00  0.00    -0.016 C 
BRANCH   8  12
ATOM     12  N   UNL A   1      34.347  23.164  24.214  1.00  0.00    -0.344 N 
ATOM     13  C   UNL A   1      33.298  23.846  23.640  1.00  0.00     0.273 C 
ATOM     14  O   UNL A   1      32.196  23.297  23.639  1.00  0.00    -0.267 OA
ATOM     15  H   UNL A   1      34.101  22.300  24.617  1.00  0.00     0.164 HD
BRANCH  13  16
ATOM     16  C   UNL A   1      33.507  25.192  23.111  1.00  0.00     0.171 A 
ATOM     17  C   UNL A   1      33.665  28.847  22.757  1.00  0.00     0.091 C 
ATOM     18  C   UNL A   1      33.653  27.375  22.790  1.00  0.00     0.134 A 
ATOM     19  C   UNL A   1      33.562  26.439  23.790  1.00  0.00     0.082 A 
ATOM     20  O   UNL A   1      33.730  26.742  21.593  1.00  0.00    -0.361 OA
ATOM     21  N   UNL A   1      33.653  25.381  21.787  1.00  0.00    -0.074 NA
ENDBRANCH  13  16
ENDBRANCH   8  12
ENDBRANCH   4   7
ENDBRANCH   2   3
ENDBRANCH   1   2
BRANCH   1  22
ATOM     22  C   UNL A   1      40.662  23.041  27.623  1.00  0.00     0.118 C 
BRANCH  22  23
ATOM     23  N   UNL A   1      40.958  23.746  26.386  1.00  0.00    -0.352 N 
ATOM     24  C   UNL A   1      41.030  25.098  26.152  1.00  0.00     0.251 C 
ATOM     25  H   UNL A   1      41.132  23.172  25.604  1.00  0.00     0.163 HD
ATOM     26  O   UNL A   1      41.150  25.509  25.002  1.00  0.00    -0.269 OA
BRANCH  24  27
ATOM     27  C   UNL A   1      40.940  26.056  27.276  1.00  0.00     0.039 A 
ATOM     28  C   UNL A   1      41.881  27.088  27.358  1.00  0.00     0.014 A 
ATOM     29  C   UNL A   1      39.954  25.927  28.259  1.00  0.00     0.014 A 
ATOM     30  C   UNL A   1      41.800  28.024  28.392  1.00  0.00     0.010 A 
ATOM     31  C   UNL A   1      39.847  26.885  29.265  1.00  0.00     0.010 A 
ATOM     32  C   UNL A   1      40.768  27.941  29.340  1.00  0.00    -0.014 A 
BRANCH  32  33
ATOM     33  C   UNL A   1      40.642  28.938  30.432  1.00  0.00     0.031 A 
ATOM     34  C   UNL A   1      41.531  28.842  31.639  1.00  0.00     0.074 A 
ATOM     35  C   UNL A   1      39.682  29.879  30.374  1.00  0.00     0.049 A 
ATOM     36  N   UNL A   1      41.480  29.518  32.757  1.00  0.00    -0.248 NA
ATOM     37  C   UNL A   1      42.602  27.834  31.590  1.00  0.00     0.031 C 
ATOM     38  C   UNL A   1      38.734  30.058  29.273  1.00  0.00     0.029 A 
ATOM     39  N   UNL A   1      39.336  30.855  31.274  1.00  0.00    -0.354 N 
ATOM     40  C   UNL A   1      42.478  28.988  33.565  1.00  0.00     0.074 A 
ATOM     41  C   UNL A   1      43.121  27.935  32.806  1.00  0.00     0.031 C 
ATOM     42  C   UNL A   1      37.921  31.090  29.557  1.00  0.00     0.029 A 
ATOM     43  C   UNL A   1      38.274  31.626  30.869  1.00  0.00     0.049 A 
ATOM     44  H   UNL A   1      39.806  30.991  32.128  1.00  0.00     0.167 HD
ATOM     45  C   UNL A   1      42.825  29.343  34.824  1.00  0.00     0.037 A 
ATOM     46  C   UNL A   1      37.650  32.645  31.490  1.00  0.00     0.037 A 
ATOM     47  C   UNL A   1      42.224  30.422  35.561  1.00  0.00     0.049 A 
ATOM     48  C   UNL A   1      38.113  33.082  32.849  1.00  0.00     0.074 A 
ATOM     49  C   UNL A   1      42.530  30.876  36.832  1.00  0.00     0.029 A 
ATOM     50  N   UNL A   1      41.207  31.231  35.081  1.00  0.00    -0.354 N 
ATOM     51  N   UNL A   1      39.057  32.566  33.600  1.00  0.00    -0.248 NA
ATOM     52  C   UNL A   1      37.429  34.237  33.446  1.00  0.00     0.031 C 
ATOM     53  C   UNL A   1      41.695  31.963  37.120  1.00  0.00     0.029 A 
ATOM     54  C   UNL A   1      40.879  32.188  36.025  1.00  0.00     0.049 A 
ATOM     55  H   UNL A   1      40.780  31.137  34.199  1.00  0.00     0.167 HD
ATOM     56  C   UNL A   1      39.084  33.338  34.755  1.00  0.00     0.074 A 
ATOM     57  C   UNL A   1      38.071  34.362  34.601  1.00  0.00     0.031 C 
ATOM     58  C   UNL A   1      39.876  33.207  35.845  1.00  0.00     0.037 A 
BRANCH  45  59
ATOM     59  C   UNL A   1      43.901  28.533  35.482  1.00  0.00     0.058 A 
ATOM     60  C   UNL A   1      45.257  28.861  35.337  1.00  0.00     0.135 A 
ATOM     61  C   UNL A   1      43.571  27.406  36.251  1.00  0.00     0.135 A 
ATOM     62  F   UNL A   1      45.619  29.919  34.595  1.00  0.00    -0.206 F 
ATOM     63  C   UNL A   1      46.256  28.080  35.907  1.00  0.00     0.059 A 
ATOM     64  C   UNL A   1      44.553  26.618  36.840  1.00  0.00     0.059 A 
ATOM     65  F   UNL A   1      42.287  27.050  36.412  1.00  0.00    -0.206 F 
ATOM     66  C   UNL A   1      45.894  26.951  36.646  1.00  0.00     0.060 A 
BRANCH  66  67
ATOM     67  S   UNL A   1      47.185  25.911  37.362  1.00  0.00     0.124 S 
ATOM     68  O   UNL A   1      46.533  24.605  37.363  1.00  0.00    -0.237 OA
ATOM     69  O   UNL A   1      48.288  26.066  36.418  1.00  0.00    -0.237 OA
ATOM     70  O   UNL A   1      47.403  26.510  38.674  1.00  0.00    -0.744 OA
ENDBRANCH  66  67
ENDBRANCH  45  59
BRANCH  46  71
ATOM     71  C   UNL A   1      36.527  33.336  30.814  1.00  0.00     0.058 A 
ATOM     72  C   UNL A   1      35.208  33.153  31.255  1.00  0.00     0.135 A 
ATOM     73  C   UNL A   1      36.750  34.210  29.741  1.00  0.00     0.135 A 
ATOM     74  F   UNL A   1      34.953  32.322  32.277  1.00  0.00    -0.206 F 
ATOM     75  C   UNL A   1      34.144  33.813  30.652  1.00  0.00     0.059 A 
ATOM     76  C   UNL A   1      35.702  34.889  29.129  1.00  0.00     0.059 A 
ATOM     77  F   UNL A   1      37.998  34.424  29.298  1.00  0.00    -0.206 F 
ATOM     78  C   UNL A   1      34.401  34.678  29.587  1.00  0.00     0.060 A 
BRANCH  78  79
ATOM     79  S   UNL A   1      33.030  35.587  28.841  1.00  0.00     0.124 S 
ATOM     80  O   UNL A   1      32.277  36.000  30.020  1.00  0.00    -0.237 OA
ATOM     81  O   UNL A   1      33.713  36.653  28.115  1.00  0.00    -0.237 OA
ATOM     82  O   UNL A   1      32.390  34.580  27.999  1.00  0.00    -0.744 OA
ENDBRANCH  78  79
ENDBRANCH  46  71
BRANCH  58  83
ATOM     83  C   UNL A   1      39.692  34.206  36.946  1.00  0.00     0.058 A 
ATOM     84  C   UNL A   1      38.916  33.907  38.075  1.00  0.00     0.135 A 
ATOM     85  C   UNL A   1      40.331  35.454  36.892  1.00  0.00     0.135 A 
ATOM     86  F   UNL A   1      38.282  32.727  38.166  1.00  0.00    -0.206 F 
ATOM     87  C   UNL A   1      38.772  34.818  39.116  1.00  0.00     0.059 A 
ATOM     88  C   UNL A   1      40.207  36.377  37.925  1.00  0.00     0.059 A 
ATOM     89  F   UNL A   1      41.085  35.781  35.831  1.00  0.00    -0.206 F 
ATOM     90  C   UNL A   1      39.418  36.053  39.030  1.00  0.00     0.060 A 
BRANCH  90  91
ATOM     91  S   UNL A   1      39.264  37.223  40.396  1.00  0.00     0.124 S 
ATOM     92  O   UNL A   1      38.529  38.313  39.765  1.00  0.00    -0.237 OA
ATOM     93  O   UNL A   1      38.528  36.458  41.397  1.00  0.00    -0.237 OA
ATOM     94  O   UNL A   1      40.653  37.515  40.741  1.00  0.00    -0.744 OA
ENDBRANCH  90  91
ENDBRANCH  58  83
ENDBRANCH  32  33
ENDBRANCH  24  27
ENDBRANCH  22  23
ENDBRANCH   1  22
TORSDOF 15
ENDMDL
