MODEL 1
REMARK VINA RESULT:     -15.3      0.000      0.000
REMARK SMILES Cc1cccc(OC2(C(=O)NCCCNC(=O)c3ccc(-c4c5nc(c(-c6c(F)cc(S(=O)(=O)[O-])cc6F)c6ccc([nH]6)c(-c6c(F)cc(S(=O)(=O)[O-])cc6F)c6nc(c(-c7c(F)cc(S(=O)(=O)[O-])cc7F)c7ccc4[nH]7)C=C6)C=C5)cc3)CCN(C(=O)c3cnc[nH]c3=O)CC2)c1
REMARK SMILES IDX 13 1 12 2 11 3 9 4 10 5 8 7 84 8 97 9 85 10 96 11 86 12
REMARK SMILES IDX 87 13 88 14 7 15 6 16 1 17 2 18 3 19 98 20 4 21 5 22 89 23
REMARK SMILES IDX 90 24 94 25 91 26 93 27 95 28 92 29 14 31 15 32 16 33 17 35
REMARK SMILES IDX 18 36 19 37 83 38 20 39 82 40 21 41 22 42 23 43 76 44 24 45
REMARK SMILES IDX 81 46 75 47 77 48 25 49 80 50 74 51 73 52 26 54 60 55 39 56
REMARK SMILES IDX 59 57 40 58 43 59 58 60 78 61 41 62 42 63 57 65 79 66 44 67
REMARK SMILES IDX 27 68 28 69 37 70 29 71 30 72 36 73 38 74 31 75 32 76 33 77
REMARK SMILES IDX 34 78 35 79 61 80 62 81 71 82 63 83 64 84 70 85 72 86 65 87
REMARK SMILES IDX 66 88 67 89 68 90 69 91 45 92 46 93 55 94 47 95 48 96 54 97
REMARK SMILES IDX 56 98 49 99 50 100 51 101 52 102 53 103
REMARK H PARENT 11 6 93 30 15 34 77 53 43 64
REMARK Flexibility Score: inf
ROOT
ATOM      1  C   UNL A   1      33.232  30.762  27.191  1.00  0.00     0.042 C 
ENDROOT
BRANCH   1   2
ATOM      2  C   UNL A   1      32.517  29.918  26.131  1.00  0.00     0.118 C 
BRANCH   2   3
ATOM      3  N   UNL A   1      33.257  29.794  24.865  1.00  0.00    -0.353 N 
ATOM      4  C   UNL A   1      33.178  28.993  23.760  1.00  0.00     0.264 C 
ATOM      5  O   UNL A   1      33.860  29.375  22.796  1.00  0.00    -0.270 OA
ATOM      6  H   UNL A   1      33.990  30.450  24.796  1.00  0.00     0.163 HD
BRANCH   4   7
ATOM      7  C   UNL A   1      32.293  27.705  23.635  1.00  0.00     0.190 C 
ATOM      8  C   UNL A   1      32.256  27.172  22.205  1.00  0.00     0.080 C 
ATOM      9  C   UNL A   1      32.877  26.598  24.559  1.00  0.00     0.080 C 
ATOM     10  C   UNL A   1      31.556  25.838  22.056  1.00  0.00     0.124 C 
ATOM     11  C   UNL A   1      32.137  25.261  24.362  1.00  0.00     0.124 C 
ATOM     12  N   UNL A   1      32.186  24.890  22.950  1.00  0.00    -0.338 N 
ATOM     13  C   UNL A   1      33.029  23.932  22.416  1.00  0.00     0.261 C 
ATOM     14  O   UNL A   1      33.545  24.019  21.305  1.00  0.00    -0.269 OA
BRANCH   7  15
ATOM     15  O   UNL A   1      31.025  27.997  24.271  1.00  0.00    -0.477 OA
BRANCH  15  16
ATOM     16  C   UNL A   1      29.947  28.710  23.870  1.00  0.00     0.121 A 
ATOM     17  C   UNL A   1      28.656  32.123  22.785  1.00  0.00     0.044 C 
ATOM     18  C   UNL A   1      28.705  30.648  23.064  1.00  0.00    -0.047 A 
ATOM     19  C   UNL A   1      27.660  29.822  22.645  1.00  0.00     0.003 A 
ATOM     20  C   UNL A   1      29.816  30.085  23.717  1.00  0.00     0.049 A 
ATOM     21  C   UNL A   1      27.739  28.450  22.858  1.00  0.00     0.004 A 
ATOM     22  C   UNL A   1      28.880  27.904  23.452  1.00  0.00     0.046 A 
ENDBRANCH  15  16
ENDBRANCH   7  15
BRANCH  13  23
ATOM     23  C   UNL A   1      33.201  22.711  23.211  1.00  0.00     0.123 A 
ATOM     24  C   UNL A   1      32.249  21.768  23.246  1.00  0.00     0.132 A 
ATOM     25  C   UNL A   1      34.375  22.528  24.083  1.00  0.00     0.263 A 
ATOM     26  N   UNL A   1      32.310  20.619  24.000  1.00  0.00    -0.246 NA
ATOM     27  N   UNL A   1      34.359  21.392  24.839  1.00  0.00    -0.312 N 
ATOM     28  O   UNL A   1      35.307  23.322  24.151  1.00  0.00    -0.269 OA
ATOM     29  C   UNL A   1      33.341  20.488  24.765  1.00  0.00     0.199 A 
ATOM     30  H   UNL A   1      35.105  21.219  25.457  1.00  0.00     0.171 HD
ENDBRANCH  13  23
ENDBRANCH   4   7
ENDBRANCH   2   3
ENDBRANCH   1   2
BRANCH   1  31
ATOM     31  C   UNL A   1      34.387  30.089  27.920  1.00  0.00     0.118 C 
BRANCH  31  32
ATOM     32  N   UNL A   1      35.153  31.016  28.756  1.00  0.00    -0.352 N 
ATOM     33  C   UNL A   1      36.328  30.782  29.450  1.00  0.00     0.251 C 
ATOM     34  H   UNL A   1      34.785  31.926  28.834  1.00  0.00     0.163 HD
ATOM     35  O   UNL A   1      36.887  31.611  30.158  1.00  0.00    -0.269 OA
BRANCH  33  36
ATOM     36  C   UNL A   1      36.951  29.467  29.234  1.00  0.00     0.039 A 
ATOM     37  C   UNL A   1      37.398  28.808  30.384  1.00  0.00     0.014 A 
ATOM     38  C   UNL A   1      37.476  29.195  27.971  1.00  0.00     0.014 A 
ATOM     39  C   UNL A   1      38.559  28.054  30.305  1.00  0.00     0.010 A 
ATOM     40  C   UNL A   1      38.664  28.487  27.909  1.00  0.00     0.010 A 
ATOM     41  C   UNL A   1      39.250  28.005  29.091  1.00  0.00    -0.014 A 
BRANCH  41  42
ATOM     42  C   UNL A   1      40.662  27.633  29.035  1.00  0.00     0.031 A 
ATOM     43  C   UNL A   1      41.059  26.315  28.505  1.00  0.00     0.074 A 
ATOM     44  C   UNL A   1      41.614  28.473  29.505  1.00  0.00     0.049 A 
ATOM     45  N   UNL A   1      42.117  25.681  28.882  1.00  0.00    -0.248 NA
ATOM     46  C   UNL A   1      40.256  25.584  27.530  1.00  0.00     0.031 C 
ATOM     47  C   UNL A   1      43.060  28.315  29.386  1.00  0.00     0.029 A 
ATOM     48  N   UNL A   1      41.455  29.551  30.393  1.00  0.00    -0.354 N 
ATOM     49  C   UNL A   1      42.260  24.588  28.066  1.00  0.00     0.074 A 
ATOM     50  C   UNL A   1      41.055  24.545  27.266  1.00  0.00     0.031 C 
ATOM     51  C   UNL A   1      43.653  29.022  30.358  1.00  0.00     0.029 A 
ATOM     52  C   UNL A   1      42.612  29.582  31.202  1.00  0.00     0.049 A 
ATOM     53  H   UNL A   1      40.686  30.164  30.441  1.00  0.00     0.167 HD
ATOM     54  C   UNL A   1      43.422  23.878  28.067  1.00  0.00     0.037 A 
ATOM     55  C   UNL A   1      42.529  29.427  32.554  1.00  0.00     0.037 A 
ATOM     56  C   UNL A   1      44.386  24.392  29.030  1.00  0.00     0.049 A 
ATOM     57  C   UNL A   1      43.174  28.163  33.084  1.00  0.00     0.074 A 
ATOM     58  C   UNL A   1      45.461  25.262  28.957  1.00  0.00     0.029 A 
ATOM     59  N   UNL A   1      44.108  24.248  30.376  1.00  0.00    -0.354 N 
ATOM     60  N   UNL A   1      43.806  27.293  32.344  1.00  0.00    -0.248 NA
ATOM     61  C   UNL A   1      43.096  27.741  34.485  1.00  0.00     0.031 C 
ATOM     62  C   UNL A   1      45.792  25.674  30.280  1.00  0.00     0.029 A 
ATOM     63  C   UNL A   1      44.928  25.041  31.154  1.00  0.00     0.049 A 
ATOM     64  H   UNL A   1      43.410  23.653  30.736  1.00  0.00     0.167 HD
ATOM     65  C   UNL A   1      44.140  26.203  33.106  1.00  0.00     0.074 A 
ATOM     66  C   UNL A   1      43.703  26.541  34.447  1.00  0.00     0.031 C 
ATOM     67  C   UNL A   1      44.708  25.077  32.590  1.00  0.00     0.037 A 
BRANCH  54  68
ATOM     68  C   UNL A   1      43.717  22.864  27.001  1.00  0.00     0.058 A 
ATOM     69  C   UNL A   1      43.015  21.646  26.948  1.00  0.00     0.135 A 
ATOM     70  C   UNL A   1      44.742  23.020  26.047  1.00  0.00     0.135 A 
ATOM     71  F   UNL A   1      41.981  21.402  27.764  1.00  0.00    -0.206 F 
ATOM     72  C   UNL A   1      43.374  20.612  26.085  1.00  0.00     0.059 A 
ATOM     73  C   UNL A   1      45.157  21.980  25.211  1.00  0.00     0.059 A 
ATOM     74  F   UNL A   1      45.384  24.192  25.916  1.00  0.00    -0.206 F 
ATOM     75  C   UNL A   1      44.472  20.772  25.247  1.00  0.00     0.060 A 
BRANCH  75  76
ATOM     76  S   UNL A   1      45.018  19.365  24.260  1.00  0.00     0.124 S 
ATOM     77  O   UNL A   1      46.473  19.470  24.348  1.00  0.00    -0.237 OA
ATOM     78  O   UNL A   1      44.418  18.245  24.973  1.00  0.00    -0.237 OA
ATOM     79  O   UNL A   1      44.462  19.643  22.938  1.00  0.00    -0.744 OA
ENDBRANCH  75  76
ENDBRANCH  54  68
BRANCH  55  80
ATOM     80  C   UNL A   1      41.395  30.173  33.159  1.00  0.00     0.058 A 
ATOM     81  C   UNL A   1      40.237  29.443  33.491  1.00  0.00     0.135 A 
ATOM     82  C   UNL A   1      41.551  31.434  33.745  1.00  0.00     0.135 A 
ATOM     83  F   UNL A   1      40.028  28.232  32.946  1.00  0.00    -0.206 F 
ATOM     84  C   UNL A   1      39.338  29.883  34.457  1.00  0.00     0.059 A 
ATOM     85  C   UNL A   1      40.664  31.894  34.725  1.00  0.00     0.059 A 
ATOM     86  F   UNL A   1      42.621  32.185  33.450  1.00  0.00    -0.206 F 
ATOM     87  C   UNL A   1      39.593  31.085  35.111  1.00  0.00     0.060 A 
BRANCH  87  88
ATOM     88  S   UNL A   1      38.547  31.521  36.522  1.00  0.00     0.124 S 
ATOM     89  O   UNL A   1      37.542  32.379  35.904  1.00  0.00    -0.237 OA
ATOM     90  O   UNL A   1      38.063  30.212  36.956  1.00  0.00    -0.237 OA
ATOM     91  O   UNL A   1      39.475  32.186  37.429  1.00  0.00    -0.744 OA
ENDBRANCH  87  88
ENDBRANCH  55  80
BRANCH  67  92
ATOM     92  C   UNL A   1      45.105  23.897  33.425  1.00  0.00     0.058 A 
ATOM     93  C   UNL A   1      44.176  22.922  33.818  1.00  0.00     0.135 A 
ATOM     94  C   UNL A   1      46.397  23.798  33.980  1.00  0.00     0.135 A 
ATOM     95  F   UNL A   1      42.915  22.957  33.357  1.00  0.00    -0.206 F 
ATOM     96  C   UNL A   1      44.511  21.899  34.705  1.00  0.00     0.059 A 
ATOM     97  C   UNL A   1      46.741  22.813  34.901  1.00  0.00     0.059 A 
ATOM     98  F   UNL A   1      47.371  24.649  33.624  1.00  0.00    -0.206 F 
ATOM     99  C   UNL A   1      45.796  21.856  35.246  1.00  0.00     0.060 A 
BRANCH  99 100
ATOM    100  S   UNL A   1      46.228  20.564  36.427  1.00  0.00     0.124 S 
ATOM    101  O   UNL A   1      45.514  19.400  35.909  1.00  0.00    -0.237 OA
ATOM    102  O   UNL A   1      47.681  20.524  36.292  1.00  0.00    -0.237 OA
ATOM    103  O   UNL A   1      45.725  21.086  37.693  1.00  0.00    -0.744 OA
ENDBRANCH  99 100
ENDBRANCH  67  92
ENDBRANCH  41  42
ENDBRANCH  33  36
ENDBRANCH  31  32
ENDBRANCH   1  31
TORSDOF 16
ENDMDL
MODEL 2
REMARK VINA RESULT:     -15.0      5.319     11.309
REMARK SMILES Cc1cccc(OC2(C(=O)NCCCNC(=O)c3ccc(-c4c5nc(c(-c6c(F)cc(S(=O)(=O)[O-])cc6F)c6ccc([nH]6)c(-c6c(F)cc(S(=O)(=O)[O-])cc6F)c6nc(c(-c7c(F)cc(S(=O)(=O)[O-])cc7F)c7ccc4[nH]7)C=C6)C=C5)cc3)CCN(C(=O)c3cnc[nH]c3=O)CC2)c1
REMARK SMILES IDX 13 1 12 2 11 3 9 4 10 5 8 7 84 8 97 9 85 10 96 11 86 12
REMARK SMILES IDX 87 13 88 14 7 15 6 16 1 17 2 18 3 19 98 20 4 21 5 22 89 23
REMARK SMILES IDX 90 24 94 25 91 26 93 27 95 28 92 29 14 31 15 32 16 33 17 35
REMARK SMILES IDX 18 36 19 37 83 38 20 39 82 40 21 41 22 42 23 43 76 44 24 45
REMARK SMILES IDX 81 46 75 47 77 48 25 49 80 50 74 51 73 52 26 54 60 55 39 56
REMARK SMILES IDX 59 57 40 58 43 59 58 60 78 61 41 62 42 63 57 65 79 66 44 67
REMARK SMILES IDX 27 68 28 69 37 70 29 71 30 72 36 73 38 74 31 75 32 76 33 77
REMARK SMILES IDX 34 78 35 79 61 80 62 81 71 82 63 83 64 84 70 85 72 86 65 87
REMARK SMILES IDX 66 88 67 89 68 90 69 91 45 92 46 93 55 94 47 95 48 96 54 97
REMARK SMILES IDX 56 98 49 99 50 100 51 101 52 102 53 103
REMARK H PARENT 11 6 93 30 15 34 77 53 43 64
REMARK Flexibility Score: inf
ROOT
ATOM      1  C   UNL A   1      38.839  22.654  25.880  1.00  0.00     0.042 C 
ENDROOT
BRANCH   1   2
ATOM      2  C   UNL A   1      37.544  23.446  25.676  1.00  0.00     0.118 C 
BRANCH   2   3
ATOM      3  N   UNL A   1      37.046  23.433  24.290  1.00  0.00    -0.353 N 
ATOM      4  C   UNL A   1      35.872  23.097  23.676  1.00  0.00     0.264 C 
ATOM      5  O   UNL A   1      35.788  23.458  22.492  1.00  0.00    -0.270 OA
ATOM      6  H   UNL A   1      37.725  23.743  23.648  1.00  0.00     0.163 HD
BRANCH   4   7
ATOM      7  C   UNL A   1      34.671  22.354  24.358  1.00  0.00     0.190 C 
ATOM      8  C   UNL A   1      33.491  22.179  23.406  1.00  0.00     0.080 C 
ATOM      9  C   UNL A   1      35.145  20.947  24.821  1.00  0.00     0.080 C 
ATOM     10  C   UNL A   1      32.371  21.322  23.955  1.00  0.00     0.124 C 
ATOM     11  C   UNL A   1      33.968  20.113  25.360  1.00  0.00     0.124 C 
ATOM     12  N   UNL A   1      32.924  20.041  24.341  1.00  0.00    -0.338 N 
ATOM     13  C   UNL A   1      32.684  18.943  23.535  1.00  0.00     0.261 C 
ATOM     14  O   UNL A   1      32.328  19.022  22.362  1.00  0.00    -0.269 OA
BRANCH   7  15
ATOM     15  O   UNL A   1      34.419  23.022  25.618  1.00  0.00    -0.477 OA
BRANCH  15  16
ATOM     16  C   UNL A   1      33.790  24.180  25.927  1.00  0.00     0.121 A 
ATOM     17  C   UNL A   1      33.799  27.966  25.536  1.00  0.00     0.044 C 
ATOM     18  C   UNL A   1      33.348  26.578  25.890  1.00  0.00    -0.047 A 
ATOM     19  C   UNL A   1      32.047  26.359  26.345  1.00  0.00     0.003 A 
ATOM     20  C   UNL A   1      34.221  25.486  25.733  1.00  0.00     0.049 A 
ATOM     21  C   UNL A   1      31.621  25.064  26.618  1.00  0.00     0.004 A 
ATOM     22  C   UNL A   1      32.484  23.988  26.395  1.00  0.00     0.046 A 
ENDBRANCH  15  16
ENDBRANCH   7  15
BRANCH  13  23
ATOM     23  C   UNL A   1      32.768  17.632  24.190  1.00  0.00     0.123 A 
ATOM     24  C   UNL A   1      32.112  17.388  25.334  1.00  0.00     0.132 A 
ATOM     25  C   UNL A   1      33.659  16.578  23.675  1.00  0.00     0.263 A 
ATOM     26  N   UNL A   1      32.174  16.206  26.036  1.00  0.00    -0.246 NA
ATOM     27  N   UNL A   1      33.712  15.447  24.436  1.00  0.00    -0.312 N 
ATOM     28  O   UNL A   1      34.320  16.683  22.648  1.00  0.00    -0.269 OA
ATOM     29  C   UNL A   1      32.970  15.303  25.572  1.00  0.00     0.199 A 
ATOM     30  H   UNL A   1      34.303  14.710  24.157  1.00  0.00     0.171 HD
ENDBRANCH  13  23
ENDBRANCH   4   7
ENDBRANCH   2   3
ENDBRANCH   1   2
BRANCH   1  31
ATOM     31  C   UNL A   1      39.675  23.034  27.095  1.00  0.00     0.118 C 
BRANCH  31  32
ATOM     32  N   UNL A   1      41.018  23.502  26.740  1.00  0.00    -0.352 N 
ATOM     33  C   UNL A   1      41.460  24.803  26.568  1.00  0.00     0.251 C 
ATOM     34  H   UNL A   1      41.694  22.801  26.606  1.00  0.00     0.163 HD
ATOM     35  O   UNL A   1      42.599  25.105  26.235  1.00  0.00    -0.269 OA
BRANCH  33  36
ATOM     36  C   UNL A   1      40.488  25.860  26.893  1.00  0.00     0.039 A 
ATOM     37  C   UNL A   1      40.711  27.099  26.284  1.00  0.00     0.014 A 
ATOM     38  C   UNL A   1      39.759  25.733  28.075  1.00  0.00     0.014 A 
ATOM     39  C   UNL A   1      40.418  28.251  27.000  1.00  0.00     0.010 A 
ATOM     40  C   UNL A   1      39.520  26.884  28.807  1.00  0.00     0.010 A 
ATOM     41  C   UNL A   1      39.941  28.127  28.308  1.00  0.00    -0.014 A 
BRANCH  41  42
ATOM     42  C   UNL A   1      40.039  29.233  29.258  1.00  0.00     0.031 A 
ATOM     43  C   UNL A   1      38.957  30.231  29.346  1.00  0.00     0.074 A 
ATOM     44  C   UNL A   1      41.136  29.374  30.038  1.00  0.00     0.049 A 
ATOM     45  N   UNL A   1      39.142  31.458  29.698  1.00  0.00    -0.248 NA
ATOM     46  C   UNL A   1      37.575  29.927  28.993  1.00  0.00     0.031 C 
ATOM     47  C   UNL A   1      41.321  30.326  31.130  1.00  0.00     0.029 A 
ATOM     48  N   UNL A   1      42.412  28.816  29.846  1.00  0.00    -0.354 N 
ATOM     49  C   UNL A   1      37.908  32.043  29.833  1.00  0.00     0.074 A 
ATOM     50  C   UNL A   1      36.963  31.063  29.344  1.00  0.00     0.031 C 
ATOM     51  C   UNL A   1      42.634  30.518  31.317  1.00  0.00     0.029 A 
ATOM     52  C   UNL A   1      43.345  29.779  30.291  1.00  0.00     0.049 A 
ATOM     53  H   UNL A   1      42.614  27.927  29.474  1.00  0.00     0.167 HD
ATOM     54  C   UNL A   1      37.787  33.256  30.438  1.00  0.00     0.037 A 
ATOM     55  C   UNL A   1      44.269  30.307  29.439  1.00  0.00     0.037 A 
ATOM     56  C   UNL A   1      39.074  33.809  30.836  1.00  0.00     0.049 A 
ATOM     57  C   UNL A   1      44.096  31.785  29.160  1.00  0.00     0.074 A 
ATOM     58  C   UNL A   1      39.805  33.817  32.013  1.00  0.00     0.029 A 
ATOM     59  N   UNL A   1      39.950  34.210  29.845  1.00  0.00    -0.354 N 
ATOM     60  N   UNL A   1      43.176  32.535  29.705  1.00  0.00    -0.248 NA
ATOM     61  C   UNL A   1      44.901  32.526  28.184  1.00  0.00     0.031 C 
ATOM     62  C   UNL A   1      41.146  34.183  31.702  1.00  0.00     0.029 A 
ATOM     63  C   UNL A   1      41.223  34.413  30.341  1.00  0.00     0.049 A 
ATOM     64  H   UNL A   1      39.698  34.335  28.902  1.00  0.00     0.167 HD
ATOM     65  C   UNL A   1      43.204  33.781  29.133  1.00  0.00     0.074 A 
ATOM     66  C   UNL A   1      44.319  33.738  28.208  1.00  0.00     0.031 C 
ATOM     67  C   UNL A   1      42.288  34.751  29.414  1.00  0.00     0.037 A 
BRANCH  54  68
ATOM     68  C   UNL A   1      36.447  33.791  30.852  1.00  0.00     0.058 A 
ATOM     69  C   UNL A   1      35.547  34.302  29.900  1.00  0.00     0.135 A 
ATOM     70  C   UNL A   1      36.034  33.886  32.196  1.00  0.00     0.135 A 
ATOM     71  F   UNL A   1      35.799  34.217  28.587  1.00  0.00    -0.206 F 
ATOM     72  C   UNL A   1      34.372  34.960  30.259  1.00  0.00     0.059 A 
ATOM     73  C   UNL A   1      34.891  34.589  32.584  1.00  0.00     0.059 A 
ATOM     74  F   UNL A   1      36.749  33.309  33.176  1.00  0.00    -0.206 F 
ATOM     75  C   UNL A   1      34.071  35.135  31.605  1.00  0.00     0.060 A 
BRANCH  75  76
ATOM     76  S   UNL A   1      32.633  36.131  32.047  1.00  0.00     0.124 S 
ATOM     77  O   UNL A   1      33.183  37.040  33.049  1.00  0.00    -0.237 OA
ATOM     78  O   UNL A   1      32.279  36.734  30.768  1.00  0.00    -0.237 OA
ATOM     79  O   UNL A   1      31.686  35.147  32.565  1.00  0.00    -0.744 OA
ENDBRANCH  75  76
ENDBRANCH  54  68
BRANCH  55  80
ATOM     80  C   UNL A   1      44.884  29.295  28.542  1.00  0.00     0.058 A 
ATOM     81  C   UNL A   1      44.347  29.159  27.246  1.00  0.00     0.135 A 
ATOM     82  C   UNL A   1      46.157  28.761  28.769  1.00  0.00     0.135 A 
ATOM     83  F   UNL A   1      43.122  29.640  26.975  1.00  0.00    -0.206 F 
ATOM     84  C   UNL A   1      45.086  28.635  26.191  1.00  0.00     0.059 A 
ATOM     85  C   UNL A   1      46.923  28.236  27.722  1.00  0.00     0.059 A 
ATOM     86  F   UNL A   1      46.712  28.839  29.988  1.00  0.00    -0.206 F 
ATOM     87  C   UNL A   1      46.397  28.230  26.428  1.00  0.00     0.060 A 
BRANCH  87  88
ATOM     88  S   UNL A   1      47.415  27.775  25.002  1.00  0.00     0.124 S 
ATOM     89  O   UNL A   1      46.763  28.499  23.917  1.00  0.00    -0.237 OA
ATOM     90  O   UNL A   1      48.728  28.288  25.391  1.00  0.00    -0.237 OA
ATOM     91  O   UNL A   1      47.291  26.323  24.958  1.00  0.00    -0.744 OA
ENDBRANCH  87  88
ENDBRANCH  55  80
BRANCH  67  92
ATOM     92  C   UNL A   1      42.335  36.125  28.815  1.00  0.00     0.058 A 
ATOM     93  C   UNL A   1      41.824  36.392  27.536  1.00  0.00     0.135 A 
ATOM     94  C   UNL A   1      43.031  37.174  29.448  1.00  0.00     0.135 A 
ATOM     95  F   UNL A   1      41.171  35.440  26.850  1.00  0.00    -0.206 F 
ATOM     96  C   UNL A   1      41.987  37.634  26.921  1.00  0.00     0.059 A 
ATOM     97  C   UNL A   1      43.244  38.405  28.837  1.00  0.00     0.059 A 
ATOM     98  F   UNL A   1      43.508  37.035  30.695  1.00  0.00    -0.206 F 
ATOM     99  C   UNL A   1      42.704  38.633  27.579  1.00  0.00     0.060 A 
BRANCH  99 100
ATOM    100  S   UNL A   1      42.958  40.229  26.777  1.00  0.00     0.124 S 
ATOM    101  O   UNL A   1      43.330  41.096  27.890  1.00  0.00    -0.237 OA
ATOM    102  O   UNL A   1      44.031  39.912  25.838  1.00  0.00    -0.237 OA
ATOM    103  O   UNL A   1      41.658  40.512  26.177  1.00  0.00    -0.744 OA
ENDBRANCH  99 100
ENDBRANCH  67  92
ENDBRANCH  41  42
ENDBRANCH  33  36
ENDBRANCH  31  32
ENDBRANCH   1  31
TORSDOF 16
ENDMDL
MODEL 3
REMARK VINA RESULT:     -15.0      5.007     11.675
REMARK SMILES Cc1cccc(OC2(C(=O)NCCCNC(=O)c3ccc(-c4c5nc(c(-c6c(F)cc(S(=O)(=O)[O-])cc6F)c6ccc([nH]6)c(-c6c(F)cc(S(=O)(=O)[O-])cc6F)c6nc(c(-c7c(F)cc(S(=O)(=O)[O-])cc7F)c7ccc4[nH]7)C=C6)C=C5)cc3)CCN(C(=O)c3cnc[nH]c3=O)CC2)c1
REMARK SMILES IDX 13 1 12 2 11 3 9 4 10 5 8 7 84 8 97 9 85 10 96 11 86 12
REMARK SMILES IDX 87 13 88 14 7 15 6 16 1 17 2 18 3 19 98 20 4 21 5 22 89 23
REMARK SMILES IDX 90 24 94 25 91 26 93 27 95 28 92 29 14 31 15 32 16 33 17 35
REMARK SMILES IDX 18 36 19 37 83 38 20 39 82 40 21 41 22 42 23 43 76 44 24 45
REMARK SMILES IDX 81 46 75 47 77 48 25 49 80 50 74 51 73 52 26 54 60 55 39 56
REMARK SMILES IDX 59 57 40 58 43 59 58 60 78 61 41 62 42 63 57 65 79 66 44 67
REMARK SMILES IDX 27 68 28 69 37 70 29 71 30 72 36 73 38 74 31 75 32 76 33 77
REMARK SMILES IDX 34 78 35 79 61 80 62 81 71 82 63 83 64 84 70 85 72 86 65 87
REMARK SMILES IDX 66 88 67 89 68 90 69 91 45 92 46 93 55 94 47 95 48 96 54 97
REMARK SMILES IDX 56 98 49 99 50 100 51 101 52 102 53 103
REMARK H PARENT 11 6 93 30 15 34 77 53 43 64
REMARK Flexibility Score: inf
ROOT
ATOM      1  C   UNL A   1      38.321  22.015  25.584  1.00  0.00     0.042 C 
ENDROOT
BRANCH   1   2
ATOM      2  C   UNL A   1      36.822  21.935  25.278  1.00  0.00     0.118 C 
BRANCH   2   3
ATOM      3  N   UNL A   1      35.969  21.849  26.475  1.00  0.00    -0.353 N 
ATOM      4  C   UNL A   1      34.626  21.892  26.723  1.00  0.00     0.264 C 
ATOM      5  O   UNL A   1      34.303  21.543  27.870  1.00  0.00    -0.270 OA
ATOM      6  H   UNL A   1      36.496  21.731  27.299  1.00  0.00     0.163 HD
BRANCH   4   7
ATOM      7  C   UNL A   1      33.523  22.298  25.685  1.00  0.00     0.190 C 
ATOM      8  C   UNL A   1      32.117  22.175  26.266  1.00  0.00     0.080 C 
ATOM      9  C   UNL A   1      33.753  23.776  25.257  1.00  0.00     0.080 C 
ATOM     10  C   UNL A   1      31.024  22.714  25.369  1.00  0.00     0.124 C 
ATOM     11  C   UNL A   1      32.610  24.277  24.355  1.00  0.00     0.124 C 
ATOM     12  N   UNL A   1      31.336  24.090  25.045  1.00  0.00    -0.338 N 
ATOM     13  C   UNL A   1      30.621  25.097  25.665  1.00  0.00     0.261 C 
ATOM     14  O   UNL A   1      29.978  24.941  26.701  1.00  0.00    -0.269 OA
BRANCH   7  15
ATOM     15  O   UNL A   1      33.805  21.577  24.462  1.00  0.00    -0.477 OA
BRANCH  15  16
ATOM     16  C   UNL A   1      33.671  20.274  24.119  1.00  0.00     0.121 A 
ATOM     17  C   UNL A   1      34.746  16.699  24.861  1.00  0.00     0.044 C 
ATOM     18  C   UNL A   1      33.999  17.863  24.274  1.00  0.00    -0.047 A 
ATOM     19  C   UNL A   1      32.865  17.644  23.492  1.00  0.00     0.003 A 
ATOM     20  C   UNL A   1      34.417  19.180  24.538  1.00  0.00     0.049 A 
ATOM     21  C   UNL A   1      32.148  18.729  22.999  1.00  0.00     0.004 A 
ATOM     22  C   UNL A   1      32.543  20.028  23.325  1.00  0.00     0.046 A 
ENDBRANCH  15  16
ENDBRANCH   7  15
BRANCH  13  23
ATOM     23  C   UNL A   1      30.565  26.380  24.955  1.00  0.00     0.123 A 
ATOM     24  C   UNL A   1      29.760  26.550  23.896  1.00  0.00     0.132 A 
ATOM     25  C   UNL A   1      31.470  27.488  25.309  1.00  0.00     0.263 A 
ATOM     26  N   UNL A   1      29.683  27.701  23.146  1.00  0.00    -0.246 NA
ATOM     27  N   UNL A   1      31.378  28.586  24.503  1.00  0.00    -0.312 N 
ATOM     28  O   UNL A   1      32.260  27.453  26.246  1.00  0.00    -0.269 OA
ATOM     29  C   UNL A   1      30.493  28.652  23.468  1.00  0.00     0.199 A 
ATOM     30  H   UNL A   1      31.968  29.355  24.675  1.00  0.00     0.171 HD
ENDBRANCH  13  23
ENDBRANCH   4   7
ENDBRANCH   2   3
ENDBRANCH   1   2
BRANCH   1  31
ATOM     31  C   UNL A   1      38.765  23.169  26.473  1.00  0.00     0.118 C 
BRANCH  31  32
ATOM     32  N   UNL A   1      40.220  23.342  26.500  1.00  0.00    -0.352 N 
ATOM     33  C   UNL A   1      40.947  24.518  26.561  1.00  0.00     0.251 C 
ATOM     34  H   UNL A   1      40.750  22.513  26.470  1.00  0.00     0.163 HD
ATOM     35  O   UNL A   1      42.171  24.573  26.544  1.00  0.00    -0.269 OA
BRANCH  33  36
ATOM     36  C   UNL A   1      40.163  25.751  26.736  1.00  0.00     0.039 A 
ATOM     37  C   UNL A   1      40.737  26.916  26.219  1.00  0.00     0.014 A 
ATOM     38  C   UNL A   1      39.216  25.780  27.760  1.00  0.00     0.014 A 
ATOM     39  C   UNL A   1      40.551  28.106  26.906  1.00  0.00     0.010 A 
ATOM     40  C   UNL A   1      39.079  26.959  28.473  1.00  0.00     0.010 A 
ATOM     41  C   UNL A   1      39.824  28.089  28.099  1.00  0.00    -0.014 A 
BRANCH  41  42
ATOM     42  C   UNL A   1      39.961  29.157  29.087  1.00  0.00     0.031 A 
ATOM     43  C   UNL A   1      38.905  30.177  29.225  1.00  0.00     0.074 A 
ATOM     44  C   UNL A   1      41.072  29.245  29.856  1.00  0.00     0.049 A 
ATOM     45  N   UNL A   1      39.124  31.386  29.617  1.00  0.00    -0.248 NA
ATOM     46  C   UNL A   1      37.511  29.918  28.881  1.00  0.00     0.031 C 
ATOM     47  C   UNL A   1      41.293  30.152  30.978  1.00  0.00     0.029 A 
ATOM     48  N   UNL A   1      42.331  28.664  29.626  1.00  0.00    -0.354 N 
ATOM     49  C   UNL A   1      37.906  31.995  29.790  1.00  0.00     0.074 A 
ATOM     50  C   UNL A   1      36.931  31.055  29.280  1.00  0.00     0.031 C 
ATOM     51  C   UNL A   1      42.613  30.307  31.154  1.00  0.00     0.029 A 
ATOM     52  C   UNL A   1      43.293  29.588  30.091  1.00  0.00     0.049 A 
ATOM     53  H   UNL A   1      42.507  27.784  29.221  1.00  0.00     0.167 HD
ATOM     54  C   UNL A   1      37.822  33.188  30.440  1.00  0.00     0.037 A 
ATOM     55  C   UNL A   1      44.218  30.124  29.246  1.00  0.00     0.037 A 
ATOM     56  C   UNL A   1      39.127  33.696  30.839  1.00  0.00     0.049 A 
ATOM     57  C   UNL A   1      44.076  31.615  29.022  1.00  0.00     0.074 A 
ATOM     58  C   UNL A   1      39.874  33.645  32.005  1.00  0.00     0.029 A 
ATOM     59  N   UNL A   1      40.000  34.112  29.850  1.00  0.00    -0.354 N 
ATOM     60  N   UNL A   1      43.183  32.366  29.606  1.00  0.00    -0.248 NA
ATOM     61  C   UNL A   1      44.887  32.371  28.062  1.00  0.00     0.031 C 
ATOM     62  C   UNL A   1      41.219  33.990  31.688  1.00  0.00     0.029 A 
ATOM     63  C   UNL A   1      41.284  34.266  30.335  1.00  0.00     0.049 A 
ATOM     64  H   UNL A   1      39.738  34.276  28.916  1.00  0.00     0.167 HD
ATOM     65  C   UNL A   1      43.233  33.631  29.078  1.00  0.00     0.074 A 
ATOM     66  C   UNL A   1      44.334  33.595  28.137  1.00  0.00     0.031 C 
ATOM     67  C   UNL A   1      42.345  34.612  29.405  1.00  0.00     0.037 A 
BRANCH  54  68
ATOM     68  C   UNL A   1      36.501  33.739  30.891  1.00  0.00     0.058 A 
ATOM     69  C   UNL A   1      35.562  34.219  29.961  1.00  0.00     0.135 A 
ATOM     70  C   UNL A   1      36.146  33.881  32.248  1.00  0.00     0.135 A 
ATOM     71  F   UNL A   1      35.759  34.089  28.642  1.00  0.00    -0.206 F 
ATOM     72  C   UNL A   1      34.404  34.892  30.346  1.00  0.00     0.059 A 
ATOM     73  C   UNL A   1      35.020  34.599  32.659  1.00  0.00     0.059 A 
ATOM     74  F   UNL A   1      36.901  33.336  33.215  1.00  0.00    -0.206 F 
ATOM     75  C   UNL A   1      34.160  35.113  31.696  1.00  0.00     0.060 A 
BRANCH  75  76
ATOM     76  S   UNL A   1      32.743  36.126  32.164  1.00  0.00     0.124 S 
ATOM     77  O   UNL A   1      32.473  36.869  30.936  1.00  0.00    -0.237 OA
ATOM     78  O   UNL A   1      31.756  35.117  32.526  1.00  0.00    -0.237 OA
ATOM     79  O   UNL A   1      33.255  36.933  33.269  1.00  0.00    -0.744 OA
ENDBRANCH  75  76
ENDBRANCH  54  68
BRANCH  55  80
ATOM     80  C   UNL A   1      44.796  29.130  28.305  1.00  0.00     0.058 A 
ATOM     81  C   UNL A   1      44.247  29.062  27.009  1.00  0.00     0.135 A 
ATOM     82  C   UNL A   1      46.054  28.550  28.502  1.00  0.00     0.135 A 
ATOM     83  F   UNL A   1      43.036  29.590  26.766  1.00  0.00    -0.206 F 
ATOM     84  C   UNL A   1      44.963  28.558  25.929  1.00  0.00     0.059 A 
ATOM     85  C   UNL A   1      46.797  28.044  27.429  1.00  0.00     0.059 A 
ATOM     86  F   UNL A   1      46.618  28.563  29.718  1.00  0.00    -0.206 F 
ATOM     87  C   UNL A   1      46.264  28.105  26.140  1.00  0.00     0.060 A 
BRANCH  87  88
ATOM     88  S   UNL A   1      47.258  27.677  24.690  1.00  0.00     0.124 S 
ATOM     89  O   UNL A   1      46.892  26.282  24.470  1.00  0.00    -0.237 OA
ATOM     90  O   UNL A   1      46.754  28.616  23.689  1.00  0.00    -0.237 OA
ATOM     91  O   UNL A   1      48.623  27.909  25.145  1.00  0.00    -0.744 OA
ENDBRANCH  87  88
ENDBRANCH  55  80
BRANCH  67  92
ATOM     92  C   UNL A   1      42.417  36.004  28.855  1.00  0.00     0.058 A 
ATOM     93  C   UNL A   1      41.786  36.358  27.653  1.00  0.00     0.135 A 
ATOM     94  C   UNL A   1      43.248  36.980  29.442  1.00  0.00     0.135 A 
ATOM     95  F   UNL A   1      40.997  35.480  27.012  1.00  0.00    -0.206 F 
ATOM     96  C   UNL A   1      41.962  37.613  27.069  1.00  0.00     0.059 A 
ATOM     97  C   UNL A   1      43.474  38.220  28.856  1.00  0.00     0.059 A 
ATOM     98  F   UNL A   1      43.851  36.757  30.620  1.00  0.00    -0.206 F 
ATOM     99  C   UNL A   1      42.813  38.536  27.676  1.00  0.00     0.060 A 
BRANCH  99 100
ATOM    100  S   UNL A   1      43.083  40.146  26.908  1.00  0.00     0.124 S 
ATOM    101  O   UNL A   1      43.185  41.040  28.057  1.00  0.00    -0.237 OA
ATOM    102  O   UNL A   1      44.326  39.912  26.178  1.00  0.00    -0.237 OA
ATOM    103  O   UNL A   1      41.892  40.327  26.084  1.00  0.00    -0.744 OA
ENDBRANCH  99 100
ENDBRANCH  67  92
ENDBRANCH  41  42
ENDBRANCH  33  36
ENDBRANCH  31  32
ENDBRANCH   1  31
TORSDOF 16
ENDMDL
