MODEL 1
REMARK VINA RESULT:     -12.2      0.000      0.000
REMARK SMILES C[C@@H]1CCCN(c2ccc(NC(=O)Cc3cccs3)c(C(=O)NCCCNC(=O)c3ccc(-c4c5nc(c(-c6c(F)cc(S(=O)(=O)[O-])cc6F)c6ccc([nH]6)c(-c6c(F)cc(S(=O)(=O)[O-])cc6F)c6nc(c(-c7c(F)cc(S(=O)(=O)[O-])cc7F)c7ccc4[nH]7)C=C6)C=C5)cc3)c2)C1
REMARK SMILES IDX 25 1 24 2 23 3 21 4 22 5 20 7 7 8 8 9 96 10 9 11 10 12 6 13
REMARK SMILES IDX 1 14 2 15 3 16 97 17 4 18 5 19 11 20 12 21 13 23 14 24 15 25
REMARK SMILES IDX 16 26 19 27 17 28 18 29 26 30 27 31 28 32 29 34 30 35 31 36
REMARK SMILES IDX 95 37 32 38 94 39 33 40 34 41 35 42 88 43 36 44 93 45 87 46
REMARK SMILES IDX 89 47 37 48 92 49 86 50 85 51 38 53 72 54 51 55 71 56 52 57
REMARK SMILES IDX 55 58 70 59 90 60 53 61 54 62 69 64 91 65 56 66 39 67 40 68
REMARK SMILES IDX 49 69 41 70 42 71 48 72 50 73 43 74 44 75 45 76 46 77 47 78
REMARK SMILES IDX 73 79 74 80 83 81 75 82 76 83 82 84 84 85 77 86 78 87 79 88
REMARK SMILES IDX 80 89 81 90 57 91 58 92 67 93 59 94 60 95 66 96 68 97 61 98
REMARK SMILES IDX 62 99 63 100 64 101 65 102
REMARK H PARENT 23 6 11 22 27 33 89 52 55 63
REMARK Flexibility Score: inf
ROOT
ATOM      1  C   UNL A   1      36.921  23.544  25.542  1.00  0.00     0.042 C 
ENDROOT
BRANCH   1   2
ATOM      2  C   UNL A   1      35.657  24.362  25.270  1.00  0.00     0.118 C 
BRANCH   2   3
ATOM      3  N   UNL A   1      35.205  24.175  23.903  1.00  0.00    -0.352 N 
ATOM      4  C   UNL A   1      34.285  23.346  23.315  1.00  0.00     0.253 C 
ATOM      5  O   UNL A   1      34.090  23.534  22.112  1.00  0.00    -0.269 OA
ATOM      6  H   UNL A   1      35.654  24.772  23.261  1.00  0.00     0.163 HD
BRANCH   4   7
ATOM      7  C   UNL A   1      33.483  22.306  24.041  1.00  0.00     0.065 A 
ATOM      8  C   UNL A   1      33.258  20.037  24.932  1.00  0.00     0.038 A 
ATOM      9  C   UNL A   1      32.055  20.404  25.524  1.00  0.00     0.028 A 
ATOM     10  C   UNL A   1      33.940  20.988  24.172  1.00  0.00     0.042 A 
ATOM     11  C   UNL A   1      31.522  21.679  25.328  1.00  0.00     0.029 A 
ATOM     12  C   UNL A   1      32.192  22.622  24.543  1.00  0.00     0.054 A 
BRANCH   8  13
ATOM     13  N   UNL A   1      33.775  18.777  25.135  1.00  0.00    -0.371 N 
ATOM     14  C   UNL A   1      31.899  15.541  25.835  1.00  0.00     0.009 C 
ATOM     15  C   UNL A   1      32.556  16.645  25.010  1.00  0.00     0.005 C 
ATOM     16  C   UNL A   1      33.730  16.078  24.194  1.00  0.00     0.007 C 
ATOM     17  C   UNL A   1      33.023  17.798  25.915  1.00  0.00     0.119 C 
ATOM     18  C   UNL A   1      34.421  17.180  23.394  1.00  0.00     0.022 C 
ATOM     19  C   UNL A   1      34.881  18.312  24.307  1.00  0.00     0.116 C 
ENDBRANCH   8  13
BRANCH  12  20
ATOM     20  N   UNL A   1      31.598  23.857  24.196  1.00  0.00    -0.325 N 
ATOM     21  C   UNL A   1      31.536  25.074  24.809  1.00  0.00     0.229 C 
ATOM     22  H   UNL A   1      31.132  23.833  23.329  1.00  0.00     0.169 HD
ATOM     23  O   UNL A   1      30.918  25.972  24.220  1.00  0.00    -0.274 OA
BRANCH  21  24
ATOM     24  C   UNL A   1      32.169  25.376  26.151  1.00  0.00     0.147 C 
BRANCH  24  25
ATOM     25  C   UNL A   1      32.349  26.841  26.466  1.00  0.00     0.014 A 
ATOM     26  C   UNL A   1      31.605  27.723  27.228  1.00  0.00     0.016 A 
ATOM     27  S   UNL A   1      33.741  27.633  25.822  1.00  0.00    -0.148 S 
ATOM     28  C   UNL A   1      32.207  29.010  27.341  1.00  0.00     0.012 A 
ATOM     29  C   UNL A   1      33.363  29.102  26.603  1.00  0.00     0.065 A 
ENDBRANCH  24  25
ENDBRANCH  21  24
ENDBRANCH  12  20
ENDBRANCH   4   7
ENDBRANCH   2   3
ENDBRANCH   1   2
BRANCH   1  30
ATOM     30  C   UNL A   1      37.867  24.228  26.529  1.00  0.00     0.118 C 
BRANCH  30  31
ATOM     31  N   UNL A   1      39.262  24.006  26.169  1.00  0.00    -0.352 N 
ATOM     32  C   UNL A   1      40.383  24.734  26.477  1.00  0.00     0.251 C 
ATOM     33  H   UNL A   1      39.425  23.207  25.618  1.00  0.00     0.163 HD
ATOM     34  O   UNL A   1      41.413  24.542  25.839  1.00  0.00    -0.269 OA
BRANCH  32  35
ATOM     35  C   UNL A   1      40.359  25.735  27.565  1.00  0.00     0.039 A 
ATOM     36  C   UNL A   1      41.281  26.785  27.538  1.00  0.00     0.014 A 
ATOM     37  C   UNL A   1      39.475  25.609  28.639  1.00  0.00     0.014 A 
ATOM     38  C   UNL A   1      41.283  27.735  28.563  1.00  0.00     0.010 A 
ATOM     39  C   UNL A   1      39.426  26.597  29.619  1.00  0.00     0.010 A 
ATOM     40  C   UNL A   1      40.335  27.665  29.597  1.00  0.00    -0.014 A 
BRANCH  40  41
ATOM     41  C   UNL A   1      40.282  28.688  30.670  1.00  0.00     0.031 A 
ATOM     42  C   UNL A   1      41.170  28.561  31.879  1.00  0.00     0.074 A 
ATOM     43  C   UNL A   1      39.383  29.689  30.590  1.00  0.00     0.049 A 
ATOM     44  N   UNL A   1      41.198  29.291  32.965  1.00  0.00    -0.248 NA
ATOM     45  C   UNL A   1      42.132  27.446  31.883  1.00  0.00     0.031 C 
ATOM     46  C   UNL A   1      38.438  29.889  29.489  1.00  0.00     0.029 A 
ATOM     47  N   UNL A   1      39.105  30.718  31.454  1.00  0.00    -0.354 N 
ATOM     48  C   UNL A   1      42.161  28.713  33.785  1.00  0.00     0.074 A 
ATOM     49  C   UNL A   1      42.659  27.545  33.094  1.00  0.00     0.031 C 
ATOM     50  C   UNL A   1      37.697  30.982  29.737  1.00  0.00     0.029 A 
ATOM     51  C   UNL A   1      38.086  31.537  31.029  1.00  0.00     0.049 A 
ATOM     52  H   UNL A   1      39.590  30.856  32.300  1.00  0.00     0.167 HD
ATOM     53  C   UNL A   1      42.605  29.134  34.995  1.00  0.00     0.037 A 
ATOM     54  C   UNL A   1      37.520  32.607  31.619  1.00  0.00     0.037 A 
ATOM     55  C   UNL A   1      42.126  30.319  35.658  1.00  0.00     0.049 A 
ATOM     56  C   UNL A   1      38.038  33.061  32.957  1.00  0.00     0.074 A 
ATOM     57  C   UNL A   1      42.552  30.866  36.856  1.00  0.00     0.029 A 
ATOM     58  N   UNL A   1      41.117  31.141  35.178  1.00  0.00    -0.354 N 
ATOM     59  N   UNL A   1      38.989  32.536  33.693  1.00  0.00    -0.248 NA
ATOM     60  C   UNL A   1      37.413  34.255  33.543  1.00  0.00     0.031 C 
ATOM     61  C   UNL A   1      41.772  31.997  37.120  1.00  0.00     0.029 A 
ATOM     62  C   UNL A   1      40.894  32.183  36.064  1.00  0.00     0.049 A 
ATOM     63  H   UNL A   1      40.630  31.004  34.334  1.00  0.00     0.167 HD
ATOM     64  C   UNL A   1      39.095  33.351  34.815  1.00  0.00     0.074 A 
ATOM     65  C   UNL A   1      38.119  34.410  34.654  1.00  0.00     0.031 C 
ATOM     66  C   UNL A   1      39.925  33.234  35.881  1.00  0.00     0.037 A 
BRANCH  53  67
ATOM     67  C   UNL A   1      43.669  28.315  35.673  1.00  0.00     0.058 A 
ATOM     68  C   UNL A   1      45.035  28.528  35.425  1.00  0.00     0.135 A 
ATOM     69  C   UNL A   1      43.323  27.328  36.611  1.00  0.00     0.135 A 
ATOM     70  F   UNL A   1      45.423  29.447  34.527  1.00  0.00    -0.206 F 
ATOM     71  C   UNL A   1      46.017  27.775  36.059  1.00  0.00     0.059 A 
ATOM     72  C   UNL A   1      44.290  26.582  37.279  1.00  0.00     0.059 A 
ATOM     73  F   UNL A   1      42.033  27.081  36.888  1.00  0.00    -0.206 F 
ATOM     74  C   UNL A   1      45.635  26.803  36.986  1.00  0.00     0.060 A 
BRANCH  74  75
ATOM     75  S   UNL A   1      46.923  25.841  37.806  1.00  0.00     0.124 S 
ATOM     76  O   UNL A   1      46.328  25.620  39.120  1.00  0.00    -0.237 OA
ATOM     77  O   UNL A   1      47.025  24.663  36.951  1.00  0.00    -0.237 OA
ATOM     78  O   UNL A   1      48.079  26.731  37.783  1.00  0.00    -0.744 OA
ENDBRANCH  74  75
ENDBRANCH  53  67
BRANCH  54  79
ATOM     79  C   UNL A   1      36.416  33.335  30.939  1.00  0.00     0.058 A 
ATOM     80  C   UNL A   1      36.667  34.142  29.819  1.00  0.00     0.135 A 
ATOM     81  C   UNL A   1      35.088  33.227  31.383  1.00  0.00     0.135 A 
ATOM     82  F   UNL A   1      37.920  34.280  29.361  1.00  0.00    -0.206 F 
ATOM     83  C   UNL A   1      35.646  34.831  29.173  1.00  0.00     0.059 A 
ATOM     84  C   UNL A   1      34.046  33.886  30.736  1.00  0.00     0.059 A 
ATOM     85  F   UNL A   1      34.792  32.452  32.437  1.00  0.00    -0.206 F 
ATOM     86  C   UNL A   1      34.337  34.694  29.638  1.00  0.00     0.060 A 
BRANCH  86  87
ATOM     87  S   UNL A   1      33.012  35.554  28.762  1.00  0.00     0.124 S 
ATOM     88  O   UNL A   1      33.758  36.555  28.010  1.00  0.00    -0.237 OA
ATOM     89  O   UNL A   1      32.414  34.478  27.978  1.00  0.00    -0.237 OA
ATOM     90  O   UNL A   1      32.176  36.067  29.844  1.00  0.00    -0.744 OA
ENDBRANCH  86  87
ENDBRANCH  54  79
BRANCH  66  91
ATOM     91  C   UNL A   1      39.843  34.297  36.940  1.00  0.00     0.058 A 
ATOM     92  C   UNL A   1      40.571  35.493  36.842  1.00  0.00     0.135 A 
ATOM     93  C   UNL A   1      38.981  34.139  38.037  1.00  0.00     0.135 A 
ATOM     94  F   UNL A   1      41.415  35.690  35.818  1.00  0.00    -0.206 F 
ATOM     95  C   UNL A   1      40.462  36.488  37.809  1.00  0.00     0.059 A 
ATOM     96  C   UNL A   1      38.836  35.132  38.999  1.00  0.00     0.059 A 
ATOM     97  F   UNL A   1      38.256  33.018  38.170  1.00  0.00    -0.206 F 
ATOM     98  C   UNL A   1      39.590  36.300  38.882  1.00  0.00     0.060 A 
BRANCH  98  99
ATOM     99  S   UNL A   1      39.428  37.615  40.108  1.00  0.00     0.124 S 
ATOM    100  O   UNL A   1      39.210  36.850  41.331  1.00  0.00    -0.237 OA
ATOM    101  O   UNL A   1      40.715  38.297  40.006  1.00  0.00    -0.237 OA
ATOM    102  O   UNL A   1      38.280  38.382  39.633  1.00  0.00    -0.744 OA
ENDBRANCH  98  99
ENDBRANCH  66  91
ENDBRANCH  40  41
ENDBRANCH  32  35
ENDBRANCH  30  31
ENDBRANCH   1  30
TORSDOF 17
ENDMDL
MODEL 2
REMARK VINA RESULT:     -12.0      1.731      4.389
REMARK SMILES C[C@@H]1CCCN(c2ccc(NC(=O)Cc3cccs3)c(C(=O)NCCCNC(=O)c3ccc(-c4c5nc(c(-c6c(F)cc(S(=O)(=O)[O-])cc6F)c6ccc([nH]6)c(-c6c(F)cc(S(=O)(=O)[O-])cc6F)c6nc(c(-c7c(F)cc(S(=O)(=O)[O-])cc7F)c7ccc4[nH]7)C=C6)C=C5)cc3)c2)C1
REMARK SMILES IDX 25 1 24 2 23 3 21 4 22 5 20 7 7 8 8 9 96 10 9 11 10 12 6 13
REMARK SMILES IDX 1 14 2 15 3 16 97 17 4 18 5 19 11 20 12 21 13 23 14 24 15 25
REMARK SMILES IDX 16 26 19 27 17 28 18 29 26 30 27 31 28 32 29 34 30 35 31 36
REMARK SMILES IDX 95 37 32 38 94 39 33 40 34 41 35 42 88 43 36 44 93 45 87 46
REMARK SMILES IDX 89 47 37 48 92 49 86 50 85 51 38 53 72 54 51 55 71 56 52 57
REMARK SMILES IDX 55 58 70 59 90 60 53 61 54 62 69 64 91 65 56 66 39 67 40 68
REMARK SMILES IDX 49 69 41 70 42 71 48 72 50 73 43 74 44 75 45 76 46 77 47 78
REMARK SMILES IDX 73 79 74 80 83 81 75 82 76 83 82 84 84 85 77 86 78 87 79 88
REMARK SMILES IDX 80 89 81 90 57 91 58 92 67 93 59 94 60 95 66 96 68 97 61 98
REMARK SMILES IDX 62 99 63 100 64 101 65 102
REMARK H PARENT 23 6 11 22 27 33 89 52 55 63
REMARK Flexibility Score: inf
ROOT
ATOM      1  C   UNL A   1      39.132  22.476  26.415  1.00  0.00     0.042 C 
ENDROOT
BRANCH   1   2
ATOM      2  C   UNL A   1      38.131  23.586  26.089  1.00  0.00     0.118 C 
BRANCH   2   3
ATOM      3  N   UNL A   1      37.650  23.465  24.725  1.00  0.00    -0.352 N 
ATOM      4  C   UNL A   1      36.402  23.375  24.166  1.00  0.00     0.253 C 
ATOM      5  O   UNL A   1      36.367  23.379  22.934  1.00  0.00    -0.269 OA
ATOM      6  H   UNL A   1      38.374  23.444  24.058  1.00  0.00     0.163 HD
BRANCH   4   7
ATOM      7  C   UNL A   1      35.118  23.341  24.942  1.00  0.00     0.065 A 
ATOM      8  C   UNL A   1      33.162  24.490  25.865  1.00  0.00     0.038 A 
ATOM      9  C   UNL A   1      32.647  23.262  26.263  1.00  0.00     0.028 A 
ATOM     10  C   UNL A   1      34.408  24.513  25.237  1.00  0.00     0.042 A 
ATOM     11  C   UNL A   1      33.375  22.086  26.075  1.00  0.00     0.029 A 
ATOM     12  C   UNL A   1      34.635  22.113  25.471  1.00  0.00     0.054 A 
BRANCH   8  13
ATOM     13  N   UNL A   1      32.433  25.643  26.054  1.00  0.00    -0.371 N 
ATOM     14  C   UNL A   1      33.058  29.098  24.589  1.00  0.00     0.009 C 
ATOM     15  C   UNL A   1      32.507  27.677  24.675  1.00  0.00     0.005 C 
ATOM     16  C   UNL A   1      30.970  27.700  24.715  1.00  0.00     0.007 C 
ATOM     17  C   UNL A   1      33.077  26.945  25.903  1.00  0.00     0.119 C 
ATOM     18  C   UNL A   1      30.406  26.287  24.842  1.00  0.00     0.022 C 
ATOM     19  C   UNL A   1      30.977  25.578  26.065  1.00  0.00     0.116 C 
ENDBRANCH   8  13
BRANCH  12  20
ATOM     20  N   UNL A   1      35.459  20.967  25.419  1.00  0.00    -0.325 N 
ATOM     21  C   UNL A   1      35.282  19.704  24.932  1.00  0.00     0.229 C 
ATOM     22  H   UNL A   1      36.348  21.109  25.817  1.00  0.00     0.169 HD
ATOM     23  O   UNL A   1      36.230  18.915  25.049  1.00  0.00    -0.274 OA
BRANCH  21  24
ATOM     24  C   UNL A   1      34.005  19.226  24.273  1.00  0.00     0.147 C 
BRANCH  24  25
ATOM     25  C   UNL A   1      33.492  17.890  24.751  1.00  0.00     0.014 A 
ATOM     26  C   UNL A   1      32.630  17.541  25.775  1.00  0.00     0.016 A 
ATOM     27  S   UNL A   1      33.999  16.483  23.890  1.00  0.00    -0.148 S 
ATOM     28  C   UNL A   1      32.333  16.147  25.806  1.00  0.00     0.012 A 
ATOM     29  C   UNL A   1      33.033  15.453  24.848  1.00  0.00     0.065 A 
ENDBRANCH  24  25
ENDBRANCH  21  24
ENDBRANCH  12  20
ENDBRANCH   4   7
ENDBRANCH   2   3
ENDBRANCH   1   2
BRANCH   1  30
ATOM     30  C   UNL A   1      40.341  22.982  27.201  1.00  0.00     0.118 C 
BRANCH  30  31
ATOM     31  N   UNL A   1      41.369  23.513  26.313  1.00  0.00    -0.352 N 
ATOM     32  C   UNL A   1      41.890  24.778  26.217  1.00  0.00     0.251 C 
ATOM     33  H   UNL A   1      41.750  22.860  25.684  1.00  0.00     0.163 HD
ATOM     34  O   UNL A   1      42.532  25.086  25.218  1.00  0.00    -0.269 OA
BRANCH  32  35
ATOM     35  C   UNL A   1      41.688  25.763  27.302  1.00  0.00     0.039 A 
ATOM     36  C   UNL A   1      40.669  25.545  28.233  1.00  0.00     0.014 A 
ATOM     37  C   UNL A   1      42.458  26.927  27.369  1.00  0.00     0.014 A 
ATOM     38  C   UNL A   1      40.454  26.470  29.258  1.00  0.00     0.010 A 
ATOM     39  C   UNL A   1      42.294  27.809  28.433  1.00  0.00     0.010 A 
ATOM     40  C   UNL A   1      41.285  27.595  29.383  1.00  0.00    -0.014 A 
BRANCH  40  41
ATOM     41  C   UNL A   1      41.111  28.567  30.492  1.00  0.00     0.031 A 
ATOM     42  C   UNL A   1      41.966  28.464  31.727  1.00  0.00     0.074 A 
ATOM     43  C   UNL A   1      40.134  29.493  30.417  1.00  0.00     0.049 A 
ATOM     44  N   UNL A   1      41.898  29.149  32.839  1.00  0.00    -0.248 NA
ATOM     45  C   UNL A   1      43.018  27.433  31.723  1.00  0.00     0.031 C 
ATOM     46  C   UNL A   1      39.213  29.660  29.291  1.00  0.00     0.029 A 
ATOM     47  N   UNL A   1      39.744  30.460  31.308  1.00  0.00    -0.354 N 
ATOM     48  C   UNL A   1      42.878  28.620  33.671  1.00  0.00     0.074 A 
ATOM     49  C   UNL A   1      43.494  27.525  32.955  1.00  0.00     0.031 C 
ATOM     50  C   UNL A   1      38.376  30.677  29.553  1.00  0.00     0.029 A 
ATOM     51  C   UNL A   1      38.674  31.209  30.879  1.00  0.00     0.049 A 
ATOM     52  H   UNL A   1      40.188  30.603  32.176  1.00  0.00     0.167 HD
ATOM     53  C   UNL A   1      43.246  29.027  34.911  1.00  0.00     0.037 A 
ATOM     54  C   UNL A   1      38.003  32.205  31.488  1.00  0.00     0.037 A 
ATOM     55  C   UNL A   1      42.648  30.140  35.600  1.00  0.00     0.049 A 
ATOM     56  C   UNL A   1      38.437  32.645  32.859  1.00  0.00     0.074 A 
ATOM     57  C   UNL A   1      42.987  30.672  36.832  1.00  0.00     0.029 A 
ATOM     58  N   UNL A   1      41.590  30.896  35.116  1.00  0.00    -0.354 N 
ATOM     59  N   UNL A   1      39.403  32.171  33.609  1.00  0.00    -0.248 NA
ATOM     60  C   UNL A   1      37.695  33.759  33.467  1.00  0.00     0.031 C 
ATOM     61  C   UNL A   1      42.108  31.724  37.111  1.00  0.00     0.029 A 
ATOM     62  C   UNL A   1      41.253  31.879  36.031  1.00  0.00     0.049 A 
ATOM     63  H   UNL A   1      41.144  30.754  34.251  1.00  0.00     0.167 HD
ATOM     64  C   UNL A   1      39.404  32.946  34.763  1.00  0.00     0.074 A 
ATOM     65  C   UNL A   1      38.349  33.927  34.607  1.00  0.00     0.031 C 
ATOM     66  C   UNL A   1      40.206  32.854  35.853  1.00  0.00     0.037 A 
BRANCH  53  67
ATOM     67  C   UNL A   1      44.352  28.271  35.596  1.00  0.00     0.058 A 
ATOM     68  C   UNL A   1      44.087  27.171  36.428  1.00  0.00     0.135 A 
ATOM     69  C   UNL A   1      45.695  28.624  35.390  1.00  0.00     0.135 A 
ATOM     70  F   UNL A   1      42.821  26.798  36.673  1.00  0.00    -0.206 F 
ATOM     71  C   UNL A   1      45.111  26.468  37.055  1.00  0.00     0.059 A 
ATOM     72  C   UNL A   1      46.737  27.917  35.983  1.00  0.00     0.059 A 
ATOM     73  F   UNL A   1      46.008  29.667  34.604  1.00  0.00    -0.206 F 
ATOM     74  C   UNL A   1      46.434  26.848  36.826  1.00  0.00     0.060 A 
BRANCH  74  75
ATOM     75  S   UNL A   1      47.750  25.919  37.639  1.00  0.00     0.124 S 
ATOM     76  O   UNL A   1      47.017  24.763  38.148  1.00  0.00    -0.237 OA
ATOM     77  O   UNL A   1      48.670  25.650  36.538  1.00  0.00    -0.237 OA
ATOM     78  O   UNL A   1      48.243  26.844  38.654  1.00  0.00    -0.744 OA
ENDBRANCH  74  75
ENDBRANCH  53  67
BRANCH  54  79
ATOM     79  C   UNL A   1      36.864  32.866  30.795  1.00  0.00     0.058 A 
ATOM     80  C   UNL A   1      37.087  33.856  29.827  1.00  0.00     0.135 A 
ATOM     81  C   UNL A   1      35.535  32.513  31.076  1.00  0.00     0.135 A 
ATOM     82  F   UNL A   1      38.340  34.231  29.528  1.00  0.00    -0.206 F 
ATOM     83  C   UNL A   1      36.034  34.486  29.172  1.00  0.00     0.059 A 
ATOM     84  C   UNL A   1      34.465  33.111  30.415  1.00  0.00     0.059 A 
ATOM     85  F   UNL A   1      35.268  31.557  31.980  1.00  0.00    -0.206 F 
ATOM     86  C   UNL A   1      34.725  34.104  29.472  1.00  0.00     0.060 A 
BRANCH  86  87
ATOM     87  S   UNL A   1      33.366  34.893  28.581  1.00  0.00     0.124 S 
ATOM     88  O   UNL A   1      34.079  35.861  27.756  1.00  0.00    -0.237 OA
ATOM     89  O   UNL A   1      32.767  33.766  27.874  1.00  0.00    -0.237 OA
ATOM     90  O   UNL A   1      32.547  35.455  29.652  1.00  0.00    -0.744 OA
ENDBRANCH  86  87
ENDBRANCH  54  79
BRANCH  66  91
ATOM     91  C   UNL A   1      40.001  33.863  36.948  1.00  0.00     0.058 A 
ATOM     92  C   UNL A   1      40.688  35.086  36.962  1.00  0.00     0.135 A 
ATOM     93  C   UNL A   1      39.061  33.625  37.964  1.00  0.00     0.135 A 
ATOM     94  F   UNL A   1      41.603  35.359  36.018  1.00  0.00    -0.206 F 
ATOM     95  C   UNL A   1      40.467  36.031  37.959  1.00  0.00     0.059 A 
ATOM     96  C   UNL A   1      38.804  34.567  38.954  1.00  0.00     0.059 A 
ATOM     97  F   UNL A   1      38.370  32.475  37.989  1.00  0.00    -0.206 F 
ATOM     98  C   UNL A   1      39.520  35.763  38.949  1.00  0.00     0.060 A 
BRANCH  98  99
ATOM     99  S   UNL A   1      39.214  37.013  40.215  1.00  0.00     0.124 S 
ATOM    100  O   UNL A   1      38.365  36.282  41.149  1.00  0.00    -0.237 OA
ATOM    101  O   UNL A   1      40.561  37.319  40.685  1.00  0.00    -0.237 OA
ATOM    102  O   UNL A   1      38.555  38.088  39.477  1.00  0.00    -0.744 OA
ENDBRANCH  98  99
ENDBRANCH  66  91
ENDBRANCH  40  41
ENDBRANCH  32  35
ENDBRANCH  30  31
ENDBRANCH   1  30
TORSDOF 17
ENDMDL
MODEL 3
REMARK VINA RESULT:     -12.0      6.601     11.823
REMARK SMILES C[C@@H]1CCCN(c2ccc(NC(=O)Cc3cccs3)c(C(=O)NCCCNC(=O)c3ccc(-c4c5nc(c(-c6c(F)cc(S(=O)(=O)[O-])cc6F)c6ccc([nH]6)c(-c6c(F)cc(S(=O)(=O)[O-])cc6F)c6nc(c(-c7c(F)cc(S(=O)(=O)[O-])cc7F)c7ccc4[nH]7)C=C6)C=C5)cc3)c2)C1
REMARK SMILES IDX 25 1 24 2 23 3 21 4 22 5 20 7 7 8 8 9 96 10 9 11 10 12 6 13
REMARK SMILES IDX 1 14 2 15 3 16 97 17 4 18 5 19 11 20 12 21 13 23 14 24 15 25
REMARK SMILES IDX 16 26 19 27 17 28 18 29 26 30 27 31 28 32 29 34 30 35 31 36
REMARK SMILES IDX 95 37 32 38 94 39 33 40 34 41 35 42 88 43 36 44 93 45 87 46
REMARK SMILES IDX 89 47 37 48 92 49 86 50 85 51 38 53 72 54 51 55 71 56 52 57
REMARK SMILES IDX 55 58 70 59 90 60 53 61 54 62 69 64 91 65 56 66 39 67 40 68
REMARK SMILES IDX 49 69 41 70 42 71 48 72 50 73 43 74 44 75 45 76 46 77 47 78
REMARK SMILES IDX 73 79 74 80 83 81 75 82 76 83 82 84 84 85 77 86 78 87 79 88
REMARK SMILES IDX 80 89 81 90 57 91 58 92 67 93 59 94 60 95 66 96 68 97 61 98
REMARK SMILES IDX 62 99 63 100 64 101 65 102
REMARK H PARENT 23 6 11 22 27 33 89 52 55 63
REMARK Flexibility Score: inf
ROOT
ATOM      1  C   UNL A   1      34.050  29.470  26.871  1.00  0.00     0.042 C 
ENDROOT
BRANCH   1   2
ATOM      2  C   UNL A   1      33.155  28.230  26.892  1.00  0.00     0.118 C 
BRANCH   2   3
ATOM      3  N   UNL A   1      32.820  27.810  25.543  1.00  0.00    -0.352 N 
ATOM      4  C   UNL A   1      32.954  26.631  24.858  1.00  0.00     0.253 C 
ATOM      5  O   UNL A   1      32.461  26.610  23.728  1.00  0.00    -0.269 OA
ATOM      6  H   UNL A   1      32.406  28.524  25.006  1.00  0.00     0.163 HD
BRANCH   4   7
ATOM      7  C   UNL A   1      33.587  25.387  25.411  1.00  0.00     0.065 A 
ATOM      8  C   UNL A   1      35.467  23.821  25.505  1.00  0.00     0.038 A 
ATOM      9  C   UNL A   1      34.836  23.150  26.546  1.00  0.00     0.028 A 
ATOM     10  C   UNL A   1      34.815  24.914  24.931  1.00  0.00     0.042 A 
ATOM     11  C   UNL A   1      33.566  23.534  26.980  1.00  0.00     0.029 A 
ATOM     12  C   UNL A   1      32.903  24.611  26.385  1.00  0.00     0.054 A 
BRANCH   8  13
ATOM     13  N   UNL A   1      36.721  23.434  25.088  1.00  0.00    -0.371 N 
ATOM     14  C   UNL A   1      39.838  22.869  27.194  1.00  0.00     0.009 C 
ATOM     15  C   UNL A   1      38.527  22.530  26.489  1.00  0.00     0.005 C 
ATOM     16  C   UNL A   1      38.760  21.458  25.412  1.00  0.00     0.007 C 
ATOM     17  C   UNL A   1      37.894  23.793  25.879  1.00  0.00     0.119 C 
ATOM     18  C   UNL A   1      37.463  21.139  24.671  1.00  0.00     0.022 C 
ATOM     19  C   UNL A   1      36.852  22.400  24.070  1.00  0.00     0.116 C 
ENDBRANCH   8  13
BRANCH  12  20
ATOM     20  N   UNL A   1      31.557  24.915  26.691  1.00  0.00    -0.325 N 
ATOM     21  C   UNL A   1      30.388  24.220  26.578  1.00  0.00     0.229 C 
ATOM     22  H   UNL A   1      31.438  25.818  27.065  1.00  0.00     0.169 HD
ATOM     23  O   UNL A   1      29.353  24.792  26.946  1.00  0.00    -0.274 OA
BRANCH  21  24
ATOM     24  C   UNL A   1      30.295  22.810  26.030  1.00  0.00     0.147 C 
BRANCH  24  25
ATOM     25  C   UNL A   1      31.108  22.545  24.788  1.00  0.00     0.014 A 
ATOM     26  C   UNL A   1      31.236  23.238  23.598  1.00  0.00     0.016 A 
ATOM     27  S   UNL A   1      32.128  21.152  24.781  1.00  0.00    -0.148 S 
ATOM     28  C   UNL A   1      32.211  22.674  22.724  1.00  0.00     0.012 A 
ATOM     29  C   UNL A   1      32.754  21.521  23.237  1.00  0.00     0.065 A 
ENDBRANCH  24  25
ENDBRANCH  21  24
ENDBRANCH  12  20
ENDBRANCH   4   7
ENDBRANCH   2   3
ENDBRANCH   1   2
BRANCH   1  30
ATOM     30  C   UNL A   1      35.333  29.288  27.682  1.00  0.00     0.118 C 
BRANCH  30  31
ATOM     31  N   UNL A   1      35.399  30.231  28.791  1.00  0.00    -0.352 N 
ATOM     32  C   UNL A   1      36.420  30.499  29.668  1.00  0.00     0.251 C 
ATOM     33  H   UNL A   1      34.581  30.761  28.934  1.00  0.00     0.163 HD
ATOM     34  O   UNL A   1      36.173  31.113  30.701  1.00  0.00    -0.269 OA
BRANCH  32  35
ATOM     35  C   UNL A   1      37.801  30.059  29.376  1.00  0.00     0.039 A 
ATOM     36  C   UNL A   1      38.190  29.890  28.045  1.00  0.00     0.014 A 
ATOM     37  C   UNL A   1      38.691  29.754  30.409  1.00  0.00     0.014 A 
ATOM     38  C   UNL A   1      39.488  29.464  27.749  1.00  0.00     0.010 A 
ATOM     39  C   UNL A   1      40.005  29.403  30.113  1.00  0.00     0.010 A 
ATOM     40  C   UNL A   1      40.415  29.244  28.780  1.00  0.00    -0.014 A 
BRANCH  40  41
ATOM     41  C   UNL A   1      41.814  28.840  28.492  1.00  0.00     0.031 A 
ATOM     42  C   UNL A   1      42.909  29.872  28.475  1.00  0.00     0.074 A 
ATOM     43  C   UNL A   1      42.082  27.558  28.173  1.00  0.00     0.049 A 
ATOM     44  N   UNL A   1      44.169  29.735  28.147  1.00  0.00    -0.248 NA
ATOM     45  C   UNL A   1      42.535  31.246  28.848  1.00  0.00     0.031 C 
ATOM     46  C   UNL A   1      41.094  26.478  28.110  1.00  0.00     0.029 A 
ATOM     47  N   UNL A   1      43.260  26.947  27.827  1.00  0.00    -0.354 N 
ATOM     48  C   UNL A   1      44.728  31.004  28.251  1.00  0.00     0.074 A 
ATOM     49  C   UNL A   1      43.661  31.906  28.627  1.00  0.00     0.031 C 
ATOM     50  C   UNL A   1      41.711  25.336  27.765  1.00  0.00     0.029 A 
ATOM     51  C   UNL A   1      43.127  25.609  27.543  1.00  0.00     0.049 A 
ATOM     52  H   UNL A   1      44.122  27.423  27.786  1.00  0.00     0.167 HD
ATOM     53  C   UNL A   1      46.019  31.377  28.074  1.00  0.00     0.037 A 
ATOM     54  C   UNL A   1      44.040  24.705  27.139  1.00  0.00     0.037 A 
ATOM     55  C   UNL A   1      47.078  30.465  27.734  1.00  0.00     0.049 A 
ATOM     56  C   UNL A   1      45.469  25.142  26.959  1.00  0.00     0.074 A 
ATOM     57  C   UNL A   1      48.429  30.730  27.590  1.00  0.00     0.029 A 
ATOM     58  N   UNL A   1      46.908  29.110  27.489  1.00  0.00    -0.354 N 
ATOM     59  N   UNL A   1      45.991  26.335  27.118  1.00  0.00    -0.248 NA
ATOM     60  C   UNL A   1      46.434  24.111  26.551  1.00  0.00     0.031 C 
ATOM     61  C   UNL A   1      49.070  29.543  27.219  1.00  0.00     0.029 A 
ATOM     62  C   UNL A   1      48.126  28.528  27.178  1.00  0.00     0.049 A 
ATOM     63  H   UNL A   1      46.049  28.632  27.528  1.00  0.00     0.167 HD
ATOM     64  C   UNL A   1      47.349  26.192  26.857  1.00  0.00     0.074 A 
ATOM     65  C   UNL A   1      47.569  24.795  26.542  1.00  0.00     0.031 C 
ATOM     66  C   UNL A   1      48.327  27.133  26.878  1.00  0.00     0.037 A 
BRANCH  53  67
ATOM     67  C   UNL A   1      46.357  32.832  28.254  1.00  0.00     0.058 A 
ATOM     68  C   UNL A   1      46.826  33.334  29.479  1.00  0.00     0.135 A 
ATOM     69  C   UNL A   1      46.248  33.731  27.180  1.00  0.00     0.135 A 
ATOM     70  F   UNL A   1      46.935  32.524  30.544  1.00  0.00    -0.206 F 
ATOM     71  C   UNL A   1      47.146  34.678  29.642  1.00  0.00     0.059 A 
ATOM     72  C   UNL A   1      46.590  35.074  27.312  1.00  0.00     0.059 A 
ATOM     73  F   UNL A   1      45.805  33.307  25.986  1.00  0.00    -0.206 F 
ATOM     74  C   UNL A   1      47.025  35.541  28.551  1.00  0.00     0.060 A 
BRANCH  74  75
ATOM     75  S   UNL A   1      47.453  37.280  28.778  1.00  0.00     0.124 S 
ATOM     76  O   UNL A   1      47.879  37.295  30.174  1.00  0.00    -0.237 OA
ATOM     77  O   UNL A   1      48.512  37.472  27.791  1.00  0.00    -0.237 OA
ATOM     78  O   UNL A   1      46.203  37.978  28.496  1.00  0.00    -0.744 OA
ENDBRANCH  74  75
ENDBRANCH  53  67
BRANCH  54  79
ATOM     79  C   UNL A   1      43.635  23.294  26.898  1.00  0.00     0.058 A 
ATOM     80  C   UNL A   1      43.380  22.425  27.969  1.00  0.00     0.135 A 
ATOM     81  C   UNL A   1      43.479  22.791  25.597  1.00  0.00     0.135 A 
ATOM     82  F   UNL A   1      43.520  22.858  29.231  1.00  0.00    -0.206 F 
ATOM     83  C   UNL A   1      43.002  21.103  27.762  1.00  0.00     0.059 A 
ATOM     84  C   UNL A   1      43.076  21.479  25.364  1.00  0.00     0.059 A 
ATOM     85  F   UNL A   1      43.690  23.587  24.537  1.00  0.00    -0.206 F 
ATOM     86  C   UNL A   1      42.851  20.640  26.453  1.00  0.00     0.060 A 
BRANCH  86  87
ATOM     87  S   UNL A   1      42.313  18.935  26.195  1.00  0.00     0.124 S 
ATOM     88  O   UNL A   1      43.258  18.479  25.183  1.00  0.00    -0.237 OA
ATOM     89  O   UNL A   1      42.472  18.357  27.526  1.00  0.00    -0.237 OA
ATOM     90  O   UNL A   1      40.930  19.086  25.749  1.00  0.00    -0.744 OA
ENDBRANCH  86  87
ENDBRANCH  54  79
BRANCH  66  91
ATOM     91  C   UNL A   1      49.729  26.677  26.588  1.00  0.00     0.058 A 
ATOM     92  C   UNL A   1      50.266  26.721  25.293  1.00  0.00     0.135 A 
ATOM     93  C   UNL A   1      50.564  26.247  27.632  1.00  0.00     0.135 A 
ATOM     94  F   UNL A   1      49.507  27.117  24.259  1.00  0.00    -0.206 F 
ATOM     95  C   UNL A   1      51.578  26.332  25.038  1.00  0.00     0.059 A 
ATOM     96  C   UNL A   1      51.886  25.880  27.405  1.00  0.00     0.059 A 
ATOM     97  F   UNL A   1      50.101  26.197  28.891  1.00  0.00    -0.206 F 
ATOM     98  C   UNL A   1      52.381  25.915  26.102  1.00  0.00     0.060 A 
BRANCH  98  99
ATOM     99  S   UNL A   1      54.092  25.451  25.764  1.00  0.00     0.124 S 
ATOM    100  O   UNL A   1      53.916  24.324  24.854  1.00  0.00    -0.237 OA
ATOM    101  O   UNL A   1      54.635  26.669  25.170  1.00  0.00    -0.237 OA
ATOM    102  O   UNL A   1      54.620  25.116  27.083  1.00  0.00    -0.744 OA
ENDBRANCH  98  99
ENDBRANCH  66  91
ENDBRANCH  40  41
ENDBRANCH  32  35
ENDBRANCH  30  31
ENDBRANCH   1  30
TORSDOF 17
ENDMDL
