MODEL 1
REMARK VINA RESULT:     -12.6      0.000      0.000
REMARK SMILES Cc1ccc(S(=O)(=O)Nc2cnc(N(C)C)c(C(=O)NCCCNC(=O)c3ccc(-c4c5nc(c(-c6c(F)cc(S(=O)(=O)[O-])cc6F)c6ccc([nH]6)c(-c6c(F)cc(S(=O)(=O)[O-])cc6F)c6nc(c(-c7c(F)cc(S(=O)(=O)[O-])cc7F)c7ccc4[nH]7)C=C6)C=C5)cc3)c2)c(C)c1
REMARK SMILES IDX 22 1 21 2 20 3 18 4 19 5 17 7 10 8 11 9 93 10 12 11 13 12
REMARK SMILES IDX 9 13 6 15 7 16 8 17 5 18 1 19 2 20 3 21 96 22 4 23 94 24
REMARK SMILES IDX 95 25 14 26 15 27 16 28 23 29 24 30 25 31 26 33 27 34 28 35
REMARK SMILES IDX 92 36 29 37 91 38 30 39 31 40 32 41 85 42 33 43 90 44 84 45
REMARK SMILES IDX 86 46 34 47 89 48 83 49 82 50 35 52 69 53 48 54 68 55 49 56
REMARK SMILES IDX 52 57 67 58 87 59 50 60 51 61 66 63 88 64 53 65 36 66 37 67
REMARK SMILES IDX 46 68 38 69 39 70 45 71 47 72 40 73 41 74 42 75 43 76 44 77
REMARK SMILES IDX 70 78 71 79 80 80 72 81 73 82 79 83 81 84 74 85 75 86 76 87
REMARK SMILES IDX 77 88 78 89 54 90 55 91 64 92 56 93 57 94 63 95 65 96 58 97
REMARK SMILES IDX 59 98 60 99 61 100 62 101
REMARK H PARENT 20 6 9 14 24 32 86 51 52 62
REMARK Flexibility Score: inf
ROOT
ATOM      1  C   UNL A   1      37.201  23.760  25.684  1.00  0.00     0.042 C 
ENDROOT
BRANCH   1   2
ATOM      2  C   UNL A   1      36.818  22.319  25.336  1.00  0.00     0.118 C 
BRANCH   2   3
ATOM      3  N   UNL A   1      35.899  21.784  26.328  1.00  0.00    -0.352 N 
ATOM      4  C   UNL A   1      34.538  21.586  26.315  1.00  0.00     0.255 C 
ATOM      5  O   UNL A   1      33.985  21.445  27.404  1.00  0.00    -0.269 OA
ATOM      6  H   UNL A   1      36.334  21.513  27.169  1.00  0.00     0.163 HD
BRANCH   4   7
ATOM      7  C   UNL A   1      33.745  21.519  25.061  1.00  0.00     0.084 A 
ATOM      8  C   UNL A   1      32.636  22.741  23.284  1.00  0.00     0.068 A 
ATOM      9  C   UNL A   1      32.175  21.524  22.831  1.00  0.00     0.140 A 
ATOM     10  C   UNL A   1      33.315  22.738  24.490  1.00  0.00     0.046 A 
ATOM     11  N   UNL A   1      32.511  20.345  23.387  1.00  0.00    -0.236 NA
ATOM     12  C   UNL A   1      33.355  20.298  24.458  1.00  0.00     0.141 A 
BRANCH   8  13
ATOM     13  N   UNL A   1      32.469  23.875  22.444  1.00  0.00    -0.278 N 
ATOM     14  H   UNL A   1      31.711  23.868  21.817  1.00  0.00     0.180 HD
BRANCH  13  15
ATOM     15  S   UNL A   1      33.462  25.227  22.442  1.00  0.00     0.262 S 
ATOM     16  O   UNL A   1      33.265  25.897  21.172  1.00  0.00    -0.201 OA
ATOM     17  O   UNL A   1      34.758  24.734  22.853  1.00  0.00    -0.201 OA
BRANCH  15  18
ATOM     18  C   UNL A   1      32.928  26.380  23.711  1.00  0.00     0.090 A 
ATOM     19  C   UNL A   1      31.789  28.181  27.458  1.00  0.00     0.044 C 
ATOM     20  C   UNL A   1      32.175  27.625  26.118  1.00  0.00    -0.051 A 
ATOM     21  C   UNL A   1      33.483  27.736  25.648  1.00  0.00     0.005 A 
ATOM     22  C   UNL A   1      31.215  27.015  25.305  1.00  0.00     0.008 A 
ATOM     23  C   UNL A   1      33.855  27.135  24.440  1.00  0.00     0.023 A 
ATOM     24  C   UNL A   1      31.572  26.385  24.098  1.00  0.00    -0.030 A 
ATOM     25  C   UNL A   1      30.450  25.820  23.265  1.00  0.00     0.046 C 
ENDBRANCH  15  18
ENDBRANCH  13  15
ENDBRANCH   8  13
BRANCH  12  26
ATOM     26  N   UNL A   1      33.796  19.020  24.745  1.00  0.00    -0.362 N 
ATOM     27  C   UNL A   1      32.891  18.160  25.509  1.00  0.00     0.145 C 
ATOM     28  C   UNL A   1      35.162  18.546  24.625  1.00  0.00     0.145 C 
ENDBRANCH  12  26
ENDBRANCH   4   7
ENDBRANCH   2   3
ENDBRANCH   1   2
BRANCH   1  29
ATOM     29  C   UNL A   1      38.269  23.852  26.770  1.00  0.00     0.118 C 
BRANCH  29  30
ATOM     30  N   UNL A   1      39.610  23.903  26.209  1.00  0.00    -0.352 N 
ATOM     31  C   UNL A   1      40.606  24.819  26.438  1.00  0.00     0.251 C 
ATOM     32  H   UNL A   1      39.833  23.182  25.578  1.00  0.00     0.163 HD
ATOM     33  O   UNL A   1      41.603  24.813  25.721  1.00  0.00    -0.269 OA
BRANCH  31  34
ATOM     34  C   UNL A   1      40.479  25.814  27.528  1.00  0.00     0.039 A 
ATOM     35  C   UNL A   1      41.338  26.918  27.530  1.00  0.00     0.014 A 
ATOM     36  C   UNL A   1      39.562  25.641  28.569  1.00  0.00     0.014 A 
ATOM     37  C   UNL A   1      41.256  27.863  28.555  1.00  0.00     0.010 A 
ATOM     38  C   UNL A   1      39.445  26.611  29.563  1.00  0.00     0.010 A 
ATOM     39  C   UNL A   1      40.300  27.723  29.575  1.00  0.00    -0.014 A 
BRANCH  39  40
ATOM     40  C   UNL A   1      40.211  28.713  30.678  1.00  0.00     0.031 A 
ATOM     41  C   UNL A   1      41.099  28.576  31.885  1.00  0.00     0.074 A 
ATOM     42  C   UNL A   1      39.303  29.705  30.615  1.00  0.00     0.049 A 
ATOM     43  N   UNL A   1      41.137  29.305  32.971  1.00  0.00    -0.248 NA
ATOM     44  C   UNL A   1      42.054  27.457  31.881  1.00  0.00     0.031 C 
ATOM     45  C   UNL A   1      38.352  29.915  29.522  1.00  0.00     0.029 A 
ATOM     46  N   UNL A   1      39.026  30.721  31.495  1.00  0.00    -0.354 N 
ATOM     47  C   UNL A   1      42.095  28.718  33.789  1.00  0.00     0.074 A 
ATOM     48  C   UNL A   1      42.594  27.555  33.088  1.00  0.00     0.031 C 
ATOM     49  C   UNL A   1      37.608  31.001  29.789  1.00  0.00     0.029 A 
ATOM     50  C   UNL A   1      38.015  31.551  31.079  1.00  0.00     0.049 A 
ATOM     51  H   UNL A   1      39.506  30.842  32.347  1.00  0.00     0.167 HD
ATOM     52  C   UNL A   1      42.534  29.123  35.005  1.00  0.00     0.037 A 
ATOM     53  C   UNL A   1      37.478  32.637  31.669  1.00  0.00     0.037 A 
ATOM     54  C   UNL A   1      42.068  30.304  35.682  1.00  0.00     0.049 A 
ATOM     55  C   UNL A   1      38.024  33.102  32.990  1.00  0.00     0.074 A 
ATOM     56  C   UNL A   1      42.489  30.829  36.891  1.00  0.00     0.029 A 
ATOM     57  N   UNL A   1      41.081  31.152  35.200  1.00  0.00    -0.354 N 
ATOM     58  N   UNL A   1      38.965  32.563  33.727  1.00  0.00    -0.248 NA
ATOM     59  C   UNL A   1      37.444  34.330  33.553  1.00  0.00     0.031 C 
ATOM     60  C   UNL A   1      41.745  31.988  37.148  1.00  0.00     0.029 A 
ATOM     61  C   UNL A   1      40.880  32.196  36.086  1.00  0.00     0.049 A 
ATOM     62  H   UNL A   1      40.596  31.029  34.352  1.00  0.00     0.167 HD
ATOM     63  C   UNL A   1      39.104  33.394  34.833  1.00  0.00     0.074 A 
ATOM     64  C   UNL A   1      38.159  34.478  34.661  1.00  0.00     0.031 C 
ATOM     65  C   UNL A   1      39.939  33.271  35.893  1.00  0.00     0.037 A 
BRANCH  52  66
ATOM     66  C   UNL A   1      43.577  28.275  35.676  1.00  0.00     0.058 A 
ATOM     67  C   UNL A   1      44.946  28.464  35.429  1.00  0.00     0.135 A 
ATOM     68  C   UNL A   1      43.208  27.268  36.582  1.00  0.00     0.135 A 
ATOM     69  F   UNL A   1      45.352  29.404  34.559  1.00  0.00    -0.206 F 
ATOM     70  C   UNL A   1      45.912  27.661  36.027  1.00  0.00     0.059 A 
ATOM     71  C   UNL A   1      44.158  26.467  37.208  1.00  0.00     0.059 A 
ATOM     72  F   UNL A   1      41.912  27.045  36.853  1.00  0.00    -0.206 F 
ATOM     73  C   UNL A   1      45.506  26.658  36.909  1.00  0.00     0.060 A 
BRANCH  73  74
ATOM     74  S   UNL A   1      46.765  25.609  37.669  1.00  0.00     0.124 S 
ATOM     75  O   UNL A   1      46.104  24.307  37.650  1.00  0.00    -0.237 OA
ATOM     76  O   UNL A   1      47.895  25.757  36.757  1.00  0.00    -0.237 OA
ATOM     77  O   UNL A   1      46.948  26.204  38.989  1.00  0.00    -0.744 OA
ENDBRANCH  73  74
ENDBRANCH  52  66
BRANCH  53  78
ATOM     78  C   UNL A   1      36.390  33.383  30.988  1.00  0.00     0.058 A 
ATOM     79  C   UNL A   1      36.653  34.152  29.846  1.00  0.00     0.135 A 
ATOM     80  C   UNL A   1      35.066  33.319  31.448  1.00  0.00     0.135 A 
ATOM     81  F   UNL A   1      37.905  34.244  29.374  1.00  0.00    -0.206 F 
ATOM     82  C   UNL A   1      35.642  34.844  29.186  1.00  0.00     0.059 A 
ATOM     83  C   UNL A   1      34.036  33.988  30.794  1.00  0.00     0.059 A 
ATOM     84  F   UNL A   1      34.763  32.584  32.528  1.00  0.00    -0.206 F 
ATOM     85  C   UNL A   1      34.336  34.755  29.667  1.00  0.00     0.060 A 
BRANCH  85  86
ATOM     86  S   UNL A   1      33.018  35.606  28.770  1.00  0.00     0.124 S 
ATOM     87  O   UNL A   1      32.194  36.103  29.865  1.00  0.00    -0.237 OA
ATOM     88  O   UNL A   1      33.756  36.615  28.017  1.00  0.00    -0.237 OA
ATOM     89  O   UNL A   1      32.426  34.543  27.964  1.00  0.00    -0.744 OA
ENDBRANCH  85  86
ENDBRANCH  53  78
BRANCH  65  90
ATOM     90  C   UNL A   1      39.886  34.349  36.934  1.00  0.00     0.058 A 
ATOM     91  C   UNL A   1      40.687  35.497  36.842  1.00  0.00     0.135 A 
ATOM     92  C   UNL A   1      38.997  34.249  38.016  1.00  0.00     0.135 A 
ATOM     93  F   UNL A   1      41.557  35.634  35.829  1.00  0.00    -0.206 F 
ATOM     94  C   UNL A   1      40.623  36.504  37.799  1.00  0.00     0.059 A 
ATOM     95  C   UNL A   1      38.904  35.253  38.975  1.00  0.00     0.059 A 
ATOM     96  F   UNL A   1      38.205  33.174  38.143  1.00  0.00    -0.206 F 
ATOM     97  C   UNL A   1      39.730  36.372  38.864  1.00  0.00     0.060 A 
BRANCH  97  98
ATOM     98  S   UNL A   1      39.630  37.694  40.089  1.00  0.00     0.124 S 
ATOM     99  O   UNL A   1      39.424  36.938  41.319  1.00  0.00    -0.237 OA
ATOM    100  O   UNL A   1      40.929  38.348  39.957  1.00  0.00    -0.237 OA
ATOM    101  O   UNL A   1      38.490  38.486  39.638  1.00  0.00    -0.744 OA
ENDBRANCH  97  98
ENDBRANCH  65  90
ENDBRANCH  39  40
ENDBRANCH  31  34
ENDBRANCH  29  30
ENDBRANCH   1  29
TORSDOF 17
ENDMDL
MODEL 2
REMARK VINA RESULT:     -12.5      6.196      8.125
REMARK SMILES Cc1ccc(S(=O)(=O)Nc2cnc(N(C)C)c(C(=O)NCCCNC(=O)c3ccc(-c4c5nc(c(-c6c(F)cc(S(=O)(=O)[O-])cc6F)c6ccc([nH]6)c(-c6c(F)cc(S(=O)(=O)[O-])cc6F)c6nc(c(-c7c(F)cc(S(=O)(=O)[O-])cc7F)c7ccc4[nH]7)C=C6)C=C5)cc3)c2)c(C)c1
REMARK SMILES IDX 22 1 21 2 20 3 18 4 19 5 17 7 10 8 11 9 93 10 12 11 13 12
REMARK SMILES IDX 9 13 6 15 7 16 8 17 5 18 1 19 2 20 3 21 96 22 4 23 94 24
REMARK SMILES IDX 95 25 14 26 15 27 16 28 23 29 24 30 25 31 26 33 27 34 28 35
REMARK SMILES IDX 92 36 29 37 91 38 30 39 31 40 32 41 85 42 33 43 90 44 84 45
REMARK SMILES IDX 86 46 34 47 89 48 83 49 82 50 35 52 69 53 48 54 68 55 49 56
REMARK SMILES IDX 52 57 67 58 87 59 50 60 51 61 66 63 88 64 53 65 36 66 37 67
REMARK SMILES IDX 46 68 38 69 39 70 45 71 47 72 40 73 41 74 42 75 43 76 44 77
REMARK SMILES IDX 70 78 71 79 80 80 72 81 73 82 79 83 81 84 74 85 75 86 76 87
REMARK SMILES IDX 77 88 78 89 54 90 55 91 64 92 56 93 57 94 63 95 65 96 58 97
REMARK SMILES IDX 59 98 60 99 61 100 62 101
REMARK H PARENT 20 6 9 14 24 32 86 51 52 62
REMARK Flexibility Score: inf
ROOT
ATOM      1  C   UNL A   1      38.111  19.952  25.007  1.00  0.00     0.042 C 
ENDROOT
BRANCH   1   2
ATOM      2  C   UNL A   1      36.972  20.953  24.797  1.00  0.00     0.118 C 
BRANCH   2   3
ATOM      3  N   UNL A   1      36.057  20.924  25.928  1.00  0.00    -0.352 N 
ATOM      4  C   UNL A   1      34.707  21.171  26.030  1.00  0.00     0.255 C 
ATOM      5  O   UNL A   1      34.269  21.410  27.153  1.00  0.00    -0.269 OA
ATOM      6  H   UNL A   1      36.485  20.683  26.781  1.00  0.00     0.163 HD
BRANCH   4   7
ATOM      7  C   UNL A   1      33.790  21.138  24.862  1.00  0.00     0.084 A 
ATOM      8  C   UNL A   1      32.635  22.398  23.142  1.00  0.00     0.068 A 
ATOM      9  C   UNL A   1      32.014  21.219  22.794  1.00  0.00     0.140 A 
ATOM     10  C   UNL A   1      33.427  22.372  24.277  1.00  0.00     0.046 A 
ATOM     11  N   UNL A   1      32.287  20.034  23.370  1.00  0.00    -0.236 NA
ATOM     12  C   UNL A   1      33.225  19.942  24.357  1.00  0.00     0.141 A 
BRANCH   8  13
ATOM     13  N   UNL A   1      32.497  23.511  22.270  1.00  0.00    -0.278 N 
ATOM     14  H   UNL A   1      31.778  23.475  21.597  1.00  0.00     0.180 HD
BRANCH  13  15
ATOM     15  S   UNL A   1      33.461  24.883  22.298  1.00  0.00     0.262 S 
ATOM     16  O   UNL A   1      33.257  25.573  21.039  1.00  0.00    -0.201 OA
ATOM     17  O   UNL A   1      34.764  24.411  22.708  1.00  0.00    -0.201 OA
BRANCH  15  18
ATOM     18  C   UNL A   1      32.894  26.002  23.584  1.00  0.00     0.090 A 
ATOM     19  C   UNL A   1      31.679  27.706  27.353  1.00  0.00     0.044 C 
ATOM     20  C   UNL A   1      32.092  27.185  26.007  1.00  0.00    -0.051 A 
ATOM     21  C   UNL A   1      33.405  27.320  25.559  1.00  0.00     0.005 A 
ATOM     22  C   UNL A   1      31.151  26.582  25.165  1.00  0.00     0.008 A 
ATOM     23  C   UNL A   1      33.802  26.751  24.343  1.00  0.00     0.023 A 
ATOM     24  C   UNL A   1      31.533  25.983  23.950  1.00  0.00    -0.030 A 
ATOM     25  C   UNL A   1      30.430  25.424  23.088  1.00  0.00     0.046 C 
ENDBRANCH  15  18
ENDBRANCH  13  15
ENDBRANCH   8  13
BRANCH  12  26
ATOM     26  N   UNL A   1      33.565  18.637  24.662  1.00  0.00    -0.362 N 
ATOM     27  C   UNL A   1      32.772  17.965  25.692  1.00  0.00     0.145 C 
ATOM     28  C   UNL A   1      34.797  17.969  24.281  1.00  0.00     0.145 C 
ENDBRANCH  12  26
ENDBRANCH   4   7
ENDBRANCH   2   3
ENDBRANCH   1   2
BRANCH   1  29
ATOM     29  C   UNL A   1      39.239  20.499  25.878  1.00  0.00     0.118 C 
BRANCH  29  30
ATOM     30  N   UNL A   1      40.293  19.517  26.080  1.00  0.00    -0.352 N 
ATOM     31  C   UNL A   1      41.638  19.721  26.262  1.00  0.00     0.251 C 
ATOM     32  H   UNL A   1      40.002  18.577  26.085  1.00  0.00     0.163 HD
ATOM     33  O   UNL A   1      42.402  18.761  26.217  1.00  0.00    -0.269 OA
BRANCH  31  34
ATOM     34  C   UNL A   1      42.168  21.084  26.500  1.00  0.00     0.039 A 
ATOM     35  C   UNL A   1      42.391  21.494  27.819  1.00  0.00     0.014 A 
ATOM     36  C   UNL A   1      42.397  21.971  25.445  1.00  0.00     0.014 A 
ATOM     37  C   UNL A   1      42.871  22.780  28.076  1.00  0.00     0.010 A 
ATOM     38  C   UNL A   1      42.926  23.236  25.699  1.00  0.00     0.010 A 
ATOM     39  C   UNL A   1      43.154  23.658  27.017  1.00  0.00    -0.014 A 
BRANCH  39  40
ATOM     40  C   UNL A   1      43.653  25.032  27.278  1.00  0.00     0.031 A 
ATOM     41  C   UNL A   1      45.096  25.370  27.017  1.00  0.00     0.074 A 
ATOM     42  C   UNL A   1      42.822  25.960  27.790  1.00  0.00     0.049 A 
ATOM     43  N   UNL A   1      45.733  26.493  27.229  1.00  0.00    -0.248 NA
ATOM     44  C   UNL A   1      45.939  24.296  26.471  1.00  0.00     0.031 C 
ATOM     45  C   UNL A   1      41.415  25.741  28.132  1.00  0.00     0.029 A 
ATOM     46  N   UNL A   1      43.044  27.273  28.120  1.00  0.00    -0.354 N 
ATOM     47  C   UNL A   1      47.054  26.254  26.869  1.00  0.00     0.074 A 
ATOM     48  C   UNL A   1      47.134  24.869  26.454  1.00  0.00     0.031 C 
ATOM     49  C   UNL A   1      40.896  26.884  28.609  1.00  0.00     0.029 A 
ATOM     50  C   UNL A   1      41.936  27.910  28.624  1.00  0.00     0.049 A 
ATOM     51  H   UNL A   1      43.915  27.717  28.008  1.00  0.00     0.167 HD
ATOM     52  C   UNL A   1      48.101  27.113  26.864  1.00  0.00     0.037 A 
ATOM     53  C   UNL A   1      41.775  29.178  29.047  1.00  0.00     0.037 A 
ATOM     54  C   UNL A   1      48.010  28.500  27.236  1.00  0.00     0.049 A 
ATOM     55  C   UNL A   1      42.936  30.131  28.976  1.00  0.00     0.074 A 
ATOM     56  C   UNL A   1      49.000  29.467  27.213  1.00  0.00     0.029 A 
ATOM     57  N   UNL A   1      46.855  29.122  27.687  1.00  0.00    -0.354 N 
ATOM     58  N   UNL A   1      44.167  29.900  28.586  1.00  0.00    -0.248 NA
ATOM     59  C   UNL A   1      42.684  31.519  29.389  1.00  0.00     0.031 C 
ATOM     60  C   UNL A   1      48.447  30.672  27.665  1.00  0.00     0.029 A 
ATOM     61  C   UNL A   1      47.107  30.459  27.945  1.00  0.00     0.049 A 
ATOM     62  H   UNL A   1      45.984  28.678  27.805  1.00  0.00     0.167 HD
ATOM     63  C   UNL A   1      44.832  31.116  28.689  1.00  0.00     0.074 A 
ATOM     64  C   UNL A   1      43.864  32.082  29.166  1.00  0.00     0.031 C 
ATOM     65  C   UNL A   1      46.126  31.407  28.412  1.00  0.00     0.037 A 
BRANCH  52  66
ATOM     66  C   UNL A   1      49.435  26.570  26.439  1.00  0.00     0.058 A 
ATOM     67  C   UNL A   1      50.271  25.889  27.339  1.00  0.00     0.135 A 
ATOM     68  C   UNL A   1      49.883  26.723  25.117  1.00  0.00     0.135 A 
ATOM     69  F   UNL A   1      49.896  25.729  28.619  1.00  0.00    -0.206 F 
ATOM     70  C   UNL A   1      51.519  25.412  26.955  1.00  0.00     0.059 A 
ATOM     71  C   UNL A   1      51.119  26.234  24.705  1.00  0.00     0.059 A 
ATOM     72  F   UNL A   1      49.123  27.366  24.217  1.00  0.00    -0.206 F 
ATOM     73  C   UNL A   1      51.938  25.597  25.636  1.00  0.00     0.060 A 
BRANCH  73  74
ATOM     74  S   UNL A   1      53.567  24.988  25.148  1.00  0.00     0.124 S 
ATOM     75  O   UNL A   1      53.362  23.544  25.194  1.00  0.00    -0.237 OA
ATOM     76  O   UNL A   1      53.735  25.561  23.816  1.00  0.00    -0.237 OA
ATOM     77  O   UNL A   1      54.451  25.532  26.175  1.00  0.00    -0.744 OA
ENDBRANCH  73  74
ENDBRANCH  52  66
BRANCH  53  78
ATOM     78  C   UNL A   1      40.448  29.630  29.535  1.00  0.00     0.058 A 
ATOM     79  C   UNL A   1      40.221  29.844  30.902  1.00  0.00     0.135 A 
ATOM     80  C   UNL A   1      39.393  29.883  28.646  1.00  0.00     0.135 A 
ATOM     81  F   UNL A   1      41.200  29.611  31.788  1.00  0.00    -0.206 F 
ATOM     82  C   UNL A   1      38.989  30.284  31.375  1.00  0.00     0.059 A 
ATOM     83  C   UNL A   1      38.157  30.341  29.094  1.00  0.00     0.059 A 
ATOM     84  F   UNL A   1      39.567  29.708  27.327  1.00  0.00    -0.206 F 
ATOM     85  C   UNL A   1      37.963  30.530  30.462  1.00  0.00     0.060 A 
BRANCH  85  86
ATOM     86  S   UNL A   1      36.384  31.160  31.076  1.00  0.00     0.124 S 
ATOM     87  O   UNL A   1      35.610  31.256  29.845  1.00  0.00    -0.237 OA
ATOM     88  O   UNL A   1      35.974  30.114  32.008  1.00  0.00    -0.237 OA
ATOM     89  O   UNL A   1      36.751  32.429  31.696  1.00  0.00    -0.744 OA
ENDBRANCH  85  86
ENDBRANCH  53  78
BRANCH  65  90
ATOM     90  C   UNL A   1      46.562  32.830  28.594  1.00  0.00     0.058 A 
ATOM     91  C   UNL A   1      47.100  33.282  29.808  1.00  0.00     0.135 A 
ATOM     92  C   UNL A   1      46.477  33.741  27.530  1.00  0.00     0.135 A 
ATOM     93  F   UNL A   1      47.196  32.449  30.856  1.00  0.00    -0.206 F 
ATOM     94  C   UNL A   1      47.521  34.599  29.969  1.00  0.00     0.059 A 
ATOM     95  C   UNL A   1      46.908  35.057  27.663  1.00  0.00     0.059 A 
ATOM     96  F   UNL A   1      45.977  33.354  26.346  1.00  0.00    -0.206 F 
ATOM     97  C   UNL A   1      47.418  35.480  28.891  1.00  0.00     0.060 A 
BRANCH  97  98
ATOM     98  S   UNL A   1      47.991  37.180  29.095  1.00  0.00     0.124 S 
ATOM     99  O   UNL A   1      49.405  36.978  29.390  1.00  0.00    -0.237 OA
ATOM    100  O   UNL A   1      47.692  37.774  27.796  1.00  0.00    -0.237 OA
ATOM    101  O   UNL A   1      47.180  37.677  30.204  1.00  0.00    -0.744 OA
ENDBRANCH  97  98
ENDBRANCH  65  90
ENDBRANCH  39  40
ENDBRANCH  31  34
ENDBRANCH  29  30
ENDBRANCH   1  29
TORSDOF 17
ENDMDL
MODEL 3
REMARK VINA RESULT:     -12.4      1.542      2.432
REMARK SMILES Cc1ccc(S(=O)(=O)Nc2cnc(N(C)C)c(C(=O)NCCCNC(=O)c3ccc(-c4c5nc(c(-c6c(F)cc(S(=O)(=O)[O-])cc6F)c6ccc([nH]6)c(-c6c(F)cc(S(=O)(=O)[O-])cc6F)c6nc(c(-c7c(F)cc(S(=O)(=O)[O-])cc7F)c7ccc4[nH]7)C=C6)C=C5)cc3)c2)c(C)c1
REMARK SMILES IDX 22 1 21 2 20 3 18 4 19 5 17 7 10 8 11 9 93 10 12 11 13 12
REMARK SMILES IDX 9 13 6 15 7 16 8 17 5 18 1 19 2 20 3 21 96 22 4 23 94 24
REMARK SMILES IDX 95 25 14 26 15 27 16 28 23 29 24 30 25 31 26 33 27 34 28 35
REMARK SMILES IDX 92 36 29 37 91 38 30 39 31 40 32 41 85 42 33 43 90 44 84 45
REMARK SMILES IDX 86 46 34 47 89 48 83 49 82 50 35 52 69 53 48 54 68 55 49 56
REMARK SMILES IDX 52 57 67 58 87 59 50 60 51 61 66 63 88 64 53 65 36 66 37 67
REMARK SMILES IDX 46 68 38 69 39 70 45 71 47 72 40 73 41 74 42 75 43 76 44 77
REMARK SMILES IDX 70 78 71 79 80 80 72 81 73 82 79 83 81 84 74 85 75 86 76 87
REMARK SMILES IDX 77 88 78 89 54 90 55 91 64 92 56 93 57 94 63 95 65 96 58 97
REMARK SMILES IDX 59 98 60 99 61 100 62 101
REMARK H PARENT 20 6 9 14 24 32 86 51 52 62
REMARK Flexibility Score: inf
ROOT
ATOM      1  C   UNL A   1      38.897  22.641  26.340  1.00  0.00     0.042 C 
ENDROOT
BRANCH   1   2
ATOM      2  C   UNL A   1      37.663  23.446  25.920  1.00  0.00     0.118 C 
BRANCH   2   3
ATOM      3  N   UNL A   1      37.524  23.442  24.472  1.00  0.00    -0.352 N 
ATOM      4  C   UNL A   1      36.448  23.207  23.648  1.00  0.00     0.255 C 
ATOM      5  O   UNL A   1      36.694  22.931  22.476  1.00  0.00    -0.269 OA
ATOM      6  H   UNL A   1      38.358  23.647  23.991  1.00  0.00     0.163 HD
BRANCH   4   7
ATOM      7  C   UNL A   1      35.040  23.293  24.115  1.00  0.00     0.084 A 
ATOM      8  C   UNL A   1      33.068  24.675  24.396  1.00  0.00     0.068 A 
ATOM      9  C   UNL A   1      32.501  23.608  25.058  1.00  0.00     0.140 A 
ATOM     10  C   UNL A   1      34.401  24.551  24.044  1.00  0.00     0.046 A 
ATOM     11  N   UNL A   1      33.104  22.414  25.202  1.00  0.00    -0.236 NA
ATOM     12  C   UNL A   1      34.344  22.195  24.676  1.00  0.00     0.141 A 
BRANCH   8  13
ATOM     13  N   UNL A   1      32.229  25.766  24.042  1.00  0.00    -0.278 N 
ATOM     14  H   UNL A   1      31.538  25.605  23.359  1.00  0.00     0.180 HD
BRANCH  13  15
ATOM     15  S   UNL A   1      32.322  27.306  24.699  1.00  0.00     0.262 S 
ATOM     16  O   UNL A   1      33.424  27.982  24.044  1.00  0.00    -0.201 OA
ATOM     17  O   UNL A   1      32.292  27.100  26.130  1.00  0.00    -0.201 OA
BRANCH  15  18
ATOM     18  C   UNL A   1      30.842  28.237  24.286  1.00  0.00     0.090 A 
ATOM     19  C   UNL A   1      27.937  30.742  22.318  1.00  0.00     0.044 C 
ATOM     20  C   UNL A   1      28.895  29.857  23.061  1.00  0.00    -0.051 A 
ATOM     21  C   UNL A   1      28.858  28.471  22.905  1.00  0.00     0.005 A 
ATOM     22  C   UNL A   1      29.821  30.410  23.951  1.00  0.00     0.008 A 
ATOM     23  C   UNL A   1      29.813  27.662  23.531  1.00  0.00     0.023 A 
ATOM     24  C   UNL A   1      30.804  29.617  24.573  1.00  0.00    -0.030 A 
ATOM     25  C   UNL A   1      31.707  30.302  25.566  1.00  0.00     0.046 C 
ENDBRANCH  15  18
ENDBRANCH  13  15
ENDBRANCH   8  13
BRANCH  12  26
ATOM     26  N   UNL A   1      34.710  20.862  24.687  1.00  0.00    -0.362 N 
ATOM     27  C   UNL A   1      33.641  19.877  24.515  1.00  0.00     0.145 C 
ATOM     28  C   UNL A   1      35.984  20.335  25.142  1.00  0.00     0.145 C 
ENDBRANCH  12  26
ENDBRANCH   4   7
ENDBRANCH   2   3
ENDBRANCH   1   2
BRANCH   1  29
ATOM     29  C   UNL A   1      39.955  23.487  27.042  1.00  0.00     0.118 C 
BRANCH  29  30
ATOM     30  N   UNL A   1      40.943  24.005  26.109  1.00  0.00    -0.352 N 
ATOM     31  C   UNL A   1      41.546  25.237  26.088  1.00  0.00     0.251 C 
ATOM     32  H   UNL A   1      41.215  23.386  25.394  1.00  0.00     0.163 HD
ATOM     33  O   UNL A   1      42.207  25.565  25.106  1.00  0.00    -0.269 OA
BRANCH  31  34
ATOM     34  C   UNL A   1      41.396  26.169  27.229  1.00  0.00     0.039 A 
ATOM     35  C   UNL A   1      40.341  25.966  28.125  1.00  0.00     0.014 A 
ATOM     36  C   UNL A   1      42.250  27.264  27.393  1.00  0.00     0.014 A 
ATOM     37  C   UNL A   1      40.162  26.840  29.200  1.00  0.00     0.010 A 
ATOM     38  C   UNL A   1      42.102  28.105  28.495  1.00  0.00     0.010 A 
ATOM     39  C   UNL A   1      41.048  27.911  29.400  1.00  0.00    -0.014 A 
BRANCH  39  40
ATOM     40  C   UNL A   1      40.861  28.855  30.531  1.00  0.00     0.031 A 
ATOM     41  C   UNL A   1      41.737  28.751  31.750  1.00  0.00     0.074 A 
ATOM     42  C   UNL A   1      39.877  29.773  30.481  1.00  0.00     0.049 A 
ATOM     43  N   UNL A   1      41.696  29.444  32.859  1.00  0.00    -0.248 NA
ATOM     44  C   UNL A   1      42.778  27.712  31.731  1.00  0.00     0.031 C 
ATOM     45  C   UNL A   1      38.931  29.941  29.376  1.00  0.00     0.029 A 
ATOM     46  N   UNL A   1      39.504  30.734  31.386  1.00  0.00    -0.354 N 
ATOM     47  C   UNL A   1      42.685  28.911  33.677  1.00  0.00     0.074 A 
ATOM     48  C   UNL A   1      43.288  27.814  32.950  1.00  0.00     0.031 C 
ATOM     49  C   UNL A   1      38.097  30.954  29.662  1.00  0.00     0.029 A 
ATOM     50  C   UNL A   1      38.436  31.494  30.976  1.00  0.00     0.049 A 
ATOM     51  H   UNL A   1      39.958  30.866  32.250  1.00  0.00     0.167 HD
ATOM     52  C   UNL A   1      43.069  29.309  34.913  1.00  0.00     0.037 A 
ATOM     53  C   UNL A   1      37.804  32.513  31.588  1.00  0.00     0.037 A 
ATOM     54  C   UNL A   1      42.498  30.427  35.617  1.00  0.00     0.049 A 
ATOM     55  C   UNL A   1      38.287  32.978  32.933  1.00  0.00     0.074 A 
ATOM     56  C   UNL A   1      42.854  30.945  36.849  1.00  0.00     0.029 A 
ATOM     57  N   UNL A   1      41.454  31.208  35.142  1.00  0.00    -0.354 N 
ATOM     58  N   UNL A   1      39.256  32.492  33.672  1.00  0.00    -0.248 NA
ATOM     59  C   UNL A   1      37.601  34.136  33.523  1.00  0.00     0.031 C 
ATOM     60  C   UNL A   1      42.015  32.032  37.127  1.00  0.00     0.029 A 
ATOM     61  C   UNL A   1      41.154  32.204  36.056  1.00  0.00     0.049 A 
ATOM     62  H   UNL A   1      40.995  31.074  34.281  1.00  0.00     0.167 HD
ATOM     63  C   UNL A   1      39.309  33.295  34.805  1.00  0.00     0.074 A 
ATOM     64  C   UNL A   1      38.283  34.306  34.649  1.00  0.00     0.031 C 
ATOM     65  C   UNL A   1      40.134  33.206  35.877  1.00  0.00     0.037 A 
BRANCH  52  66
ATOM     66  C   UNL A   1      44.166  28.527  35.578  1.00  0.00     0.058 A 
ATOM     67  C   UNL A   1      43.883  27.452  36.436  1.00  0.00     0.135 A 
ATOM     68  C   UNL A   1      45.513  28.848  35.352  1.00  0.00     0.135 A 
ATOM     69  F   UNL A   1      42.610  27.114  36.698  1.00  0.00    -0.206 F 
ATOM     70  C   UNL A   1      44.897  26.746  37.076  1.00  0.00     0.059 A 
ATOM     71  C   UNL A   1      46.544  28.141  35.964  1.00  0.00     0.059 A 
ATOM     72  F   UNL A   1      45.838  29.868  34.541  1.00  0.00    -0.206 F 
ATOM     73  C   UNL A   1      46.225  27.104  36.839  1.00  0.00     0.060 A 
BRANCH  73  74
ATOM     74  S   UNL A   1      47.534  26.193  37.687  1.00  0.00     0.124 S 
ATOM     75  O   UNL A   1      48.472  25.952  36.594  1.00  0.00    -0.237 OA
ATOM     76  O   UNL A   1      47.977  27.143  38.702  1.00  0.00    -0.237 OA
ATOM     77  O   UNL A   1      46.846  25.011  38.198  1.00  0.00    -0.744 OA
ENDBRANCH  73  74
ENDBRANCH  52  66
BRANCH  53  78
ATOM     78  C   UNL A   1      36.671  33.192  30.910  1.00  0.00     0.058 A 
ATOM     79  C   UNL A   1      35.353  33.000  31.350  1.00  0.00     0.135 A 
ATOM     80  C   UNL A   1      36.884  34.063  29.831  1.00  0.00     0.135 A 
ATOM     81  F   UNL A   1      35.103  32.173  32.376  1.00  0.00    -0.206 F 
ATOM     82  C   UNL A   1      34.281  33.641  30.738  1.00  0.00     0.059 A 
ATOM     83  C   UNL A   1      35.829  34.729  29.214  1.00  0.00     0.059 A 
ATOM     84  F   UNL A   1      38.128  34.290  29.385  1.00  0.00    -0.206 F 
ATOM     85  C   UNL A   1      34.530  34.505  29.671  1.00  0.00     0.060 A 
BRANCH  85  86
ATOM     86  S   UNL A   1      33.140  35.381  28.919  1.00  0.00     0.124 S 
ATOM     87  O   UNL A   1      32.527  34.326  28.121  1.00  0.00    -0.237 OA
ATOM     88  O   UNL A   1      32.382  35.821  30.086  1.00  0.00    -0.237 OA
ATOM     89  O   UNL A   1      33.790  36.449  28.166  1.00  0.00    -0.744 OA
ENDBRANCH  85  86
ENDBRANCH  53  78
BRANCH  65  90
ATOM     90  C   UNL A   1      39.976  34.242  36.950  1.00  0.00     0.058 A 
ATOM     91  C   UNL A   1      40.750  35.412  36.958  1.00  0.00     0.135 A 
ATOM     92  C   UNL A   1      39.015  34.079  37.959  1.00  0.00     0.135 A 
ATOM     93  F   UNL A   1      41.686  35.609  36.017  1.00  0.00    -0.206 F 
ATOM     94  C   UNL A   1      40.589  36.380  37.944  1.00  0.00     0.059 A 
ATOM     95  C   UNL A   1      38.825  35.043  38.945  1.00  0.00     0.059 A 
ATOM     96  F   UNL A   1      38.245  32.981  37.990  1.00  0.00    -0.206 F 
ATOM     97  C   UNL A   1      39.626  36.185  38.935  1.00  0.00     0.060 A 
BRANCH  97  98
ATOM     98  S   UNL A   1      39.402  37.458  40.197  1.00  0.00     0.124 S 
ATOM     99  O   UNL A   1      38.871  36.677  41.308  1.00  0.00    -0.237 OA
ATOM    100  O   UNL A   1      40.757  37.972  40.373  1.00  0.00    -0.237 OA
ATOM    101  O   UNL A   1      38.464  38.388  39.574  1.00  0.00    -0.744 OA
ENDBRANCH  97  98
ENDBRANCH  65  90
ENDBRANCH  39  40
ENDBRANCH  31  34
ENDBRANCH  29  30
ENDBRANCH   1  29
TORSDOF 17
ENDMDL
