MODEL 1
REMARK VINA RESULT:     -10.9      0.000      0.000
REMARK SMILES CC(C)(C)N(CC(=O)NCCCNC(=O)c1ccc(-c2c3nc(c(-c4c(F)cc(S(=O)(=O)[O-])cc4F)c4ccc([nH]4)c(-c4c(F)cc(S(=O)(=O)[O-])cc4F)c4nc(c(-c5c(F)cc(S(=O)(=O)[O-])cc5F)c5ccc2[nH]5)C=C4)C=C3)cc1)C(=O)N1CC[C@H](O)C1
REMARK SMILES IDX 10 1 9 2 7 3 8 4 6 6 5 7 2 8 1 9 3 10 4 11 82 12 83 13 84 14
REMARK SMILES IDX 85 15 89 16 86 17 87 18 88 19 11 21 12 22 13 23 14 24 15 26
REMARK SMILES IDX 16 27 17 28 81 29 18 30 80 31 19 32 20 33 21 34 74 35 22 36
REMARK SMILES IDX 79 37 73 38 75 39 23 40 78 41 72 42 71 43 24 45 58 46 37 47
REMARK SMILES IDX 57 48 38 49 41 50 56 51 76 52 39 53 40 54 55 56 77 57 42 58
REMARK SMILES IDX 25 59 26 60 35 61 27 62 28 63 34 64 36 65 29 66 30 67 31 68
REMARK SMILES IDX 32 69 33 70 59 71 60 72 69 73 61 74 62 75 68 76 70 77 63 78
REMARK SMILES IDX 64 79 65 80 66 81 67 82 43 83 44 84 53 85 45 86 46 87 52 88
REMARK SMILES IDX 54 89 47 90 48 91 49 92 50 93 51 94
REMARK H PARENT 9 5 88 20 13 25 75 44 41 55
REMARK Flexibility Score: inf
ROOT
ATOM      1  C   UNL A   1      32.139  26.576  26.325  1.00  0.00     0.117 C 
ENDROOT
BRANCH   1   2
ATOM      2  N   UNL A   1      31.251  25.588  26.890  1.00  0.00    -0.354 N 
ATOM      3  C   UNL A   1      30.900  24.361  26.419  1.00  0.00     0.239 C 
ATOM      4  O   UNL A   1      30.439  23.567  27.250  1.00  0.00    -0.273 OA
ATOM      5  H   UNL A   1      30.835  25.841  27.746  1.00  0.00     0.163 HD
BRANCH   3   6
ATOM      6  C   UNL A   1      31.158  23.885  24.976  1.00  0.00     0.221 C 
BRANCH   6   7
ATOM      7  N   UNL A   1      32.464  23.315  24.585  1.00  0.00    -0.311 N 
BRANCH   7   8
ATOM      8  C   UNL A   1      33.225  23.916  23.407  1.00  0.00     0.037 C 
ATOM      9  C   UNL A   1      34.757  24.079  23.634  1.00  0.00     0.034 C 
ATOM     10  C   UNL A   1      32.687  25.315  23.032  1.00  0.00     0.034 C 
ATOM     11  C   UNL A   1      33.122  22.995  22.163  1.00  0.00     0.034 C 
ENDBRANCH   7   8
BRANCH   7  12
ATOM     12  C   UNL A   1      33.206  22.542  25.507  1.00  0.00     0.321 C 
ATOM     13  O   UNL A   1      33.659  23.001  26.555  1.00  0.00    -0.248 OA
BRANCH  12  14
ATOM     14  N   UNL A   1      33.233  21.180  25.313  1.00  0.00    -0.322 N 
ATOM     15  C   UNL A   1      34.457  20.539  24.848  1.00  0.00     0.124 C 
ATOM     16  C   UNL A   1      32.120  20.343  24.915  1.00  0.00     0.153 C 
ATOM     17  C   UNL A   1      34.094  19.064  24.648  1.00  0.00     0.055 C 
ATOM     18  C   UNL A   1      32.670  18.950  25.199  1.00  0.00     0.135 C 
BRANCH  18  19
ATOM     19  O   UNL A   1      31.947  17.895  24.595  1.00  0.00    -0.391 OA
ATOM     20  H   UNL A   1      31.380  17.470  25.257  1.00  0.00     0.211 HD
ENDBRANCH  18  19
ENDBRANCH  12  14
ENDBRANCH   7  12
ENDBRANCH   6   7
ENDBRANCH   3   6
ENDBRANCH   1   2
BRANCH   1  21
ATOM     21  C   UNL A   1      32.216  27.876  27.110  1.00  0.00     0.042 C 
BRANCH  21  22
ATOM     22  C   UNL A   1      33.617  28.461  27.212  1.00  0.00     0.118 C 
BRANCH  22  23
ATOM     23  N   UNL A   1      33.609  29.868  27.602  1.00  0.00    -0.352 N 
ATOM     24  C   UNL A   1      34.548  30.629  28.259  1.00  0.00     0.251 C 
ATOM     25  H   UNL A   1      32.790  30.356  27.352  1.00  0.00     0.163 HD
ATOM     26  O   UNL A   1      34.227  31.730  28.695  1.00  0.00    -0.269 OA
BRANCH  24  27
ATOM     27  C   UNL A   1      35.927  30.129  28.453  1.00  0.00     0.039 A 
ATOM     28  C   UNL A   1      36.820  30.137  27.374  1.00  0.00     0.014 A 
ATOM     29  C   UNL A   1      36.337  29.621  29.685  1.00  0.00     0.014 A 
ATOM     30  C   UNL A   1      38.142  29.719  27.560  1.00  0.00     0.010 A 
ATOM     31  C   UNL A   1      37.673  29.300  29.893  1.00  0.00     0.010 A 
ATOM     32  C   UNL A   1      38.592  29.341  28.834  1.00  0.00    -0.014 A 
BRANCH  32  33
ATOM     33  C   UNL A   1      40.007  28.973  29.105  1.00  0.00     0.031 A 
ATOM     34  C   UNL A   1      40.968  30.023  29.599  1.00  0.00     0.074 A 
ATOM     35  C   UNL A   1      40.451  27.738  28.800  1.00  0.00     0.049 A 
ATOM     36  N   UNL A   1      42.269  29.964  29.715  1.00  0.00    -0.248 NA
ATOM     37  C   UNL A   1      40.390  31.324  29.977  1.00  0.00     0.031 C 
ATOM     38  C   UNL A   1      39.627  26.644  28.282  1.00  0.00     0.029 A 
ATOM     39  N   UNL A   1      41.715  27.201  28.853  1.00  0.00    -0.354 N 
ATOM     40  C   UNL A   1      42.667  31.225  30.149  1.00  0.00     0.074 A 
ATOM     41  C   UNL A   1      41.475  32.041  30.228  1.00  0.00     0.031 C 
ATOM     42  C   UNL A   1      40.402  25.568  28.073  1.00  0.00     0.029 A 
ATOM     43  C   UNL A   1      41.785  25.908  28.388  1.00  0.00     0.049 A 
ATOM     44  H   UNL A   1      42.496  27.695  29.191  1.00  0.00     0.167 HD
ATOM     45  C   UNL A   1      43.910  31.655  30.470  1.00  0.00     0.037 A 
ATOM     46  C   UNL A   1      42.847  25.097  28.210  1.00  0.00     0.037 A 
ATOM     47  C   UNL A   1      45.085  30.825  30.419  1.00  0.00     0.049 A 
ATOM     48  C   UNL A   1      44.222  25.602  28.560  1.00  0.00     0.074 A 
ATOM     49  C   UNL A   1      46.380  31.145  30.783  1.00  0.00     0.029 A 
ATOM     50  N   UNL A   1      45.107  29.509  29.978  1.00  0.00    -0.354 N 
ATOM     51  N   UNL A   1      44.575  26.779  29.021  1.00  0.00    -0.248 NA
ATOM     52  C   UNL A   1      45.344  24.671  28.370  1.00  0.00     0.031 C 
ATOM     53  C   UNL A   1      47.195  30.043  30.513  1.00  0.00     0.029 A 
ATOM     54  C   UNL A   1      46.398  29.013  30.039  1.00  0.00     0.049 A 
ATOM     55  H   UNL A   1      44.321  29.004  29.667  1.00  0.00     0.167 HD
ATOM     56  C   UNL A   1      45.951  26.719  29.207  1.00  0.00     0.074 A 
ATOM     57  C   UNL A   1      46.368  25.389  28.814  1.00  0.00     0.031 C 
ATOM     58  C   UNL A   1      46.793  27.677  29.665  1.00  0.00     0.037 A 
BRANCH  45  59
ATOM     59  C   UNL A   1      44.067  33.088  30.905  1.00  0.00     0.058 A 
ATOM     60  C   UNL A   1      43.912  33.475  32.246  1.00  0.00     0.135 A 
ATOM     61  C   UNL A   1      44.421  34.080  29.976  1.00  0.00     0.135 A 
ATOM     62  F   UNL A   1      43.562  32.571  33.175  1.00  0.00    -0.206 F 
ATOM     63  C   UNL A   1      44.073  34.798  32.645  1.00  0.00     0.059 A 
ATOM     64  C   UNL A   1      44.617  35.404  30.358  1.00  0.00     0.059 A 
ATOM     65  F   UNL A   1      44.581  33.768  28.681  1.00  0.00    -0.206 F 
ATOM     66  C   UNL A   1      44.426  35.755  31.694  1.00  0.00     0.060 A 
BRANCH  66  67
ATOM     67  S   UNL A   1      44.638  37.464  32.233  1.00  0.00     0.124 S 
ATOM     68  O   UNL A   1      44.120  37.407  33.596  1.00  0.00    -0.237 OA
ATOM     69  O   UNL A   1      46.080  37.653  32.110  1.00  0.00    -0.237 OA
ATOM     70  O   UNL A   1      43.827  38.224  31.286  1.00  0.00    -0.744 OA
ENDBRANCH  66  67
ENDBRANCH  45  59
BRANCH  46  71
ATOM     71  C   UNL A   1      42.652  23.719  27.681  1.00  0.00     0.058 A 
ATOM     72  C   UNL A   1      42.613  23.476  26.300  1.00  0.00     0.135 A 
ATOM     73  C   UNL A   1      42.509  22.618  28.540  1.00  0.00     0.135 A 
ATOM     74  F   UNL A   1      42.737  24.497  25.436  1.00  0.00    -0.206 F 
ATOM     75  C   UNL A   1      42.422  22.197  25.788  1.00  0.00     0.059 A 
ATOM     76  C   UNL A   1      42.346  21.324  28.052  1.00  0.00     0.059 A 
ATOM     77  F   UNL A   1      42.555  22.791  29.870  1.00  0.00    -0.206 F 
ATOM     78  C   UNL A   1      42.293  21.125  26.673  1.00  0.00     0.060 A 
BRANCH  78  79
ATOM     79  S   UNL A   1      42.088  19.465  25.995  1.00  0.00     0.124 S 
ATOM     80  O   UNL A   1      42.906  19.536  24.789  1.00  0.00    -0.237 OA
ATOM     81  O   UNL A   1      42.609  18.628  27.072  1.00  0.00    -0.237 OA
ATOM     82  O   UNL A   1      40.648  19.366  25.776  1.00  0.00    -0.744 OA
ENDBRANCH  78  79
ENDBRANCH  46  71
BRANCH  58  83
ATOM     83  C   UNL A   1      48.246  27.320  29.823  1.00  0.00     0.058 A 
ATOM     84  C   UNL A   1      49.185  27.575  28.813  1.00  0.00     0.135 A 
ATOM     85  C   UNL A   1      48.714  26.803  31.042  1.00  0.00     0.135 A 
ATOM     86  F   UNL A   1      48.788  28.060  27.627  1.00  0.00    -0.206 F 
ATOM     87  C   UNL A   1      50.540  27.323  29.005  1.00  0.00     0.059 A 
ATOM     88  C   UNL A   1      50.067  26.572  31.265  1.00  0.00     0.059 A 
ATOM     89  F   UNL A   1      47.858  26.550  32.044  1.00  0.00    -0.206 F 
ATOM     90  C   UNL A   1      50.973  26.832  30.238  1.00  0.00     0.060 A 
BRANCH  90  91
ATOM     91  S   UNL A   1      52.742  26.580  30.495  1.00  0.00     0.124 S 
ATOM     92  O   UNL A   1      52.746  25.572  31.550  1.00  0.00    -0.237 OA
ATOM     93  O   UNL A   1      53.186  26.126  29.181  1.00  0.00    -0.237 OA
ATOM     94  O   UNL A   1      53.221  27.902  30.891  1.00  0.00    -0.744 OA
ENDBRANCH  90  91
ENDBRANCH  58  83
ENDBRANCH  32  33
ENDBRANCH  24  27
ENDBRANCH  22  23
ENDBRANCH  21  22
ENDBRANCH   1  21
TORSDOF 18
ENDMDL
MODEL 2
REMARK VINA RESULT:     -10.8      1.318      2.069
REMARK SMILES CC(C)(C)N(CC(=O)NCCCNC(=O)c1ccc(-c2c3nc(c(-c4c(F)cc(S(=O)(=O)[O-])cc4F)c4ccc([nH]4)c(-c4c(F)cc(S(=O)(=O)[O-])cc4F)c4nc(c(-c5c(F)cc(S(=O)(=O)[O-])cc5F)c5ccc2[nH]5)C=C4)C=C3)cc1)C(=O)N1CC[C@H](O)C1
REMARK SMILES IDX 10 1 9 2 7 3 8 4 6 6 5 7 2 8 1 9 3 10 4 11 82 12 83 13 84 14
REMARK SMILES IDX 85 15 89 16 86 17 87 18 88 19 11 21 12 22 13 23 14 24 15 26
REMARK SMILES IDX 16 27 17 28 81 29 18 30 80 31 19 32 20 33 21 34 74 35 22 36
REMARK SMILES IDX 79 37 73 38 75 39 23 40 78 41 72 42 71 43 24 45 58 46 37 47
REMARK SMILES IDX 57 48 38 49 41 50 56 51 76 52 39 53 40 54 55 56 77 57 42 58
REMARK SMILES IDX 25 59 26 60 35 61 27 62 28 63 34 64 36 65 29 66 30 67 31 68
REMARK SMILES IDX 32 69 33 70 59 71 60 72 69 73 61 74 62 75 68 76 70 77 63 78
REMARK SMILES IDX 64 79 65 80 66 81 67 82 43 83 44 84 53 85 45 86 46 87 52 88
REMARK SMILES IDX 54 89 47 90 48 91 49 92 50 93 51 94
REMARK H PARENT 9 5 88 20 13 25 75 44 41 55
REMARK Flexibility Score: inf
ROOT
ATOM      1  C   UNL A   1      31.693  26.962  26.276  1.00  0.00     0.117 C 
ENDROOT
BRANCH   1   2
ATOM      2  N   UNL A   1      32.604  26.999  25.156  1.00  0.00    -0.354 N 
ATOM      3  C   UNL A   1      33.296  25.988  24.563  1.00  0.00     0.239 C 
ATOM      4  O   UNL A   1      33.699  26.204  23.412  1.00  0.00    -0.273 OA
ATOM      5  H   UNL A   1      32.746  27.890  24.762  1.00  0.00     0.163 HD
BRANCH   3   6
ATOM      6  C   UNL A   1      33.487  24.592  25.186  1.00  0.00     0.221 C 
BRANCH   6   7
ATOM      7  N   UNL A   1      33.375  23.370  24.363  1.00  0.00    -0.311 N 
BRANCH   7   8
ATOM      8  C   UNL A   1      31.998  22.771  24.090  1.00  0.00     0.037 C 
ATOM      9  C   UNL A   1      31.028  23.698  23.300  1.00  0.00     0.034 C 
ATOM     10  C   UNL A   1      31.271  22.390  25.399  1.00  0.00     0.034 C 
ATOM     11  C   UNL A   1      32.120  21.505  23.202  1.00  0.00     0.034 C 
ENDBRANCH   7   8
BRANCH   7  12
ATOM     12  C   UNL A   1      34.424  23.003  23.489  1.00  0.00     0.321 C 
ATOM     13  O   UNL A   1      34.490  23.387  22.322  1.00  0.00    -0.248 OA
BRANCH  12  14
ATOM     14  N   UNL A   1      35.513  22.368  24.041  1.00  0.00    -0.322 N 
ATOM     15  C   UNL A   1      35.318  21.172  24.851  1.00  0.00     0.124 C 
ATOM     16  C   UNL A   1      36.752  22.988  24.463  1.00  0.00     0.153 C 
ATOM     17  C   UNL A   1      36.710  20.804  25.377  1.00  0.00     0.055 C 
ATOM     18  C   UNL A   1      37.652  21.771  24.653  1.00  0.00     0.135 C 
BRANCH  18  19
ATOM     19  O   UNL A   1      38.832  22.020  25.391  1.00  0.00    -0.391 OA
ATOM     20  H   UNL A   1      38.729  21.676  26.292  1.00  0.00     0.211 HD
ENDBRANCH  18  19
ENDBRANCH  12  14
ENDBRANCH   7  12
ENDBRANCH   6   7
ENDBRANCH   3   6
ENDBRANCH   1   2
BRANCH   1  21
ATOM     21  C   UNL A   1      32.065  27.892  27.421  1.00  0.00     0.042 C 
BRANCH  21  22
ATOM     22  C   UNL A   1      33.453  28.504  27.301  1.00  0.00     0.118 C 
BRANCH  22  23
ATOM     23  N   UNL A   1      33.465  29.930  27.615  1.00  0.00    -0.352 N 
ATOM     24  C   UNL A   1      34.417  30.712  28.225  1.00  0.00     0.251 C 
ATOM     25  H   UNL A   1      32.651  30.414  27.344  1.00  0.00     0.163 HD
ATOM     26  O   UNL A   1      34.112  31.840  28.603  1.00  0.00    -0.269 OA
BRANCH  24  27
ATOM     27  C   UNL A   1      35.791  30.207  28.438  1.00  0.00     0.039 A 
ATOM     28  C   UNL A   1      36.688  30.179  27.363  1.00  0.00     0.014 A 
ATOM     29  C   UNL A   1      36.192  29.727  29.684  1.00  0.00     0.014 A 
ATOM     30  C   UNL A   1      38.006  29.754  27.565  1.00  0.00     0.010 A 
ATOM     31  C   UNL A   1      37.525  29.400  29.907  1.00  0.00     0.010 A 
ATOM     32  C   UNL A   1      38.448  29.406  28.851  1.00  0.00    -0.014 A 
BRANCH  32  33
ATOM     33  C   UNL A   1      39.858  29.034  29.137  1.00  0.00     0.031 A 
ATOM     34  C   UNL A   1      40.815  30.078  29.651  1.00  0.00     0.074 A 
ATOM     35  C   UNL A   1      40.305  27.800  28.829  1.00  0.00     0.049 A 
ATOM     36  N   UNL A   1      42.114  30.016  29.783  1.00  0.00    -0.248 NA
ATOM     37  C   UNL A   1      40.234  31.377  30.030  1.00  0.00     0.031 C 
ATOM     38  C   UNL A   1      39.485  26.711  28.291  1.00  0.00     0.029 A 
ATOM     39  N   UNL A   1      41.566  27.260  28.894  1.00  0.00    -0.354 N 
ATOM     40  C   UNL A   1      42.509  31.273  30.231  1.00  0.00     0.074 A 
ATOM     41  C   UNL A   1      41.318  32.090  30.301  1.00  0.00     0.031 C 
ATOM     42  C   UNL A   1      40.260  25.635  28.085  1.00  0.00     0.029 A 
ATOM     43  C   UNL A   1      41.640  25.971  28.421  1.00  0.00     0.049 A 
ATOM     44  H   UNL A   1      42.344  27.751  29.246  1.00  0.00     0.167 HD
ATOM     45  C   UNL A   1      43.748  31.698  30.571  1.00  0.00     0.037 A 
ATOM     46  C   UNL A   1      42.703  25.159  28.250  1.00  0.00     0.037 A 
ATOM     47  C   UNL A   1      44.922  30.866  30.529  1.00  0.00     0.049 A 
ATOM     48  C   UNL A   1      44.074  25.658  28.621  1.00  0.00     0.074 A 
ATOM     49  C   UNL A   1      46.213  31.182  30.912  1.00  0.00     0.029 A 
ATOM     50  N   UNL A   1      44.948  29.554  30.079  1.00  0.00    -0.354 N 
ATOM     51  N   UNL A   1      44.423  26.832  29.095  1.00  0.00    -0.248 NA
ATOM     52  C   UNL A   1      45.196  24.727  28.439  1.00  0.00     0.031 C 
ATOM     53  C   UNL A   1      47.030  30.080  30.644  1.00  0.00     0.029 A 
ATOM     54  C   UNL A   1      46.237  29.055  30.153  1.00  0.00     0.049 A 
ATOM     55  H   UNL A   1      44.165  29.052  29.754  1.00  0.00     0.167 HD
ATOM     56  C   UNL A   1      45.797  26.767  29.298  1.00  0.00     0.074 A 
ATOM     57  C   UNL A   1      46.216  25.439  28.901  1.00  0.00     0.031 C 
ATOM     58  C   UNL A   1      46.635  27.721  29.774  1.00  0.00     0.037 A 
BRANCH  45  59
ATOM     59  C   UNL A   1      43.903  33.127  31.019  1.00  0.00     0.058 A 
ATOM     60  C   UNL A   1      43.842  33.488  32.374  1.00  0.00     0.135 A 
ATOM     61  C   UNL A   1      44.159  34.143  30.083  1.00  0.00     0.135 A 
ATOM     62  F   UNL A   1      43.587  32.561  33.311  1.00  0.00    -0.206 F 
ATOM     63  C   UNL A   1      44.000  34.809  32.784  1.00  0.00     0.059 A 
ATOM     64  C   UNL A   1      44.350  35.466  30.473  1.00  0.00     0.059 A 
ATOM     65  F   UNL A   1      44.226  33.857  28.774  1.00  0.00    -0.206 F 
ATOM     66  C   UNL A   1      44.254  35.790  31.826  1.00  0.00     0.060 A 
BRANCH  66  67
ATOM     67  S   UNL A   1      44.464  37.496  32.377  1.00  0.00     0.124 S 
ATOM     68  O   UNL A   1      44.234  38.232  31.139  1.00  0.00    -0.237 OA
ATOM     69  O   UNL A   1      43.425  37.624  33.394  1.00  0.00    -0.237 OA
ATOM     70  O   UNL A   1      45.835  37.527  32.878  1.00  0.00    -0.744 OA
ENDBRANCH  66  67
ENDBRANCH  45  59
BRANCH  46  71
ATOM     71  C   UNL A   1      42.512  23.785  27.708  1.00  0.00     0.058 A 
ATOM     72  C   UNL A   1      42.394  22.682  28.566  1.00  0.00     0.135 A 
ATOM     73  C   UNL A   1      42.436  23.547  26.327  1.00  0.00     0.135 A 
ATOM     74  F   UNL A   1      42.469  22.855  29.895  1.00  0.00    -0.206 F 
ATOM     75  C   UNL A   1      42.225  21.391  28.077  1.00  0.00     0.059 A 
ATOM     76  C   UNL A   1      42.238  22.268  25.813  1.00  0.00     0.059 A 
ATOM     77  F   UNL A   1      42.527  24.569  25.461  1.00  0.00    -0.206 F 
ATOM     78  C   UNL A   1      42.145  21.194  26.697  1.00  0.00     0.060 A 
BRANCH  78  79
ATOM     79  S   UNL A   1      41.883  19.519  26.077  1.00  0.00     0.124 S 
ATOM     80  O   UNL A   1      42.764  19.494  24.915  1.00  0.00    -0.237 OA
ATOM     81  O   UNL A   1      42.301  18.704  27.213  1.00  0.00    -0.237 OA
ATOM     82  O   UNL A   1      40.452  19.488  25.786  1.00  0.00    -0.744 OA
ENDBRANCH  78  79
ENDBRANCH  46  71
BRANCH  58  83
ATOM     83  C   UNL A   1      48.084  27.360  29.948  1.00  0.00     0.058 A 
ATOM     84  C   UNL A   1      49.051  27.697  28.990  1.00  0.00     0.135 A 
ATOM     85  C   UNL A   1      48.520  26.752  31.137  1.00  0.00     0.135 A 
ATOM     86  F   UNL A   1      48.687  28.271  27.833  1.00  0.00    -0.206 F 
ATOM     87  C   UNL A   1      50.402  27.439  29.203  1.00  0.00     0.059 A 
ATOM     88  C   UNL A   1      49.867  26.511  31.382  1.00  0.00     0.059 A 
ATOM     89  F   UNL A   1      47.635  26.417  32.089  1.00  0.00    -0.206 F 
ATOM     90  C   UNL A   1      50.802  26.854  30.406  1.00  0.00     0.060 A 
BRANCH  90  91
ATOM     91  S   UNL A   1      52.564  26.592  30.697  1.00  0.00     0.124 S 
ATOM     92  O   UNL A   1      53.056  26.361  29.343  1.00  0.00    -0.237 OA
ATOM     93  O   UNL A   1      52.968  27.853  31.313  1.00  0.00    -0.237 OA
ATOM     94  O   UNL A   1      52.595  25.431  31.582  1.00  0.00    -0.744 OA
ENDBRANCH  90  91
ENDBRANCH  58  83
ENDBRANCH  32  33
ENDBRANCH  24  27
ENDBRANCH  22  23
ENDBRANCH  21  22
ENDBRANCH   1  21
TORSDOF 18
ENDMDL
MODEL 3
REMARK VINA RESULT:     -10.7      1.052      2.255
REMARK SMILES CC(C)(C)N(CC(=O)NCCCNC(=O)c1ccc(-c2c3nc(c(-c4c(F)cc(S(=O)(=O)[O-])cc4F)c4ccc([nH]4)c(-c4c(F)cc(S(=O)(=O)[O-])cc4F)c4nc(c(-c5c(F)cc(S(=O)(=O)[O-])cc5F)c5ccc2[nH]5)C=C4)C=C3)cc1)C(=O)N1CC[C@H](O)C1
REMARK SMILES IDX 10 1 9 2 7 3 8 4 6 6 5 7 2 8 1 9 3 10 4 11 82 12 83 13 84 14
REMARK SMILES IDX 85 15 89 16 86 17 87 18 88 19 11 21 12 22 13 23 14 24 15 26
REMARK SMILES IDX 16 27 17 28 81 29 18 30 80 31 19 32 20 33 21 34 74 35 22 36
REMARK SMILES IDX 79 37 73 38 75 39 23 40 78 41 72 42 71 43 24 45 58 46 37 47
REMARK SMILES IDX 57 48 38 49 41 50 56 51 76 52 39 53 40 54 55 56 77 57 42 58
REMARK SMILES IDX 25 59 26 60 35 61 27 62 28 63 34 64 36 65 29 66 30 67 31 68
REMARK SMILES IDX 32 69 33 70 59 71 60 72 69 73 61 74 62 75 68 76 70 77 63 78
REMARK SMILES IDX 64 79 65 80 66 81 67 82 43 83 44 84 53 85 45 86 46 87 52 88
REMARK SMILES IDX 54 89 47 90 48 91 49 92 50 93 51 94
REMARK H PARENT 9 5 88 20 13 25 75 44 41 55
REMARK Flexibility Score: inf
ROOT
ATOM      1  C   UNL A   1      32.569  26.531  26.145  1.00  0.00     0.117 C 
ENDROOT
BRANCH   1   2
ATOM      2  N   UNL A   1      31.410  25.708  26.398  1.00  0.00    -0.354 N 
ATOM      3  C   UNL A   1      31.333  24.391  26.731  1.00  0.00     0.239 C 
ATOM      4  O   UNL A   1      30.275  24.022  27.259  1.00  0.00    -0.273 OA
ATOM      5  H   UNL A   1      30.544  26.170  26.317  1.00  0.00     0.163 HD
BRANCH   3   6
ATOM      6  C   UNL A   1      32.505  23.399  26.602  1.00  0.00     0.221 C 
BRANCH   6   7
ATOM      7  N   UNL A   1      33.229  23.240  25.324  1.00  0.00    -0.311 N 
BRANCH   7   8
ATOM      8  C   UNL A   1      34.692  22.808  25.337  1.00  0.00     0.037 C 
ATOM      9  C   UNL A   1      35.229  22.278  23.974  1.00  0.00     0.034 C 
ATOM     10  C   UNL A   1      34.949  21.690  26.372  1.00  0.00     0.034 C 
ATOM     11  C   UNL A   1      35.615  24.011  25.665  1.00  0.00     0.034 C 
ENDBRANCH   7   8
BRANCH   7  12
ATOM     12  C   UNL A   1      32.512  23.059  24.119  1.00  0.00     0.321 C 
ATOM     13  O   UNL A   1      31.824  22.064  23.892  1.00  0.00    -0.248 OA
BRANCH  12  14
ATOM     14  N   UNL A   1      32.421  24.137  23.269  1.00  0.00    -0.322 N 
ATOM     15  C   UNL A   1      31.140  24.810  23.089  1.00  0.00     0.124 C 
ATOM     16  C   UNL A   1      33.208  24.364  22.074  1.00  0.00     0.153 C 
ATOM     17  C   UNL A   1      31.386  25.875  22.014  1.00  0.00     0.055 C 
ATOM     18  C   UNL A   1      32.898  25.827  21.779  1.00  0.00     0.135 C 
BRANCH  18  19
ATOM     19  O   UNL A   1      33.250  26.254  20.477  1.00  0.00    -0.391 OA
ATOM     20  H   UNL A   1      34.067  25.809  20.201  1.00  0.00     0.211 HD
ENDBRANCH  18  19
ENDBRANCH  12  14
ENDBRANCH   7  12
ENDBRANCH   6   7
ENDBRANCH   3   6
ENDBRANCH   1   2
BRANCH   1  21
ATOM     21  C   UNL A   1      32.569  27.862  26.880  1.00  0.00     0.042 C 
BRANCH  21  22
ATOM     22  C   UNL A   1      33.916  28.569  26.888  1.00  0.00     0.118 C 
BRANCH  22  23
ATOM     23  N   UNL A   1      33.850  29.892  27.503  1.00  0.00    -0.352 N 
ATOM     24  C   UNL A   1      34.735  30.553  28.321  1.00  0.00     0.251 C 
ATOM     25  H   UNL A   1      33.030  30.397  27.296  1.00  0.00     0.163 HD
ATOM     26  O   UNL A   1      34.363  31.560  28.916  1.00  0.00    -0.269 OA
BRANCH  24  27
ATOM     27  C   UNL A   1      36.119  30.058  28.499  1.00  0.00     0.039 A 
ATOM     28  C   UNL A   1      37.011  30.106  27.421  1.00  0.00     0.014 A 
ATOM     29  C   UNL A   1      36.532  29.513  29.714  1.00  0.00     0.014 A 
ATOM     30  C   UNL A   1      38.336  29.692  27.592  1.00  0.00     0.010 A 
ATOM     31  C   UNL A   1      37.871  29.195  29.911  1.00  0.00     0.010 A 
ATOM     32  C   UNL A   1      38.789  29.277  28.854  1.00  0.00    -0.014 A 
BRANCH  32  33
ATOM     33  C   UNL A   1      40.207  28.910  29.112  1.00  0.00     0.031 A 
ATOM     34  C   UNL A   1      41.168  29.958  29.611  1.00  0.00     0.074 A 
ATOM     35  C   UNL A   1      40.653  27.679  28.793  1.00  0.00     0.049 A 
ATOM     36  N   UNL A   1      42.470  29.902  29.718  1.00  0.00    -0.248 NA
ATOM     37  C   UNL A   1      40.588  31.253  30.004  1.00  0.00     0.031 C 
ATOM     38  C   UNL A   1      39.828  26.588  28.269  1.00  0.00     0.029 A 
ATOM     39  N   UNL A   1      41.918  27.146  28.833  1.00  0.00    -0.354 N 
ATOM     40  C   UNL A   1      42.867  31.159  30.161  1.00  0.00     0.074 A 
ATOM     41  C   UNL A   1      41.673  31.971  30.256  1.00  0.00     0.031 C 
ATOM     42  C   UNL A   1      40.605  25.516  28.045  1.00  0.00     0.029 A 
ATOM     43  C   UNL A   1      41.990  25.857  28.355  1.00  0.00     0.049 A 
ATOM     44  H   UNL A   1      42.700  27.639  29.171  1.00  0.00     0.167 HD
ATOM     45  C   UNL A   1      44.110  31.590  30.479  1.00  0.00     0.037 A 
ATOM     46  C   UNL A   1      43.053  25.051  28.163  1.00  0.00     0.037 A 
ATOM     47  C   UNL A   1      45.287  30.764  30.412  1.00  0.00     0.049 A 
ATOM     48  C   UNL A   1      44.428  25.556  28.509  1.00  0.00     0.074 A 
ATOM     49  C   UNL A   1      46.584  31.085  30.771  1.00  0.00     0.029 A 
ATOM     50  N   UNL A   1      45.311  29.453  29.959  1.00  0.00    -0.354 N 
ATOM     51  N   UNL A   1      44.780  26.730  28.979  1.00  0.00    -0.248 NA
ATOM     52  C   UNL A   1      45.551  24.631  28.303  1.00  0.00     0.031 C 
ATOM     53  C   UNL A   1      47.400  29.987  30.486  1.00  0.00     0.029 A 
ATOM     54  C   UNL A   1      46.603  28.960  30.007  1.00  0.00     0.049 A 
ATOM     55  H   UNL A   1      44.524  28.948  29.648  1.00  0.00     0.167 HD
ATOM     56  C   UNL A   1      46.158  26.672  29.156  1.00  0.00     0.074 A 
ATOM     57  C   UNL A   1      46.576  25.347  28.747  1.00  0.00     0.031 C 
ATOM     58  C   UNL A   1      47.000  27.629  29.618  1.00  0.00     0.037 A 
BRANCH  45  59
ATOM     59  C   UNL A   1      44.266  33.019  30.926  1.00  0.00     0.058 A 
ATOM     60  C   UNL A   1      44.213  33.379  32.283  1.00  0.00     0.135 A 
ATOM     61  C   UNL A   1      44.517  34.036  29.990  1.00  0.00     0.135 A 
ATOM     62  F   UNL A   1      43.963  32.451  33.220  1.00  0.00    -0.206 F 
ATOM     63  C   UNL A   1      44.372  34.699  32.692  1.00  0.00     0.059 A 
ATOM     64  C   UNL A   1      44.710  35.358  30.380  1.00  0.00     0.059 A 
ATOM     65  F   UNL A   1      44.577  33.750  28.680  1.00  0.00    -0.206 F 
ATOM     66  C   UNL A   1      44.621  35.682  31.734  1.00  0.00     0.060 A 
BRANCH  66  67
ATOM     67  S   UNL A   1      44.833  37.387  32.285  1.00  0.00     0.124 S 
ATOM     68  O   UNL A   1      43.610  37.598  33.053  1.00  0.00    -0.237 OA
ATOM     69  O   UNL A   1      46.065  37.312  33.063  1.00  0.00    -0.237 OA
ATOM     70  O   UNL A   1      44.927  38.140  31.039  1.00  0.00    -0.744 OA
ENDBRANCH  66  67
ENDBRANCH  45  59
BRANCH  46  71
ATOM     71  C   UNL A   1      42.858  23.678  27.621  1.00  0.00     0.058 A 
ATOM     72  C   UNL A   1      42.571  22.601  28.473  1.00  0.00     0.135 A 
ATOM     73  C   UNL A   1      42.946  23.414  26.245  1.00  0.00     0.135 A 
ATOM     74  F   UNL A   1      42.485  22.799  29.798  1.00  0.00    -0.206 F 
ATOM     75  C   UNL A   1      42.397  21.310  27.986  1.00  0.00     0.059 A 
ATOM     76  C   UNL A   1      42.746  22.136  25.730  1.00  0.00     0.059 A 
ATOM     77  F   UNL A   1      43.202  24.411  25.384  1.00  0.00    -0.206 F 
ATOM     78  C   UNL A   1      42.482  21.088  26.610  1.00  0.00     0.060 A 
BRANCH  78  79
ATOM     79  S   UNL A   1      42.211  19.415  25.987  1.00  0.00     0.124 S 
ATOM     80  O   UNL A   1      43.032  19.414  24.781  1.00  0.00    -0.237 OA
ATOM     81  O   UNL A   1      42.697  18.595  27.092  1.00  0.00    -0.237 OA
ATOM     82  O   UNL A   1      40.768  19.368  25.769  1.00  0.00    -0.744 OA
ENDBRANCH  78  79
ENDBRANCH  46  71
BRANCH  58  83
ATOM     83  C   UNL A   1      48.455  27.275  29.763  1.00  0.00     0.058 A 
ATOM     84  C   UNL A   1      49.394  27.579  28.767  1.00  0.00     0.135 A 
ATOM     85  C   UNL A   1      48.924  26.708  30.960  1.00  0.00     0.135 A 
ATOM     86  F   UNL A   1      48.997  28.113  27.603  1.00  0.00    -0.206 F 
ATOM     87  C   UNL A   1      50.751  27.328  28.951  1.00  0.00     0.059 A 
ATOM     88  C   UNL A   1      50.278  26.475  31.175  1.00  0.00     0.059 A 
ATOM     89  F   UNL A   1      48.067  26.405  31.947  1.00  0.00    -0.206 F 
ATOM     90  C   UNL A   1      51.184  26.786  30.162  1.00  0.00     0.060 A 
BRANCH  90  91
ATOM     91  S   UNL A   1      52.954  26.535  30.413  1.00  0.00     0.124 S 
ATOM     92  O   UNL A   1      53.380  27.857  30.860  1.00  0.00    -0.237 OA
ATOM     93  O   UNL A   1      52.979  25.484  31.425  1.00  0.00    -0.237 OA
ATOM     94  O   UNL A   1      53.433  26.136  29.092  1.00  0.00    -0.744 OA
ENDBRANCH  90  91
ENDBRANCH  58  83
ENDBRANCH  32  33
ENDBRANCH  24  27
ENDBRANCH  22  23
ENDBRANCH  21  22
ENDBRANCH   1  21
TORSDOF 18
ENDMDL
