MODEL 1
REMARK VINA RESULT:     -13.0      0.000      0.000
REMARK SMILES C=C(C)COc1ccc2nc(C)n(-c3cccc(C(=O)NCCCNC(=O)c4ccc(-c5c6nc(c(-c7c(F)cc(S(=O)(=O)[O-])cc7F)c7ccc([nH]7)c(-c7c(F)cc(S(=O)(=O)[O-])cc7F)c7nc(c(-c8c(F)cc(S(=O)(=O)[O-])cc8F)c8ccc5[nH]8)C=C7)C=C6)cc4)c3)c(=O)c2c1
REMARK SMILES IDX 22 1 21 2 19 3 20 4 18 6 14 7 15 8 94 9 16 10 17 11 13 12
REMARK SMILES IDX 6 13 7 14 98 15 8 16 97 17 9 18 95 19 10 20 96 21 11 22
REMARK SMILES IDX 12 23 5 24 4 25 2 26 1 27 3 28 23 29 24 30 25 31 26 32 27 34
REMARK SMILES IDX 28 35 29 36 93 37 30 38 92 39 31 40 32 41 33 42 86 43 34 44
REMARK SMILES IDX 91 45 85 46 87 47 35 48 90 49 84 50 83 51 36 53 70 54 49 55
REMARK SMILES IDX 69 56 50 57 53 58 68 59 88 60 51 61 52 62 67 64 89 65 54 66
REMARK SMILES IDX 37 67 38 68 47 69 39 70 40 71 46 72 48 73 41 74 42 75 43 76
REMARK SMILES IDX 44 77 45 78 71 79 72 80 81 81 73 82 74 83 80 84 82 85 75 86
REMARK SMILES IDX 76 87 77 88 78 89 79 90 55 91 56 92 65 93 57 94 58 95 64 96
REMARK SMILES IDX 66 97 59 98 60 99 61 100 62 101 63 102
REMARK H PARENT 21 5 25 33 87 52 53 63
REMARK Flexibility Score: inf
ROOT
ATOM      1  C   UNL A   1      37.596  23.215  25.731  1.00  0.00     0.118 C 
ENDROOT
BRANCH   1   2
ATOM      2  N   UNL A   1      37.482  23.091  24.278  1.00  0.00    -0.352 N 
ATOM      3  C   UNL A   1      36.412  23.027  23.414  1.00  0.00     0.251 C 
ATOM      4  O   UNL A   1      36.644  22.915  22.211  1.00  0.00    -0.269 OA
ATOM      5  H   UNL A   1      38.354  23.043  23.822  1.00  0.00     0.163 HD
BRANCH   3   6
ATOM      6  C   UNL A   1      34.999  23.020  23.875  1.00  0.00     0.041 A 
ATOM      7  C   UNL A   1      32.936  24.204  24.348  1.00  0.00     0.051 A 
ATOM      8  C   UNL A   1      32.484  23.108  25.089  1.00  0.00     0.027 A 
ATOM      9  C   UNL A   1      34.121  24.069  23.616  1.00  0.00     0.040 A 
ATOM     10  C   UNL A   1      33.276  21.963  25.213  1.00  0.00     0.003 A 
ATOM     11  C   UNL A   1      34.552  21.942  24.650  1.00  0.00     0.014 A 
BRANCH   7  12
ATOM     12  N   UNL A   1      32.347  25.511  24.461  1.00  0.00    -0.264 N 
ATOM     13  C   UNL A   1      29.491  29.056  22.742  1.00  0.00     0.120 A 
ATOM     14  C   UNL A   1      30.067  29.914  23.678  1.00  0.00     0.049 A 
ATOM     15  C   UNL A   1      29.854  27.711  22.714  1.00  0.00     0.062 A 
ATOM     16  C   UNL A   1      31.047  29.442  24.549  1.00  0.00     0.033 A 
ATOM     17  C   UNL A   1      30.836  27.247  23.602  1.00  0.00     0.070 A 
ATOM     18  C   UNL A   1      31.437  28.106  24.512  1.00  0.00     0.078 A 
ATOM     19  C   UNL A   1      31.291  25.844  23.591  1.00  0.00     0.266 A 
ATOM     20  N   UNL A   1      32.459  27.698  25.362  1.00  0.00    -0.234 NA
ATOM     21  O   UNL A   1      30.724  25.060  22.829  1.00  0.00    -0.268 OA
ATOM     22  C   UNL A   1      32.900  26.484  25.286  1.00  0.00     0.113 A 
ATOM     23  C   UNL A   1      34.137  26.214  26.122  1.00  0.00     0.088 C 
BRANCH  13  24
ATOM     24  O   UNL A   1      28.507  29.477  21.885  1.00  0.00    -0.489 OA
BRANCH  24  25
ATOM     25  C   UNL A   1      27.774  30.607  22.394  1.00  0.00     0.260 C 
BRANCH  25  26
ATOM     26  C   UNL A   1      28.164  31.911  21.731  1.00  0.00    -0.043 C 
ATOM     27  C   UNL A   1      28.032  32.134  20.411  1.00  0.00     0.011 C 
ATOM     28  C   UNL A   1      28.653  32.987  22.662  1.00  0.00     0.042 C 
ENDBRANCH  25  26
ENDBRANCH  24  25
ENDBRANCH  13  24
ENDBRANCH   7  12
ENDBRANCH   3   6
ENDBRANCH   1   2
BRANCH   1  29
ATOM     29  C   UNL A   1      38.672  22.340  26.356  1.00  0.00     0.042 C 
BRANCH  29  30
ATOM     30  C   UNL A   1      39.796  23.098  27.039  1.00  0.00     0.118 C 
BRANCH  30  31
ATOM     31  N   UNL A   1      40.714  23.746  26.110  1.00  0.00    -0.352 N 
ATOM     32  C   UNL A   1      41.190  25.037  26.033  1.00  0.00     0.251 C 
ATOM     33  H   UNL A   1      41.058  23.149  25.406  1.00  0.00     0.163 HD
ATOM     34  O   UNL A   1      41.864  25.364  25.063  1.00  0.00    -0.269 OA
BRANCH  32  35
ATOM     35  C   UNL A   1      40.861  26.044  27.072  1.00  0.00     0.039 A 
ATOM     36  C   UNL A   1      41.429  27.314  27.067  1.00  0.00     0.014 A 
ATOM     37  C   UNL A   1      39.944  25.712  28.077  1.00  0.00     0.014 A 
ATOM     38  C   UNL A   1      41.278  28.149  28.169  1.00  0.00     0.010 A 
ATOM     39  C   UNL A   1      39.692  26.606  29.125  1.00  0.00     0.010 A 
ATOM     40  C   UNL A   1      40.410  27.807  29.218  1.00  0.00    -0.014 A 
BRANCH  40  41
ATOM     41  C   UNL A   1      40.292  28.714  30.394  1.00  0.00     0.031 A 
ATOM     42  C   UNL A   1      41.270  28.625  31.538  1.00  0.00     0.074 A 
ATOM     43  C   UNL A   1      39.350  29.679  30.394  1.00  0.00     0.049 A 
ATOM     44  N   UNL A   1      41.333  29.349  32.628  1.00  0.00    -0.248 NA
ATOM     45  C   UNL A   1      42.310  27.586  31.456  1.00  0.00     0.031 C 
ATOM     46  C   UNL A   1      38.350  29.882  29.342  1.00  0.00     0.029 A 
ATOM     47  N   UNL A   1      39.100  30.694  31.284  1.00  0.00    -0.354 N 
ATOM     48  C   UNL A   1      42.395  28.841  33.367  1.00  0.00     0.074 A 
ATOM     49  C   UNL A   1      42.935  27.728  32.617  1.00  0.00     0.031 C 
ATOM     50  C   UNL A   1      37.649  30.994  29.607  1.00  0.00     0.029 A 
ATOM     51  C   UNL A   1      38.094  31.543  30.883  1.00  0.00     0.049 A 
ATOM     52  H   UNL A   1      39.593  30.804  32.129  1.00  0.00     0.167 HD
ATOM     53  C   UNL A   1      42.888  29.271  34.554  1.00  0.00     0.037 A 
ATOM     54  C   UNL A   1      37.576  32.635  31.477  1.00  0.00     0.037 A 
ATOM     55  C   UNL A   1      42.374  30.402  35.283  1.00  0.00     0.049 A 
ATOM     56  C   UNL A   1      38.118  33.073  32.805  1.00  0.00     0.074 A 
ATOM     57  C   UNL A   1      42.815  30.922  36.487  1.00  0.00     0.029 A 
ATOM     58  N   UNL A   1      41.311  31.194  34.872  1.00  0.00    -0.354 N 
ATOM     59  N   UNL A   1      39.110  32.564  33.496  1.00  0.00    -0.248 NA
ATOM     60  C   UNL A   1      37.461  34.221  33.446  1.00  0.00     0.031 C 
ATOM     61  C   UNL A   1      41.998  32.006  36.822  1.00  0.00     0.029 A 
ATOM     62  C   UNL A   1      41.072  32.188  35.807  1.00  0.00     0.049 A 
ATOM     63  H   UNL A   1      40.802  31.067  34.039  1.00  0.00     0.167 HD
ATOM     64  C   UNL A   1      39.197  33.329  34.653  1.00  0.00     0.074 A 
ATOM     65  C   UNL A   1      38.173  34.350  34.557  1.00  0.00     0.031 C 
ATOM     66  C   UNL A   1      40.043  33.191  35.702  1.00  0.00     0.037 A 
BRANCH  53  67
ATOM     67  C   UNL A   1      44.042  28.511  35.150  1.00  0.00     0.058 A 
ATOM     68  C   UNL A   1      43.841  27.424  36.015  1.00  0.00     0.135 A 
ATOM     69  C   UNL A   1      45.365  28.849  34.820  1.00  0.00     0.135 A 
ATOM     70  F   UNL A   1      42.598  27.068  36.377  1.00  0.00    -0.206 F 
ATOM     71  C   UNL A   1      44.911  26.712  36.549  1.00  0.00     0.059 A 
ATOM     72  C   UNL A   1      46.449  28.137  35.323  1.00  0.00     0.059 A 
ATOM     73  F   UNL A   1      45.613  29.881  33.997  1.00  0.00    -0.206 F 
ATOM     74  C   UNL A   1      46.212  27.078  36.198  1.00  0.00     0.060 A 
BRANCH  74  75
ATOM     75  S   UNL A   1      47.589  26.148  36.906  1.00  0.00     0.124 S 
ATOM     76  O   UNL A   1      47.061  24.787  36.885  1.00  0.00    -0.237 OA
ATOM     77  O   UNL A   1      48.668  26.423  35.963  1.00  0.00    -0.237 OA
ATOM     78  O   UNL A   1      47.752  26.737  38.232  1.00  0.00    -0.744 OA
ENDBRANCH  74  75
ENDBRANCH  53  67
BRANCH  54  79
ATOM     79  C   UNL A   1      36.476  33.380  30.810  1.00  0.00     0.058 A 
ATOM     80  C   UNL A   1      35.157  33.287  31.275  1.00  0.00     0.135 A 
ATOM     81  C   UNL A   1      36.731  34.239  29.729  1.00  0.00     0.135 A 
ATOM     82  F   UNL A   1      34.862  32.474  32.300  1.00  0.00    -0.206 F 
ATOM     83  C   UNL A   1      34.128  34.023  30.695  1.00  0.00     0.059 A 
ATOM     84  C   UNL A   1      35.725  35.003  29.149  1.00  0.00     0.059 A 
ATOM     85  F   UNL A   1      37.981  34.371  29.256  1.00  0.00    -0.206 F 
ATOM     86  C   UNL A   1      34.425  34.885  29.637  1.00  0.00     0.060 A 
BRANCH  86  87
ATOM     87  S   UNL A   1      33.097  35.896  28.945  1.00  0.00     0.124 S 
ATOM     88  O   UNL A   1      32.511  36.473  30.149  1.00  0.00    -0.237 OA
ATOM     89  O   UNL A   1      33.833  36.820  28.087  1.00  0.00    -0.237 OA
ATOM     90  O   UNL A   1      32.268  34.924  28.240  1.00  0.00    -0.744 OA
ENDBRANCH  86  87
ENDBRANCH  54  79
BRANCH  66  91
ATOM     91  C   UNL A   1      39.901  34.167  36.834  1.00  0.00     0.058 A 
ATOM     92  C   UNL A   1      40.616  35.374  36.849  1.00  0.00     0.135 A 
ATOM     93  C   UNL A   1      39.000  33.921  37.883  1.00  0.00     0.135 A 
ATOM     94  F   UNL A   1      41.495  35.652  35.874  1.00  0.00    -0.206 F 
ATOM     95  C   UNL A   1      40.452  36.301  37.874  1.00  0.00     0.059 A 
ATOM     96  C   UNL A   1      38.805  34.843  38.906  1.00  0.00     0.059 A 
ATOM     97  F   UNL A   1      38.288  32.784  37.909  1.00  0.00    -0.206 F 
ATOM     98  C   UNL A   1      39.541  36.027  38.897  1.00  0.00     0.060 A 
BRANCH  98  99
ATOM     99  S   UNL A   1      39.309  37.258  40.197  1.00  0.00     0.124 S 
ATOM    100  O   UNL A   1      38.381  38.187  39.559  1.00  0.00    -0.237 OA
ATOM    101  O   UNL A   1      38.759  36.460  41.288  1.00  0.00    -0.237 OA
ATOM    102  O   UNL A   1      40.657  37.771  40.421  1.00  0.00    -0.744 OA
ENDBRANCH  98  99
ENDBRANCH  66  91
ENDBRANCH  40  41
ENDBRANCH  32  35
ENDBRANCH  30  31
ENDBRANCH  29  30
ENDBRANCH   1  29
TORSDOF 17
ENDMDL
MODEL 2
REMARK VINA RESULT:     -12.9      6.363     12.522
REMARK SMILES C=C(C)COc1ccc2nc(C)n(-c3cccc(C(=O)NCCCNC(=O)c4ccc(-c5c6nc(c(-c7c(F)cc(S(=O)(=O)[O-])cc7F)c7ccc([nH]7)c(-c7c(F)cc(S(=O)(=O)[O-])cc7F)c7nc(c(-c8c(F)cc(S(=O)(=O)[O-])cc8F)c8ccc5[nH]8)C=C7)C=C6)cc4)c3)c(=O)c2c1
REMARK SMILES IDX 22 1 21 2 19 3 20 4 18 6 14 7 15 8 94 9 16 10 17 11 13 12
REMARK SMILES IDX 6 13 7 14 98 15 8 16 97 17 9 18 95 19 10 20 96 21 11 22
REMARK SMILES IDX 12 23 5 24 4 25 2 26 1 27 3 28 23 29 24 30 25 31 26 32 27 34
REMARK SMILES IDX 28 35 29 36 93 37 30 38 92 39 31 40 32 41 33 42 86 43 34 44
REMARK SMILES IDX 91 45 85 46 87 47 35 48 90 49 84 50 83 51 36 53 70 54 49 55
REMARK SMILES IDX 69 56 50 57 53 58 68 59 88 60 51 61 52 62 67 64 89 65 54 66
REMARK SMILES IDX 37 67 38 68 47 69 39 70 40 71 46 72 48 73 41 74 42 75 43 76
REMARK SMILES IDX 44 77 45 78 71 79 72 80 81 81 73 82 74 83 80 84 82 85 75 86
REMARK SMILES IDX 76 87 77 88 78 89 79 90 55 91 56 92 65 93 57 94 58 95 64 96
REMARK SMILES IDX 66 97 59 98 60 99 61 100 62 101 63 102
REMARK H PARENT 21 5 25 33 87 52 53 63
REMARK Flexibility Score: inf
ROOT
ATOM      1  C   UNL A   1      34.792  33.875  32.928  1.00  0.00     0.118 C 
ENDROOT
BRANCH   1   2
ATOM      2  N   UNL A   1      33.954  35.028  33.252  1.00  0.00    -0.352 N 
ATOM      3  C   UNL A   1      33.261  35.940  32.487  1.00  0.00     0.251 C 
ATOM      4  O   UNL A   1      32.635  36.827  33.068  1.00  0.00    -0.269 OA
ATOM      5  H   UNL A   1      33.866  35.186  34.220  1.00  0.00     0.163 HD
BRANCH   3   6
ATOM      6  C   UNL A   1      33.292  35.941  31.001  1.00  0.00     0.041 A 
ATOM      7  C   UNL A   1      33.587  34.759  28.905  1.00  0.00     0.051 A 
ATOM      8  C   UNL A   1      33.736  35.982  28.244  1.00  0.00     0.027 A 
ATOM      9  C   UNL A   1      33.201  34.772  30.250  1.00  0.00     0.040 A 
ATOM     10  C   UNL A   1      33.649  37.184  28.952  1.00  0.00     0.003 A 
ATOM     11  C   UNL A   1      33.478  37.159  30.336  1.00  0.00     0.014 A 
BRANCH   7  12
ATOM     12  N   UNL A   1      33.999  33.510  28.324  1.00  0.00    -0.264 N 
ATOM     13  C   UNL A   1      32.964  29.146  26.435  1.00  0.00     0.120 A 
ATOM     14  C   UNL A   1      34.310  28.814  26.577  1.00  0.00     0.049 A 
ATOM     15  C   UNL A   1      32.522  30.424  26.775  1.00  0.00     0.062 A 
ATOM     16  C   UNL A   1      35.206  29.738  27.112  1.00  0.00     0.033 A 
ATOM     17  C   UNL A   1      33.435  31.347  27.304  1.00  0.00     0.070 A 
ATOM     18  C   UNL A   1      34.771  31.008  27.479  1.00  0.00     0.078 A 
ATOM     19  C   UNL A   1      33.019  32.700  27.720  1.00  0.00     0.266 A 
ATOM     20  N   UNL A   1      35.691  31.874  28.061  1.00  0.00    -0.234 NA
ATOM     21  O   UNL A   1      31.851  33.031  27.514  1.00  0.00    -0.268 OA
ATOM     22  C   UNL A   1      35.292  33.027  28.492  1.00  0.00     0.113 A 
ATOM     23  C   UNL A   1      36.339  33.798  29.275  1.00  0.00     0.088 C 
BRANCH  13  24
ATOM     24  O   UNL A   1      32.057  28.274  25.891  1.00  0.00    -0.489 OA
BRANCH  24  25
ATOM     25  C   UNL A   1      31.663  27.238  26.810  1.00  0.00     0.260 C 
BRANCH  25  26
ATOM     26  C   UNL A   1      31.061  26.033  26.119  1.00  0.00    -0.043 C 
ATOM     27  C   UNL A   1      30.093  26.126  25.190  1.00  0.00     0.011 C 
ATOM     28  C   UNL A   1      31.668  24.707  26.489  1.00  0.00     0.042 C 
ENDBRANCH  25  26
ENDBRANCH  24  25
ENDBRANCH  13  24
ENDBRANCH   7  12
ENDBRANCH   3   6
ENDBRANCH   1   2
BRANCH   1  29
ATOM     29  C   UNL A   1      36.287  34.149  32.972  1.00  0.00     0.042 C 
BRANCH  29  30
ATOM     30  C   UNL A   1      37.168  32.946  32.687  1.00  0.00     0.118 C 
BRANCH  30  31
ATOM     31  N   UNL A   1      36.421  31.753  32.305  1.00  0.00    -0.352 N 
ATOM     32  C   UNL A   1      36.756  30.666  31.526  1.00  0.00     0.251 C 
ATOM     33  H   UNL A   1      35.508  31.717  32.672  1.00  0.00     0.163 HD
ATOM     34  O   UNL A   1      35.889  29.845  31.250  1.00  0.00    -0.269 OA
BRANCH  32  35
ATOM     35  C   UNL A   1      38.124  30.501  30.977  1.00  0.00     0.039 A 
ATOM     36  C   UNL A   1      38.442  30.875  29.675  1.00  0.00     0.014 A 
ATOM     37  C   UNL A   1      39.126  29.967  31.797  1.00  0.00     0.014 A 
ATOM     38  C   UNL A   1      39.663  30.501  29.122  1.00  0.00     0.010 A 
ATOM     39  C   UNL A   1      40.400  29.706  31.275  1.00  0.00     0.010 A 
ATOM     40  C   UNL A   1      40.660  29.908  29.912  1.00  0.00    -0.014 A 
BRANCH  40  41
ATOM     41  C   UNL A   1      41.945  29.498  29.280  1.00  0.00     0.031 A 
ATOM     42  C   UNL A   1      43.130  30.432  29.266  1.00  0.00     0.074 A 
ATOM     43  C   UNL A   1      42.074  28.249  28.789  1.00  0.00     0.049 A 
ATOM     44  N   UNL A   1      44.331  30.232  28.783  1.00  0.00    -0.248 NA
ATOM     45  C   UNL A   1      42.945  31.763  29.866  1.00  0.00     0.031 C 
ATOM     46  C   UNL A   1      41.008  27.243  28.753  1.00  0.00     0.029 A 
ATOM     47  N   UNL A   1      43.159  27.595  28.262  1.00  0.00    -0.354 N 
ATOM     48  C   UNL A   1      45.032  31.414  28.996  1.00  0.00     0.074 A 
ATOM     49  C   UNL A   1      44.117  32.338  29.629  1.00  0.00     0.031 C 
ATOM     50  C   UNL A   1      41.510  26.083  28.306  1.00  0.00     0.029 A 
ATOM     51  C   UNL A   1      42.912  26.278  27.951  1.00  0.00     0.049 A 
ATOM     52  H   UNL A   1      44.032  28.027  28.119  1.00  0.00     0.167 HD
ATOM     53  C   UNL A   1      46.325  31.699  28.707  1.00  0.00     0.037 A 
ATOM     54  C   UNL A   1      43.715  25.331  27.428  1.00  0.00     0.037 A 
ATOM     55  C   UNL A   1      47.247  30.767  28.110  1.00  0.00     0.049 A 
ATOM     56  C   UNL A   1      45.133  25.681  27.088  1.00  0.00     0.074 A 
ATOM     57  C   UNL A   1      48.580  30.960  27.791  1.00  0.00     0.029 A 
ATOM     58  N   UNL A   1      46.936  29.464  27.751  1.00  0.00    -0.354 N 
ATOM     59  N   UNL A   1      45.770  26.812  27.279  1.00  0.00    -0.248 NA
ATOM     60  C   UNL A   1      45.940  24.634  26.444  1.00  0.00     0.031 C 
ATOM     61  C   UNL A   1      49.065  29.786  27.207  1.00  0.00     0.029 A 
ATOM     62  C   UNL A   1      48.046  28.846  27.199  1.00  0.00     0.049 A 
ATOM     63  H   UNL A   1      46.055  29.041  27.870  1.00  0.00     0.167 HD
ATOM     64  C   UNL A   1      47.051  26.614  26.780  1.00  0.00     0.074 A 
ATOM     65  C   UNL A   1      47.107  25.248  26.301  1.00  0.00     0.031 C 
ATOM     66  C   UNL A   1      48.084  27.489  26.717  1.00  0.00     0.037 A 
BRANCH  53  67
ATOM     67  C   UNL A   1      46.825  33.083  29.024  1.00  0.00     0.058 A 
ATOM     68  C   UNL A   1      46.733  34.131  28.095  1.00  0.00     0.135 A 
ATOM     69  C   UNL A   1      47.365  33.374  30.288  1.00  0.00     0.135 A 
ATOM     70  F   UNL A   1      46.241  33.905  26.867  1.00  0.00    -0.206 F 
ATOM     71  C   UNL A   1      47.180  35.413  28.399  1.00  0.00     0.059 A 
ATOM     72  C   UNL A   1      47.796  34.654  30.622  1.00  0.00     0.059 A 
ATOM     73  F   UNL A   1      47.476  32.408  31.213  1.00  0.00    -0.206 F 
ATOM     74  C   UNL A   1      47.711  35.665  29.666  1.00  0.00     0.060 A 
BRANCH  74  75
ATOM     75  S   UNL A   1      48.293  37.332  30.041  1.00  0.00     0.124 S 
ATOM     76  O   UNL A   1      47.355  38.146  29.274  1.00  0.00    -0.237 OA
ATOM     77  O   UNL A   1      48.145  37.395  31.492  1.00  0.00    -0.237 OA
ATOM     78  O   UNL A   1      49.668  37.332  29.553  1.00  0.00    -0.744 OA
ENDBRANCH  74  75
ENDBRANCH  53  67
BRANCH  54  79
ATOM     79  C   UNL A   1      43.180  23.964  27.192  1.00  0.00     0.058 A 
ATOM     80  C   UNL A   1      42.737  23.573  25.921  1.00  0.00     0.135 A 
ATOM     81  C   UNL A   1      43.152  23.008  28.220  1.00  0.00     0.135 A 
ATOM     82  F   UNL A   1      42.737  24.453  24.910  1.00  0.00    -0.206 F 
ATOM     83  C   UNL A   1      42.286  22.279  25.675  1.00  0.00     0.059 A 
ATOM     84  C   UNL A   1      42.730  21.703  27.993  1.00  0.00     0.059 A 
ATOM     85  F   UNL A   1      43.579  23.332  29.451  1.00  0.00    -0.206 F 
ATOM     86  C   UNL A   1      42.296  21.349  26.717  1.00  0.00     0.060 A 
BRANCH  86  87
ATOM     87  S   UNL A   1      41.788  19.651  26.367  1.00  0.00     0.124 S 
ATOM     88  O   UNL A   1      40.352  19.810  26.172  1.00  0.00    -0.237 OA
ATOM     89  O   UNL A   1      42.565  19.340  25.171  1.00  0.00    -0.237 OA
ATOM     90  O   UNL A   1      42.187  18.927  27.570  1.00  0.00    -0.744 OA
ENDBRANCH  86  87
ENDBRANCH  54  79
BRANCH  66  91
ATOM     91  C   UNL A   1      49.366  26.998  26.110  1.00  0.00     0.058 A 
ATOM     92  C   UNL A   1      49.654  27.202  24.752  1.00  0.00     0.135 A 
ATOM     93  C   UNL A   1      50.341  26.372  26.903  1.00  0.00     0.135 A 
ATOM     94  F   UNL A   1      48.751  27.788  23.950  1.00  0.00    -0.206 F 
ATOM     95  C   UNL A   1      50.860  26.788  24.197  1.00  0.00     0.059 A 
ATOM     96  C   UNL A   1      51.562  25.970  26.374  1.00  0.00     0.059 A 
ATOM     97  F   UNL A   1      50.115  26.161  28.210  1.00  0.00    -0.206 F 
ATOM     98  C   UNL A   1      51.810  26.176  25.018  1.00  0.00     0.060 A 
BRANCH  98  99
ATOM     99  S   UNL A   1      53.388  25.683  24.292  1.00  0.00     0.124 S 
ATOM    100  O   UNL A   1      54.303  26.645  24.898  1.00  0.00    -0.237 OA
ATOM    101  O   UNL A   1      53.525  24.303  24.747  1.00  0.00    -0.237 OA
ATOM    102  O   UNL A   1      53.166  25.845  22.858  1.00  0.00    -0.744 OA
ENDBRANCH  98  99
ENDBRANCH  66  91
ENDBRANCH  40  41
ENDBRANCH  32  35
ENDBRANCH  30  31
ENDBRANCH  29  30
ENDBRANCH   1  29
TORSDOF 17
ENDMDL
MODEL 3
REMARK VINA RESULT:     -12.7      1.195      1.969
REMARK SMILES C=C(C)COc1ccc2nc(C)n(-c3cccc(C(=O)NCCCNC(=O)c4ccc(-c5c6nc(c(-c7c(F)cc(S(=O)(=O)[O-])cc7F)c7ccc([nH]7)c(-c7c(F)cc(S(=O)(=O)[O-])cc7F)c7nc(c(-c8c(F)cc(S(=O)(=O)[O-])cc8F)c8ccc5[nH]8)C=C7)C=C6)cc4)c3)c(=O)c2c1
REMARK SMILES IDX 22 1 21 2 19 3 20 4 18 6 14 7 15 8 94 9 16 10 17 11 13 12
REMARK SMILES IDX 6 13 7 14 98 15 8 16 97 17 9 18 95 19 10 20 96 21 11 22
REMARK SMILES IDX 12 23 5 24 4 25 2 26 1 27 3 28 23 29 24 30 25 31 26 32 27 34
REMARK SMILES IDX 28 35 29 36 93 37 30 38 92 39 31 40 32 41 33 42 86 43 34 44
REMARK SMILES IDX 91 45 85 46 87 47 35 48 90 49 84 50 83 51 36 53 70 54 49 55
REMARK SMILES IDX 69 56 50 57 53 58 68 59 88 60 51 61 52 62 67 64 89 65 54 66
REMARK SMILES IDX 37 67 38 68 47 69 39 70 40 71 46 72 48 73 41 74 42 75 43 76
REMARK SMILES IDX 44 77 45 78 71 79 72 80 81 81 73 82 74 83 80 84 82 85 75 86
REMARK SMILES IDX 76 87 77 88 78 89 79 90 55 91 56 92 65 93 57 94 58 95 64 96
REMARK SMILES IDX 66 97 59 98 60 99 61 100 62 101 63 102
REMARK H PARENT 21 5 25 33 87 52 53 63
REMARK Flexibility Score: inf
ROOT
ATOM      1  C   UNL A   1      37.054  23.275  25.808  1.00  0.00     0.118 C 
ENDROOT
BRANCH   1   2
ATOM      2  N   UNL A   1      37.597  21.951  25.506  1.00  0.00    -0.352 N 
ATOM      3  C   UNL A   1      37.037  20.780  25.046  1.00  0.00     0.251 C 
ATOM      4  O   UNL A   1      37.774  19.807  24.894  1.00  0.00    -0.269 OA
ATOM      5  H   UNL A   1      38.567  21.883  25.665  1.00  0.00     0.163 HD
BRANCH   3   6
ATOM      6  C   UNL A   1      35.581  20.624  24.792  1.00  0.00     0.041 A 
ATOM      7  C   UNL A   1      33.353  21.576  24.678  1.00  0.00     0.051 A 
ATOM      8  C   UNL A   1      32.810  20.287  24.700  1.00  0.00     0.027 A 
ATOM      9  C   UNL A   1      34.742  21.709  24.557  1.00  0.00     0.040 A 
ATOM     10  C   UNL A   1      33.644  19.168  24.753  1.00  0.00     0.003 A 
ATOM     11  C   UNL A   1      35.025  19.340  24.851  1.00  0.00     0.014 A 
BRANCH   7  12
ATOM     12  N   UNL A   1      32.576  22.749  24.968  1.00  0.00    -0.264 N 
ATOM     13  C   UNL A   1      30.445  26.896  23.574  1.00  0.00     0.120 A 
ATOM     14  C   UNL A   1      30.304  27.225  24.922  1.00  0.00     0.049 A 
ATOM     15  C   UNL A   1      30.995  25.668  23.211  1.00  0.00     0.062 A 
ATOM     16  C   UNL A   1      30.764  26.353  25.906  1.00  0.00     0.033 A 
ATOM     17  C   UNL A   1      31.447  24.796  24.212  1.00  0.00     0.070 A 
ATOM     18  C   UNL A   1      31.339  25.135  25.555  1.00  0.00     0.078 A 
ATOM     19  C   UNL A   1      32.076  23.502  23.889  1.00  0.00     0.266 A 
ATOM     20  N   UNL A   1      31.835  24.327  26.572  1.00  0.00    -0.234 NA
ATOM     21  O   UNL A   1      32.122  23.165  22.705  1.00  0.00    -0.268 OA
ATOM     22  C   UNL A   1      32.453  23.231  26.267  1.00  0.00     0.113 A 
ATOM     23  C   UNL A   1      33.112  22.537  27.444  1.00  0.00     0.088 C 
BRANCH  13  24
ATOM     24  O   UNL A   1      29.983  27.716  22.578  1.00  0.00    -0.489 OA
BRANCH  24  25
ATOM     25  C   UNL A   1      30.032  29.110  22.937  1.00  0.00     0.260 C 
BRANCH  25  26
ATOM     26  C   UNL A   1      28.659  29.732  23.079  1.00  0.00    -0.043 C 
ATOM     27  C   UNL A   1      27.518  29.042  22.905  1.00  0.00     0.011 C 
ATOM     28  C   UNL A   1      28.645  31.176  23.499  1.00  0.00     0.042 C 
ENDBRANCH  25  26
ENDBRANCH  24  25
ENDBRANCH  13  24
ENDBRANCH   7  12
ENDBRANCH   3   6
ENDBRANCH   1   2
BRANCH   1  29
ATOM     29  C   UNL A   1      38.006  24.190  26.562  1.00  0.00     0.042 C 
BRANCH  29  30
ATOM     30  C   UNL A   1      39.382  23.605  26.828  1.00  0.00     0.118 C 
BRANCH  30  31
ATOM     31  N   UNL A   1      40.432  24.181  25.997  1.00  0.00    -0.352 N 
ATOM     32  C   UNL A   1      41.250  25.277  26.172  1.00  0.00     0.251 C 
ATOM     33  H   UNL A   1      40.586  23.697  25.153  1.00  0.00     0.163 HD
ATOM     34  O   UNL A   1      41.975  25.628  25.249  1.00  0.00    -0.269 OA
BRANCH  32  35
ATOM     35  C   UNL A   1      41.230  26.062  27.430  1.00  0.00     0.039 A 
ATOM     36  C   UNL A   1      40.416  25.709  28.502  1.00  0.00     0.014 A 
ATOM     37  C   UNL A   1      42.065  27.181  27.548  1.00  0.00     0.014 A 
ATOM     38  C   UNL A   1      40.253  26.585  29.570  1.00  0.00     0.010 A 
ATOM     39  C   UNL A   1      41.994  27.997  28.684  1.00  0.00     0.010 A 
ATOM     40  C   UNL A   1      41.036  27.745  29.677  1.00  0.00    -0.014 A 
BRANCH  40  41
ATOM     41  C   UNL A   1      40.816  28.672  30.822  1.00  0.00     0.031 A 
ATOM     42  C   UNL A   1      41.755  28.678  32.002  1.00  0.00     0.074 A 
ATOM     43  C   UNL A   1      39.813  29.572  30.762  1.00  0.00     0.049 A 
ATOM     44  N   UNL A   1      41.730  29.432  33.072  1.00  0.00    -0.248 NA
ATOM     45  C   UNL A   1      42.864  27.709  31.985  1.00  0.00     0.031 C 
ATOM     46  C   UNL A   1      38.842  29.681  29.671  1.00  0.00     0.029 A 
ATOM     47  N   UNL A   1      39.465  30.590  31.614  1.00  0.00    -0.354 N 
ATOM     48  C   UNL A   1      42.796  29.015  33.862  1.00  0.00     0.074 A 
ATOM     49  C   UNL A   1      43.434  27.921  33.163  1.00  0.00     0.031 C 
ATOM     50  C   UNL A   1      38.060  30.750  29.880  1.00  0.00     0.029 A 
ATOM     51  C   UNL A   1      38.421  31.360  31.155  1.00  0.00     0.049 A 
ATOM     52  H   UNL A   1      39.918  30.755  32.472  1.00  0.00     0.167 HD
ATOM     53  C   UNL A   1      43.215  29.507  35.053  1.00  0.00     0.037 A 
ATOM     54  C   UNL A   1      37.810  32.430  31.699  1.00  0.00     0.037 A 
ATOM     55  C   UNL A   1      42.601  30.619  35.733  1.00  0.00     0.049 A 
ATOM     56  C   UNL A   1      38.273  32.937  33.033  1.00  0.00     0.074 A 
ATOM     57  C   UNL A   1      42.963  31.198  36.936  1.00  0.00     0.029 A 
ATOM     58  N   UNL A   1      41.505  31.328  35.263  1.00  0.00    -0.354 N 
ATOM     59  N   UNL A   1      39.270  32.513  33.773  1.00  0.00    -0.248 NA
ATOM     60  C   UNL A   1      37.519  34.054  33.618  1.00  0.00     0.031 C 
ATOM     61  C   UNL A   1      42.064  32.233  37.212  1.00  0.00     0.029 A 
ATOM     62  C   UNL A   1      41.167  32.327  36.160  1.00  0.00     0.049 A 
ATOM     63  H   UNL A   1      41.036  31.146  34.416  1.00  0.00     0.167 HD
ATOM     64  C   UNL A   1      39.264  33.311  34.910  1.00  0.00     0.074 A 
ATOM     65  C   UNL A   1      38.180  34.259  34.750  1.00  0.00     0.031 C 
ATOM     66  C   UNL A   1      40.078  33.257  35.991  1.00  0.00     0.037 A 
BRANCH  53  67
ATOM     67  C   UNL A   1      44.393  28.841  35.711  1.00  0.00     0.058 A 
ATOM     68  C   UNL A   1      44.231  27.785  36.621  1.00  0.00     0.135 A 
ATOM     69  C   UNL A   1      45.704  29.236  35.394  1.00  0.00     0.135 A 
ATOM     70  F   UNL A   1      43.001  27.378  36.972  1.00  0.00    -0.206 F 
ATOM     71  C   UNL A   1      45.324  27.160  37.212  1.00  0.00     0.059 A 
ATOM     72  C   UNL A   1      46.812  28.609  35.955  1.00  0.00     0.059 A 
ATOM     73  F   UNL A   1      45.916  30.241  34.529  1.00  0.00    -0.206 F 
ATOM     74  C   UNL A   1      46.612  27.580  36.874  1.00  0.00     0.060 A 
BRANCH  74  75
ATOM     75  S   UNL A   1      48.019  26.763  37.656  1.00  0.00     0.124 S 
ATOM     76  O   UNL A   1      47.703  25.357  37.425  1.00  0.00    -0.237 OA
ATOM     77  O   UNL A   1      49.148  27.290  36.895  1.00  0.00    -0.237 OA
ATOM     78  O   UNL A   1      47.942  27.204  39.045  1.00  0.00    -0.744 OA
ENDBRANCH  74  75
ENDBRANCH  53  67
BRANCH  54  79
ATOM     79  C   UNL A   1      36.689  33.083  30.974  1.00  0.00     0.058 A 
ATOM     80  C   UNL A   1      35.359  32.873  31.364  1.00  0.00     0.135 A 
ATOM     81  C   UNL A   1      36.929  33.969  29.912  1.00  0.00     0.135 A 
ATOM     82  F   UNL A   1      35.079  32.030  32.368  1.00  0.00    -0.206 F 
ATOM     83  C   UNL A   1      34.305  33.522  30.728  1.00  0.00     0.059 A 
ATOM     84  C   UNL A   1      35.895  34.648  29.278  1.00  0.00     0.059 A 
ATOM     85  F   UNL A   1      38.187  34.212  29.511  1.00  0.00    -0.206 F 
ATOM     86  C   UNL A   1      34.585  34.415  29.692  1.00  0.00     0.060 A 
BRANCH  86  87
ATOM     87  S   UNL A   1      33.216  35.314  28.929  1.00  0.00     0.124 S 
ATOM     88  O   UNL A   1      33.921  36.374  28.219  1.00  0.00    -0.237 OA
ATOM     89  O   UNL A   1      32.601  34.285  28.096  1.00  0.00    -0.237 OA
ATOM     90  O   UNL A   1      32.417  35.742  30.074  1.00  0.00    -0.744 OA
ENDBRANCH  86  87
ENDBRANCH  54  79
BRANCH  66  91
ATOM     91  C   UNL A   1      39.831  34.250  37.090  1.00  0.00     0.058 A 
ATOM     92  C   UNL A   1      38.957  33.963  38.149  1.00  0.00     0.135 A 
ATOM     93  C   UNL A   1      40.518  35.474  37.116  1.00  0.00     0.135 A 
ATOM     94  F   UNL A   1      38.271  32.809  38.166  1.00  0.00    -0.206 F 
ATOM     95  C   UNL A   1      38.761  34.862  39.191  1.00  0.00     0.059 A 
ATOM     96  C   UNL A   1      40.354  36.379  38.159  1.00  0.00     0.059 A 
ATOM     97  F   UNL A   1      41.371  35.791  36.129  1.00  0.00    -0.206 F 
ATOM     98  C   UNL A   1      39.467  36.068  39.189  1.00  0.00     0.060 A 
BRANCH  98  99
ATOM     99  S   UNL A   1      39.234  37.207  40.570  1.00  0.00     0.124 S 
ATOM    100  O   UNL A   1      38.710  36.315  41.600  1.00  0.00    -0.237 OA
ATOM    101  O   UNL A   1      40.586  37.708  40.794  1.00  0.00    -0.237 OA
ATOM    102  O   UNL A   1      38.287  38.186  40.046  1.00  0.00    -0.744 OA
ENDBRANCH  98  99
ENDBRANCH  66  91
ENDBRANCH  40  41
ENDBRANCH  32  35
ENDBRANCH  30  31
ENDBRANCH  29  30
ENDBRANCH   1  29
TORSDOF 17
ENDMDL
