MODEL 1
REMARK VINA RESULT:     -12.6      0.000      0.000
REMARK SMILES COc1ccc2c(c1)C=C(C(=O)NCCCNC(=O)c1ccc(-c3c4nc(c(-c5c(F)cc(S(=O)(=O)[O-])cc5F)c5ccc([nH]5)c(-c5c(F)cc(S(=O)(=O)[O-])cc5F)c5nc(c(-c6c(F)cc(S(=O)(=O)[O-])cc6F)c6ccc3[nH]6)C=C5)C=C4)cc1)[C@H](C(F)(F)F)O2
REMARK SMILES IDX 16 1 15 2 14 3 13 4 11 5 12 6 10 8 3 9 4 10 8 11 5 12 7 13
REMARK SMILES IDX 6 14 9 15 91 16 86 17 2 18 1 19 87 20 88 21 89 22 90 23
REMARK SMILES IDX 17 24 18 25 19 27 20 28 21 29 85 30 22 31 84 32 23 33 24 34
REMARK SMILES IDX 25 35 78 36 26 37 83 38 77 39 79 40 27 41 82 42 76 43 75 44
REMARK SMILES IDX 28 46 62 47 41 48 61 49 42 50 45 51 60 52 80 53 43 54 44 55
REMARK SMILES IDX 59 57 81 58 46 59 29 60 30 61 39 62 31 63 32 64 38 65 40 66
REMARK SMILES IDX 33 67 34 68 35 69 36 70 37 71 63 72 64 73 73 74 65 75 66 76
REMARK SMILES IDX 72 77 74 78 67 79 68 80 69 81 70 82 71 83 47 84 48 85 57 86
REMARK SMILES IDX 49 87 50 88 56 89 58 90 51 91 52 92 53 93 54 94 55 95
REMARK H PARENT 13 7 17 26 79 45 45 56
REMARK Flexibility Score: inf
ROOT
ATOM      1  C   UNL A   1      38.150  24.318  26.459  1.00  0.00     0.118 C 
ENDROOT
BRANCH   1   2
ATOM      2  C   UNL A   1      37.220  23.342  25.742  1.00  0.00     0.042 C 
BRANCH   2   3
ATOM      3  C   UNL A   1      35.806  23.895  25.541  1.00  0.00     0.118 C 
BRANCH   3   4
ATOM      4  N   UNL A   1      34.937  23.499  26.639  1.00  0.00    -0.352 N 
ATOM      5  C   UNL A   1      33.919  22.603  26.742  1.00  0.00     0.251 C 
ATOM      6  O   UNL A   1      33.282  22.576  27.792  1.00  0.00    -0.270 OA
ATOM      7  H   UNL A   1      35.124  23.977  27.479  1.00  0.00     0.163 HD
BRANCH   5   8
ATOM      8  C   UNL A   1      33.602  21.611  25.681  1.00  0.00     0.067 C 
ATOM      9  C   UNL A   1      33.809  17.215  23.702  1.00  0.00     0.119 A 
ATOM     10  C   UNL A   1      32.815  17.567  22.791  1.00  0.00     0.050 A 
ATOM     11  C   UNL A   1      34.275  18.155  24.619  1.00  0.00     0.058 A 
ATOM     12  C   UNL A   1      32.292  18.864  22.800  1.00  0.00     0.051 A 
ATOM     13  C   UNL A   1      33.756  19.454  24.624  1.00  0.00     0.021 A 
ATOM     14  C   UNL A   1      32.760  19.804  23.720  1.00  0.00     0.128 A 
ATOM     15  C   UNL A   1      34.180  20.405  25.634  1.00  0.00     0.025 C 
ATOM     16  O   UNL A   1      32.144  21.018  23.721  1.00  0.00    -0.475 OA
ATOM     17  C   UNL A   1      32.694  22.087  24.549  1.00  0.00     0.314 C 
BRANCH   9  18
ATOM     18  O   UNL A   1      34.310  15.950  23.842  1.00  0.00    -0.497 OA
ATOM     19  C   UNL A   1      34.969  15.719  25.082  1.00  0.00     0.278 C 
ENDBRANCH   9  18
BRANCH  17  20
ATOM     20  C   UNL A   1      31.514  23.001  24.952  1.00  0.00     0.429 C 
ATOM     21  F   UNL A   1      31.908  24.234  25.344  1.00  0.00    -0.167 F 
ATOM     22  F   UNL A   1      30.681  23.214  23.894  1.00  0.00    -0.167 F 
ATOM     23  F   UNL A   1      30.755  22.466  25.936  1.00  0.00    -0.167 F 
ENDBRANCH  17  20
ENDBRANCH   5   8
ENDBRANCH   3   4
ENDBRANCH   2   3
ENDBRANCH   1   2
BRANCH   1  24
ATOM     24  N   UNL A   1      39.550  24.004  26.216  1.00  0.00    -0.352 N 
ATOM     25  C   UNL A   1      40.681  24.669  26.622  1.00  0.00     0.251 C 
ATOM     26  H   UNL A   1      39.710  23.193  25.682  1.00  0.00     0.163 HD
ATOM     27  O   UNL A   1      41.760  24.385  26.114  1.00  0.00    -0.269 OA
BRANCH  25  28
ATOM     28  C   UNL A   1      40.600  25.723  27.658  1.00  0.00     0.039 A 
ATOM     29  C   UNL A   1      39.631  25.615  28.660  1.00  0.00     0.014 A 
ATOM     30  C   UNL A   1      41.442  26.839  27.617  1.00  0.00     0.014 A 
ATOM     31  C   UNL A   1      39.539  26.599  29.648  1.00  0.00     0.010 A 
ATOM     32  C   UNL A   1      41.394  27.782  28.639  1.00  0.00     0.010 A 
ATOM     33  C   UNL A   1      40.436  27.678  29.660  1.00  0.00    -0.014 A 
BRANCH  33  34
ATOM     34  C   UNL A   1      40.385  28.723  30.715  1.00  0.00     0.031 A 
ATOM     35  C   UNL A   1      41.277  28.612  31.923  1.00  0.00     0.074 A 
ATOM     36  C   UNL A   1      39.484  29.721  30.625  1.00  0.00     0.049 A 
ATOM     37  N   UNL A   1      41.296  29.345  33.005  1.00  0.00    -0.248 NA
ATOM     38  C   UNL A   1      42.255  27.512  31.924  1.00  0.00     0.031 C 
ATOM     39  C   UNL A   1      38.543  29.913  29.520  1.00  0.00     0.029 A 
ATOM     40  N   UNL A   1      39.198  30.750  31.487  1.00  0.00    -0.354 N 
ATOM     41  C   UNL A   1      42.269  28.784  33.826  1.00  0.00     0.074 A 
ATOM     42  C   UNL A   1      42.784  27.622  33.134  1.00  0.00     0.031 C 
ATOM     43  C   UNL A   1      37.792  30.999  29.766  1.00  0.00     0.029 A 
ATOM     44  C   UNL A   1      38.166  31.555  31.062  1.00  0.00     0.049 A 
ATOM     45  H   UNL A   1      39.685  30.898  32.329  1.00  0.00     0.167 HD
ATOM     46  C   UNL A   1      42.706  29.210  35.035  1.00  0.00     0.037 A 
ATOM     47  C   UNL A   1      37.579  32.611  31.657  1.00  0.00     0.037 A 
ATOM     48  C   UNL A   1      42.206  30.385  35.701  1.00  0.00     0.049 A 
ATOM     49  C   UNL A   1      38.080  33.066  33.001  1.00  0.00     0.074 A 
ATOM     50  C   UNL A   1      42.619  30.933  36.902  1.00  0.00     0.029 A 
ATOM     51  N   UNL A   1      41.184  31.192  35.222  1.00  0.00    -0.354 N 
ATOM     52  N   UNL A   1      39.035  32.553  33.741  1.00  0.00    -0.248 NA
ATOM     53  C   UNL A   1      37.429  34.245  33.591  1.00  0.00     0.031 C 
ATOM     54  C   UNL A   1      41.817  32.048  37.171  1.00  0.00     0.029 A 
ATOM     55  C   UNL A   1      40.941  32.225  36.112  1.00  0.00     0.049 A 
ATOM     56  H   UNL A   1      40.703  31.052  34.375  1.00  0.00     0.167 HD
ATOM     57  C   UNL A   1      39.122  33.366  34.866  1.00  0.00     0.074 A 
ATOM     58  C   UNL A   1      38.126  34.406  34.708  1.00  0.00     0.031 C 
ATOM     59  C   UNL A   1      39.956  33.263  35.931  1.00  0.00     0.037 A 
BRANCH  46  60
ATOM     60  C   UNL A   1      43.777  28.401  35.716  1.00  0.00     0.058 A 
ATOM     61  C   UNL A   1      45.141  28.637  35.482  1.00  0.00     0.135 A 
ATOM     62  C   UNL A   1      43.436  27.394  36.634  1.00  0.00     0.135 A 
ATOM     63  F   UNL A   1      45.525  29.578  34.604  1.00  0.00    -0.206 F 
ATOM     64  C   UNL A   1      46.129  27.881  36.108  1.00  0.00     0.059 A 
ATOM     65  C   UNL A   1      44.408  26.647  37.294  1.00  0.00     0.059 A 
ATOM     66  F   UNL A   1      42.148  27.126  36.897  1.00  0.00    -0.206 F 
ATOM     67  C   UNL A   1      45.752  26.887  37.011  1.00  0.00     0.060 A 
BRANCH  67  68
ATOM     68  S   UNL A   1      47.045  25.913  37.810  1.00  0.00     0.124 S 
ATOM     69  O   UNL A   1      48.209  26.775  37.629  1.00  0.00    -0.237 OA
ATOM     70  O   UNL A   1      46.550  25.798  39.177  1.00  0.00    -0.237 OA
ATOM     71  O   UNL A   1      47.057  24.671  37.044  1.00  0.00    -0.744 OA
ENDBRANCH  67  68
ENDBRANCH  46  60
BRANCH  47  72
ATOM     72  C   UNL A   1      36.464  33.320  30.974  1.00  0.00     0.058 A 
ATOM     73  C   UNL A   1      35.143  33.187  31.424  1.00  0.00     0.135 A 
ATOM     74  C   UNL A   1      36.698  34.160  29.874  1.00  0.00     0.135 A 
ATOM     75  F   UNL A   1      34.867  32.389  32.468  1.00  0.00    -0.206 F 
ATOM     76  C   UNL A   1      34.090  33.852  30.803  1.00  0.00     0.059 A 
ATOM     77  C   UNL A   1      35.665  34.856  29.253  1.00  0.00     0.059 A 
ATOM     78  F   UNL A   1      37.947  34.336  29.415  1.00  0.00    -0.206 F 
ATOM     79  C   UNL A   1      34.362  34.688  29.720  1.00  0.00     0.060 A 
BRANCH  79  80
ATOM     80  S   UNL A   1      32.996  35.591  28.958  1.00  0.00     0.124 S 
ATOM     81  O   UNL A   1      32.409  34.567  28.102  1.00  0.00    -0.237 OA
ATOM     82  O   UNL A   1      32.204  35.985  30.119  1.00  0.00    -0.237 OA
ATOM     83  O   UNL A   1      33.665  36.687  28.264  1.00  0.00    -0.744 OA
ENDBRANCH  79  80
ENDBRANCH  47  72
BRANCH  59  84
ATOM     84  C   UNL A   1      39.868  34.325  36.991  1.00  0.00     0.058 A 
ATOM     85  C   UNL A   1      40.510  35.565  36.852  1.00  0.00     0.135 A 
ATOM     86  C   UNL A   1      39.067  34.123  38.127  1.00  0.00     0.135 A 
ATOM     87  F   UNL A   1      41.293  35.805  35.789  1.00  0.00    -0.206 F 
ATOM     88  C   UNL A   1      40.372  36.564  37.810  1.00  0.00     0.059 A 
ATOM     89  C   UNL A   1      38.893  35.118  39.084  1.00  0.00     0.059 A 
ATOM     90  F   UNL A   1      38.425  32.958  38.303  1.00  0.00    -0.206 F 
ATOM     91  C   UNL A   1      39.556  36.333  38.920  1.00  0.00     0.060 A 
BRANCH  91  92
ATOM     92  S   UNL A   1      39.342  37.658  40.128  1.00  0.00     0.124 S 
ATOM     93  O   UNL A   1      38.241  38.415  39.542  1.00  0.00    -0.237 OA
ATOM     94  O   UNL A   1      39.027  36.920  41.347  1.00  0.00    -0.237 OA
ATOM     95  O   UNL A   1      40.638  38.331  40.127  1.00  0.00    -0.744 OA
ENDBRANCH  91  92
ENDBRANCH  59  84
ENDBRANCH  33  34
ENDBRANCH  25  28
ENDBRANCH   1  24
TORSDOF 15
ENDMDL
MODEL 2
REMARK VINA RESULT:     -12.3      5.164     10.331
REMARK SMILES COc1ccc2c(c1)C=C(C(=O)NCCCNC(=O)c1ccc(-c3c4nc(c(-c5c(F)cc(S(=O)(=O)[O-])cc5F)c5ccc([nH]5)c(-c5c(F)cc(S(=O)(=O)[O-])cc5F)c5nc(c(-c6c(F)cc(S(=O)(=O)[O-])cc6F)c6ccc3[nH]6)C=C5)C=C4)cc1)[C@H](C(F)(F)F)O2
REMARK SMILES IDX 16 1 15 2 14 3 13 4 11 5 12 6 10 8 3 9 4 10 8 11 5 12 7 13
REMARK SMILES IDX 6 14 9 15 91 16 86 17 2 18 1 19 87 20 88 21 89 22 90 23
REMARK SMILES IDX 17 24 18 25 19 27 20 28 21 29 85 30 22 31 84 32 23 33 24 34
REMARK SMILES IDX 25 35 78 36 26 37 83 38 77 39 79 40 27 41 82 42 76 43 75 44
REMARK SMILES IDX 28 46 62 47 41 48 61 49 42 50 45 51 60 52 80 53 43 54 44 55
REMARK SMILES IDX 59 57 81 58 46 59 29 60 30 61 39 62 31 63 32 64 38 65 40 66
REMARK SMILES IDX 33 67 34 68 35 69 36 70 37 71 63 72 64 73 73 74 65 75 66 76
REMARK SMILES IDX 72 77 74 78 67 79 68 80 69 81 70 82 71 83 47 84 48 85 57 86
REMARK SMILES IDX 49 87 50 88 56 89 58 90 51 91 52 92 53 93 54 94 55 95
REMARK H PARENT 13 7 17 26 79 45 45 56
REMARK Flexibility Score: inf
ROOT
ATOM      1  C   UNL A   1      33.771  28.219  27.143  1.00  0.00     0.118 C 
ENDROOT
BRANCH   1   2
ATOM      2  C   UNL A   1      33.178  27.867  25.781  1.00  0.00     0.042 C 
BRANCH   2   3
ATOM      3  C   UNL A   1      31.661  27.659  25.820  1.00  0.00     0.118 C 
BRANCH   3   4
ATOM      4  N   UNL A   1      31.322  26.492  26.621  1.00  0.00    -0.352 N 
ATOM      5  C   UNL A   1      31.681  25.182  26.553  1.00  0.00     0.251 C 
ATOM      6  O   UNL A   1      31.125  24.394  27.313  1.00  0.00    -0.270 OA
ATOM      7  H   UNL A   1      30.706  26.691  27.362  1.00  0.00     0.163 HD
BRANCH   5   8
ATOM      8  C   UNL A   1      32.765  24.683  25.666  1.00  0.00     0.067 C 
ATOM      9  C   UNL A   1      37.092  22.708  24.854  1.00  0.00     0.119 A 
ATOM     10  C   UNL A   1      36.772  22.534  23.509  1.00  0.00     0.050 A 
ATOM     11  C   UNL A   1      36.182  23.324  25.710  1.00  0.00     0.058 A 
ATOM     12  C   UNL A   1      35.539  22.984  23.025  1.00  0.00     0.051 A 
ATOM     13  C   UNL A   1      34.952  23.779  25.225  1.00  0.00     0.021 A 
ATOM     14  C   UNL A   1      34.629  23.601  23.885  1.00  0.00     0.128 A 
ATOM     15  C   UNL A   1      33.972  24.343  26.134  1.00  0.00     0.025 C 
ATOM     16  O   UNL A   1      33.419  23.935  23.356  1.00  0.00    -0.475 OA
ATOM     17  C   UNL A   1      32.492  24.722  24.164  1.00  0.00     0.314 C 
BRANCH   9  18
ATOM     18  O   UNL A   1      38.222  22.214  25.444  1.00  0.00    -0.497 OA
ATOM     19  C   UNL A   1      38.815  23.095  26.393  1.00  0.00     0.278 C 
ENDBRANCH   9  18
BRANCH  17  20
ATOM     20  C   UNL A   1      31.062  24.338  23.715  1.00  0.00     0.429 C 
ATOM     21  F   UNL A   1      30.185  25.363  23.807  1.00  0.00    -0.167 F 
ATOM     22  F   UNL A   1      31.048  23.974  22.401  1.00  0.00    -0.167 F 
ATOM     23  F   UNL A   1      30.564  23.290  24.410  1.00  0.00    -0.167 F 
ENDBRANCH  17  20
ENDBRANCH   5   8
ENDBRANCH   3   4
ENDBRANCH   2   3
ENDBRANCH   1   2
BRANCH   1  24
ATOM     24  N   UNL A   1      33.607  29.632  27.452  1.00  0.00    -0.352 N 
ATOM     25  C   UNL A   1      34.455  30.489  28.110  1.00  0.00     0.251 C 
ATOM     26  H   UNL A   1      32.763  30.032  27.143  1.00  0.00     0.163 HD
ATOM     27  O   UNL A   1      34.035  31.578  28.486  1.00  0.00    -0.269 OA
BRANCH  25  28
ATOM     28  C   UNL A   1      35.860  30.103  28.371  1.00  0.00     0.039 A 
ATOM     29  C   UNL A   1      36.770  30.107  27.309  1.00  0.00     0.014 A 
ATOM     30  C   UNL A   1      36.269  29.691  29.642  1.00  0.00     0.014 A 
ATOM     31  C   UNL A   1      38.102  29.747  27.534  1.00  0.00     0.010 A 
ATOM     32  C   UNL A   1      37.609  29.398  29.878  1.00  0.00     0.010 A 
ATOM     33  C   UNL A   1      38.538  29.414  28.826  1.00  0.00    -0.014 A 
BRANCH  33  34
ATOM     34  C   UNL A   1      39.954  29.059  29.103  1.00  0.00     0.031 A 
ATOM     35  C   UNL A   1      40.893  30.097  29.654  1.00  0.00     0.074 A 
ATOM     36  C   UNL A   1      40.410  27.831  28.784  1.00  0.00     0.049 A 
ATOM     37  N   UNL A   1      42.185  30.025  29.846  1.00  0.00    -0.248 NA
ATOM     38  C   UNL A   1      40.306  31.400  30.006  1.00  0.00     0.031 C 
ATOM     39  C   UNL A   1      39.603  26.751  28.212  1.00  0.00     0.029 A 
ATOM     40  N   UNL A   1      41.668  27.291  28.877  1.00  0.00    -0.354 N 
ATOM     41  C   UNL A   1      42.568  31.276  30.319  1.00  0.00     0.074 A 
ATOM     42  C   UNL A   1      41.380  32.100  30.340  1.00  0.00     0.031 C 
ATOM     43  C   UNL A   1      40.383  25.676  28.016  1.00  0.00     0.029 A 
ATOM     44  C   UNL A   1      41.751  26.001  28.405  1.00  0.00     0.049 A 
ATOM     45  H   UNL A   1      42.438  27.779  29.246  1.00  0.00     0.167 HD
ATOM     46  C   UNL A   1      43.794  31.691  30.718  1.00  0.00     0.037 A 
ATOM     47  C   UNL A   1      42.813  25.180  28.286  1.00  0.00     0.037 A 
ATOM     48  C   UNL A   1      44.965  30.852  30.719  1.00  0.00     0.049 A 
ATOM     49  C   UNL A   1      44.166  25.662  28.734  1.00  0.00     0.074 A 
ATOM     50  C   UNL A   1      46.242  31.158  31.153  1.00  0.00     0.029 A 
ATOM     51  N   UNL A   1      45.000  29.541  30.265  1.00  0.00    -0.354 N 
ATOM     52  N   UNL A   1      44.502  26.832  29.225  1.00  0.00    -0.248 NA
ATOM     53  C   UNL A   1      45.283  24.716  28.616  1.00  0.00     0.031 C 
ATOM     54  C   UNL A   1      47.060  30.047  30.922  1.00  0.00     0.029 A 
ATOM     55  C   UNL A   1      46.281  29.031  30.392  1.00  0.00     0.049 A 
ATOM     56  H   UNL A   1      44.229  29.047  29.905  1.00  0.00     0.167 HD
ATOM     57  C   UNL A   1      45.861  26.750  29.508  1.00  0.00     0.074 A 
ATOM     58  C   UNL A   1      46.284  25.415  29.134  1.00  0.00     0.031 C 
ATOM     59  C   UNL A   1      46.682  27.693  30.032  1.00  0.00     0.037 A 
BRANCH  46  60
ATOM     60  C   UNL A   1      43.933  33.115  31.183  1.00  0.00     0.058 A 
ATOM     61  C   UNL A   1      44.264  34.152  30.297  1.00  0.00     0.135 A 
ATOM     62  C   UNL A   1      43.704  33.452  32.527  1.00  0.00     0.135 A 
ATOM     63  F   UNL A   1      44.507  33.886  29.003  1.00  0.00    -0.206 F 
ATOM     64  C   UNL A   1      44.399  35.467  30.733  1.00  0.00     0.059 A 
ATOM     65  C   UNL A   1      43.803  34.765  32.979  1.00  0.00     0.059 A 
ATOM     66  F   UNL A   1      43.382  32.502  33.419  1.00  0.00    -0.206 F 
ATOM     67  C   UNL A   1      44.168  35.764  32.077  1.00  0.00     0.060 A 
BRANCH  67  68
ATOM     68  S   UNL A   1      44.351  37.474  32.625  1.00  0.00     0.124 S 
ATOM     69  O   UNL A   1      45.756  37.503  33.019  1.00  0.00    -0.237 OA
ATOM     70  O   UNL A   1      44.015  38.226  31.421  1.00  0.00    -0.237 OA
ATOM     71  O   UNL A   1      43.391  37.584  33.719  1.00  0.00    -0.744 OA
ENDBRANCH  67  68
ENDBRANCH  46  60
BRANCH  47  72
ATOM     72  C   UNL A   1      42.630  23.810  27.736  1.00  0.00     0.058 A 
ATOM     73  C   UNL A   1      42.485  22.706  28.588  1.00  0.00     0.135 A 
ATOM     74  C   UNL A   1      42.573  23.580  26.352  1.00  0.00     0.135 A 
ATOM     75  F   UNL A   1      42.539  22.874  29.918  1.00  0.00    -0.206 F 
ATOM     76  C   UNL A   1      42.301  21.419  28.090  1.00  0.00     0.059 A 
ATOM     77  C   UNL A   1      42.364  22.307  25.831  1.00  0.00     0.059 A 
ATOM     78  F   UNL A   1      42.688  24.606  25.494  1.00  0.00    -0.206 F 
ATOM     79  C   UNL A   1      42.239  21.231  26.708  1.00  0.00     0.060 A 
BRANCH  79  80
ATOM     80  S   UNL A   1      41.943  19.566  26.075  1.00  0.00     0.124 S 
ATOM     81  O   UNL A   1      42.314  18.745  27.222  1.00  0.00    -0.237 OA
ATOM     82  O   UNL A   1      40.520  19.609  25.754  1.00  0.00    -0.237 OA
ATOM     83  O   UNL A   1      42.835  19.482  24.922  1.00  0.00    -0.744 OA
ENDBRANCH  79  80
ENDBRANCH  47  72
BRANCH  59  84
ATOM     84  C   UNL A   1      48.114  27.308  30.284  1.00  0.00     0.058 A 
ATOM     85  C   UNL A   1      49.110  27.485  29.313  1.00  0.00     0.135 A 
ATOM     86  C   UNL A   1      48.502  26.825  31.545  1.00  0.00     0.135 A 
ATOM     87  F   UNL A   1      48.789  27.936  28.090  1.00  0.00    -0.206 F 
ATOM     88  C   UNL A   1      50.442  27.183  29.577  1.00  0.00     0.059 A 
ATOM     89  C   UNL A   1      49.832  26.543  31.840  1.00  0.00     0.059 A 
ATOM     90  F   UNL A   1      47.589  26.646  32.511  1.00  0.00    -0.206 F 
ATOM     91  C   UNL A   1      50.795  26.718  30.846  1.00  0.00     0.060 A 
BRANCH  91  92
ATOM     92  S   UNL A   1      52.534  26.383  31.194  1.00  0.00     0.124 S 
ATOM     93  O   UNL A   1      52.891  27.521  32.032  1.00  0.00    -0.237 OA
ATOM     94  O   UNL A   1      52.473  25.091  31.870  1.00  0.00    -0.237 OA
ATOM     95  O   UNL A   1      53.148  26.362  29.868  1.00  0.00    -0.744 OA
ENDBRANCH  91  92
ENDBRANCH  59  84
ENDBRANCH  33  34
ENDBRANCH  25  28
ENDBRANCH   1  24
TORSDOF 15
ENDMDL
MODEL 3
REMARK VINA RESULT:     -12.3      2.120      3.947
REMARK SMILES COc1ccc2c(c1)C=C(C(=O)NCCCNC(=O)c1ccc(-c3c4nc(c(-c5c(F)cc(S(=O)(=O)[O-])cc5F)c5ccc([nH]5)c(-c5c(F)cc(S(=O)(=O)[O-])cc5F)c5nc(c(-c6c(F)cc(S(=O)(=O)[O-])cc6F)c6ccc3[nH]6)C=C5)C=C4)cc1)[C@H](C(F)(F)F)O2
REMARK SMILES IDX 16 1 15 2 14 3 13 4 11 5 12 6 10 8 3 9 4 10 8 11 5 12 7 13
REMARK SMILES IDX 6 14 9 15 91 16 86 17 2 18 1 19 87 20 88 21 89 22 90 23
REMARK SMILES IDX 17 24 18 25 19 27 20 28 21 29 85 30 22 31 84 32 23 33 24 34
REMARK SMILES IDX 25 35 78 36 26 37 83 38 77 39 79 40 27 41 82 42 76 43 75 44
REMARK SMILES IDX 28 46 62 47 41 48 61 49 42 50 45 51 60 52 80 53 43 54 44 55
REMARK SMILES IDX 59 57 81 58 46 59 29 60 30 61 39 62 31 63 32 64 38 65 40 66
REMARK SMILES IDX 33 67 34 68 35 69 36 70 37 71 63 72 64 73 73 74 65 75 66 76
REMARK SMILES IDX 72 77 74 78 67 79 68 80 69 81 70 82 71 83 47 84 48 85 57 86
REMARK SMILES IDX 49 87 50 88 56 89 58 90 51 91 52 92 53 93 54 94 55 95
REMARK H PARENT 13 7 17 26 79 45 45 56
REMARK Flexibility Score: inf
ROOT
ATOM      1  C   UNL A   1      38.547  24.095  26.470  1.00  0.00     0.118 C 
ENDROOT
BRANCH   1   2
ATOM      2  C   UNL A   1      37.667  23.059  25.775  1.00  0.00     0.042 C 
BRANCH   2   3
ATOM      3  C   UNL A   1      36.172  23.381  25.866  1.00  0.00     0.118 C 
BRANCH   3   4
ATOM      4  N   UNL A   1      35.623  23.653  24.546  1.00  0.00    -0.352 N 
ATOM      5  C   UNL A   1      34.573  24.401  24.113  1.00  0.00     0.251 C 
ATOM      6  O   UNL A   1      34.278  24.340  22.922  1.00  0.00    -0.270 OA
ATOM      7  H   UNL A   1      36.111  23.206  23.818  1.00  0.00     0.163 HD
BRANCH   5   8
ATOM      8  C   UNL A   1      33.829  25.341  24.992  1.00  0.00     0.067 C 
ATOM      9  C   UNL A   1      32.977  29.693  26.893  1.00  0.00     0.119 A 
ATOM     10  C   UNL A   1      31.762  29.243  27.407  1.00  0.00     0.050 A 
ATOM     11  C   UNL A   1      33.806  28.815  26.198  1.00  0.00     0.058 A 
ATOM     12  C   UNL A   1      31.385  27.908  27.227  1.00  0.00     0.051 A 
ATOM     13  C   UNL A   1      33.430  27.479  26.023  1.00  0.00     0.021 A 
ATOM     14  C   UNL A   1      32.217  27.030  26.531  1.00  0.00     0.128 A 
ATOM     15  C   UNL A   1      34.254  26.588  25.228  1.00  0.00     0.025 C 
ATOM     16  O   UNL A   1      31.741  25.771  26.326  1.00  0.00    -0.475 OA
ATOM     17  C   UNL A   1      32.630  24.768  25.745  1.00  0.00     0.314 C 
BRANCH   9  18
ATOM     18  O   UNL A   1      33.389  30.997  26.926  1.00  0.00    -0.497 OA
ATOM     19  C   UNL A   1      34.296  31.294  27.982  1.00  0.00     0.278 C 
ENDBRANCH   9  18
BRANCH  17  20
ATOM     20  C   UNL A   1      31.740  23.772  24.966  1.00  0.00     0.429 C 
ATOM     21  F   UNL A   1      30.591  23.471  25.611  1.00  0.00    -0.167 F 
ATOM     22  F   UNL A   1      31.351  24.300  23.771  1.00  0.00    -0.167 F 
ATOM     23  F   UNL A   1      32.382  22.614  24.683  1.00  0.00    -0.167 F 
ENDBRANCH  17  20
ENDBRANCH   5   8
ENDBRANCH   3   4
ENDBRANCH   2   3
ENDBRANCH   1   2
BRANCH   1  24
ATOM     24  N   UNL A   1      39.950  23.931  26.120  1.00  0.00    -0.352 N 
ATOM     25  C   UNL A   1      41.033  24.708  26.452  1.00  0.00     0.251 C 
ATOM     26  H   UNL A   1      40.153  23.146  25.561  1.00  0.00     0.163 HD
ATOM     27  O   UNL A   1      42.095  24.542  25.860  1.00  0.00    -0.269 OA
BRANCH  25  28
ATOM     28  C   UNL A   1      40.922  25.739  27.507  1.00  0.00     0.039 A 
ATOM     29  C   UNL A   1      39.919  25.613  28.473  1.00  0.00     0.014 A 
ATOM     30  C   UNL A   1      41.769  26.851  27.519  1.00  0.00     0.014 A 
ATOM     31  C   UNL A   1      39.798  26.575  29.480  1.00  0.00     0.010 A 
ATOM     32  C   UNL A   1      41.690  27.771  28.560  1.00  0.00     0.010 A 
ATOM     33  C   UNL A   1      40.698  27.649  29.546  1.00  0.00    -0.014 A 
BRANCH  33  34
ATOM     34  C   UNL A   1      40.616  28.670  30.622  1.00  0.00     0.031 A 
ATOM     35  C   UNL A   1      41.490  28.547  31.841  1.00  0.00     0.074 A 
ATOM     36  C   UNL A   1      39.701  29.657  30.539  1.00  0.00     0.049 A 
ATOM     37  N   UNL A   1      41.483  29.256  32.939  1.00  0.00    -0.248 NA
ATOM     38  C   UNL A   1      42.484  27.461  31.835  1.00  0.00     0.031 C 
ATOM     39  C   UNL A   1      38.775  29.859  29.424  1.00  0.00     0.029 A 
ATOM     40  N   UNL A   1      39.387  30.663  31.418  1.00  0.00    -0.354 N 
ATOM     41  C   UNL A   1      42.451  28.692  33.762  1.00  0.00     0.074 A 
ATOM     42  C   UNL A   1      42.993  27.553  33.054  1.00  0.00     0.031 C 
ATOM     43  C   UNL A   1      38.005  30.929  29.681  1.00  0.00     0.029 A 
ATOM     44  C   UNL A   1      38.350  31.462  30.995  1.00  0.00     0.049 A 
ATOM     45  H   UNL A   1      39.859  30.800  32.270  1.00  0.00     0.167 HD
ATOM     46  C   UNL A   1      42.864  29.098  34.987  1.00  0.00     0.037 A 
ATOM     47  C   UNL A   1      37.739  32.497  31.603  1.00  0.00     0.037 A 
ATOM     48  C   UNL A   1      42.336  30.252  35.670  1.00  0.00     0.049 A 
ATOM     49  C   UNL A   1      38.212  32.930  32.964  1.00  0.00     0.074 A 
ATOM     50  C   UNL A   1      42.722  30.780  36.889  1.00  0.00     0.029 A 
ATOM     51  N   UNL A   1      41.310  31.054  35.192  1.00  0.00    -0.354 N 
ATOM     52  N   UNL A   1      39.163  32.416  33.707  1.00  0.00    -0.248 NA
ATOM     53  C   UNL A   1      37.536  34.086  33.567  1.00  0.00     0.031 C 
ATOM     54  C   UNL A   1      41.901  31.877  37.168  1.00  0.00     0.029 A 
ATOM     55  C   UNL A   1      41.038  32.064  36.100  1.00  0.00     0.049 A 
ATOM     56  H   UNL A   1      40.844  30.925  34.335  1.00  0.00     0.167 HD
ATOM     57  C   UNL A   1      39.222  33.206  34.850  1.00  0.00     0.074 A 
ATOM     58  C   UNL A   1      38.212  34.234  34.699  1.00  0.00     0.031 C 
ATOM     59  C   UNL A   1      40.041  33.091  35.925  1.00  0.00     0.037 A 
BRANCH  46  60
ATOM     60  C   UNL A   1      43.936  28.290  35.667  1.00  0.00     0.058 A 
ATOM     61  C   UNL A   1      43.623  27.249  36.556  1.00  0.00     0.135 A 
ATOM     62  C   UNL A   1      45.293  28.541  35.406  1.00  0.00     0.135 A 
ATOM     63  F   UNL A   1      42.342  26.974  36.852  1.00  0.00    -0.206 F 
ATOM     64  C   UNL A   1      44.617  26.509  37.189  1.00  0.00     0.059 A 
ATOM     65  C   UNL A   1      46.302  27.793  36.005  1.00  0.00     0.059 A 
ATOM     66  F   UNL A   1      45.651  29.522  34.564  1.00  0.00    -0.206 F 
ATOM     67  C   UNL A   1      45.954  26.790  36.909  1.00  0.00     0.060 A 
BRANCH  67  68
ATOM     68  S   UNL A   1      47.231  25.823  37.742  1.00  0.00     0.124 S 
ATOM     69  O   UNL A   1      46.425  24.952  38.592  1.00  0.00    -0.237 OA
ATOM     70  O   UNL A   1      47.906  25.169  36.626  1.00  0.00    -0.237 OA
ATOM     71  O   UNL A   1      48.018  26.832  38.443  1.00  0.00    -0.744 OA
ENDBRANCH  67  68
ENDBRANCH  46  60
BRANCH  47  72
ATOM     72  C   UNL A   1      36.624  33.204  30.917  1.00  0.00     0.058 A 
ATOM     73  C   UNL A   1      35.300  33.058  31.357  1.00  0.00     0.135 A 
ATOM     74  C   UNL A   1      36.861  34.055  29.826  1.00  0.00     0.135 A 
ATOM     75  F   UNL A   1      35.023  32.250  32.392  1.00  0.00    -0.206 F 
ATOM     76  C   UNL A   1      34.248  33.722  30.734  1.00  0.00     0.059 A 
ATOM     77  C   UNL A   1      35.828  34.749  29.203  1.00  0.00     0.059 A 
ATOM     78  F   UNL A   1      38.111  34.242  29.377  1.00  0.00    -0.206 F 
ATOM     79  C   UNL A   1      34.523  34.569  29.659  1.00  0.00     0.060 A 
BRANCH  79  80
ATOM     80  S   UNL A   1      33.156  35.469  28.895  1.00  0.00     0.124 S 
ATOM     81  O   UNL A   1      33.866  36.498  28.145  1.00  0.00    -0.237 OA
ATOM     82  O   UNL A   1      32.512  34.429  28.099  1.00  0.00    -0.237 OA
ATOM     83  O   UNL A   1      32.383  35.940  30.040  1.00  0.00    -0.744 OA
ENDBRANCH  79  80
ENDBRANCH  47  72
BRANCH  59  84
ATOM     84  C   UNL A   1      39.921  34.130  37.006  1.00  0.00     0.058 A 
ATOM     85  C   UNL A   1      40.597  35.357  36.932  1.00  0.00     0.135 A 
ATOM     86  C   UNL A   1      39.057  33.919  38.093  1.00  0.00     0.135 A 
ATOM     87  F   UNL A   1      41.440  35.604  35.918  1.00  0.00    -0.206 F 
ATOM     88  C   UNL A   1      40.432  36.335  37.907  1.00  0.00     0.059 A 
ATOM     89  C   UNL A   1      38.855  34.894  39.065  1.00  0.00     0.059 A 
ATOM     90  F   UNL A   1      38.381  32.766  38.206  1.00  0.00    -0.206 F 
ATOM     91  C   UNL A   1      39.554  36.097  38.967  1.00  0.00     0.060 A 
BRANCH  91  92
ATOM     92  S   UNL A   1      39.306  37.397  40.195  1.00  0.00     0.124 S 
ATOM     93  O   UNL A   1      38.378  38.283  39.502  1.00  0.00    -0.237 OA
ATOM     94  O   UNL A   1      38.752  36.656  41.325  1.00  0.00    -0.237 OA
ATOM     95  O   UNL A   1      40.650  37.930  40.402  1.00  0.00    -0.744 OA
ENDBRANCH  91  92
ENDBRANCH  59  84
ENDBRANCH  33  34
ENDBRANCH  25  28
ENDBRANCH   1  24
TORSDOF 15
ENDMDL
