MODEL 1
REMARK VINA RESULT:     -10.6      0.000      0.000
REMARK SMILES Cc1cc(C(=O)NCCCNC(=O)c2ccc(-c3c4nc(c(-c5c(F)cc(S(=O)(=O)[O-])cc5F)c5ccc([nH]5)c(-c5c(F)cc(S(=O)(=O)[O-])cc5F)c5nc(c(-c6c(F)cc(S(=O)(=O)[O-])cc6F)c6ccc3[nH]6)C=C5)C=C4)cc2)ccc1NCCCC(=O)NC1CC1
REMARK SMILES IDX 5 1 6 2 7 3 4 5 1 6 2 7 3 8 82 9 81 10 80 11 83 12 84 14
REMARK SMILES IDX 85 15 86 16 87 17 88 18 89 19 90 21 91 22 92 23 8 24 9 25
REMARK SMILES IDX 10 26 11 27 12 28 13 30 14 31 15 32 79 33 16 34 78 35 17 36
REMARK SMILES IDX 18 37 19 38 72 39 20 40 77 41 71 42 73 43 21 44 76 45 70 46
REMARK SMILES IDX 69 47 22 49 56 50 35 51 55 52 36 53 39 54 54 55 74 56 37 57
REMARK SMILES IDX 38 58 53 60 75 61 40 62 23 63 24 64 33 65 25 66 26 67 32 68
REMARK SMILES IDX 34 69 27 70 28 71 29 72 30 73 31 74 57 75 58 76 67 77 59 78
REMARK SMILES IDX 60 79 66 80 68 81 61 82 62 83 63 84 64 85 65 86 41 87 42 88
REMARK SMILES IDX 51 89 43 90 44 91 50 92 52 93 45 94 46 95 47 96 48 97 49 98
REMARK H PARENT 7 4 83 13 89 20 11 29 73 48 39 59
REMARK Flexibility Score: inf
ROOT
ATOM      1  C   UNL A   1      36.912  22.558  24.427  1.00  0.00     0.251 C 
ATOM      2  O   UNL A   1      36.680  22.975  23.295  1.00  0.00    -0.269 OA
ATOM      3  N   UNL A   1      38.179  22.479  24.974  1.00  0.00    -0.352 N 
ATOM      4  H   UNL A   1      38.871  22.537  24.275  1.00  0.00     0.163 HD
ENDROOT
BRANCH   1   5
ATOM      5  C   UNL A   1      35.782  22.137  25.244  1.00  0.00     0.040 A 
ATOM      6  C   UNL A   1      33.126  19.467  25.394  1.00  0.00     0.046 C 
ATOM      7  C   UNL A   1      33.800  20.806  25.512  1.00  0.00    -0.027 A 
ATOM      8  C   UNL A   1      35.093  20.950  24.998  1.00  0.00     0.019 A 
ATOM      9  C   UNL A   1      33.214  21.917  26.157  1.00  0.00     0.037 A 
ATOM     10  C   UNL A   1      34.056  22.930  26.635  1.00  0.00     0.027 A 
ATOM     11  C   UNL A   1      35.365  23.005  26.231  1.00  0.00     0.016 A 
BRANCH   9  12
ATOM     12  N   UNL A   1      31.846  21.978  26.371  1.00  0.00    -0.385 N 
ATOM     13  H   UNL A   1      31.294  21.177  26.222  1.00  0.00     0.160 HD
BRANCH  12  14
ATOM     14  C   UNL A   1      31.214  23.208  26.813  1.00  0.00     0.113 C 
BRANCH  14  15
ATOM     15  C   UNL A   1      30.818  24.076  25.632  1.00  0.00     0.031 C 
BRANCH  15  16
ATOM     16  C   UNL A   1      30.019  25.325  25.994  1.00  0.00     0.102 C 
BRANCH  16  17
ATOM     17  C   UNL A   1      30.781  26.630  25.994  1.00  0.00     0.220 C 
ATOM     18  O   UNL A   1      31.267  27.059  27.047  1.00  0.00    -0.275 OA
ATOM     19  N   UNL A   1      31.008  27.338  24.852  1.00  0.00    -0.353 N 
ATOM     20  H   UNL A   1      31.688  28.043  24.940  1.00  0.00     0.163 HD
BRANCH  19  21
ATOM     21  C   UNL A   1      30.433  27.236  23.553  1.00  0.00     0.082 C 
ATOM     22  C   UNL A   1      30.654  28.387  22.596  1.00  0.00     0.027 C 
ATOM     23  C   UNL A   1      31.189  27.032  22.276  1.00  0.00     0.027 C 
ENDBRANCH  19  21
ENDBRANCH  16  17
ENDBRANCH  15  16
ENDBRANCH  14  15
ENDBRANCH  12  14
ENDBRANCH   9  12
ENDBRANCH   1   5
BRANCH   3  24
ATOM     24  C   UNL A   1      38.791  22.330  26.322  1.00  0.00     0.118 C 
BRANCH  24  25
ATOM     25  C   UNL A   1      39.715  23.511  26.936  1.00  0.00     0.042 C 
BRANCH  25  26
ATOM     26  C   UNL A   1      39.123  24.996  26.855  1.00  0.00     0.118 C 
BRANCH  26  27
ATOM     27  N   UNL A   1      39.261  26.112  27.940  1.00  0.00    -0.352 N 
ATOM     28  C   UNL A   1      39.368  27.565  27.853  1.00  0.00     0.251 C 
ATOM     29  H   UNL A   1      39.279  25.768  28.863  1.00  0.00     0.163 HD
ATOM     30  O   UNL A   1      38.317  28.172  28.120  1.00  0.00    -0.269 OA
BRANCH  28  31
ATOM     31  C   UNL A   1      40.615  28.513  27.571  1.00  0.00     0.039 A 
ATOM     32  C   UNL A   1      41.413  28.340  26.393  1.00  0.00     0.014 A 
ATOM     33  C   UNL A   1      41.153  29.448  28.448  1.00  0.00     0.014 A 
ATOM     34  C   UNL A   1      42.842  28.630  26.394  1.00  0.00     0.010 A 
ATOM     35  C   UNL A   1      42.563  29.730  28.452  1.00  0.00     0.010 A 
ATOM     36  C   UNL A   1      43.461  29.122  27.557  1.00  0.00    -0.014 A 
BRANCH  36  37
ATOM     37  C   UNL A   1      44.885  28.755  28.006  1.00  0.00     0.031 A 
ATOM     38  C   UNL A   1      45.940  29.759  28.129  1.00  0.00     0.074 A 
ATOM     39  C   UNL A   1      45.351  27.568  28.511  1.00  0.00     0.049 A 
ATOM     40  N   UNL A   1      47.138  29.637  27.653  1.00  0.00    -0.248 NA
ATOM     41  C   UNL A   1      45.726  30.932  28.954  1.00  0.00     0.031 C 
ATOM     42  C   UNL A   1      46.621  27.132  29.124  1.00  0.00     0.029 A 
ATOM     43  N   UNL A   1      44.661  26.392  28.665  1.00  0.00    -0.354 N 
ATOM     44  C   UNL A   1      47.911  30.519  28.380  1.00  0.00     0.074 A 
ATOM     45  C   UNL A   1      46.963  31.430  28.999  1.00  0.00     0.031 C 
ATOM     46  C   UNL A   1      46.674  25.778  29.165  1.00  0.00     0.029 A 
ATOM     47  C   UNL A   1      45.471  25.268  28.546  1.00  0.00     0.049 A 
ATOM     48  H   UNL A   1      43.693  26.349  28.842  1.00  0.00     0.167 HD
ATOM     49  C   UNL A   1      49.225  30.264  28.679  1.00  0.00     0.037 A 
ATOM     50  C   UNL A   1      45.285  24.436  27.469  1.00  0.00     0.037 A 
ATOM     51  C   UNL A   1      49.607  28.866  28.388  1.00  0.00     0.049 A 
ATOM     52  C   UNL A   1      46.416  24.642  26.491  1.00  0.00     0.074 A 
ATOM     53  C   UNL A   1      49.978  27.781  29.177  1.00  0.00     0.029 A 
ATOM     54  N   UNL A   1      49.358  28.320  27.138  1.00  0.00    -0.354 N 
ATOM     55  N   UNL A   1      47.529  25.225  26.832  1.00  0.00    -0.248 NA
ATOM     56  C   UNL A   1      46.392  24.311  25.067  1.00  0.00     0.031 C 
ATOM     57  C   UNL A   1      49.971  26.599  28.376  1.00  0.00     0.029 A 
ATOM     58  C   UNL A   1      49.613  26.958  27.091  1.00  0.00     0.049 A 
ATOM     59  H   UNL A   1      49.038  28.842  26.368  1.00  0.00     0.167 HD
ATOM     60  C   UNL A   1      48.280  25.493  25.731  1.00  0.00     0.074 A 
ATOM     61  C   UNL A   1      47.558  24.844  24.649  1.00  0.00     0.031 C 
ATOM     62  C   UNL A   1      49.410  26.258  25.824  1.00  0.00     0.037 A 
BRANCH  49  63
ATOM     63  C   UNL A   1      50.074  31.209  29.528  1.00  0.00     0.058 A 
ATOM     64  C   UNL A   1      50.742  32.324  28.980  1.00  0.00     0.135 A 
ATOM     65  C   UNL A   1      50.212  31.095  30.931  1.00  0.00     0.135 A 
ATOM     66  F   UNL A   1      50.581  32.679  27.699  1.00  0.00    -0.206 F 
ATOM     67  C   UNL A   1      51.572  33.165  29.730  1.00  0.00     0.059 A 
ATOM     68  C   UNL A   1      51.097  31.867  31.689  1.00  0.00     0.059 A 
ATOM     69  F   UNL A   1      49.423  30.280  31.647  1.00  0.00    -0.206 F 
ATOM     70  C   UNL A   1      51.771  32.911  31.080  1.00  0.00     0.060 A 
BRANCH  70  71
ATOM     71  S   UNL A   1      52.818  34.018  32.044  1.00  0.00     0.124 S 
ATOM     72  O   UNL A   1      54.005  34.135  31.204  1.00  0.00    -0.237 OA
ATOM     73  O   UNL A   1      51.986  35.212  32.140  1.00  0.00    -0.237 OA
ATOM     74  O   UNL A   1      53.017  33.294  33.297  1.00  0.00    -0.744 OA
ENDBRANCH  70  71
ENDBRANCH  49  63
BRANCH  50  75
ATOM     75  C   UNL A   1      43.805  24.138  27.101  1.00  0.00     0.058 A 
ATOM     76  C   UNL A   1      43.571  24.148  25.709  1.00  0.00     0.135 A 
ATOM     77  C   UNL A   1      43.326  22.994  27.709  1.00  0.00     0.135 A 
ATOM     78  F   UNL A   1      43.385  25.315  25.080  1.00  0.00    -0.206 F 
ATOM     79  C   UNL A   1      43.655  22.979  24.941  1.00  0.00     0.059 A 
ATOM     80  C   UNL A   1      43.422  21.818  26.954  1.00  0.00     0.059 A 
ATOM     81  F   UNL A   1      43.312  22.905  29.051  1.00  0.00    -0.206 F 
ATOM     82  C   UNL A   1      43.795  21.789  25.623  1.00  0.00     0.060 A 
BRANCH  82  83
ATOM     83  S   UNL A   1      44.789  20.269  24.884  1.00  0.00     0.124 S 
ATOM     84  O   UNL A   1      44.082  19.181  25.491  1.00  0.00    -0.237 OA
ATOM     85  O   UNL A   1      44.575  20.315  23.442  1.00  0.00    -0.237 OA
ATOM     86  O   UNL A   1      46.172  20.406  25.299  1.00  0.00    -0.744 OA
ENDBRANCH  82  83
ENDBRANCH  50  75
BRANCH  62  87
ATOM     87  C   UNL A   1      50.405  26.451  24.713  1.00  0.00     0.058 A 
ATOM     88  C   UNL A   1      51.742  26.032  24.808  1.00  0.00     0.135 A 
ATOM     89  C   UNL A   1      50.086  27.203  23.556  1.00  0.00     0.135 A 
ATOM     90  F   UNL A   1      52.210  25.452  25.924  1.00  0.00    -0.206 F 
ATOM     91  C   UNL A   1      52.659  26.232  23.778  1.00  0.00     0.059 A 
ATOM     92  C   UNL A   1      50.994  27.452  22.538  1.00  0.00     0.059 A 
ATOM     93  F   UNL A   1      48.875  27.734  23.354  1.00  0.00    -0.206 F 
ATOM     94  C   UNL A   1      52.269  26.929  22.638  1.00  0.00     0.060 A 
BRANCH  94  95
ATOM     95  S   UNL A   1      53.442  27.169  21.299  1.00  0.00     0.124 S 
ATOM     96  O   UNL A   1      52.852  26.379  20.222  1.00  0.00    -0.237 OA
ATOM     97  O   UNL A   1      53.387  28.618  21.124  1.00  0.00    -0.237 OA
ATOM     98  O   UNL A   1      54.693  26.649  21.839  1.00  0.00    -0.744 OA
ENDBRANCH  94  95
ENDBRANCH  62  87
ENDBRANCH  36  37
ENDBRANCH  28  31
ENDBRANCH  26  27
ENDBRANCH  25  26
ENDBRANCH  24  25
ENDBRANCH   3  24
TORSDOF 19
ENDMDL
MODEL 2
REMARK VINA RESULT:     -10.3      5.219     10.850
REMARK SMILES Cc1cc(C(=O)NCCCNC(=O)c2ccc(-c3c4nc(c(-c5c(F)cc(S(=O)(=O)[O-])cc5F)c5ccc([nH]5)c(-c5c(F)cc(S(=O)(=O)[O-])cc5F)c5nc(c(-c6c(F)cc(S(=O)(=O)[O-])cc6F)c6ccc3[nH]6)C=C5)C=C4)cc2)ccc1NCCCC(=O)NC1CC1
REMARK SMILES IDX 5 1 6 2 7 3 4 5 1 6 2 7 3 8 82 9 81 10 80 11 83 12 84 14
REMARK SMILES IDX 85 15 86 16 87 17 88 18 89 19 90 21 91 22 92 23 8 24 9 25
REMARK SMILES IDX 10 26 11 27 12 28 13 30 14 31 15 32 79 33 16 34 78 35 17 36
REMARK SMILES IDX 18 37 19 38 72 39 20 40 77 41 71 42 73 43 21 44 76 45 70 46
REMARK SMILES IDX 69 47 22 49 56 50 35 51 55 52 36 53 39 54 54 55 74 56 37 57
REMARK SMILES IDX 38 58 53 60 75 61 40 62 23 63 24 64 33 65 25 66 26 67 32 68
REMARK SMILES IDX 34 69 27 70 28 71 29 72 30 73 31 74 57 75 58 76 67 77 59 78
REMARK SMILES IDX 60 79 66 80 68 81 61 82 62 83 63 84 64 85 65 86 41 87 42 88
REMARK SMILES IDX 51 89 43 90 44 91 50 92 52 93 45 94 46 95 47 96 48 97 49 98
REMARK H PARENT 7 4 83 13 89 20 11 29 73 48 39 59
REMARK Flexibility Score: inf
ROOT
ATOM      1  C   UNL A   1      30.285  29.093  23.044  1.00  0.00     0.251 C 
ATOM      2  O   UNL A   1      29.649  29.492  22.072  1.00  0.00    -0.269 OA
ATOM      3  N   UNL A   1      30.883  29.929  23.969  1.00  0.00    -0.352 N 
ATOM      4  H   UNL A   1      30.965  30.845  23.618  1.00  0.00     0.163 HD
ENDROOT
BRANCH   1   5
ATOM      5  C   UNL A   1      30.404  27.655  23.239  1.00  0.00     0.040 A 
ATOM      6  C   UNL A   1      29.977  25.029  25.909  1.00  0.00     0.046 C 
ATOM      7  C   UNL A   1      30.528  25.767  24.719  1.00  0.00    -0.027 A 
ATOM      8  C   UNL A   1      30.014  27.035  24.425  1.00  0.00     0.019 A 
ATOM      9  C   UNL A   1      31.506  25.229  23.856  1.00  0.00     0.037 A 
ATOM     10  C   UNL A   1      31.605  25.748  22.558  1.00  0.00     0.027 A 
ATOM     11  C   UNL A   1      30.997  26.932  22.225  1.00  0.00     0.016 A 
BRANCH   9  12
ATOM     12  N   UNL A   1      32.308  24.172  24.255  1.00  0.00    -0.385 N 
ATOM     13  H   UNL A   1      33.133  24.352  24.762  1.00  0.00     0.160 HD
BRANCH  12  14
ATOM     14  C   UNL A   1      31.949  22.802  23.938  1.00  0.00     0.113 C 
BRANCH  14  15
ATOM     15  C   UNL A   1      33.169  21.900  23.945  1.00  0.00     0.031 C 
BRANCH  15  16
ATOM     16  C   UNL A   1      32.875  20.423  24.197  1.00  0.00     0.102 C 
BRANCH  16  17
ATOM     17  C   UNL A   1      33.134  19.919  25.597  1.00  0.00     0.220 C 
ATOM     18  O   UNL A   1      33.454  20.713  26.489  1.00  0.00    -0.275 OA
ATOM     19  N   UNL A   1      32.973  18.609  25.938  1.00  0.00    -0.353 N 
ATOM     20  H   UNL A   1      32.959  18.441  26.907  1.00  0.00     0.163 HD
BRANCH  19  21
ATOM     21  C   UNL A   1      32.821  17.441  25.138  1.00  0.00     0.082 C 
ATOM     22  C   UNL A   1      33.863  16.354  25.278  1.00  0.00     0.027 C 
ATOM     23  C   UNL A   1      32.443  16.081  25.639  1.00  0.00     0.027 C 
ENDBRANCH  19  21
ENDBRANCH  16  17
ENDBRANCH  15  16
ENDBRANCH  14  15
ENDBRANCH  12  14
ENDBRANCH   9  12
ENDBRANCH   1   5
BRANCH   3  24
ATOM     24  C   UNL A   1      31.436  29.832  25.348  1.00  0.00     0.118 C 
BRANCH  24  25
ATOM     25  C   UNL A   1      31.475  31.136  26.308  1.00  0.00     0.042 C 
BRANCH  25  26
ATOM     26  C   UNL A   1      32.814  31.358  27.156  1.00  0.00     0.118 C 
BRANCH  26  27
ATOM     27  N   UNL A   1      34.222  30.756  26.844  1.00  0.00    -0.352 N 
ATOM     28  C   UNL A   1      35.117  29.891  27.607  1.00  0.00     0.251 C 
ATOM     29  H   UNL A   1      34.576  31.011  25.960  1.00  0.00     0.163 HD
ATOM     30  O   UNL A   1      35.113  28.703  27.242  1.00  0.00    -0.269 OA
BRANCH  28  31
ATOM     31  C   UNL A   1      36.167  30.216  28.758  1.00  0.00     0.039 A 
ATOM     32  C   UNL A   1      36.963  31.407  28.705  1.00  0.00     0.014 A 
ATOM     33  C   UNL A   1      36.544  29.367  29.792  1.00  0.00     0.014 A 
ATOM     34  C   UNL A   1      38.316  31.441  29.248  1.00  0.00     0.010 A 
ATOM     35  C   UNL A   1      37.880  29.397  30.323  1.00  0.00     0.010 A 
ATOM     36  C   UNL A   1      38.857  30.300  29.867  1.00  0.00    -0.014 A 
BRANCH  36  37
ATOM     37  C   UNL A   1      40.332  29.875  29.772  1.00  0.00     0.031 A 
ATOM     38  C   UNL A   1      40.726  28.557  29.281  1.00  0.00     0.074 A 
ATOM     39  C   UNL A   1      41.461  30.637  29.933  1.00  0.00     0.049 A 
ATOM     40  N   UNL A   1      41.581  27.775  29.861  1.00  0.00    -0.248 NA
ATOM     41  C   UNL A   1      40.265  28.103  27.983  1.00  0.00     0.031 C 
ATOM     42  C   UNL A   1      42.902  30.409  29.714  1.00  0.00     0.029 A 
ATOM     43  N   UNL A   1      41.537  31.959  30.295  1.00  0.00    -0.354 N 
ATOM     44  C   UNL A   1      42.018  26.916  28.873  1.00  0.00     0.074 A 
ATOM     45  C   UNL A   1      41.026  27.020  27.816  1.00  0.00     0.031 C 
ATOM     46  C   UNL A   1      43.622  31.382  30.324  1.00  0.00     0.029 A 
ATOM     47  C   UNL A   1      42.695  32.260  31.003  1.00  0.00     0.049 A 
ATOM     48  H   UNL A   1      40.845  32.624  30.076  1.00  0.00     0.167 HD
ATOM     49  C   UNL A   1      43.298  26.424  28.847  1.00  0.00     0.037 A 
ATOM     50  C   UNL A   1      42.583  32.617  32.325  1.00  0.00     0.037 A 
ATOM     51  C   UNL A   1      44.188  27.123  29.799  1.00  0.00     0.049 A 
ATOM     52  C   UNL A   1      43.050  31.467  33.183  1.00  0.00     0.074 A 
ATOM     53  C   UNL A   1      45.290  27.961  29.654  1.00  0.00     0.029 A 
ATOM     54  N   UNL A   1      43.826  27.249  31.131  1.00  0.00    -0.354 N 
ATOM     55  N   UNL A   1      43.773  30.495  32.705  1.00  0.00    -0.248 NA
ATOM     56  C   UNL A   1      42.701  31.244  34.586  1.00  0.00     0.031 C 
ATOM     57  C   UNL A   1      45.586  28.561  30.915  1.00  0.00     0.029 A 
ATOM     58  C   UNL A   1      44.681  28.078  31.840  1.00  0.00     0.049 A 
ATOM     59  H   UNL A   1      43.047  26.798  31.529  1.00  0.00     0.167 HD
ATOM     60  C   UNL A   1      43.863  29.483  33.608  1.00  0.00     0.074 A 
ATOM     61  C   UNL A   1      43.229  30.022  34.800  1.00  0.00     0.031 C 
ATOM     62  C   UNL A   1      44.424  28.285  33.263  1.00  0.00     0.037 A 
BRANCH  49  63
ATOM     63  C   UNL A   1      43.807  25.515  27.730  1.00  0.00     0.058 A 
ATOM     64  C   UNL A   1      43.728  24.109  27.803  1.00  0.00     0.135 A 
ATOM     65  C   UNL A   1      44.336  25.993  26.508  1.00  0.00     0.135 A 
ATOM     66  F   UNL A   1      43.101  23.493  28.814  1.00  0.00    -0.206 F 
ATOM     67  C   UNL A   1      44.243  23.259  26.818  1.00  0.00     0.059 A 
ATOM     68  C   UNL A   1      44.932  25.171  25.546  1.00  0.00     0.059 A 
ATOM     69  F   UNL A   1      44.219  27.281  26.151  1.00  0.00    -0.206 F 
ATOM     70  C   UNL A   1      44.874  23.798  25.705  1.00  0.00     0.060 A 
BRANCH  70  71
ATOM     71  S   UNL A   1      45.507  22.696  24.427  1.00  0.00     0.124 S 
ATOM     72  O   UNL A   1      46.527  23.518  23.783  1.00  0.00    -0.237 OA
ATOM     73  O   UNL A   1      46.001  21.572  25.215  1.00  0.00    -0.237 OA
ATOM     74  O   UNL A   1      44.333  22.413  23.606  1.00  0.00    -0.744 OA
ENDBRANCH  70  71
ENDBRANCH  49  63
BRANCH  50  75
ATOM     75  C   UNL A   1      41.417  33.589  32.659  1.00  0.00     0.058 A 
ATOM     76  C   UNL A   1      40.751  33.257  33.858  1.00  0.00     0.135 A 
ATOM     77  C   UNL A   1      41.802  34.915  32.618  1.00  0.00     0.135 A 
ATOM     78  F   UNL A   1      39.814  32.300  33.849  1.00  0.00    -0.206 F 
ATOM     79  C   UNL A   1      41.130  33.810  35.088  1.00  0.00     0.059 A 
ATOM     80  C   UNL A   1      42.200  35.471  33.841  1.00  0.00     0.059 A 
ATOM     81  F   UNL A   1      42.292  35.435  31.478  1.00  0.00    -0.206 F 
ATOM     82  C   UNL A   1      42.059  34.829  35.057  1.00  0.00     0.060 A 
BRANCH  82  83
ATOM     83  S   UNL A   1      43.351  35.112  36.505  1.00  0.00     0.124 S 
ATOM     84  O   UNL A   1      44.110  33.902  36.411  1.00  0.00    -0.237 OA
ATOM     85  O   UNL A   1      44.139  36.276  36.116  1.00  0.00    -0.237 OA
ATOM     86  O   UNL A   1      42.602  35.269  37.737  1.00  0.00    -0.744 OA
ENDBRANCH  82  83
ENDBRANCH  50  75
BRANCH  62  87
ATOM     87  C   UNL A   1      44.743  27.179  34.233  1.00  0.00     0.058 A 
ATOM     88  C   UNL A   1      46.054  26.872  34.631  1.00  0.00     0.135 A 
ATOM     89  C   UNL A   1      43.745  26.285  34.689  1.00  0.00     0.135 A 
ATOM     90  F   UNL A   1      47.106  27.545  34.139  1.00  0.00    -0.206 F 
ATOM     91  C   UNL A   1      46.338  25.834  35.517  1.00  0.00     0.059 A 
ATOM     92  C   UNL A   1      44.009  25.219  35.536  1.00  0.00     0.059 A 
ATOM     93  F   UNL A   1      42.459  26.400  34.337  1.00  0.00    -0.206 F 
ATOM     94  C   UNL A   1      45.304  25.024  35.978  1.00  0.00     0.060 A 
BRANCH  94  95
ATOM     95  S   UNL A   1      45.663  23.699  37.137  1.00  0.00     0.124 S 
ATOM     96  O   UNL A   1      47.119  23.752  37.231  1.00  0.00    -0.237 OA
ATOM     97  O   UNL A   1      44.935  24.148  38.322  1.00  0.00    -0.237 OA
ATOM     98  O   UNL A   1      45.124  22.512  36.482  1.00  0.00    -0.744 OA
ENDBRANCH  94  95
ENDBRANCH  62  87
ENDBRANCH  36  37
ENDBRANCH  28  31
ENDBRANCH  26  27
ENDBRANCH  25  26
ENDBRANCH  24  25
ENDBRANCH   3  24
TORSDOF 19
ENDMDL
MODEL 3
REMARK VINA RESULT:     -10.3      5.428      8.725
REMARK SMILES Cc1cc(C(=O)NCCCNC(=O)c2ccc(-c3c4nc(c(-c5c(F)cc(S(=O)(=O)[O-])cc5F)c5ccc([nH]5)c(-c5c(F)cc(S(=O)(=O)[O-])cc5F)c5nc(c(-c6c(F)cc(S(=O)(=O)[O-])cc6F)c6ccc3[nH]6)C=C5)C=C4)cc2)ccc1NCCCC(=O)NC1CC1
REMARK SMILES IDX 5 1 6 2 7 3 4 5 1 6 2 7 3 8 82 9 81 10 80 11 83 12 84 14
REMARK SMILES IDX 85 15 86 16 87 17 88 18 89 19 90 21 91 22 92 23 8 24 9 25
REMARK SMILES IDX 10 26 11 27 12 28 13 30 14 31 15 32 79 33 16 34 78 35 17 36
REMARK SMILES IDX 18 37 19 38 72 39 20 40 77 41 71 42 73 43 21 44 76 45 70 46
REMARK SMILES IDX 69 47 22 49 56 50 35 51 55 52 36 53 39 54 54 55 74 56 37 57
REMARK SMILES IDX 38 58 53 60 75 61 40 62 23 63 24 64 33 65 25 66 26 67 32 68
REMARK SMILES IDX 34 69 27 70 28 71 29 72 30 73 31 74 57 75 58 76 67 77 59 78
REMARK SMILES IDX 60 79 66 80 68 81 61 82 62 83 63 84 64 85 65 86 41 87 42 88
REMARK SMILES IDX 51 89 43 90 44 91 50 92 52 93 45 94 46 95 47 96 48 97 49 98
REMARK H PARENT 7 4 83 13 89 20 11 29 73 48 39 59
REMARK Flexibility Score: inf
ROOT
ATOM      1  C   UNL A   1      40.531  27.893  27.819  1.00  0.00     0.251 C 
ATOM      2  O   UNL A   1      40.968  28.575  26.896  1.00  0.00    -0.269 OA
ATOM      3  N   UNL A   1      39.690  28.378  28.804  1.00  0.00    -0.352 N 
ATOM      4  H   UNL A   1      39.703  29.361  28.829  1.00  0.00     0.163 HD
ENDROOT
BRANCH   1   5
ATOM      5  C   UNL A   1      40.911  26.488  27.869  1.00  0.00     0.040 A 
ATOM      6  C   UNL A   1      43.651  24.253  29.174  1.00  0.00     0.046 C 
ATOM      7  C   UNL A   1      42.574  24.804  28.280  1.00  0.00    -0.027 A 
ATOM      8  C   UNL A   1      42.014  26.046  28.599  1.00  0.00     0.019 A 
ATOM      9  C   UNL A   1      42.067  24.114  27.158  1.00  0.00     0.037 A 
ATOM     10  C   UNL A   1      40.792  24.454  26.688  1.00  0.00     0.027 A 
ATOM     11  C   UNL A   1      40.178  25.613  27.094  1.00  0.00     0.016 A 
BRANCH   9  12
ATOM     12  N   UNL A   1      42.781  23.080  26.572  1.00  0.00    -0.385 N 
ATOM     13  H   UNL A   1      43.763  23.076  26.628  1.00  0.00     0.160 HD
BRANCH  12  14
ATOM     14  C   UNL A   1      42.100  22.003  25.878  1.00  0.00     0.113 C 
BRANCH  14  15
ATOM     15  C   UNL A   1      42.105  20.729  26.702  1.00  0.00     0.031 C 
BRANCH  15  16
ATOM     16  C   UNL A   1      42.154  19.438  25.890  1.00  0.00     0.102 C 
BRANCH  16  17
ATOM     17  C   UNL A   1      43.298  18.500  26.194  1.00  0.00     0.220 C 
ATOM     18  O   UNL A   1      43.147  17.592  27.020  1.00  0.00    -0.275 OA
ATOM     19  N   UNL A   1      44.494  18.579  25.545  1.00  0.00    -0.353 N 
ATOM     20  H   UNL A   1      45.075  17.794  25.669  1.00  0.00     0.163 HD
BRANCH  19  21
ATOM     21  C   UNL A   1      45.050  19.596  24.719  1.00  0.00     0.082 C 
ATOM     22  C   UNL A   1      45.627  20.817  25.402  1.00  0.00     0.027 C 
ATOM     23  C   UNL A   1      46.507  19.923  24.596  1.00  0.00     0.027 C 
ENDBRANCH  19  21
ENDBRANCH  16  17
ENDBRANCH  15  16
ENDBRANCH  14  15
ENDBRANCH  12  14
ENDBRANCH   9  12
ENDBRANCH   1   5
BRANCH   3  24
ATOM     24  C   UNL A   1      38.769  27.828  29.836  1.00  0.00     0.118 C 
BRANCH  24  25
ATOM     25  C   UNL A   1      39.219  27.779  31.391  1.00  0.00     0.042 C 
BRANCH  25  26
ATOM     26  C   UNL A   1      38.042  27.815  32.476  1.00  0.00     0.118 C 
BRANCH  26  27
ATOM     27  N   UNL A   1      37.512  29.078  33.230  1.00  0.00    -0.352 N 
ATOM     28  C   UNL A   1      37.348  30.471  32.826  1.00  0.00     0.251 C 
ATOM     29  H   UNL A   1      37.235  28.899  34.158  1.00  0.00     0.163 HD
ATOM     30  O   UNL A   1      36.178  30.791  32.557  1.00  0.00    -0.269 OA
BRANCH  28  31
ATOM     31  C   UNL A   1      38.384  31.677  32.761  1.00  0.00     0.039 A 
ATOM     32  C   UNL A   1      38.626  32.368  31.528  1.00  0.00     0.014 A 
ATOM     33  C   UNL A   1      39.252  32.073  33.772  1.00  0.00     0.014 A 
ATOM     34  C   UNL A   1      39.933  32.932  31.216  1.00  0.00     0.010 A 
ATOM     35  C   UNL A   1      40.543  32.625  33.465  1.00  0.00     0.010 A 
ATOM     36  C   UNL A   1      40.984  32.834  32.145  1.00  0.00    -0.014 A 
BRANCH  36  37
ATOM     37  C   UNL A   1      42.460  32.624  31.771  1.00  0.00     0.031 A 
ATOM     38  C   UNL A   1      43.024  33.143  30.527  1.00  0.00     0.074 A 
ATOM     39  C   UNL A   1      43.481  32.126  32.539  1.00  0.00     0.049 A 
ATOM     40  N   UNL A   1      43.761  32.463  29.707  1.00  0.00    -0.248 NA
ATOM     41  C   UNL A   1      42.897  34.553  30.211  1.00  0.00     0.031 C 
ATOM     42  C   UNL A   1      44.945  32.023  32.373  1.00  0.00     0.029 A 
ATOM     43  N   UNL A   1      43.405  31.620  33.812  1.00  0.00    -0.354 N 
ATOM     44  C   UNL A   1      44.457  33.405  28.976  1.00  0.00     0.074 A 
ATOM     45  C   UNL A   1      43.731  34.648  29.173  1.00  0.00     0.031 C 
ATOM     46  C   UNL A   1      45.454  31.163  33.289  1.00  0.00     0.029 A 
ATOM     47  C   UNL A   1      44.352  30.633  34.062  1.00  0.00     0.049 A 
ATOM     48  H   UNL A   1      42.749  31.925  34.480  1.00  0.00     0.167 HD
ATOM     49  C   UNL A   1      45.732  33.181  28.523  1.00  0.00     0.037 A 
ATOM     50  C   UNL A   1      43.920  29.344  34.264  1.00  0.00     0.037 A 
ATOM     51  C   UNL A   1      46.342  31.980  29.132  1.00  0.00     0.049 A 
ATOM     52  C   UNL A   1      44.235  28.525  33.036  1.00  0.00     0.074 A 
ATOM     53  C   UNL A   1      47.403  31.775  30.009  1.00  0.00     0.029 A 
ATOM     54  N   UNL A   1      45.677  30.765  29.098  1.00  0.00    -0.354 N 
ATOM     55  N   UNL A   1      45.097  28.918  32.143  1.00  0.00    -0.248 NA
ATOM     56  C   UNL A   1      43.585  27.274  32.648  1.00  0.00     0.031 C 
ATOM     57  C   UNL A   1      47.370  30.424  30.470  1.00  0.00     0.029 A 
ATOM     58  C   UNL A   1      46.302  29.793  29.863  1.00  0.00     0.049 A 
ATOM     59  H   UNL A   1      44.851  30.609  28.585  1.00  0.00     0.167 HD
ATOM     60  C   UNL A   1      45.029  28.129  31.038  1.00  0.00     0.074 A 
ATOM     61  C   UNL A   1      44.110  27.070  31.423  1.00  0.00     0.031 C 
ATOM     62  C   UNL A   1      45.715  28.456  29.901  1.00  0.00     0.037 A 
BRANCH  49  63
ATOM     63  C   UNL A   1      46.530  34.236  27.759  1.00  0.00     0.058 A 
ATOM     64  C   UNL A   1      46.426  34.398  26.362  1.00  0.00     0.135 A 
ATOM     65  C   UNL A   1      47.384  35.178  28.379  1.00  0.00     0.135 A 
ATOM     66  F   UNL A   1      45.538  33.705  25.639  1.00  0.00    -0.206 F 
ATOM     67  C   UNL A   1      47.194  35.317  25.637  1.00  0.00     0.059 A 
ATOM     68  C   UNL A   1      48.222  36.048  27.676  1.00  0.00     0.059 A 
ATOM     69  F   UNL A   1      47.378  35.357  29.709  1.00  0.00    -0.206 F 
ATOM     70  C   UNL A   1      48.115  36.118  26.298  1.00  0.00     0.060 A 
BRANCH  70  71
ATOM     71  S   UNL A   1      49.077  37.320  25.361  1.00  0.00     0.124 S 
ATOM     72  O   UNL A   1      48.069  38.309  24.994  1.00  0.00    -0.237 OA
ATOM     73  O   UNL A   1      50.063  37.751  26.346  1.00  0.00    -0.237 OA
ATOM     74  O   UNL A   1      49.610  36.538  24.248  1.00  0.00    -0.744 OA
ENDBRANCH  70  71
ENDBRANCH  49  63
BRANCH  50  75
ATOM     75  C   UNL A   1      42.661  29.194  35.162  1.00  0.00     0.058 A 
ATOM     76  C   UNL A   1      41.632  28.451  34.546  1.00  0.00     0.135 A 
ATOM     77  C   UNL A   1      42.963  28.731  36.427  1.00  0.00     0.135 A 
ATOM     78  F   UNL A   1      40.813  29.055  33.675  1.00  0.00    -0.206 F 
ATOM     79  C   UNL A   1      41.519  27.066  34.720  1.00  0.00     0.059 A 
ATOM     80  C   UNL A   1      42.870  27.344  36.606  1.00  0.00     0.059 A 
ATOM     81  F   UNL A   1      43.797  29.432  37.216  1.00  0.00    -0.206 F 
ATOM     82  C   UNL A   1      42.342  26.483  35.661  1.00  0.00     0.060 A 
BRANCH  82  83
ATOM     83  S   UNL A   1      43.018  24.652  35.471  1.00  0.00     0.124 S 
ATOM     84  O   UNL A   1      41.787  23.921  35.500  1.00  0.00    -0.237 OA
ATOM     85  O   UNL A   1      43.650  24.594  34.159  1.00  0.00    -0.237 OA
ATOM     86  O   UNL A   1      43.908  24.395  36.587  1.00  0.00    -0.744 OA
ENDBRANCH  82  83
ENDBRANCH  50  75
BRANCH  62  87
ATOM     87  C   UNL A   1      45.857  27.558  28.702  1.00  0.00     0.058 A 
ATOM     88  C   UNL A   1      45.021  27.655  27.578  1.00  0.00     0.135 A 
ATOM     89  C   UNL A   1      46.754  26.463  28.699  1.00  0.00     0.135 A 
ATOM     90  F   UNL A   1      44.021  28.550  27.529  1.00  0.00    -0.206 F 
ATOM     91  C   UNL A   1      45.151  26.807  26.479  1.00  0.00     0.059 A 
ATOM     92  C   UNL A   1      46.870  25.580  27.636  1.00  0.00     0.059 A 
ATOM     93  F   UNL A   1      47.565  26.193  29.729  1.00  0.00    -0.206 F 
ATOM     94  C   UNL A   1      46.093  25.782  26.512  1.00  0.00     0.060 A 
BRANCH  94  95
ATOM     95  S   UNL A   1      46.279  24.701  25.090  1.00  0.00     0.124 S 
ATOM     96  O   UNL A   1      47.013  23.570  25.651  1.00  0.00    -0.237 OA
ATOM     97  O   UNL A   1      44.885  24.440  24.741  1.00  0.00    -0.237 OA
ATOM     98  O   UNL A   1      47.024  25.514  24.134  1.00  0.00    -0.744 OA
ENDBRANCH  94  95
ENDBRANCH  62  87
ENDBRANCH  36  37
ENDBRANCH  28  31
ENDBRANCH  26  27
ENDBRANCH  25  26
ENDBRANCH  24  25
ENDBRANCH   3  24
TORSDOF 19
ENDMDL
