MODEL 1
REMARK VINA RESULT:     -13.9      0.000      0.000
REMARK SMILES Cc1nc(-c2ccc3c(c2)CCN3S(=O)(=O)c2ccc(F)c(C(=O)NCCCNC(=O)c3ccc(-c4c5nc(c(-c6c(F)cc(S(=O)(=O)[O-])cc6F)c6ccc([nH]6)c(-c6c(F)cc(S(=O)(=O)[O-])cc6F)c6nc(c(-c7c(F)cc(S(=O)(=O)[O-])cc7F)c7ccc4[nH]7)C=C6)C=C5)cc3)c2)cs1
REMARK SMILES IDX 27 1 26 2 25 3 23 4 24 5 22 7 17 8 18 9 98 10 19 11 20 12
REMARK SMILES IDX 21 13 14 14 15 15 16 16 13 17 5 18 6 19 10 20 7 21 9 22 8 23
REMARK SMILES IDX 11 24 12 25 4 26 1 27 2 28 3 29 100 30 99 31 28 32 29 33
REMARK SMILES IDX 30 34 31 36 32 37 33 38 97 39 34 40 96 41 35 42 36 43 37 44
REMARK SMILES IDX 90 45 38 46 95 47 89 48 91 49 39 50 94 51 88 52 87 53 40 55
REMARK SMILES IDX 74 56 53 57 73 58 54 59 57 60 72 61 92 62 55 63 56 64 71 66
REMARK SMILES IDX 93 67 58 68 41 69 42 70 51 71 43 72 44 73 50 74 52 75 45 76
REMARK SMILES IDX 46 77 47 78 48 79 49 80 75 81 76 82 85 83 77 84 78 85 84 86
REMARK SMILES IDX 86 87 79 88 80 89 81 90 82 91 83 92 59 93 60 94 69 95 61 96
REMARK SMILES IDX 62 97 68 98 70 99 63 100 64 101 65 102 66 103 67 104
REMARK H PARENT 25 6 29 35 91 54 57 65
REMARK Flexibility Score: inf
ROOT
ATOM      1  C   UNL A   1      38.750  23.214  26.587  1.00  0.00     0.042 C 
ENDROOT
BRANCH   1   2
ATOM      2  C   UNL A   1      38.483  21.953  25.767  1.00  0.00     0.118 C 
BRANCH   2   3
ATOM      3  N   UNL A   1      37.887  22.256  24.480  1.00  0.00    -0.352 N 
ATOM      4  C   UNL A   1      36.624  22.465  24.005  1.00  0.00     0.254 C 
ATOM      5  O   UNL A   1      36.580  22.845  22.829  1.00  0.00    -0.269 OA
ATOM      6  H   UNL A   1      38.564  22.329  23.769  1.00  0.00     0.163 HD
BRANCH   4   7
ATOM      7  C   UNL A   1      35.325  22.297  24.725  1.00  0.00     0.076 A 
ATOM      8  C   UNL A   1      33.354  23.475  25.586  1.00  0.00     0.089 A 
ATOM      9  C   UNL A   1      32.793  22.274  26.019  1.00  0.00     0.025 A 
ATOM     10  C   UNL A   1      34.577  23.489  24.902  1.00  0.00     0.039 A 
ATOM     11  C   UNL A   1      33.521  21.103  25.869  1.00  0.00     0.041 A 
ATOM     12  C   UNL A   1      34.770  21.118  25.236  1.00  0.00     0.136 A 
ATOM     13  F   UNL A   1      35.370  19.931  25.161  1.00  0.00    -0.206 F 
BRANCH   8  14
ATOM     14  S   UNL A   1      32.500  24.974  25.983  1.00  0.00     0.264 S 
ATOM     15  O   UNL A   1      33.516  25.939  26.349  1.00  0.00    -0.201 OA
ATOM     16  O   UNL A   1      31.443  24.656  26.925  1.00  0.00    -0.201 OA
BRANCH  14  17
ATOM     17  N   UNL A   1      31.739  25.515  24.549  1.00  0.00    -0.266 N 
ATOM     18  C   UNL A   1      29.924  29.188  23.518  1.00  0.00     0.001 A 
ATOM     19  C   UNL A   1      31.158  29.232  24.184  1.00  0.00     0.012 A 
ATOM     20  C   UNL A   1      29.351  27.943  23.224  1.00  0.00     0.016 A 
ATOM     21  C   UNL A   1      31.808  28.057  24.574  1.00  0.00     0.028 A 
ATOM     22  C   UNL A   1      30.011  26.786  23.638  1.00  0.00    -0.021 A 
ATOM     23  C   UNL A   1      31.197  26.833  24.372  1.00  0.00     0.055 A 
ATOM     24  C   UNL A   1      29.697  25.383  23.226  1.00  0.00     0.060 C 
ATOM     25  C   UNL A   1      30.656  24.562  24.099  1.00  0.00     0.140 C 
BRANCH  18  26
ATOM     26  C   UNL A   1      29.343  30.436  23.055  1.00  0.00     0.081 A 
ATOM     27  C   UNL A   1      27.898  32.262  20.245  1.00  0.00     0.079 C 
ATOM     28  C   UNL A   1      28.448  31.782  21.542  1.00  0.00     0.090 A 
ATOM     29  N   UNL A   1      28.924  30.573  21.742  1.00  0.00    -0.242 NA
ATOM     30  S   UNL A   1      28.499  32.828  22.906  1.00  0.00    -0.127 S 
ATOM     31  C   UNL A   1      29.198  31.565  23.836  1.00  0.00     0.095 A 
ENDBRANCH  18  26
ENDBRANCH  14  17
ENDBRANCH   8  14
ENDBRANCH   4   7
ENDBRANCH   2   3
ENDBRANCH   1   2
BRANCH   1  32
ATOM     32  C   UNL A   1      40.233  23.385  26.933  1.00  0.00     0.118 C 
BRANCH  32  33
ATOM     33  N   UNL A   1      40.923  24.260  25.985  1.00  0.00    -0.352 N 
ATOM     34  C   UNL A   1      41.231  25.596  26.055  1.00  0.00     0.251 C 
ATOM     35  H   UNL A   1      41.216  23.816  25.157  1.00  0.00     0.163 HD
ATOM     36  O   UNL A   1      41.565  26.194  25.035  1.00  0.00    -0.269 OA
BRANCH  34  37
ATOM     37  C   UNL A   1      41.162  26.311  27.344  1.00  0.00     0.039 A 
ATOM     38  C   UNL A   1      42.193  27.184  27.699  1.00  0.00     0.014 A 
ATOM     39  C   UNL A   1      40.088  26.102  28.210  1.00  0.00     0.014 A 
ATOM     40  C   UNL A   1      42.098  27.915  28.886  1.00  0.00     0.010 A 
ATOM     41  C   UNL A   1      39.951  26.894  29.342  1.00  0.00     0.010 A 
ATOM     42  C   UNL A   1      40.951  27.814  29.689  1.00  0.00    -0.014 A 
BRANCH  42  43
ATOM     43  C   UNL A   1      40.753  28.676  30.880  1.00  0.00     0.031 A 
ATOM     44  C   UNL A   1      39.703  29.752  30.867  1.00  0.00     0.074 A 
ATOM     45  C   UNL A   1      41.581  28.545  31.936  1.00  0.00     0.049 A 
ATOM     46  N   UNL A   1      39.459  30.676  31.758  1.00  0.00    -0.248 NA
ATOM     47  C   UNL A   1      38.827  29.815  29.684  1.00  0.00     0.031 C 
ATOM     48  C   UNL A   1      42.663  27.563  32.044  1.00  0.00     0.029 A 
ATOM     49  N   UNL A   1      41.654  29.245  33.115  1.00  0.00    -0.354 N 
ATOM     50  C   UNL A   1      38.415  31.434  31.242  1.00  0.00     0.074 A 
ATOM     51  C   UNL A   1      38.108  30.900  29.935  1.00  0.00     0.031 C 
ATOM     52  C   UNL A   1      43.270  27.703  33.232  1.00  0.00     0.029 A 
ATOM     53  C   UNL A   1      42.661  28.819  33.949  1.00  0.00     0.049 A 
ATOM     54  H   UNL A   1      41.043  29.983  33.340  1.00  0.00     0.167 HD
ATOM     55  C   UNL A   1      37.756  32.465  31.821  1.00  0.00     0.037 A 
ATOM     56  C   UNL A   1      43.061  29.284  35.149  1.00  0.00     0.037 A 
ATOM     57  C   UNL A   1      38.056  32.972  33.134  1.00  0.00     0.049 A 
ATOM     58  C   UNL A   1      42.336  30.453  35.756  1.00  0.00     0.074 A 
ATOM     59  C   UNL A   1      37.413  33.978  33.831  1.00  0.00     0.029 A 
ATOM     60  N   UNL A   1      39.085  32.515  33.946  1.00  0.00    -0.354 N 
ATOM     61  N   UNL A   1      41.315  31.124  35.278  1.00  0.00    -0.248 NA
ATOM     62  C   UNL A   1      42.816  30.936  37.058  1.00  0.00     0.031 C 
ATOM     63  C   UNL A   1      38.086  34.168  35.041  1.00  0.00     0.029 A 
ATOM     64  C   UNL A   1      39.113  33.241  35.125  1.00  0.00     0.049 A 
ATOM     65  H   UNL A   1      39.703  31.784  33.717  1.00  0.00     0.167 HD
ATOM     66  C   UNL A   1      41.017  32.093  36.229  1.00  0.00     0.074 A 
ATOM     67  C   UNL A   1      41.957  31.914  37.316  1.00  0.00     0.031 C 
ATOM     68  C   UNL A   1      40.052  33.045  36.202  1.00  0.00     0.037 A 
BRANCH  55  69
ATOM     69  C   UNL A   1      36.632  33.106  31.053  1.00  0.00     0.058 A 
ATOM     70  C   UNL A   1      36.900  33.964  29.974  1.00  0.00     0.135 A 
ATOM     71  C   UNL A   1      35.291  32.930  31.431  1.00  0.00     0.135 A 
ATOM     72  F   UNL A   1      38.163  34.163  29.566  1.00  0.00    -0.206 F 
ATOM     73  C   UNL A   1      35.881  34.639  29.311  1.00  0.00     0.059 A 
ATOM     74  C   UNL A   1      34.253  33.573  30.762  1.00  0.00     0.059 A 
ATOM     75  F   UNL A   1      34.977  32.105  32.442  1.00  0.00    -0.206 F 
ATOM     76  C   UNL A   1      34.560  34.438  29.714  1.00  0.00     0.060 A 
BRANCH  76  77
ATOM     77  S   UNL A   1      33.248  35.306  28.828  1.00  0.00     0.124 S 
ATOM     78  O   UNL A   1      32.395  35.758  29.922  1.00  0.00    -0.237 OA
ATOM     79  O   UNL A   1      33.991  36.348  28.127  1.00  0.00    -0.237 OA
ATOM     80  O   UNL A   1      32.676  34.271  27.971  1.00  0.00    -0.744 OA
ENDBRANCH  76  77
ENDBRANCH  55  69
BRANCH  56  81
ATOM     81  C   UNL A   1      44.189  28.620  35.858  1.00  0.00     0.058 A 
ATOM     82  C   UNL A   1      43.965  27.602  36.798  1.00  0.00     0.135 A 
ATOM     83  C   UNL A   1      45.513  29.028  35.643  1.00  0.00     0.135 A 
ATOM     84  F   UNL A   1      42.716  27.181  37.052  1.00  0.00    -0.206 F 
ATOM     85  C   UNL A   1      45.010  27.034  37.521  1.00  0.00     0.059 A 
ATOM     86  C   UNL A   1      46.579  28.456  36.332  1.00  0.00     0.059 A 
ATOM     87  F   UNL A   1      45.778  29.990  34.745  1.00  0.00    -0.206 F 
ATOM     88  C   UNL A   1      46.314  27.472  37.284  1.00  0.00     0.060 A 
BRANCH  88  89
ATOM     89  S   UNL A   1      47.652  26.738  38.248  1.00  0.00     0.124 S 
ATOM     90  O   UNL A   1      47.384  25.312  38.080  1.00  0.00    -0.237 OA
ATOM     91  O   UNL A   1      48.835  27.246  37.562  1.00  0.00    -0.237 OA
ATOM     92  O   UNL A   1      47.431  27.264  39.590  1.00  0.00    -0.744 OA
ENDBRANCH  88  89
ENDBRANCH  56  81
BRANCH  68  93
ATOM     93  C   UNL A   1      39.942  33.971  37.382  1.00  0.00     0.058 A 
ATOM     94  C   UNL A   1      39.136  33.628  38.480  1.00  0.00     0.135 A 
ATOM     95  C   UNL A   1      40.533  35.244  37.372  1.00  0.00     0.135 A 
ATOM     96  F   UNL A   1      38.544  32.424  38.537  1.00  0.00    -0.206 F 
ATOM     97  C   UNL A   1      38.892  34.529  39.510  1.00  0.00     0.059 A 
ATOM     98  C   UNL A   1      40.324  36.150  38.406  1.00  0.00     0.059 A 
ATOM     99  F   UNL A   1      41.321  35.613  36.350  1.00  0.00    -0.206 F 
ATOM    100  C   UNL A   1      39.483  35.792  39.459  1.00  0.00     0.060 A 
BRANCH 100 101
ATOM    101  S   UNL A   1      39.129  36.959  40.790  1.00  0.00     0.124 S 
ATOM    102  O   UNL A   1      38.381  37.996  40.088  1.00  0.00    -0.237 OA
ATOM    103  O   UNL A   1      38.358  36.138  41.720  1.00  0.00    -0.237 OA
ATOM    104  O   UNL A   1      40.454  37.350  41.261  1.00  0.00    -0.744 OA
ENDBRANCH 100 101
ENDBRANCH  68  93
ENDBRANCH  42  43
ENDBRANCH  34  37
ENDBRANCH  32  33
ENDBRANCH   1  32
TORSDOF 16
ENDMDL
MODEL 2
REMARK VINA RESULT:     -13.6      6.523     12.367
REMARK SMILES Cc1nc(-c2ccc3c(c2)CCN3S(=O)(=O)c2ccc(F)c(C(=O)NCCCNC(=O)c3ccc(-c4c5nc(c(-c6c(F)cc(S(=O)(=O)[O-])cc6F)c6ccc([nH]6)c(-c6c(F)cc(S(=O)(=O)[O-])cc6F)c6nc(c(-c7c(F)cc(S(=O)(=O)[O-])cc7F)c7ccc4[nH]7)C=C6)C=C5)cc3)c2)cs1
REMARK SMILES IDX 27 1 26 2 25 3 23 4 24 5 22 7 17 8 18 9 98 10 19 11 20 12
REMARK SMILES IDX 21 13 14 14 15 15 16 16 13 17 5 18 6 19 10 20 7 21 9 22 8 23
REMARK SMILES IDX 11 24 12 25 4 26 1 27 2 28 3 29 100 30 99 31 28 32 29 33
REMARK SMILES IDX 30 34 31 36 32 37 33 38 97 39 34 40 96 41 35 42 36 43 37 44
REMARK SMILES IDX 90 45 38 46 95 47 89 48 91 49 39 50 94 51 88 52 87 53 40 55
REMARK SMILES IDX 74 56 53 57 73 58 54 59 57 60 72 61 92 62 55 63 56 64 71 66
REMARK SMILES IDX 93 67 58 68 41 69 42 70 51 71 43 72 44 73 50 74 52 75 45 76
REMARK SMILES IDX 46 77 47 78 48 79 49 80 75 81 76 82 85 83 77 84 78 85 84 86
REMARK SMILES IDX 86 87 79 88 80 89 81 90 82 91 83 92 59 93 60 94 69 95 61 96
REMARK SMILES IDX 62 97 68 98 70 99 63 100 64 101 65 102 66 103 67 104
REMARK H PARENT 25 6 29 35 91 54 57 65
REMARK Flexibility Score: inf
ROOT
ATOM      1  C   UNL A   1      34.337  31.416  27.721  1.00  0.00     0.042 C 
ENDROOT
BRANCH   1   2
ATOM      2  C   UNL A   1      34.001  30.094  27.033  1.00  0.00     0.118 C 
BRANCH   2   3
ATOM      3  N   UNL A   1      33.023  30.263  25.975  1.00  0.00    -0.352 N 
ATOM      4  C   UNL A   1      32.065  29.488  25.389  1.00  0.00     0.254 C 
ATOM      5  O   UNL A   1      31.338  30.093  24.592  1.00  0.00    -0.269 OA
ATOM      6  H   UNL A   1      33.060  31.164  25.581  1.00  0.00     0.163 HD
BRANCH   4   7
ATOM      7  C   UNL A   1      31.796  28.031  25.596  1.00  0.00     0.076 A 
ATOM      8  C   UNL A   1      31.662  25.849  24.486  1.00  0.00     0.089 A 
ATOM      9  C   UNL A   1      31.387  25.220  25.700  1.00  0.00     0.025 A 
ATOM     10  C   UNL A   1      31.916  27.226  24.435  1.00  0.00     0.039 A 
ATOM     11  C   UNL A   1      31.249  25.997  26.840  1.00  0.00     0.041 A 
ATOM     12  C   UNL A   1      31.446  27.382  26.785  1.00  0.00     0.136 A 
ATOM     13  F   UNL A   1      31.277  28.015  27.945  1.00  0.00    -0.206 F 
BRANCH   8  14
ATOM     14  S   UNL A   1      31.620  24.862  23.017  1.00  0.00     0.264 S 
ATOM     15  O   UNL A   1      31.779  25.776  21.905  1.00  0.00    -0.201 OA
ATOM     16  O   UNL A   1      30.448  24.008  23.081  1.00  0.00    -0.201 OA
BRANCH  14  17
ATOM     17  N   UNL A   1      32.986  23.832  23.063  1.00  0.00    -0.266 N 
ATOM     18  C   UNL A   1      33.462  19.813  24.274  1.00  0.00     0.001 A 
ATOM     19  C   UNL A   1      32.356  20.128  23.470  1.00  0.00     0.012 A 
ATOM     20  C   UNL A   1      34.353  20.831  24.638  1.00  0.00     0.016 A 
ATOM     21  C   UNL A   1      32.123  21.440  23.047  1.00  0.00     0.028 A 
ATOM     22  C   UNL A   1      34.090  22.135  24.218  1.00  0.00    -0.021 A 
ATOM     23  C   UNL A   1      32.947  22.460  23.486  1.00  0.00     0.055 A 
ATOM     24  C   UNL A   1      35.021  23.303  24.295  1.00  0.00     0.060 C 
ATOM     25  C   UNL A   1      34.134  24.461  23.817  1.00  0.00     0.140 C 
BRANCH  18  26
ATOM     26  C   UNL A   1      33.702  18.419  24.604  1.00  0.00     0.081 A 
ATOM     27  C   UNL A   1      32.275  15.295  25.836  1.00  0.00     0.079 C 
ATOM     28  C   UNL A   1      33.120  16.409  25.327  1.00  0.00     0.090 A 
ATOM     29  N   UNL A   1      32.675  17.622  25.082  1.00  0.00    -0.242 NA
ATOM     30  S   UNL A   1      34.794  16.162  25.023  1.00  0.00    -0.127 S 
ATOM     31  C   UNL A   1      34.931  17.797  24.514  1.00  0.00     0.095 A 
ENDBRANCH  18  26
ENDBRANCH  14  17
ENDBRANCH   8  14
ENDBRANCH   4   7
ENDBRANCH   2   3
ENDBRANCH   1   2
BRANCH   1  32
ATOM     32  C   UNL A   1      35.725  31.404  28.368  1.00  0.00     0.118 C 
BRANCH  32  33
ATOM     33  N   UNL A   1      35.693  30.882  29.734  1.00  0.00    -0.352 N 
ATOM     34  C   UNL A   1      36.603  30.125  30.430  1.00  0.00     0.251 C 
ATOM     35  H   UNL A   1      34.881  31.114  30.241  1.00  0.00     0.163 HD
ATOM     36  O   UNL A   1      36.257  29.565  31.466  1.00  0.00    -0.269 OA
BRANCH  34  37
ATOM     37  C   UNL A   1      37.987  29.985  29.937  1.00  0.00     0.039 A 
ATOM     38  C   UNL A   1      39.048  30.062  30.844  1.00  0.00     0.014 A 
ATOM     39  C   UNL A   1      38.237  29.799  28.577  1.00  0.00     0.014 A 
ATOM     40  C   UNL A   1      40.354  29.861  30.393  1.00  0.00     0.010 A 
ATOM     41  C   UNL A   1      39.524  29.510  28.146  1.00  0.00     0.010 A 
ATOM     42  C   UNL A   1      40.596  29.531  29.050  1.00  0.00    -0.014 A 
BRANCH  42  43
ATOM     43  C   UNL A   1      41.953  29.174  28.566  1.00  0.00     0.031 A 
ATOM     44  C   UNL A   1      42.261  27.759  28.160  1.00  0.00     0.074 A 
ATOM     45  C   UNL A   1      42.925  30.106  28.579  1.00  0.00     0.049 A 
ATOM     46  N   UNL A   1      43.408  27.230  27.825  1.00  0.00    -0.248 NA
ATOM     47  C   UNL A   1      41.137  26.807  28.155  1.00  0.00     0.031 C 
ATOM     48  C   UNL A   1      42.753  31.502  28.991  1.00  0.00     0.029 A 
ATOM     49  N   UNL A   1      44.256  30.024  28.250  1.00  0.00    -0.354 N 
ATOM     50  C   UNL A   1      43.148  25.887  27.581  1.00  0.00     0.074 A 
ATOM     51  C   UNL A   1      41.747  25.667  27.862  1.00  0.00     0.031 C 
ATOM     52  C   UNL A   1      43.922  32.148  28.862  1.00  0.00     0.029 A 
ATOM     53  C   UNL A   1      44.941  31.205  28.413  1.00  0.00     0.049 A 
ATOM     54  H   UNL A   1      44.679  29.196  27.927  1.00  0.00     0.167 HD
ATOM     55  C   UNL A   1      43.997  24.931  27.137  1.00  0.00     0.037 A 
ATOM     56  C   UNL A   1      46.245  31.495  28.236  1.00  0.00     0.037 A 
ATOM     57  C   UNL A   1      45.385  25.169  26.839  1.00  0.00     0.049 A 
ATOM     58  C   UNL A   1      47.176  30.408  27.777  1.00  0.00     0.074 A 
ATOM     59  C   UNL A   1      46.317  24.281  26.333  1.00  0.00     0.029 A 
ATOM     60  N   UNL A   1      46.041  26.379  27.019  1.00  0.00    -0.354 N 
ATOM     61  N   UNL A   1      46.903  29.156  27.497  1.00  0.00    -0.248 NA
ATOM     62  C   UNL A   1      48.592  30.765  27.612  1.00  0.00     0.031 C 
ATOM     63  C   UNL A   1      47.549  24.937  26.261  1.00  0.00     0.029 A 
ATOM     64  C   UNL A   1      47.373  26.251  26.664  1.00  0.00     0.049 A 
ATOM     65  H   UNL A   1      45.621  27.205  27.351  1.00  0.00     0.167 HD
ATOM     66  C   UNL A   1      48.107  28.581  27.105  1.00  0.00     0.074 A 
ATOM     67  C   UNL A   1      49.108  29.625  27.169  1.00  0.00     0.031 C 
ATOM     68  C   UNL A   1      48.358  27.303  26.728  1.00  0.00     0.037 A 
BRANCH  55  69
ATOM     69  C   UNL A   1      43.455  23.544  26.927  1.00  0.00     0.058 A 
ATOM     70  C   UNL A   1      43.342  22.649  28.002  1.00  0.00     0.135 A 
ATOM     71  C   UNL A   1      43.114  23.076  25.647  1.00  0.00     0.135 A 
ATOM     72  F   UNL A   1      43.648  23.045  29.247  1.00  0.00    -0.206 F 
ATOM     73  C   UNL A   1      42.931  21.334  27.814  1.00  0.00     0.059 A 
ATOM     74  C   UNL A   1      42.672  21.772  25.440  1.00  0.00     0.059 A 
ATOM     75  F   UNL A   1      43.183  23.896  24.586  1.00  0.00    -0.206 F 
ATOM     76  C   UNL A   1      42.600  20.904  26.528  1.00  0.00     0.060 A 
BRANCH  76  77
ATOM     77  S   UNL A   1      42.047  19.199  26.304  1.00  0.00     0.124 S 
ATOM     78  O   UNL A   1      40.669  19.386  25.864  1.00  0.00    -0.237 OA
ATOM     79  O   UNL A   1      42.979  18.707  25.295  1.00  0.00    -0.237 OA
ATOM     80  O   UNL A   1      42.209  18.614  27.633  1.00  0.00    -0.744 OA
ENDBRANCH  76  77
ENDBRANCH  55  69
BRANCH  56  81
ATOM     81  C   UNL A   1      46.731  32.882  28.473  1.00  0.00     0.058 A 
ATOM     82  C   UNL A   1      46.728  33.844  27.451  1.00  0.00     0.135 A 
ATOM     83  C   UNL A   1      47.254  33.257  29.719  1.00  0.00     0.135 A 
ATOM     84  F   UNL A   1      46.249  33.536  26.236  1.00  0.00    -0.206 F 
ATOM     85  C   UNL A   1      47.254  35.117  27.647  1.00  0.00     0.059 A 
ATOM     86  C   UNL A   1      47.761  34.533  29.948  1.00  0.00     0.059 A 
ATOM     87  F   UNL A   1      47.268  32.375  30.731  1.00  0.00    -0.206 F 
ATOM     88  C   UNL A   1      47.773  35.451  28.898  1.00  0.00     0.060 A 
BRANCH  88  89
ATOM     89  S   UNL A   1      48.471  37.100  29.124  1.00  0.00     0.124 S 
ATOM     90  O   UNL A   1      47.300  37.855  29.561  1.00  0.00    -0.237 OA
ATOM     91  O   UNL A   1      49.490  36.863  30.142  1.00  0.00    -0.237 OA
ATOM     92  O   UNL A   1      48.977  37.439  27.798  1.00  0.00    -0.744 OA
ENDBRANCH  88  89
ENDBRANCH  56  81
BRANCH  68  93
ATOM     93  C   UNL A   1      49.766  26.947  26.339  1.00  0.00     0.058 A 
ATOM     94  C   UNL A   1      50.136  26.892  24.985  1.00  0.00     0.135 A 
ATOM     95  C   UNL A   1      50.710  26.544  27.296  1.00  0.00     0.135 A 
ATOM     96  F   UNL A   1      49.269  27.262  24.029  1.00  0.00    -0.206 F 
ATOM     97  C   UNL A   1      51.381  26.415  24.593  1.00  0.00     0.059 A 
ATOM     98  C   UNL A   1      51.972  26.090  26.926  1.00  0.00     0.059 A 
ATOM     99  F   UNL A   1      50.408  26.591  28.603  1.00  0.00    -0.206 F 
ATOM    100  C   UNL A   1      52.289  26.007  25.571  1.00  0.00     0.060 A 
BRANCH 100 101
ATOM    101  S   UNL A   1      53.889  25.362  25.040  1.00  0.00     0.124 S 
ATOM    102  O   UNL A   1      53.552  23.991  24.670  1.00  0.00    -0.237 OA
ATOM    103  O   UNL A   1      54.227  26.253  23.934  1.00  0.00    -0.237 OA
ATOM    104  O   UNL A   1      54.725  25.504  26.228  1.00  0.00    -0.744 OA
ENDBRANCH 100 101
ENDBRANCH  68  93
ENDBRANCH  42  43
ENDBRANCH  34  37
ENDBRANCH  32  33
ENDBRANCH   1  32
TORSDOF 16
ENDMDL
MODEL 3
REMARK VINA RESULT:     -13.5      1.172      8.061
REMARK SMILES Cc1nc(-c2ccc3c(c2)CCN3S(=O)(=O)c2ccc(F)c(C(=O)NCCCNC(=O)c3ccc(-c4c5nc(c(-c6c(F)cc(S(=O)(=O)[O-])cc6F)c6ccc([nH]6)c(-c6c(F)cc(S(=O)(=O)[O-])cc6F)c6nc(c(-c7c(F)cc(S(=O)(=O)[O-])cc7F)c7ccc4[nH]7)C=C6)C=C5)cc3)c2)cs1
REMARK SMILES IDX 27 1 26 2 25 3 23 4 24 5 22 7 17 8 18 9 98 10 19 11 20 12
REMARK SMILES IDX 21 13 14 14 15 15 16 16 13 17 5 18 6 19 10 20 7 21 9 22 8 23
REMARK SMILES IDX 11 24 12 25 4 26 1 27 2 28 3 29 100 30 99 31 28 32 29 33
REMARK SMILES IDX 30 34 31 36 32 37 33 38 97 39 34 40 96 41 35 42 36 43 37 44
REMARK SMILES IDX 90 45 38 46 95 47 89 48 91 49 39 50 94 51 88 52 87 53 40 55
REMARK SMILES IDX 74 56 53 57 73 58 54 59 57 60 72 61 92 62 55 63 56 64 71 66
REMARK SMILES IDX 93 67 58 68 41 69 42 70 51 71 43 72 44 73 50 74 52 75 45 76
REMARK SMILES IDX 46 77 47 78 48 79 49 80 75 81 76 82 85 83 77 84 78 85 84 86
REMARK SMILES IDX 86 87 79 88 80 89 81 90 82 91 83 92 59 93 60 94 69 95 61 96
REMARK SMILES IDX 62 97 68 98 70 99 63 100 64 101 65 102 66 103 67 104
REMARK H PARENT 25 6 29 35 91 54 57 65
REMARK Flexibility Score: inf
ROOT
ATOM      1  C   UNL A   1      37.179  23.159  26.021  1.00  0.00     0.042 C 
ENDROOT
BRANCH   1   2
ATOM      2  C   UNL A   1      37.303  22.391  24.706  1.00  0.00     0.118 C 
BRANCH   2   3
ATOM      3  N   UNL A   1      37.349  20.957  24.914  1.00  0.00    -0.352 N 
ATOM      4  C   UNL A   1      36.446  19.933  24.913  1.00  0.00     0.254 C 
ATOM      5  O   UNL A   1      36.953  18.808  25.001  1.00  0.00    -0.269 OA
ATOM      6  H   UNL A   1      38.263  20.642  25.105  1.00  0.00     0.163 HD
BRANCH   4   7
ATOM      7  C   UNL A   1      34.957  20.012  24.814  1.00  0.00     0.076 A 
ATOM      8  C   UNL A   1      33.011  21.471  25.127  1.00  0.00     0.089 A 
ATOM      9  C   UNL A   1      32.154  20.468  24.673  1.00  0.00     0.025 A 
ATOM     10  C   UNL A   1      34.397  21.271  25.150  1.00  0.00     0.039 A 
ATOM     11  C   UNL A   1      32.685  19.227  24.358  1.00  0.00     0.041 A 
ATOM     12  C   UNL A   1      34.065  19.003  24.433  1.00  0.00     0.136 A 
ATOM     13  F   UNL A   1      34.447  17.768  24.112  1.00  0.00    -0.206 F 
BRANCH   8  14
ATOM     14  S   UNL A   1      32.283  22.971  25.724  1.00  0.00     0.264 S 
ATOM     15  O   UNL A   1      33.012  23.330  26.923  1.00  0.00    -0.201 OA
ATOM     16  O   UNL A   1      30.846  22.779  25.790  1.00  0.00    -0.201 OA
BRANCH  14  17
ATOM     17  N   UNL A   1      32.568  24.175  24.542  1.00  0.00    -0.266 N 
ATOM     18  C   UNL A   1      30.508  27.731  23.568  1.00  0.00     0.001 A 
ATOM     19  C   UNL A   1      30.734  27.456  24.925  1.00  0.00     0.012 A 
ATOM     20  C   UNL A   1      30.971  26.827  22.602  1.00  0.00     0.016 A 
ATOM     21  C   UNL A   1      31.392  26.288  25.324  1.00  0.00     0.028 A 
ATOM     22  C   UNL A   1      31.609  25.661  23.026  1.00  0.00    -0.021 A 
ATOM     23  C   UNL A   1      31.760  25.350  24.378  1.00  0.00     0.055 A 
ATOM     24  C   UNL A   1      32.373  24.701  22.171  1.00  0.00     0.060 C 
ATOM     25  C   UNL A   1      32.711  23.578  23.161  1.00  0.00     0.140 C 
BRANCH  18  26
ATOM     26  C   UNL A   1      29.904  29.003  23.211  1.00  0.00     0.081 A 
ATOM     27  C   UNL A   1      28.028  30.883  20.709  1.00  0.00     0.079 C 
ATOM     28  C   UNL A   1      28.794  30.383  21.882  1.00  0.00     0.090 A 
ATOM     29  N   UNL A   1      29.247  29.155  22.001  1.00  0.00    -0.242 NA
ATOM     30  S   UNL A   1      29.150  31.430  23.199  1.00  0.00    -0.127 S 
ATOM     31  C   UNL A   1      29.960  30.140  23.992  1.00  0.00     0.095 A 
ENDBRANCH  18  26
ENDBRANCH  14  17
ENDBRANCH   8  14
ENDBRANCH   4   7
ENDBRANCH   2   3
ENDBRANCH   1   2
BRANCH   1  32
ATOM     32  C   UNL A   1      38.162  24.331  26.111  1.00  0.00     0.118 C 
BRANCH  32  33
ATOM     33  N   UNL A   1      39.551  23.879  26.211  1.00  0.00    -0.352 N 
ATOM     34  C   UNL A   1      40.649  24.468  26.788  1.00  0.00     0.251 C 
ATOM     35  H   UNL A   1      39.727  23.005  25.795  1.00  0.00     0.163 HD
ATOM     36  O   UNL A   1      41.771  24.050  26.517  1.00  0.00    -0.269 OA
BRANCH  34  37
ATOM     37  C   UNL A   1      40.483  25.596  27.725  1.00  0.00     0.039 A 
ATOM     38  C   UNL A   1      39.463  25.548  28.680  1.00  0.00     0.014 A 
ATOM     39  C   UNL A   1      41.321  26.708  27.647  1.00  0.00     0.014 A 
ATOM     40  C   UNL A   1      39.346  26.580  29.614  1.00  0.00     0.010 A 
ATOM     41  C   UNL A   1      41.262  27.687  28.630  1.00  0.00     0.010 A 
ATOM     42  C   UNL A   1      40.278  27.630  29.628  1.00  0.00    -0.014 A 
BRANCH  42  43
ATOM     43  C   UNL A   1      40.269  28.667  30.689  1.00  0.00     0.031 A 
ATOM     44  C   UNL A   1      41.200  28.552  31.865  1.00  0.00     0.074 A 
ATOM     45  C   UNL A   1      39.361  29.661  30.634  1.00  0.00     0.049 A 
ATOM     46  N   UNL A   1      41.259  29.288  32.943  1.00  0.00    -0.248 NA
ATOM     47  C   UNL A   1      42.175  27.448  31.838  1.00  0.00     0.031 C 
ATOM     48  C   UNL A   1      38.380  29.852  29.561  1.00  0.00     0.029 A 
ATOM     49  N   UNL A   1      39.101  30.693  31.502  1.00  0.00    -0.354 N 
ATOM     50  C   UNL A   1      42.265  28.733  33.725  1.00  0.00     0.074 A 
ATOM     51  C   UNL A   1      42.750  27.565  33.026  1.00  0.00     0.031 C 
ATOM     52  C   UNL A   1      37.650  30.947  29.820  1.00  0.00     0.029 A 
ATOM     53  C   UNL A   1      38.068  31.507  31.101  1.00  0.00     0.049 A 
ATOM     54  H   UNL A   1      39.609  30.836  32.333  1.00  0.00     0.167 HD
ATOM     55  C   UNL A   1      42.755  29.176  34.906  1.00  0.00     0.037 A 
ATOM     56  C   UNL A   1      37.507  32.574  31.703  1.00  0.00     0.037 A 
ATOM     57  C   UNL A   1      42.278  30.355  35.580  1.00  0.00     0.049 A 
ATOM     58  C   UNL A   1      38.045  33.026  33.033  1.00  0.00     0.074 A 
ATOM     59  C   UNL A   1      42.743  30.918  36.754  1.00  0.00     0.029 A 
ATOM     60  N   UNL A   1      41.228  31.150  35.143  1.00  0.00    -0.354 N 
ATOM     61  N   UNL A   1      39.034  32.522  33.733  1.00  0.00    -0.248 NA
ATOM     62  C   UNL A   1      37.394  34.184  33.660  1.00  0.00     0.031 C 
ATOM     63  C   UNL A   1      41.940  32.020  37.057  1.00  0.00     0.029 A 
ATOM     64  C   UNL A   1      41.011  32.181  36.041  1.00  0.00     0.049 A 
ATOM     65  H   UNL A   1      40.713  31.002  34.317  1.00  0.00     0.167 HD
ATOM     66  C   UNL A   1      39.137  33.313  34.872  1.00  0.00     0.074 A 
ATOM     67  C   UNL A   1      38.119  34.337  34.761  1.00  0.00     0.031 C 
ATOM     68  C   UNL A   1      39.996  33.198  35.914  1.00  0.00     0.037 A 
BRANCH  55  69
ATOM     69  C   UNL A   1      43.876  28.400  35.543  1.00  0.00     0.058 A 
ATOM     70  C   UNL A   1      43.607  27.410  36.501  1.00  0.00     0.135 A 
ATOM     71  C   UNL A   1      45.221  28.687  35.258  1.00  0.00     0.135 A 
ATOM     72  F   UNL A   1      42.340  27.090  36.806  1.00  0.00    -0.206 F 
ATOM     73  C   UNL A   1      44.631  26.747  37.169  1.00  0.00     0.059 A 
ATOM     74  C   UNL A   1      46.261  28.015  35.893  1.00  0.00     0.059 A 
ATOM     75  F   UNL A   1      45.534  29.611  34.336  1.00  0.00    -0.206 F 
ATOM     76  C   UNL A   1      45.956  27.057  36.859  1.00  0.00     0.060 A 
BRANCH  76  77
ATOM     77  S   UNL A   1      47.273  26.172  37.720  1.00  0.00     0.124 S 
ATOM     78  O   UNL A   1      46.758  24.806  37.731  1.00  0.00    -0.237 OA
ATOM     79  O   UNL A   1      48.420  26.414  36.852  1.00  0.00    -0.237 OA
ATOM     80  O   UNL A   1      47.331  26.833  39.020  1.00  0.00    -0.744 OA
ENDBRANCH  76  77
ENDBRANCH  55  69
BRANCH  56  81
ATOM     81  C   UNL A   1      36.390  33.296  31.036  1.00  0.00     0.058 A 
ATOM     82  C   UNL A   1      36.615  34.129  29.928  1.00  0.00     0.135 A 
ATOM     83  C   UNL A   1      35.079  33.202  31.525  1.00  0.00     0.135 A 
ATOM     84  F   UNL A   1      37.852  34.264  29.426  1.00  0.00    -0.206 F 
ATOM     85  C   UNL A   1      35.586  34.867  29.350  1.00  0.00     0.059 A 
ATOM     86  C   UNL A   1      34.028  33.908  30.947  1.00  0.00     0.059 A 
ATOM     87  F   UNL A   1      34.813  32.409  32.575  1.00  0.00    -0.206 F 
ATOM     88  C   UNL A   1      34.296  34.753  29.870  1.00  0.00     0.060 A 
BRANCH  88  89
ATOM     89  S   UNL A   1      32.981  35.736  29.120  1.00  0.00     0.124 S 
ATOM     90  O   UNL A   1      33.743  36.814  28.495  1.00  0.00    -0.237 OA
ATOM     91  O   UNL A   1      32.370  34.778  28.204  1.00  0.00    -0.237 OA
ATOM     92  O   UNL A   1      32.158  36.127  30.259  1.00  0.00    -0.744 OA
ENDBRANCH  88  89
ENDBRANCH  56  81
BRANCH  68  93
ATOM     93  C   UNL A   1      39.895  34.207  37.025  1.00  0.00     0.058 A 
ATOM     94  C   UNL A   1      39.127  33.930  38.167  1.00  0.00     0.135 A 
ATOM     95  C   UNL A   1      40.457  35.487  36.904  1.00  0.00     0.135 A 
ATOM     96  F   UNL A   1      38.563  32.722  38.330  1.00  0.00    -0.206 F 
ATOM     97  C   UNL A   1      38.889  34.901  39.133  1.00  0.00     0.059 A 
ATOM     98  C   UNL A   1      40.255  36.464  37.873  1.00  0.00     0.059 A 
ATOM     99  F   UNL A   1      41.210  35.795  35.836  1.00  0.00    -0.206 F 
ATOM    100  C   UNL A   1      39.450  36.168  38.973  1.00  0.00     0.060 A 
BRANCH 100 101
ATOM    101  S   UNL A   1      39.105  37.424  40.223  1.00  0.00     0.124 S 
ATOM    102  O   UNL A   1      38.531  36.624  41.300  1.00  0.00    -0.237 OA
ATOM    103  O   UNL A   1      40.432  37.975  40.479  1.00  0.00    -0.237 OA
ATOM    104  O   UNL A   1      38.177  38.328  39.550  1.00  0.00    -0.744 OA
ENDBRANCH 100 101
ENDBRANCH  68  93
ENDBRANCH  42  43
ENDBRANCH  34  37
ENDBRANCH  32  33
ENDBRANCH   1  32
TORSDOF 16
ENDMDL
