MODEL 1
REMARK VINA RESULT:     -12.4      0.000      0.000
REMARK SMILES COc1ccc(C[N@@H+]2C[C@@H](C(=O)NCCCNC(=O)c3ccc(-c4c5nc(c(-c6c(F)cc(S(=O)(=O)[O-])cc6F)c6ccc([nH]6)c(-c6c(F)cc(S(=O)(=O)[O-])cc6F)c6nc(c(-c7c(F)cc(S(=O)(=O)[O-])cc7F)c7ccc4[nH]7)C=C6)C=C5)cc3)[C@H](c3ccccc3OC)C2)c(OC)c1
REMARK SMILES IDX 15 1 14 2 13 3 11 4 12 5 10 7 8 8 9 9 95 10 86 12 7 13 6 14
REMARK SMILES IDX 3 15 4 16 99 17 5 18 96 19 2 20 1 21 97 22 98 23 87 24 88 25
REMARK SMILES IDX 92 26 89 27 91 28 90 29 93 30 94 31 16 32 17 33 18 34 19 36
REMARK SMILES IDX 20 37 21 38 85 39 22 40 84 41 23 42 24 43 25 44 78 45 26 46
REMARK SMILES IDX 83 47 77 48 79 49 27 50 82 51 76 52 75 53 28 55 62 56 41 57
REMARK SMILES IDX 61 58 42 59 45 60 60 61 80 62 43 63 44 64 59 66 81 67 46 68
REMARK SMILES IDX 29 69 30 70 39 71 31 72 32 73 38 74 40 75 33 76 34 77 35 78
REMARK SMILES IDX 36 79 37 80 63 81 64 82 73 83 65 84 66 85 72 86 74 87 67 88
REMARK SMILES IDX 68 89 69 90 70 91 71 92 47 93 48 94 57 95 49 96 50 97 56 98
REMARK SMILES IDX 58 99 51 100 52 101 53 102 54 103 55 104
REMARK H PARENT 13 6 8 11 17 35 79 54 45 65
REMARK Flexibility Score: inf
ROOT
ATOM      1  C   UNL A   1      37.355  23.658  25.100  1.00  0.00     0.042 C 
ENDROOT
BRANCH   1   2
ATOM      2  C   UNL A   1      36.874  22.221  25.226  1.00  0.00     0.117 C 
BRANCH   2   3
ATOM      3  N   UNL A   1      36.090  22.005  26.432  1.00  0.00    -0.356 N 
ATOM      4  C   UNL A   1      34.733  22.030  26.602  1.00  0.00     0.229 C 
ATOM      5  O   UNL A   1      34.280  21.601  27.664  1.00  0.00    -0.275 OA
ATOM      6  H   UNL A   1      36.612  21.812  27.244  1.00  0.00     0.163 HD
BRANCH   4   7
ATOM      7  C   UNL A   1      33.853  22.664  25.545  1.00  0.00     0.146 C 
ATOM      8  N   UNL A   1      32.491  24.586  25.275  1.00  0.00    -0.330 N 
ATOM      9  C   UNL A   1      33.629  24.097  26.035  1.00  0.00     0.276 C 
ATOM     10  C   UNL A   1      31.599  23.423  25.141  1.00  0.00     0.272 C 
ATOM     11  H   UNL A   1      31.992  25.333  25.757  1.00  0.00     0.348 HD
ATOM     12  C   UNL A   1      32.424  22.108  25.343  1.00  0.00     0.096 C 
BRANCH   8  13
ATOM     13  C   UNL A   1      32.820  25.365  24.063  1.00  0.00     0.303 C 
BRANCH  13  14
ATOM     14  C   UNL A   1      32.098  26.680  23.806  1.00  0.00     0.048 A 
ATOM     15  C   UNL A   1      30.418  28.911  23.477  1.00  0.00     0.122 A 
ATOM     16  C   UNL A   1      30.516  27.963  22.467  1.00  0.00     0.047 A 
ATOM     17  C   UNL A   1      31.247  28.819  24.592  1.00  0.00     0.093 A 
ATOM     18  C   UNL A   1      31.352  26.857  22.626  1.00  0.00     0.017 A 
ATOM     19  C   UNL A   1      32.134  27.740  24.725  1.00  0.00     0.131 A 
BRANCH  15  20
ATOM     20  O   UNL A   1      29.399  29.815  23.374  1.00  0.00    -0.497 OA
ATOM     21  C   UNL A   1      28.795  29.850  22.086  1.00  0.00     0.278 C 
ENDBRANCH  15  20
BRANCH  19  22
ATOM     22  O   UNL A   1      33.017  27.615  25.768  1.00  0.00    -0.496 OA
ATOM     23  C   UNL A   1      32.579  28.150  27.011  1.00  0.00     0.278 C 
ENDBRANCH  19  22
ENDBRANCH  13  14
ENDBRANCH   8  13
BRANCH  12  24
ATOM     24  C   UNL A   1      32.307  21.051  24.231  1.00  0.00     0.004 A 
ATOM     25  C   UNL A   1      31.935  21.390  22.920  1.00  0.00     0.008 A 
ATOM     26  C   UNL A   1      32.543  19.683  24.454  1.00  0.00     0.122 A 
ATOM     27  C   UNL A   1      31.912  20.468  21.868  1.00  0.00     0.001 A 
ATOM     28  C   UNL A   1      32.564  18.752  23.399  1.00  0.00     0.047 A 
ATOM     29  C   UNL A   1      32.271  19.152  22.098  1.00  0.00     0.004 A 
BRANCH  26  30
ATOM     30  O   UNL A   1      32.480  19.180  25.728  1.00  0.00    -0.496 OA
ATOM     31  C   UNL A   1      32.641  17.773  25.791  1.00  0.00     0.278 C 
ENDBRANCH  26  30
ENDBRANCH  12  24
ENDBRANCH   4   7
ENDBRANCH   2   3
ENDBRANCH   1   2
BRANCH   1  32
ATOM     32  C   UNL A   1      38.170  24.106  26.303  1.00  0.00     0.118 C 
BRANCH  32  33
ATOM     33  N   UNL A   1      39.587  23.775  26.154  1.00  0.00    -0.352 N 
ATOM     34  C   UNL A   1      40.689  24.465  26.601  1.00  0.00     0.251 C 
ATOM     35  H   UNL A   1      39.778  22.941  25.667  1.00  0.00     0.163 HD
ATOM     36  O   UNL A   1      41.815  24.147  26.224  1.00  0.00    -0.269 OA
BRANCH  34  37
ATOM     37  C   UNL A   1      40.500  25.608  27.516  1.00  0.00     0.039 A 
ATOM     38  C   UNL A   1      39.550  25.524  28.537  1.00  0.00     0.014 A 
ATOM     39  C   UNL A   1      41.309  26.739  27.392  1.00  0.00     0.014 A 
ATOM     40  C   UNL A   1      39.472  26.543  29.489  1.00  0.00     0.010 A 
ATOM     41  C   UNL A   1      41.292  27.703  28.389  1.00  0.00     0.010 A 
ATOM     42  C   UNL A   1      40.376  27.616  29.448  1.00  0.00    -0.014 A 
BRANCH  42  43
ATOM     43  C   UNL A   1      40.392  28.685  30.479  1.00  0.00     0.031 A 
ATOM     44  C   UNL A   1      41.294  28.533  31.673  1.00  0.00     0.074 A 
ATOM     45  C   UNL A   1      39.524  29.714  30.405  1.00  0.00     0.049 A 
ATOM     46  N   UNL A   1      41.306  29.206  32.793  1.00  0.00    -0.248 NA
ATOM     47  C   UNL A   1      42.287  27.445  31.614  1.00  0.00     0.031 C 
ATOM     48  C   UNL A   1      38.576  29.950  29.314  1.00  0.00     0.029 A 
ATOM     49  N   UNL A   1      39.276  30.738  31.285  1.00  0.00    -0.354 N 
ATOM     50  C   UNL A   1      42.286  28.611  33.578  1.00  0.00     0.074 A 
ATOM     51  C   UNL A   1      42.807  27.488  32.832  1.00  0.00     0.031 C 
ATOM     52  C   UNL A   1      37.849  31.045  29.591  1.00  0.00     0.029 A 
ATOM     53  C   UNL A   1      38.242  31.560  30.899  1.00  0.00     0.049 A 
ATOM     54  H   UNL A   1      39.788  30.871  32.115  1.00  0.00     0.167 HD
ATOM     55  C   UNL A   1      42.728  28.983  34.802  1.00  0.00     0.037 A 
ATOM     56  C   UNL A   1      37.657  32.591  31.540  1.00  0.00     0.037 A 
ATOM     57  C   UNL A   1      42.228  30.123  35.521  1.00  0.00     0.049 A 
ATOM     58  C   UNL A   1      38.165  32.988  32.902  1.00  0.00     0.074 A 
ATOM     59  C   UNL A   1      42.627  30.606  36.754  1.00  0.00     0.029 A 
ATOM     60  N   UNL A   1      41.227  30.968  35.063  1.00  0.00    -0.354 N 
ATOM     61  N   UNL A   1      39.111  32.431  33.621  1.00  0.00    -0.248 NA
ATOM     62  C   UNL A   1      37.533  34.151  33.541  1.00  0.00     0.031 C 
ATOM     63  C   UNL A   1      41.848  31.727  37.055  1.00  0.00     0.029 A 
ATOM     64  C   UNL A   1      40.996  31.969  35.989  1.00  0.00     0.049 A 
ATOM     65  H   UNL A   1      40.752  30.870  34.206  1.00  0.00     0.167 HD
ATOM     66  C   UNL A   1      39.211  33.197  34.777  1.00  0.00     0.074 A 
ATOM     67  C   UNL A   1      38.231  34.257  34.664  1.00  0.00     0.031 C 
ATOM     68  C   UNL A   1      40.041  33.038  35.836  1.00  0.00     0.037 A 
BRANCH  55  69
ATOM     69  C   UNL A   1      43.822  28.163  35.428  1.00  0.00     0.058 A 
ATOM     70  C   UNL A   1      45.176  28.438  35.178  1.00  0.00     0.135 A 
ATOM     71  C   UNL A   1      43.519  27.118  36.314  1.00  0.00     0.135 A 
ATOM     72  F   UNL A   1      45.521  29.415  34.324  1.00  0.00    -0.206 F 
ATOM     73  C   UNL A   1      46.190  27.688  35.762  1.00  0.00     0.059 A 
ATOM     74  C   UNL A   1      44.517  26.373  36.933  1.00  0.00     0.059 A 
ATOM     75  F   UNL A   1      42.240  26.812  36.586  1.00  0.00    -0.206 F 
ATOM     76  C   UNL A   1      45.850  26.658  36.640  1.00  0.00     0.060 A 
BRANCH  76  77
ATOM     77  S   UNL A   1      47.181  25.703  37.399  1.00  0.00     0.124 S 
ATOM     78  O   UNL A   1      47.898  25.219  36.223  1.00  0.00    -0.237 OA
ATOM     79  O   UNL A   1      47.876  26.712  38.192  1.00  0.00    -0.237 OA
ATOM     80  O   UNL A   1      46.473  24.684  38.166  1.00  0.00    -0.744 OA
ENDBRANCH  76  77
ENDBRANCH  55  69
BRANCH  56  81
ATOM     81  C   UNL A   1      36.523  33.320  30.909  1.00  0.00     0.058 A 
ATOM     82  C   UNL A   1      35.211  33.162  31.379  1.00  0.00     0.135 A 
ATOM     83  C   UNL A   1      36.726  34.184  29.821  1.00  0.00     0.135 A 
ATOM     84  F   UNL A   1      34.964  32.344  32.414  1.00  0.00    -0.206 F 
ATOM     85  C   UNL A   1      34.137  33.813  30.779  1.00  0.00     0.059 A 
ATOM     86  C   UNL A   1      35.672  34.866  29.221  1.00  0.00     0.059 A 
ATOM     87  F   UNL A   1      37.965  34.386  29.345  1.00  0.00    -0.206 F 
ATOM     88  C   UNL A   1      34.378  34.662  29.698  1.00  0.00     0.060 A 
BRANCH  88  89
ATOM     89  S   UNL A   1      32.982  35.522  28.943  1.00  0.00     0.124 S 
ATOM     90  O   UNL A   1      32.224  35.938  30.117  1.00  0.00    -0.237 OA
ATOM     91  O   UNL A   1      33.644  36.589  28.198  1.00  0.00    -0.237 OA
ATOM     92  O   UNL A   1      32.359  34.489  28.120  1.00  0.00    -0.744 OA
ENDBRANCH  88  89
ENDBRANCH  56  81
BRANCH  68  93
ATOM     93  C   UNL A   1      39.985  34.061  36.935  1.00  0.00     0.058 A 
ATOM     94  C   UNL A   1      40.697  35.266  36.858  1.00  0.00     0.135 A 
ATOM     95  C   UNL A   1      39.112  33.878  38.020  1.00  0.00     0.135 A 
ATOM     96  F   UNL A   1      41.549  35.485  35.844  1.00  0.00    -0.206 F 
ATOM     97  C   UNL A   1      40.543  36.259  37.820  1.00  0.00     0.059 A 
ATOM     98  C   UNL A   1      38.925  34.866  38.980  1.00  0.00     0.059 A 
ATOM     99  F   UNL A   1      38.402  32.743  38.132  1.00  0.00    -0.206 F 
ATOM    100  C   UNL A   1      39.644  36.054  38.870  1.00  0.00     0.060 A 
BRANCH 100 101
ATOM    101  S   UNL A   1      39.387  37.388  40.060  1.00  0.00     0.124 S 
ATOM    102  O   UNL A   1      38.869  36.659  41.213  1.00  0.00    -0.237 OA
ATOM    103  O   UNL A   1      40.732  37.937  40.207  1.00  0.00    -0.237 OA
ATOM    104  O   UNL A   1      38.429  38.262  39.389  1.00  0.00    -0.744 OA
ENDBRANCH 100 101
ENDBRANCH  68  93
ENDBRANCH  42  43
ENDBRANCH  34  37
ENDBRANCH  32  33
ENDBRANCH   1  32
TORSDOF 19
ENDMDL
MODEL 2
REMARK VINA RESULT:     -12.3      6.348     12.087
REMARK SMILES COc1ccc(C[N@@H+]2C[C@@H](C(=O)NCCCNC(=O)c3ccc(-c4c5nc(c(-c6c(F)cc(S(=O)(=O)[O-])cc6F)c6ccc([nH]6)c(-c6c(F)cc(S(=O)(=O)[O-])cc6F)c6nc(c(-c7c(F)cc(S(=O)(=O)[O-])cc7F)c7ccc4[nH]7)C=C6)C=C5)cc3)[C@H](c3ccccc3OC)C2)c(OC)c1
REMARK SMILES IDX 15 1 14 2 13 3 11 4 12 5 10 7 8 8 9 9 95 10 86 12 7 13 6 14
REMARK SMILES IDX 3 15 4 16 99 17 5 18 96 19 2 20 1 21 97 22 98 23 87 24 88 25
REMARK SMILES IDX 92 26 89 27 91 28 90 29 93 30 94 31 16 32 17 33 18 34 19 36
REMARK SMILES IDX 20 37 21 38 85 39 22 40 84 41 23 42 24 43 25 44 78 45 26 46
REMARK SMILES IDX 83 47 77 48 79 49 27 50 82 51 76 52 75 53 28 55 62 56 41 57
REMARK SMILES IDX 61 58 42 59 45 60 60 61 80 62 43 63 44 64 59 66 81 67 46 68
REMARK SMILES IDX 29 69 30 70 39 71 31 72 32 73 38 74 40 75 33 76 34 77 35 78
REMARK SMILES IDX 36 79 37 80 63 81 64 82 73 83 65 84 66 85 72 86 74 87 67 88
REMARK SMILES IDX 68 89 69 90 70 91 71 92 47 93 48 94 57 95 49 96 50 97 56 98
REMARK SMILES IDX 58 99 51 100 52 101 53 102 54 103 55 104
REMARK H PARENT 13 6 8 11 17 35 79 54 45 65
REMARK Flexibility Score: inf
ROOT
ATOM      1  C   UNL A   1      33.741  28.674  27.385  1.00  0.00     0.042 C 
ENDROOT
BRANCH   1   2
ATOM      2  C   UNL A   1      32.838  29.470  26.456  1.00  0.00     0.117 C 
BRANCH   2   3
ATOM      3  N   UNL A   1      33.394  29.592  25.117  1.00  0.00    -0.356 N 
ATOM      4  C   UNL A   1      33.164  28.824  24.009  1.00  0.00     0.229 C 
ATOM      5  O   UNL A   1      33.575  29.244  22.925  1.00  0.00    -0.275 OA
ATOM      6  H   UNL A   1      34.027  30.335  24.990  1.00  0.00     0.163 HD
BRANCH   4   7
ATOM      7  C   UNL A   1      32.518  27.463  24.155  1.00  0.00     0.146 C 
ATOM      8  N   UNL A   1      33.108  25.174  23.955  1.00  0.00    -0.330 N 
ATOM      9  C   UNL A   1      33.690  26.480  24.218  1.00  0.00     0.276 C 
ATOM     10  C   UNL A   1      32.063  25.424  22.949  1.00  0.00     0.272 C 
ATOM     11  H   UNL A   1      33.786  24.516  23.574  1.00  0.00     0.348 HD
ATOM     12  C   UNL A   1      31.643  26.931  22.996  1.00  0.00     0.096 C 
BRANCH   8  13
ATOM     13  C   UNL A   1      32.760  24.378  25.151  1.00  0.00     0.303 C 
BRANCH  13  14
ATOM     14  C   UNL A   1      33.129  22.903  25.194  1.00  0.00     0.048 A 
ATOM     15  C   UNL A   1      33.670  20.162  24.874  1.00  0.00     0.122 A 
ATOM     16  C   UNL A   1      32.412  20.575  25.290  1.00  0.00     0.047 A 
ATOM     17  C   UNL A   1      34.694  21.095  24.740  1.00  0.00     0.093 A 
ATOM     18  C   UNL A   1      32.142  21.934  25.453  1.00  0.00     0.017 A 
ATOM     19  C   UNL A   1      34.441  22.457  24.965  1.00  0.00     0.131 A 
BRANCH  15  20
ATOM     20  O   UNL A   1      33.790  18.858  24.483  1.00  0.00    -0.497 OA
ATOM     21  C   UNL A   1      32.616  18.085  24.704  1.00  0.00     0.278 C 
ENDBRANCH  15  20
BRANCH  19  22
ATOM     22  O   UNL A   1      35.412  23.424  24.905  1.00  0.00    -0.496 OA
ATOM     23  C   UNL A   1      36.300  23.473  26.016  1.00  0.00     0.278 C 
ENDBRANCH  19  22
ENDBRANCH  13  14
ENDBRANCH   8  13
BRANCH  12  24
ATOM     24  C   UNL A   1      30.139  27.216  23.154  1.00  0.00     0.004 A 
ATOM     25  C   UNL A   1      29.277  26.315  23.798  1.00  0.00     0.008 A 
ATOM     26  C   UNL A   1      29.529  28.378  22.651  1.00  0.00     0.122 A 
ATOM     27  C   UNL A   1      27.926  26.589  24.041  1.00  0.00     0.001 A 
ATOM     28  C   UNL A   1      28.183  28.686  22.923  1.00  0.00     0.047 A 
ATOM     29  C   UNL A   1      27.386  27.798  23.642  1.00  0.00     0.004 A 
BRANCH  26  30
ATOM     30  O   UNL A   1      30.144  29.096  21.658  1.00  0.00    -0.496 OA
ATOM     31  C   UNL A   1      29.691  30.435  21.562  1.00  0.00     0.278 C 
ENDBRANCH  26  30
ENDBRANCH  12  24
ENDBRANCH   4   7
ENDBRANCH   2   3
ENDBRANCH   1   2
BRANCH   1  32
ATOM     32  C   UNL A   1      35.121  29.297  27.530  1.00  0.00     0.118 C 
BRANCH  32  33
ATOM     33  N   UNL A   1      35.200  30.184  28.690  1.00  0.00    -0.352 N 
ATOM     34  C   UNL A   1      36.241  30.370  29.569  1.00  0.00     0.251 C 
ATOM     35  H   UNL A   1      34.395  30.723  28.866  1.00  0.00     0.163 HD
ATOM     36  O   UNL A   1      36.072  31.011  30.603  1.00  0.00    -0.269 OA
BRANCH  34  37
ATOM     37  C   UNL A   1      37.554  29.768  29.266  1.00  0.00     0.039 A 
ATOM     38  C   UNL A   1      38.049  29.812  27.960  1.00  0.00     0.014 A 
ATOM     39  C   UNL A   1      38.316  29.210  30.294  1.00  0.00     0.014 A 
ATOM     40  C   UNL A   1      39.349  29.373  27.703  1.00  0.00     0.010 A 
ATOM     41  C   UNL A   1      39.637  28.861  30.053  1.00  0.00     0.010 A 
ATOM     42  C   UNL A   1      40.169  28.940  28.756  1.00  0.00    -0.014 A 
BRANCH  42  43
ATOM     43  C   UNL A   1      41.584  28.538  28.554  1.00  0.00     0.031 A 
ATOM     44  C   UNL A   1      42.648  29.602  28.529  1.00  0.00     0.074 A 
ATOM     45  C   UNL A   1      41.894  27.256  28.276  1.00  0.00     0.049 A 
ATOM     46  N   UNL A   1      43.893  29.519  28.142  1.00  0.00    -0.248 NA
ATOM     47  C   UNL A   1      42.238  30.952  28.957  1.00  0.00     0.031 C 
ATOM     48  C   UNL A   1      40.945  26.141  28.236  1.00  0.00     0.029 A 
ATOM     49  N   UNL A   1      43.094  26.679  27.940  1.00  0.00    -0.354 N 
ATOM     50  C   UNL A   1      44.407  30.805  28.256  1.00  0.00     0.074 A 
ATOM     51  C   UNL A   1      43.326  31.660  28.693  1.00  0.00     0.031 C 
ATOM     52  C   UNL A   1      41.598  25.019  27.893  1.00  0.00     0.029 A 
ATOM     53  C   UNL A   1      42.999  25.340  27.639  1.00  0.00     0.049 A 
ATOM     54  H   UNL A   1      43.942  27.178  27.915  1.00  0.00     0.167 HD
ATOM     55  C   UNL A   1      45.674  31.230  28.039  1.00  0.00     0.037 A 
ATOM     56  C   UNL A   1      43.928  24.478  27.181  1.00  0.00     0.037 A 
ATOM     57  C   UNL A   1      46.750  30.365  27.639  1.00  0.00     0.049 A 
ATOM     58  C   UNL A   1      45.331  24.972  26.945  1.00  0.00     0.074 A 
ATOM     59  C   UNL A   1      48.077  30.687  27.421  1.00  0.00     0.029 A 
ATOM     60  N   UNL A   1      46.624  29.002  27.411  1.00  0.00    -0.354 N 
ATOM     61  N   UNL A   1      45.809  26.187  27.084  1.00  0.00    -0.248 NA
ATOM     62  C   UNL A   1      46.324  23.985  26.497  1.00  0.00     0.031 C 
ATOM     63  C   UNL A   1      48.749  29.524  27.033  1.00  0.00     0.029 A 
ATOM     64  C   UNL A   1      47.850  28.469  27.055  1.00  0.00     0.049 A 
ATOM     65  H   UNL A   1      45.787  28.490  27.491  1.00  0.00     0.167 HD
ATOM     66  C   UNL A   1      47.162  26.100  26.774  1.00  0.00     0.074 A 
ATOM     67  C   UNL A   1      47.429  24.717  26.443  1.00  0.00     0.031 C 
ATOM     68  C   UNL A   1      48.099  27.078  26.767  1.00  0.00     0.037 A 
BRANCH  55  69
ATOM     69  C   UNL A   1      45.968  32.688  28.253  1.00  0.00     0.058 A 
ATOM     70  C   UNL A   1      46.368  33.177  29.507  1.00  0.00     0.135 A 
ATOM     71  C   UNL A   1      45.884  33.602  27.191  1.00  0.00     0.135 A 
ATOM     72  F   UNL A   1      46.446  32.350  30.562  1.00  0.00    -0.206 F 
ATOM     73  C   UNL A   1      46.649  34.524  29.706  1.00  0.00     0.059 A 
ATOM     74  C   UNL A   1      46.189  34.948  27.359  1.00  0.00     0.059 A 
ATOM     75  F   UNL A   1      45.503  33.187  25.971  1.00  0.00    -0.206 F 
ATOM     76  C   UNL A   1      46.558  35.402  28.626  1.00  0.00     0.060 A 
BRANCH  76  77
ATOM     77  S   UNL A   1      46.940  37.145  28.901  1.00  0.00     0.124 S 
ATOM     78  O   UNL A   1      48.288  37.063  29.454  1.00  0.00    -0.237 OA
ATOM     79  O   UNL A   1      46.840  37.702  27.556  1.00  0.00    -0.237 OA
ATOM     80  O   UNL A   1      45.903  37.575  29.835  1.00  0.00    -0.744 OA
ENDBRANCH  76  77
ENDBRANCH  55  69
BRANCH  56  81
ATOM     81  C   UNL A   1      43.564  23.061  26.909  1.00  0.00     0.058 A 
ATOM     82  C   UNL A   1      43.473  22.577  25.595  1.00  0.00     0.135 A 
ATOM     83  C   UNL A   1      43.297  22.162  27.953  1.00  0.00     0.135 A 
ATOM     84  F   UNL A   1      43.714  23.398  24.561  1.00  0.00    -0.206 F 
ATOM     85  C   UNL A   1      43.103  21.263  25.324  1.00  0.00     0.059 A 
ATOM     86  C   UNL A   1      42.952  20.836  27.709  1.00  0.00     0.059 A 
ATOM     87  F   UNL A   1      43.390  22.568  29.230  1.00  0.00    -0.206 F 
ATOM     88  C   UNL A   1      42.843  20.400  26.390  1.00  0.00     0.060 A 
BRANCH  88  89
ATOM     89  S   UNL A   1      42.390  18.689  26.030  1.00  0.00     0.124 S 
ATOM     90  O   UNL A   1      42.645  18.043  27.312  1.00  0.00    -0.237 OA
ATOM     91  O   UNL A   1      40.987  18.817  25.646  1.00  0.00    -0.237 OA
ATOM     92  O   UNL A   1      43.297  18.325  24.946  1.00  0.00    -0.744 OA
ENDBRANCH  88  89
ENDBRANCH  56  81
BRANCH  68  93
ATOM     93  C   UNL A   1      49.518  26.693  26.456  1.00  0.00     0.058 A 
ATOM     94  C   UNL A   1      50.304  25.976  27.369  1.00  0.00     0.135 A 
ATOM     95  C   UNL A   1      50.049  26.945  25.181  1.00  0.00     0.135 A 
ATOM     96  F   UNL A   1      49.844  25.717  28.602  1.00  0.00    -0.206 F 
ATOM     97  C   UNL A   1      51.571  25.518  27.025  1.00  0.00     0.059 A 
ATOM     98  C   UNL A   1      51.304  26.476  24.808  1.00  0.00     0.059 A 
ATOM     99  F   UNL A   1      49.330  27.622  24.270  1.00  0.00    -0.206 F 
ATOM    100  C   UNL A   1      52.057  25.761  25.738  1.00  0.00     0.060 A 
BRANCH 100 101
ATOM    101  S   UNL A   1      53.665  25.082  25.277  1.00  0.00     0.124 S 
ATOM    102  O   UNL A   1      53.437  23.649  25.437  1.00  0.00    -0.237 OA
ATOM    103  O   UNL A   1      53.820  25.551  23.903  1.00  0.00    -0.237 OA
ATOM    104  O   UNL A   1      54.579  25.683  26.245  1.00  0.00    -0.744 OA
ENDBRANCH 100 101
ENDBRANCH  68  93
ENDBRANCH  42  43
ENDBRANCH  34  37
ENDBRANCH  32  33
ENDBRANCH   1  32
TORSDOF 19
ENDMDL
MODEL 3
REMARK VINA RESULT:     -12.2      2.388      3.189
REMARK SMILES COc1ccc(C[N@@H+]2C[C@@H](C(=O)NCCCNC(=O)c3ccc(-c4c5nc(c(-c6c(F)cc(S(=O)(=O)[O-])cc6F)c6ccc([nH]6)c(-c6c(F)cc(S(=O)(=O)[O-])cc6F)c6nc(c(-c7c(F)cc(S(=O)(=O)[O-])cc7F)c7ccc4[nH]7)C=C6)C=C5)cc3)[C@H](c3ccccc3OC)C2)c(OC)c1
REMARK SMILES IDX 15 1 14 2 13 3 11 4 12 5 10 7 8 8 9 9 95 10 86 12 7 13 6 14
REMARK SMILES IDX 3 15 4 16 99 17 5 18 96 19 2 20 1 21 97 22 98 23 87 24 88 25
REMARK SMILES IDX 92 26 89 27 91 28 90 29 93 30 94 31 16 32 17 33 18 34 19 36
REMARK SMILES IDX 20 37 21 38 85 39 22 40 84 41 23 42 24 43 25 44 78 45 26 46
REMARK SMILES IDX 83 47 77 48 79 49 27 50 82 51 76 52 75 53 28 55 62 56 41 57
REMARK SMILES IDX 61 58 42 59 45 60 60 61 80 62 43 63 44 64 59 66 81 67 46 68
REMARK SMILES IDX 29 69 30 70 39 71 31 72 32 73 38 74 40 75 33 76 34 77 35 78
REMARK SMILES IDX 36 79 37 80 63 81 64 82 73 83 65 84 66 85 72 86 74 87 67 88
REMARK SMILES IDX 68 89 69 90 70 91 71 92 47 93 48 94 57 95 49 96 50 97 56 98
REMARK SMILES IDX 58 99 51 100 52 101 53 102 54 103 55 104
REMARK H PARENT 13 6 8 11 17 35 79 54 45 65
REMARK Flexibility Score: inf
ROOT
ATOM      1  C   UNL A   1      36.000  23.012  24.315  1.00  0.00     0.042 C 
ENDROOT
BRANCH   1   2
ATOM      2  C   UNL A   1      35.469  21.836  25.119  1.00  0.00     0.117 C 
BRANCH   2   3
ATOM      3  N   UNL A   1      35.265  22.173  26.520  1.00  0.00    -0.356 N 
ATOM      4  C   UNL A   1      34.126  22.587  27.156  1.00  0.00     0.229 C 
ATOM      5  O   UNL A   1      34.132  22.602  28.388  1.00  0.00    -0.275 OA
ATOM      6  H   UNL A   1      36.060  22.090  27.094  1.00  0.00     0.163 HD
BRANCH   4   7
ATOM      7  C   UNL A   1      32.955  23.100  26.346  1.00  0.00     0.146 C 
ATOM      8  N   UNL A   1      30.987  24.384  26.668  1.00  0.00    -0.330 N 
ATOM      9  C   UNL A   1      32.310  24.171  27.230  1.00  0.00     0.276 C 
ATOM     10  C   UNL A   1      30.545  23.050  26.228  1.00  0.00     0.272 C 
ATOM     11  H   UNL A   1      30.325  24.743  27.356  1.00  0.00     0.348 HD
ATOM     12  C   UNL A   1      31.795  22.129  26.026  1.00  0.00     0.096 C 
BRANCH   8  13
ATOM     13  C   UNL A   1      30.869  25.513  25.722  1.00  0.00     0.303 C 
BRANCH  13  14
ATOM     14  C   UNL A   1      31.777  26.722  25.890  1.00  0.00     0.048 A 
ATOM     15  C   UNL A   1      33.700  28.700  26.437  1.00  0.00     0.122 A 
ATOM     16  C   UNL A   1      32.651  28.490  27.323  1.00  0.00     0.047 A 
ATOM     17  C   UNL A   1      33.724  28.020  25.223  1.00  0.00     0.093 A 
ATOM     18  C   UNL A   1      31.694  27.512  27.052  1.00  0.00     0.017 A 
ATOM     19  C   UNL A   1      32.727  27.080  24.921  1.00  0.00     0.131 A 
BRANCH  15  20
ATOM     20  O   UNL A   1      34.734  29.475  26.882  1.00  0.00    -0.497 OA
ATOM     21  C   UNL A   1      34.313  30.640  27.582  1.00  0.00     0.278 C 
ENDBRANCH  15  20
BRANCH  19  22
ATOM     22  O   UNL A   1      32.657  26.414  23.723  1.00  0.00    -0.496 OA
ATOM     23  C   UNL A   1      33.783  25.607  23.402  1.00  0.00     0.278 C 
ENDBRANCH  19  22
ENDBRANCH  13  14
ENDBRANCH   8  13
BRANCH  12  24
ATOM     24  C   UNL A   1      31.912  21.427  24.662  1.00  0.00     0.004 A 
ATOM     25  C   UNL A   1      31.661  22.102  23.457  1.00  0.00     0.008 A 
ATOM     26  C   UNL A   1      32.257  20.070  24.531  1.00  0.00     0.122 A 
ATOM     27  C   UNL A   1      31.852  21.519  22.199  1.00  0.00     0.001 A 
ATOM     28  C   UNL A   1      32.492  19.482  23.275  1.00  0.00     0.047 A 
ATOM     29  C   UNL A   1      32.312  20.217  22.106  1.00  0.00     0.004 A 
BRANCH  26  30
ATOM     30  O   UNL A   1      32.099  19.222  25.597  1.00  0.00    -0.496 OA
ATOM     31  C   UNL A   1      32.734  17.967  25.421  1.00  0.00     0.278 C 
ENDBRANCH  26  30
ENDBRANCH  12  24
ENDBRANCH   4   7
ENDBRANCH   2   3
ENDBRANCH   1   2
BRANCH   1  32
ATOM     32  C   UNL A   1      37.164  23.710  25.003  1.00  0.00     0.118 C 
BRANCH  32  33
ATOM     33  N   UNL A   1      38.251  22.781  25.309  1.00  0.00    -0.352 N 
ATOM     34  C   UNL A   1      39.412  23.008  26.008  1.00  0.00     0.251 C 
ATOM     35  H   UNL A   1      38.134  21.865  24.967  1.00  0.00     0.163 HD
ATOM     36  O   UNL A   1      40.310  22.168  26.009  1.00  0.00    -0.269 OA
BRANCH  34  37
ATOM     37  C   UNL A   1      39.577  24.282  26.735  1.00  0.00     0.039 A 
ATOM     38  C   UNL A   1      38.994  24.439  27.994  1.00  0.00     0.014 A 
ATOM     39  C   UNL A   1      40.360  25.299  26.184  1.00  0.00     0.014 A 
ATOM     40  C   UNL A   1      39.270  25.586  28.741  1.00  0.00     0.010 A 
ATOM     41  C   UNL A   1      40.706  26.393  26.964  1.00  0.00     0.010 A 
ATOM     42  C   UNL A   1      40.167  26.548  28.251  1.00  0.00    -0.014 A 
BRANCH  42  43
ATOM     43  C   UNL A   1      40.559  27.747  29.035  1.00  0.00     0.031 A 
ATOM     44  C   UNL A   1      41.815  27.698  29.862  1.00  0.00     0.074 A 
ATOM     45  C   UNL A   1      39.740  28.815  29.100  1.00  0.00     0.049 A 
ATOM     46  N   UNL A   1      42.226  28.519  30.792  1.00  0.00    -0.248 NA
ATOM     47  C   UNL A   1      42.705  26.544  29.640  1.00  0.00     0.031 C 
ATOM     48  C   UNL A   1      38.477  28.965  28.372  1.00  0.00     0.029 A 
ATOM     49  N   UNL A   1      39.830  29.968  29.841  1.00  0.00    -0.354 N 
ATOM     50  C   UNL A   1      43.405  27.970  31.281  1.00  0.00     0.074 A 
ATOM     51  C   UNL A   1      43.614  26.719  30.588  1.00  0.00     0.031 C 
ATOM     52  C   UNL A   1      37.913  30.137  28.705  1.00  0.00     0.029 A 
ATOM     53  C   UNL A   1      38.743  30.800  29.705  1.00  0.00     0.049 A 
ATOM     54  H   UNL A   1      40.601  30.177  30.417  1.00  0.00     0.167 HD
ATOM     55  C   UNL A   1      44.251  28.476  32.209  1.00  0.00     0.037 A 
ATOM     56  C   UNL A   1      38.436  31.950  30.337  1.00  0.00     0.037 A 
ATOM     57  C   UNL A   1      44.052  29.738  32.868  1.00  0.00     0.049 A 
ATOM     58  C   UNL A   1      39.391  32.494  31.367  1.00  0.00     0.074 A 
ATOM     59  C   UNL A   1      44.862  30.358  33.801  1.00  0.00     0.029 A 
ATOM     60  N   UNL A   1      42.972  30.581  32.650  1.00  0.00    -0.354 N 
ATOM     61  N   UNL A   1      40.517  31.977  31.801  1.00  0.00    -0.248 NA
ATOM     62  C   UNL A   1      39.042  33.778  31.993  1.00  0.00     0.031 C 
ATOM     63  C   UNL A   1      44.257  31.563  34.171  1.00  0.00     0.029 A 
ATOM     64  C   UNL A   1      43.095  31.716  33.432  1.00  0.00     0.049 A 
ATOM     65  H   UNL A   1      42.228  30.398  32.031  1.00  0.00     0.167 HD
ATOM     66  C   UNL A   1      41.025  32.888  32.720  1.00  0.00     0.074 A 
ATOM     67  C   UNL A   1      40.088  33.989  32.782  1.00  0.00     0.031 C 
ATOM     68  C   UNL A   1      42.166  32.819  33.447  1.00  0.00     0.037 A 
BRANCH  55  69
ATOM     69  C   UNL A   1      45.477  27.675  32.548  1.00  0.00     0.058 A 
ATOM     70  C   UNL A   1      46.706  27.917  31.914  1.00  0.00     0.135 A 
ATOM     71  C   UNL A   1      45.436  26.682  33.538  1.00  0.00     0.135 A 
ATOM     72  F   UNL A   1      46.797  28.844  30.946  1.00  0.00    -0.206 F 
ATOM     73  C   UNL A   1      47.845  27.185  32.231  1.00  0.00     0.059 A 
ATOM     74  C   UNL A   1      46.568  25.956  33.893  1.00  0.00     0.059 A 
ATOM     75  F   UNL A   1      44.285  26.408  34.173  1.00  0.00    -0.206 F 
ATOM     76  C   UNL A   1      47.766  26.207  33.223  1.00  0.00     0.060 A 
BRANCH  76  77
ATOM     77  S   UNL A   1      49.258  25.275  33.629  1.00  0.00     0.124 S 
ATOM     78  O   UNL A   1      48.720  24.227  34.492  1.00  0.00    -0.237 OA
ATOM     79  O   UNL A   1      49.720  24.838  32.316  1.00  0.00    -0.237 OA
ATOM     80  O   UNL A   1      50.104  26.262  34.294  1.00  0.00    -0.744 OA
ENDBRANCH  76  77
ENDBRANCH  55  69
BRANCH  56  81
ATOM     81  C   UNL A   1      37.169  32.662  30.022  1.00  0.00     0.058 A 
ATOM     82  C   UNL A   1      35.989  32.387  30.730  1.00  0.00     0.135 A 
ATOM     83  C   UNL A   1      37.108  33.629  29.006  1.00  0.00     0.135 A 
ATOM     84  F   UNL A   1      35.994  31.468  31.708  1.00  0.00    -0.206 F 
ATOM     85  C   UNL A   1      34.790  33.023  30.425  1.00  0.00     0.059 A 
ATOM     86  C   UNL A   1      35.927  34.298  28.700  1.00  0.00     0.059 A 
ATOM     87  F   UNL A   1      38.213  33.945  28.311  1.00  0.00    -0.206 F 
ATOM     88  C   UNL A   1      34.769  33.977  29.406  1.00  0.00     0.060 A 
BRANCH  88  89
ATOM     89  S   UNL A   1      33.213  34.816  29.035  1.00  0.00     0.124 S 
ATOM     90  O   UNL A   1      32.649  33.947  28.009  1.00  0.00    -0.237 OA
ATOM     91  O   UNL A   1      32.538  34.798  30.330  1.00  0.00    -0.237 OA
ATOM     92  O   UNL A   1      33.645  36.135  28.582  1.00  0.00    -0.744 OA
ENDBRANCH  88  89
ENDBRANCH  56  81
BRANCH  68  93
ATOM     93  C   UNL A   1      42.514  33.986  34.326  1.00  0.00     0.058 A 
ATOM     94  C   UNL A   1      42.101  34.050  35.664  1.00  0.00     0.135 A 
ATOM     95  C   UNL A   1      43.370  34.993  33.849  1.00  0.00     0.135 A 
ATOM     96  F   UNL A   1      41.277  33.117  36.164  1.00  0.00    -0.206 F 
ATOM     97  C   UNL A   1      42.530  35.073  36.504  1.00  0.00     0.059 A 
ATOM     98  C   UNL A   1      43.830  36.011  34.678  1.00  0.00     0.059 A 
ATOM     99  F   UNL A   1      43.798  34.970  32.576  1.00  0.00    -0.206 F 
ATOM    100  C   UNL A   1      43.405  36.041  36.004  1.00  0.00     0.060 A 
BRANCH 100 101
ATOM    101  S   UNL A   1      44.025  37.309  37.130  1.00  0.00     0.124 S 
ATOM    102  O   UNL A   1      44.076  38.478  36.258  1.00  0.00    -0.237 OA
ATOM    103  O   UNL A   1      42.998  37.335  38.167  1.00  0.00    -0.237 OA
ATOM    104  O   UNL A   1      45.321  36.785  37.553  1.00  0.00    -0.744 OA
ENDBRANCH 100 101
ENDBRANCH  68  93
ENDBRANCH  42  43
ENDBRANCH  34  37
ENDBRANCH  32  33
ENDBRANCH   1  32
TORSDOF 19
ENDMDL
