MODEL 1
REMARK VINA RESULT:     -10.5      0.000      0.000
REMARK SMILES CSc1ccc(C[C@H]([NH3+])C(=O)NCCCNC(=O)c2ccc(-c3c4nc(c(-c5c(F)cc(S(=O)(=O)[O-])cc5F)c5ccc([nH]5)c(-c5c(F)cc(S(=O)(=O)[O-])cc5F)c5nc(c(-c6c(F)cc(S(=O)(=O)[O-])cc6F)c6ccc3[nH]6)C=C5)C=C4)cc2)cc1
REMARK SMILES IDX 14 1 13 2 12 3 10 4 11 5 8 7 7 8 6 9 3 10 4 11 86 12 5 13
REMARK SMILES IDX 85 14 2 15 1 16 9 17 15 21 16 22 17 23 18 25 19 26 20 27
REMARK SMILES IDX 84 28 21 29 83 30 22 31 23 32 24 33 77 34 25 35 82 36 76 37
REMARK SMILES IDX 78 38 26 39 81 40 75 41 74 42 27 44 61 45 40 46 60 47 41 48
REMARK SMILES IDX 44 49 59 50 79 51 42 52 43 53 58 55 80 56 45 57 28 58 29 59
REMARK SMILES IDX 38 60 30 61 31 62 37 63 39 64 32 65 33 66 34 67 35 68 36 69
REMARK SMILES IDX 62 70 63 71 72 72 64 73 65 74 71 75 73 76 66 77 67 78 68 79
REMARK SMILES IDX 69 80 70 81 46 82 47 83 56 84 48 85 49 86 55 87 57 88 50 89
REMARK SMILES IDX 51 90 52 91 53 92 54 93
REMARK H PARENT 12 6 9 18 9 19 9 20 16 24 78 43 44 54
REMARK Flexibility Score: inf
ROOT
ATOM      1  C   UNL A   1      34.609  34.082  29.926  1.00  0.00     0.042 C 
ENDROOT
BRANCH   1   2
ATOM      2  C   UNL A   1      33.699  35.202  29.442  1.00  0.00     0.118 C 
BRANCH   2   3
ATOM      3  N   UNL A   1      32.635  35.516  30.375  1.00  0.00    -0.351 N 
ATOM      4  C   UNL A   1      32.673  36.207  31.546  1.00  0.00     0.278 C 
ATOM      5  O   UNL A   1      31.595  36.418  32.114  1.00  0.00    -0.268 OA
ATOM      6  H   UNL A   1      31.746  35.177  30.122  1.00  0.00     0.163 HD
BRANCH   4   7
ATOM      7  C   UNL A   1      33.989  36.690  32.192  1.00  0.00     0.275 C 
BRANCH   7   8
ATOM      8  C   UNL A   1      34.382  36.053  33.540  1.00  0.00     0.111 C 
BRANCH   8   9
ATOM      9  C   UNL A   1      35.252  34.822  33.503  1.00  0.00    -0.041 A 
ATOM     10  C   UNL A   1      36.803  32.462  33.302  1.00  0.00     0.007 A 
ATOM     11  C   UNL A   1      35.412  32.404  33.249  1.00  0.00     0.015 A 
ATOM     12  C   UNL A   1      37.410  33.713  33.477  1.00  0.00     0.015 A 
ATOM     13  C   UNL A   1      34.650  33.564  33.387  1.00  0.00     0.005 A 
ATOM     14  C   UNL A   1      36.646  34.886  33.564  1.00  0.00     0.005 A 
BRANCH  10  15
ATOM     15  S   UNL A   1      37.868  31.032  33.153  1.00  0.00    -0.130 SA
ATOM     16  C   UNL A   1      38.467  30.791  34.851  1.00  0.00     0.091 C 
ENDBRANCH  10  15
ENDBRANCH   8   9
ENDBRANCH   7   8
BRANCH   7  17
ATOM     17  N   UNL A   1      34.022  38.172  32.267  1.00  0.00    -0.347 N 
ATOM     18  H   UNL A   1      33.617  38.476  33.152  1.00  0.00     0.345 HD
ATOM     19  H   UNL A   1      33.484  38.563  31.493  1.00  0.00     0.345 HD
ATOM     20  H   UNL A   1      34.988  38.494  32.206  1.00  0.00     0.345 HD
ENDBRANCH   7  17
ENDBRANCH   4   7
ENDBRANCH   2   3
ENDBRANCH   1   2
BRANCH   1  21
ATOM     21  C   UNL A   1      35.113  33.153  28.825  1.00  0.00     0.118 C 
BRANCH  21  22
ATOM     22  N   UNL A   1      34.134  32.160  28.390  1.00  0.00    -0.352 N 
ATOM     23  C   UNL A   1      34.292  30.830  28.065  1.00  0.00     0.251 C 
ATOM     24  H   UNL A   1      33.211  32.496  28.316  1.00  0.00     0.163 HD
ATOM     25  O   UNL A   1      33.354  30.202  27.591  1.00  0.00    -0.269 OA
BRANCH  23  26
ATOM     26  C   UNL A   1      35.609  30.180  28.255  1.00  0.00     0.039 A 
ATOM     27  C   UNL A   1      36.496  30.102  27.178  1.00  0.00     0.014 A 
ATOM     28  C   UNL A   1      35.987  29.693  29.506  1.00  0.00     0.014 A 
ATOM     29  C   UNL A   1      37.800  29.644  27.388  1.00  0.00     0.010 A 
ATOM     30  C   UNL A   1      37.311  29.344  29.737  1.00  0.00     0.010 A 
ATOM     31  C   UNL A   1      38.239  29.324  28.684  1.00  0.00    -0.014 A 
BRANCH  31  32
ATOM     32  C   UNL A   1      39.657  28.989  28.979  1.00  0.00     0.031 A 
ATOM     33  C   UNL A   1      40.571  30.031  29.569  1.00  0.00     0.074 A 
ATOM     34  C   UNL A   1      40.153  27.790  28.611  1.00  0.00     0.049 A 
ATOM     35  N   UNL A   1      41.865  29.988  29.756  1.00  0.00    -0.248 NA
ATOM     36  C   UNL A   1      39.951  31.309  29.956  1.00  0.00     0.031 C 
ATOM     37  C   UNL A   1      39.393  26.712  27.973  1.00  0.00     0.029 A 
ATOM     38  N   UNL A   1      41.424  27.278  28.710  1.00  0.00    -0.354 N 
ATOM     39  C   UNL A   1      42.219  31.244  30.237  1.00  0.00     0.074 A 
ATOM     40  C   UNL A   1      41.012  32.040  30.265  1.00  0.00     0.031 C 
ATOM     41  C   UNL A   1      40.199  25.657  27.777  1.00  0.00     0.029 A 
ATOM     42  C   UNL A   1      41.543  25.995  28.230  1.00  0.00     0.049 A 
ATOM     43  H   UNL A   1      42.179  27.783  29.090  1.00  0.00     0.167 HD
ATOM     44  C   UNL A   1      43.433  31.688  30.640  1.00  0.00     0.037 A 
ATOM     45  C   UNL A   1      42.616  25.183  28.160  1.00  0.00     0.037 A 
ATOM     46  C   UNL A   1      44.618  30.873  30.669  1.00  0.00     0.049 A 
ATOM     47  C   UNL A   1      43.946  25.680  28.654  1.00  0.00     0.074 A 
ATOM     48  C   UNL A   1      45.877  31.196  31.143  1.00  0.00     0.029 A 
ATOM     49  N   UNL A   1      44.687  29.565  30.212  1.00  0.00    -0.354 N 
ATOM     50  N   UNL A   1      44.251  26.852  29.158  1.00  0.00    -0.248 NA
ATOM     51  C   UNL A   1      45.077  24.746  28.570  1.00  0.00     0.031 C 
ATOM     52  C   UNL A   1      46.714  30.091  30.950  1.00  0.00     0.029 A 
ATOM     53  C   UNL A   1      45.968  29.069  30.384  1.00  0.00     0.049 A 
ATOM     54  H   UNL A   1      43.935  29.061  29.822  1.00  0.00     0.167 HD
ATOM     55  C   UNL A   1      45.602  26.787  29.477  1.00  0.00     0.074 A 
ATOM     56  C   UNL A   1      46.054  25.459  29.114  1.00  0.00     0.031 C 
ATOM     57  C   UNL A   1      46.396  27.740  30.025  1.00  0.00     0.037 A 
BRANCH  44  58
ATOM     58  C   UNL A   1      43.528  33.121  31.088  1.00  0.00     0.058 A 
ATOM     59  C   UNL A   1      43.728  34.169  30.174  1.00  0.00     0.135 A 
ATOM     60  C   UNL A   1      43.434  33.450  32.450  1.00  0.00     0.135 A 
ATOM     61  F   UNL A   1      43.839  33.908  28.862  1.00  0.00    -0.206 F 
ATOM     62  C   UNL A   1      43.886  35.484  30.598  1.00  0.00     0.059 A 
ATOM     63  C   UNL A   1      43.559  34.763  32.894  1.00  0.00     0.059 A 
ATOM     64  F   UNL A   1      43.238  32.490  33.367  1.00  0.00    -0.206 F 
ATOM     65  C   UNL A   1      43.811  35.770  31.962  1.00  0.00     0.060 A 
BRANCH  65  66
ATOM     66  S   UNL A   1      44.056  37.474  32.504  1.00  0.00     0.124 S 
ATOM     67  O   UNL A   1      43.051  37.591  33.555  1.00  0.00    -0.237 OA
ATOM     68  O   UNL A   1      45.445  37.465  32.955  1.00  0.00    -0.237 OA
ATOM     69  O   UNL A   1      43.798  38.253  31.297  1.00  0.00    -0.744 OA
ENDBRANCH  65  66
ENDBRANCH  44  58
BRANCH  45  70
ATOM     70  C   UNL A   1      42.463  23.794  27.652  1.00  0.00     0.058 A 
ATOM     71  C   UNL A   1      42.476  23.537  26.274  1.00  0.00     0.135 A 
ATOM     72  C   UNL A   1      42.330  22.699  28.520  1.00  0.00     0.135 A 
ATOM     73  F   UNL A   1      42.595  24.554  25.405  1.00  0.00    -0.206 F 
ATOM     74  C   UNL A   1      42.356  22.247  25.770  1.00  0.00     0.059 A 
ATOM     75  C   UNL A   1      42.228  21.396  28.041  1.00  0.00     0.059 A 
ATOM     76  F   UNL A   1      42.329  22.891  29.849  1.00  0.00    -0.206 F 
ATOM     77  C   UNL A   1      42.236  21.181  26.663  1.00  0.00     0.060 A 
BRANCH  77  78
ATOM     78  S   UNL A   1      42.145  19.503  26.000  1.00  0.00     0.124 S 
ATOM     79  O   UNL A   1      43.086  19.575  24.889  1.00  0.00    -0.237 OA
ATOM     80  O   UNL A   1      42.566  18.698  27.143  1.00  0.00    -0.237 OA
ATOM     81  O   UNL A   1      40.739  19.366  25.631  1.00  0.00    -0.744 OA
ENDBRANCH  77  78
ENDBRANCH  45  70
BRANCH  57  82
ATOM     82  C   UNL A   1      47.825  27.370  30.299  1.00  0.00     0.058 A 
ATOM     83  C   UNL A   1      48.854  27.694  29.402  1.00  0.00     0.135 A 
ATOM     84  C   UNL A   1      48.174  26.730  31.499  1.00  0.00     0.135 A 
ATOM     85  F   UNL A   1      48.569  28.297  28.237  1.00  0.00    -0.206 F 
ATOM     86  C   UNL A   1      50.181  27.379  29.677  1.00  0.00     0.059 A 
ATOM     87  C   UNL A   1      49.497  26.428  31.805  1.00  0.00     0.059 A 
ATOM     88  F   UNL A   1      47.226  26.408  32.393  1.00  0.00    -0.206 F 
ATOM     89  C   UNL A   1      50.492  26.747  30.882  1.00  0.00     0.060 A 
BRANCH  89  90
ATOM     90  S   UNL A   1      52.222  26.381  31.249  1.00  0.00     0.124 S 
ATOM     91  O   UNL A   1      52.109  25.111  31.957  1.00  0.00    -0.237 OA
ATOM     92  O   UNL A   1      52.819  26.315  29.919  1.00  0.00    -0.237 OA
ATOM     93  O   UNL A   1      52.643  27.519  32.062  1.00  0.00    -0.744 OA
ENDBRANCH  89  90
ENDBRANCH  57  82
ENDBRANCH  31  32
ENDBRANCH  23  26
ENDBRANCH  21  22
ENDBRANCH   1  21
TORSDOF 17
ENDMDL
MODEL 2
REMARK VINA RESULT:     -10.4      4.754     12.981
REMARK SMILES CSc1ccc(C[C@H]([NH3+])C(=O)NCCCNC(=O)c2ccc(-c3c4nc(c(-c5c(F)cc(S(=O)(=O)[O-])cc5F)c5ccc([nH]5)c(-c5c(F)cc(S(=O)(=O)[O-])cc5F)c5nc(c(-c6c(F)cc(S(=O)(=O)[O-])cc6F)c6ccc3[nH]6)C=C5)C=C4)cc2)cc1
REMARK SMILES IDX 14 1 13 2 12 3 10 4 11 5 8 7 7 8 6 9 3 10 4 11 86 12 5 13
REMARK SMILES IDX 85 14 2 15 1 16 9 17 15 21 16 22 17 23 18 25 19 26 20 27
REMARK SMILES IDX 84 28 21 29 83 30 22 31 23 32 24 33 77 34 25 35 82 36 76 37
REMARK SMILES IDX 78 38 26 39 81 40 75 41 74 42 27 44 61 45 40 46 60 47 41 48
REMARK SMILES IDX 44 49 59 50 79 51 42 52 43 53 58 55 80 56 45 57 28 58 29 59
REMARK SMILES IDX 38 60 30 61 31 62 37 63 39 64 32 65 33 66 34 67 35 68 36 69
REMARK SMILES IDX 62 70 63 71 72 72 64 73 65 74 71 75 73 76 66 77 67 78 68 79
REMARK SMILES IDX 69 80 70 81 46 82 47 83 56 84 48 85 49 86 55 87 57 88 50 89
REMARK SMILES IDX 51 90 52 91 53 92 54 93
REMARK H PARENT 12 6 9 18 9 19 9 20 16 24 78 43 44 54
REMARK Flexibility Score: inf
ROOT
ATOM      1  C   UNL A   1      40.940  21.411  27.272  1.00  0.00     0.042 C 
ENDROOT
BRANCH   1   2
ATOM      2  C   UNL A   1      41.989  21.275  26.178  1.00  0.00     0.118 C 
BRANCH   2   3
ATOM      3  N   UNL A   1      42.249  19.899  25.803  1.00  0.00    -0.351 N 
ATOM      4  C   UNL A   1      43.423  19.278  25.509  1.00  0.00     0.278 C 
ATOM      5  O   UNL A   1      43.383  18.059  25.309  1.00  0.00    -0.268 OA
ATOM      6  H   UNL A   1      41.452  19.324  25.754  1.00  0.00     0.163 HD
BRANCH   4   7
ATOM      7  C   UNL A   1      44.763  20.035  25.383  1.00  0.00     0.275 C 
BRANCH   7   8
ATOM      8  C   UNL A   1      44.925  20.974  24.172  1.00  0.00     0.111 C 
BRANCH   8   9
ATOM      9  C   UNL A   1      45.183  22.434  24.450  1.00  0.00    -0.041 A 
ATOM     10  C   UNL A   1      45.573  25.161  25.104  1.00  0.00     0.007 A 
ATOM     11  C   UNL A   1      44.290  24.616  25.066  1.00  0.00     0.015 A 
ATOM     12  C   UNL A   1      46.658  24.330  24.792  1.00  0.00     0.015 A 
ATOM     13  C   UNL A   1      44.100  23.282  24.706  1.00  0.00     0.005 A 
ATOM     14  C   UNL A   1      46.470  22.975  24.480  1.00  0.00     0.005 A 
BRANCH  10  15
ATOM     15  S   UNL A   1      45.922  26.862  25.536  1.00  0.00    -0.130 SA
ATOM     16  C   UNL A   1      47.410  26.722  26.569  1.00  0.00     0.091 C 
ENDBRANCH  10  15
ENDBRANCH   8   9
ENDBRANCH   7   8
BRANCH   7  17
ATOM     17  N   UNL A   1      45.907  19.095  25.493  1.00  0.00    -0.347 N 
ATOM     18  H   UNL A   1      45.705  18.251  24.957  1.00  0.00     0.345 HD
ATOM     19  H   UNL A   1      46.053  18.850  26.472  1.00  0.00     0.345 HD
ATOM     20  H   UNL A   1      46.748  19.539  25.124  1.00  0.00     0.345 HD
ENDBRANCH   7  17
ENDBRANCH   4   7
ENDBRANCH   2   3
ENDBRANCH   1   2
BRANCH   1  21
ATOM     21  C   UNL A   1      40.408  22.828  27.469  1.00  0.00     0.118 C 
BRANCH  21  22
ATOM     22  N   UNL A   1      40.633  23.713  26.328  1.00  0.00    -0.352 N 
ATOM     23  C   UNL A   1      40.761  25.083  26.271  1.00  0.00     0.251 C 
ATOM     24  H   UNL A   1      40.705  23.254  25.460  1.00  0.00     0.163 HD
ATOM     25  O   UNL A   1      40.813  25.646  25.184  1.00  0.00    -0.269 OA
BRANCH  23  26
ATOM     26  C   UNL A   1      40.793  25.870  27.524  1.00  0.00     0.039 A 
ATOM     27  C   UNL A   1      41.917  26.646  27.817  1.00  0.00     0.014 A 
ATOM     28  C   UNL A   1      39.695  25.881  28.384  1.00  0.00     0.014 A 
ATOM     29  C   UNL A   1      41.889  27.521  28.909  1.00  0.00     0.010 A 
ATOM     30  C   UNL A   1      39.625  26.827  29.399  1.00  0.00     0.010 A 
ATOM     31  C   UNL A   1      40.717  27.667  29.669  1.00  0.00    -0.014 A 
BRANCH  31  32
ATOM     32  C   UNL A   1      40.588  28.697  30.734  1.00  0.00     0.031 A 
ATOM     33  C   UNL A   1      41.454  28.621  31.964  1.00  0.00     0.074 A 
ATOM     34  C   UNL A   1      39.616  29.628  30.652  1.00  0.00     0.049 A 
ATOM     35  N   UNL A   1      41.391  29.324  33.065  1.00  0.00    -0.248 NA
ATOM     36  C   UNL A   1      42.499  27.585  31.973  1.00  0.00     0.031 C 
ATOM     37  C   UNL A   1      38.667  29.774  29.545  1.00  0.00     0.029 A 
ATOM     38  N   UNL A   1      39.255  30.626  31.524  1.00  0.00    -0.354 N 
ATOM     39  C   UNL A   1      42.354  28.786  33.912  1.00  0.00     0.074 A 
ATOM     40  C   UNL A   1      42.950  27.668  33.215  1.00  0.00     0.031 C 
ATOM     41  C   UNL A   1      37.864  30.822  29.785  1.00  0.00     0.029 A 
ATOM     42  C   UNL A   1      38.205  31.396  31.082  1.00  0.00     0.049 A 
ATOM     43  H   UNL A   1      39.707  30.776  32.386  1.00  0.00     0.167 HD
ATOM     44  C   UNL A   1      42.724  29.197  35.148  1.00  0.00     0.037 A 
ATOM     45  C   UNL A   1      37.587  32.445  31.657  1.00  0.00     0.037 A 
ATOM     46  C   UNL A   1      42.171  30.348  35.811  1.00  0.00     0.049 A 
ATOM     47  C   UNL A   1      38.043  32.914  33.011  1.00  0.00     0.074 A 
ATOM     48  C   UNL A   1      42.538  30.904  37.024  1.00  0.00     0.029 A 
ATOM     49  N   UNL A   1      41.137  31.125  35.311  1.00  0.00    -0.354 N 
ATOM     50  N   UNL A   1      38.993  32.428  33.773  1.00  0.00    -0.248 NA
ATOM     51  C   UNL A   1      37.343  34.073  33.582  1.00  0.00     0.031 C 
ATOM     52  C   UNL A   1      41.708  32.005  37.268  1.00  0.00     0.029 A 
ATOM     53  C   UNL A   1      40.846  32.152  36.193  1.00  0.00     0.049 A 
ATOM     54  H   UNL A   1      40.678  30.971  34.454  1.00  0.00     0.167 HD
ATOM     55  C   UNL A   1      39.025  33.237  34.902  1.00  0.00     0.074 A 
ATOM     56  C   UNL A   1      38.002  34.248  34.720  1.00  0.00     0.031 C 
ATOM     57  C   UNL A   1      39.831  33.154  35.989  1.00  0.00     0.037 A 
BRANCH  44  58
ATOM     58  C   UNL A   1      43.785  28.395  35.852  1.00  0.00     0.058 A 
ATOM     59  C   UNL A   1      45.153  28.646  35.655  1.00  0.00     0.135 A 
ATOM     60  C   UNL A   1      43.431  27.352  36.721  1.00  0.00     0.135 A 
ATOM     61  F   UNL A   1      45.546  29.624  34.823  1.00  0.00    -0.206 F 
ATOM     62  C   UNL A   1      46.131  27.858  36.251  1.00  0.00     0.059 A 
ATOM     63  C   UNL A   1      44.393  26.567  37.352  1.00  0.00     0.059 A 
ATOM     64  F   UNL A   1      42.139  27.070  36.951  1.00  0.00    -0.206 F 
ATOM     65  C   UNL A   1      45.741  26.814  37.090  1.00  0.00     0.060 A 
BRANCH  65  66
ATOM     66  S   UNL A   1      47.018  25.772  37.827  1.00  0.00     0.124 S 
ATOM     67  O   UNL A   1      47.298  24.843  36.736  1.00  0.00    -0.237 OA
ATOM     68  O   UNL A   1      48.075  26.733  38.127  1.00  0.00    -0.237 OA
ATOM     69  O   UNL A   1      46.353  25.194  38.990  1.00  0.00    -0.744 OA
ENDBRANCH  65  66
ENDBRANCH  44  58
BRANCH  45  70
ATOM     70  C   UNL A   1      36.505  33.159  30.928  1.00  0.00     0.058 A 
ATOM     71  C   UNL A   1      35.172  33.048  31.351  1.00  0.00     0.135 A 
ATOM     72  C   UNL A   1      36.775  33.982  29.824  1.00  0.00     0.135 A 
ATOM     73  F   UNL A   1      34.865  32.268  32.399  1.00  0.00    -0.206 F 
ATOM     74  C   UNL A   1      34.143  33.721  30.703  1.00  0.00     0.059 A 
ATOM     75  C   UNL A   1      35.764  34.681  29.170  1.00  0.00     0.059 A 
ATOM     76  F   UNL A   1      38.037  34.134  29.392  1.00  0.00    -0.206 F 
ATOM     77  C   UNL A   1      34.449  34.538  29.614  1.00  0.00     0.060 A 
BRANCH  77  78
ATOM     78  S   UNL A   1      33.112  35.457  28.819  1.00  0.00     0.124 S 
ATOM     79  O   UNL A   1      32.373  35.957  29.972  1.00  0.00    -0.237 OA
ATOM     80  O   UNL A   1      33.844  36.456  28.046  1.00  0.00    -0.237 OA
ATOM     81  O   UNL A   1      32.433  34.437  28.025  1.00  0.00    -0.744 OA
ENDBRANCH  77  78
ENDBRANCH  45  70
BRANCH  57  82
ATOM     82  C   UNL A   1      39.664  34.204  37.051  1.00  0.00     0.058 A 
ATOM     83  C   UNL A   1      38.874  33.982  38.187  1.00  0.00     0.135 A 
ATOM     84  C   UNL A   1      40.347  35.426  36.951  1.00  0.00     0.135 A 
ATOM     85  F   UNL A   1      38.194  32.833  38.323  1.00  0.00    -0.206 F 
ATOM     86  C   UNL A   1      38.751  34.945  39.184  1.00  0.00     0.059 A 
ATOM     87  C   UNL A   1      40.258  36.394  37.947  1.00  0.00     0.059 A 
ATOM     88  F   UNL A   1      41.124  35.683  35.886  1.00  0.00    -0.206 F 
ATOM     89  C   UNL A   1      39.449  36.147  39.055  1.00  0.00     0.060 A 
BRANCH  89  90
ATOM     90  S   UNL A   1      39.317  37.374  40.373  1.00  0.00     0.124 S 
ATOM     91  O   UNL A   1      38.383  38.331  39.791  1.00  0.00    -0.237 OA
ATOM     92  O   UNL A   1      38.803  36.584  41.488  1.00  0.00    -0.237 OA
ATOM     93  O   UNL A   1      40.688  37.849  40.531  1.00  0.00    -0.744 OA
ENDBRANCH  89  90
ENDBRANCH  57  82
ENDBRANCH  31  32
ENDBRANCH  23  26
ENDBRANCH  21  22
ENDBRANCH   1  21
TORSDOF 17
ENDMDL
MODEL 3
REMARK VINA RESULT:     -10.3      2.828      5.544
REMARK SMILES CSc1ccc(C[C@H]([NH3+])C(=O)NCCCNC(=O)c2ccc(-c3c4nc(c(-c5c(F)cc(S(=O)(=O)[O-])cc5F)c5ccc([nH]5)c(-c5c(F)cc(S(=O)(=O)[O-])cc5F)c5nc(c(-c6c(F)cc(S(=O)(=O)[O-])cc6F)c6ccc3[nH]6)C=C5)C=C4)cc2)cc1
REMARK SMILES IDX 14 1 13 2 12 3 10 4 11 5 8 7 7 8 6 9 3 10 4 11 86 12 5 13
REMARK SMILES IDX 85 14 2 15 1 16 9 17 15 21 16 22 17 23 18 25 19 26 20 27
REMARK SMILES IDX 84 28 21 29 83 30 22 31 23 32 24 33 77 34 25 35 82 36 76 37
REMARK SMILES IDX 78 38 26 39 81 40 75 41 74 42 27 44 61 45 40 46 60 47 41 48
REMARK SMILES IDX 44 49 59 50 79 51 42 52 43 53 58 55 80 56 45 57 28 58 29 59
REMARK SMILES IDX 38 60 30 61 31 62 37 63 39 64 32 65 33 66 34 67 35 68 36 69
REMARK SMILES IDX 62 70 63 71 72 72 64 73 65 74 71 75 73 76 66 77 67 78 68 79
REMARK SMILES IDX 69 80 70 81 46 82 47 83 56 84 48 85 49 86 55 87 57 88 50 89
REMARK SMILES IDX 51 90 52 91 53 92 54 93
REMARK H PARENT 12 6 9 18 9 19 9 20 16 24 78 43 44 54
REMARK Flexibility Score: inf
ROOT
ATOM      1  C   UNL A   1      32.204  28.116  27.476  1.00  0.00     0.042 C 
ENDROOT
BRANCH   1   2
ATOM      2  C   UNL A   1      31.419  27.551  26.301  1.00  0.00     0.118 C 
BRANCH   2   3
ATOM      3  N   UNL A   1      31.281  28.488  25.203  1.00  0.00    -0.351 N 
ATOM      4  C   UNL A   1      31.540  28.327  23.878  1.00  0.00     0.278 C 
ATOM      5  O   UNL A   1      31.246  29.265  23.127  1.00  0.00    -0.268 OA
ATOM      6  H   UNL A   1      30.947  29.379  25.457  1.00  0.00     0.163 HD
BRANCH   4   7
ATOM      7  C   UNL A   1      32.208  27.061  23.301  1.00  0.00     0.275 C 
BRANCH   7   8
ATOM      8  C   UNL A   1      33.679  26.807  23.689  1.00  0.00     0.111 C 
BRANCH   8   9
ATOM      9  C   UNL A   1      34.054  25.413  24.128  1.00  0.00    -0.041 A 
ATOM     10  C   UNL A   1      34.627  22.797  25.046  1.00  0.00     0.007 A 
ATOM     11  C   UNL A   1      34.335  23.819  25.948  1.00  0.00     0.015 A 
ATOM     12  C   UNL A   1      34.649  23.105  23.678  1.00  0.00     0.015 A 
ATOM     13  C   UNL A   1      34.091  25.115  25.494  1.00  0.00     0.005 A 
ATOM     14  C   UNL A   1      34.354  24.397  23.218  1.00  0.00     0.005 A 
BRANCH  10  15
ATOM     15  S   UNL A   1      34.971  21.109  25.527  1.00  0.00    -0.130 SA
ATOM     16  C   UNL A   1      33.610  20.182  24.757  1.00  0.00     0.091 C 
ENDBRANCH  10  15
ENDBRANCH   8   9
ENDBRANCH   7   8
BRANCH   7  17
ATOM     17  N   UNL A   1      32.021  26.993  21.831  1.00  0.00    -0.347 N 
ATOM     18  H   UNL A   1      32.774  26.444  21.417  1.00  0.00     0.345 HD
ATOM     19  H   UNL A   1      32.035  27.937  21.443  1.00  0.00     0.345 HD
ATOM     20  H   UNL A   1      31.124  26.554  21.622  1.00  0.00     0.345 HD
ENDBRANCH   7  17
ENDBRANCH   4   7
ENDBRANCH   2   3
ENDBRANCH   1   2
BRANCH   1  21
ATOM     21  C   UNL A   1      33.472  28.871  27.089  1.00  0.00     0.118 C 
BRANCH  21  22
ATOM     22  N   UNL A   1      33.551  30.223  27.637  1.00  0.00    -0.352 N 
ATOM     23  C   UNL A   1      34.574  30.860  28.305  1.00  0.00     0.251 C 
ATOM     24  H   UNL A   1      32.741  30.768  27.507  1.00  0.00     0.163 HD
ATOM     25  O   UNL A   1      34.385  31.962  28.803  1.00  0.00    -0.269 OA
BRANCH  23  26
ATOM     26  C   UNL A   1      35.884  30.187  28.453  1.00  0.00     0.039 A 
ATOM     27  C   UNL A   1      36.781  30.190  27.381  1.00  0.00     0.014 A 
ATOM     28  C   UNL A   1      36.247  29.596  29.664  1.00  0.00     0.014 A 
ATOM     29  C   UNL A   1      38.080  29.707  27.565  1.00  0.00     0.010 A 
ATOM     30  C   UNL A   1      37.566  29.220  29.877  1.00  0.00     0.010 A 
ATOM     31  C   UNL A   1      38.504  29.279  28.834  1.00  0.00    -0.014 A 
BRANCH  31  32
ATOM     32  C   UNL A   1      39.918  28.910  29.114  1.00  0.00     0.031 A 
ATOM     33  C   UNL A   1      40.855  29.923  29.718  1.00  0.00     0.074 A 
ATOM     34  C   UNL A   1      40.388  27.709  28.719  1.00  0.00     0.049 A 
ATOM     35  N   UNL A   1      42.149  29.850  29.896  1.00  0.00    -0.248 NA
ATOM     36  C   UNL A   1      40.263  31.205  30.133  1.00  0.00     0.031 C 
ATOM     37  C   UNL A   1      39.602  26.659  28.066  1.00  0.00     0.029 A 
ATOM     38  N   UNL A   1      41.649  27.171  28.800  1.00  0.00    -0.354 N 
ATOM     39  C   UNL A   1      42.531  31.089  30.399  1.00  0.00     0.074 A 
ATOM     40  C   UNL A   1      41.340  31.909  30.450  1.00  0.00     0.031 C 
ATOM     41  C   UNL A   1      40.386  25.593  27.844  1.00  0.00     0.029 A 
ATOM     42  C   UNL A   1      41.740  25.895  28.295  1.00  0.00     0.049 A 
ATOM     43  H   UNL A   1      42.416  27.653  29.186  1.00  0.00     0.167 HD
ATOM     44  C   UNL A   1      43.756  31.502  30.803  1.00  0.00     0.037 A 
ATOM     45  C   UNL A   1      42.795  25.064  28.202  1.00  0.00     0.037 A 
ATOM     46  C   UNL A   1      44.924  30.663  30.809  1.00  0.00     0.049 A 
ATOM     47  C   UNL A   1      44.138  25.525  28.698  1.00  0.00     0.074 A 
ATOM     48  C   UNL A   1      46.192  30.952  31.281  1.00  0.00     0.029 A 
ATOM     49  N   UNL A   1      44.965  29.363  30.326  1.00  0.00    -0.354 N 
ATOM     50  N   UNL A   1      44.469  26.680  29.222  1.00  0.00    -0.248 NA
ATOM     51  C   UNL A   1      45.250  24.570  28.588  1.00  0.00     0.031 C 
ATOM     52  C   UNL A   1      47.006  29.835  31.061  1.00  0.00     0.029 A 
ATOM     53  C   UNL A   1      46.237  28.839  30.480  1.00  0.00     0.049 A 
ATOM     54  H   UNL A   1      44.201  28.882  29.931  1.00  0.00     0.167 HD
ATOM     55  C   UNL A   1      45.821  26.583  29.532  1.00  0.00     0.074 A 
ATOM     56  C   UNL A   1      46.244  25.254  29.139  1.00  0.00     0.031 C 
ATOM     57  C   UNL A   1      46.636  27.509  30.093  1.00  0.00     0.037 A 
BRANCH  44  58
ATOM     58  C   UNL A   1      43.882  32.923  31.278  1.00  0.00     0.058 A 
ATOM     59  C   UNL A   1      43.586  33.288  32.602  1.00  0.00     0.135 A 
ATOM     60  C   UNL A   1      44.286  33.937  30.396  1.00  0.00     0.135 A 
ATOM     61  F   UNL A   1      43.182  32.360  33.484  1.00  0.00    -0.206 F 
ATOM     62  C   UNL A   1      43.635  34.613  33.020  1.00  0.00     0.059 A 
ATOM     63  C   UNL A   1      44.371  35.267  30.800  1.00  0.00     0.059 A 
ATOM     64  F   UNL A   1      44.586  33.646  29.121  1.00  0.00    -0.206 F 
ATOM     65  C   UNL A   1      44.018  35.598  32.109  1.00  0.00     0.060 A 
BRANCH  65  66
ATOM     66  S   UNL A   1      44.040  37.319  32.652  1.00  0.00     0.124 S 
ATOM     67  O   UNL A   1      43.731  38.018  31.408  1.00  0.00    -0.237 OA
ATOM     68  O   UNL A   1      42.992  37.344  33.668  1.00  0.00    -0.237 OA
ATOM     69  O   UNL A   1      45.398  37.499  33.154  1.00  0.00    -0.744 OA
ENDBRANCH  65  66
ENDBRANCH  44  58
BRANCH  45  70
ATOM     70  C   UNL A   1      42.612  23.688  27.669  1.00  0.00     0.058 A 
ATOM     71  C   UNL A   1      42.675  23.449  26.288  1.00  0.00     0.135 A 
ATOM     72  C   UNL A   1      42.401  22.588  28.515  1.00  0.00     0.135 A 
ATOM     73  F   UNL A   1      42.869  24.471  25.440  1.00  0.00    -0.206 F 
ATOM     74  C   UNL A   1      42.528  22.170  25.762  1.00  0.00     0.059 A 
ATOM     75  C   UNL A   1      42.270  21.296  28.013  1.00  0.00     0.059 A 
ATOM     76  F   UNL A   1      42.349  22.764  29.845  1.00  0.00    -0.206 F 
ATOM     77  C   UNL A   1      42.330  21.099  26.634  1.00  0.00     0.060 A 
BRANCH  77  78
ATOM     78  S   UNL A   1      42.204  19.434  25.943  1.00  0.00     0.124 S 
ATOM     79  O   UNL A   1      43.098  19.524  24.795  1.00  0.00    -0.237 OA
ATOM     80  O   UNL A   1      42.669  18.606  27.052  1.00  0.00    -0.237 OA
ATOM     81  O   UNL A   1      40.783  19.309  25.631  1.00  0.00    -0.744 OA
ENDBRANCH  77  78
ENDBRANCH  45  70
BRANCH  57  82
ATOM     82  C   UNL A   1      48.060  27.106  30.350  1.00  0.00     0.058 A 
ATOM     83  C   UNL A   1      49.079  27.374  29.425  1.00  0.00     0.135 A 
ATOM     84  C   UNL A   1      48.414  26.491  31.561  1.00  0.00     0.135 A 
ATOM     85  F   UNL A   1      48.789  27.952  28.249  1.00  0.00    -0.206 F 
ATOM     86  C   UNL A   1      50.402  27.030  29.684  1.00  0.00     0.059 A 
ATOM     87  C   UNL A   1      49.733  26.159  31.851  1.00  0.00     0.059 A 
ATOM     88  F   UNL A   1      47.475  26.222  32.483  1.00  0.00    -0.206 F 
ATOM     89  C   UNL A   1      50.719  26.423  30.901  1.00  0.00     0.060 A 
BRANCH  89  90
ATOM     90  S   UNL A   1      52.444  26.018  31.246  1.00  0.00     0.124 S 
ATOM     91  O   UNL A   1      53.020  26.023  29.905  1.00  0.00    -0.237 OA
ATOM     92  O   UNL A   1      52.857  27.113  32.117  1.00  0.00    -0.237 OA
ATOM     93  O   UNL A   1      52.362  24.710  31.890  1.00  0.00    -0.744 OA
ENDBRANCH  89  90
ENDBRANCH  57  82
ENDBRANCH  31  32
ENDBRANCH  23  26
ENDBRANCH  21  22
ENDBRANCH   1  21
TORSDOF 17
ENDMDL
