MODEL 1
REMARK VINA RESULT:     -13.9      0.000      0.000
REMARK SMILES Cc1ccc(Nc2c(F)cccc2I)c(CC(=O)NCCCNC(=O)c2ccc(-c3c4nc(c(-c5c(F)cc(S(=O)(=O)[O-])cc5F)c5ccc([nH]5)c(-c5c(F)cc(S(=O)(=O)[O-])cc5F)c5nc(c(-c6c(F)cc(S(=O)(=O)[O-])cc6F)c6ccc3[nH]6)C=C5)C=C4)cc2)c1
REMARK SMILES IDX 21 1 20 2 19 3 17 4 18 5 16 7 15 8 1 9 2 10 3 11 92 12 4 13
REMARK SMILES IDX 5 14 6 15 7 17 8 18 13 19 9 20 10 21 12 22 14 23 11 24 22 25
REMARK SMILES IDX 23 26 24 27 25 29 26 30 27 31 91 32 28 33 90 34 29 35 30 36
REMARK SMILES IDX 31 37 84 38 32 39 89 40 83 41 85 42 33 43 88 44 82 45 81 46
REMARK SMILES IDX 34 48 68 49 47 50 67 51 48 52 51 53 66 54 86 55 49 56 50 57
REMARK SMILES IDX 65 59 87 60 52 61 35 62 36 63 45 64 37 65 38 66 44 67 46 68
REMARK SMILES IDX 39 69 40 70 41 71 42 72 43 73 69 74 70 75 79 76 71 77 72 78
REMARK SMILES IDX 78 79 80 80 73 81 74 82 75 83 76 84 77 85 53 86 54 87 63 88
REMARK SMILES IDX 55 89 56 90 62 91 64 92 57 93 58 94 59 95 60 96 61 97
REMARK H PARENT 19 6 6 16 23 28 85 47 51 58
REMARK Flexibility Score: inf
ROOT
ATOM      1  C   UNL A   1      33.513  29.909  26.235  1.00  0.00     0.042 C 
ENDROOT
BRANCH   1   2
ATOM      2  C   UNL A   1      33.417  28.644  25.388  1.00  0.00     0.117 C 
BRANCH   2   3
ATOM      3  N   UNL A   1      32.594  27.614  26.007  1.00  0.00    -0.356 N 
ATOM      4  C   UNL A   1      32.796  26.267  26.067  1.00  0.00     0.224 C 
ATOM      5  O   UNL A   1      31.949  25.556  26.613  1.00  0.00    -0.275 OA
ATOM      6  H   UNL A   1      31.774  27.937  26.446  1.00  0.00     0.163 HD
BRANCH   4   7
ATOM      7  C   UNL A   1      34.032  25.630  25.456  1.00  0.00     0.137 C 
BRANCH   7   8
ATOM      8  C   UNL A   1      33.775  24.912  24.148  1.00  0.00    -0.015 A 
ATOM      9  C   UNL A   1      32.241  25.910  20.788  1.00  0.00     0.044 C 
ATOM     10  C   UNL A   1      32.902  25.103  21.865  1.00  0.00    -0.051 A 
ATOM     11  C   UNL A   1      33.096  23.735  21.696  1.00  0.00     0.005 A 
ATOM     12  C   UNL A   1      33.280  25.688  23.075  1.00  0.00     0.009 A 
ATOM     13  C   UNL A   1      33.632  22.963  22.732  1.00  0.00     0.026 A 
ATOM     14  C   UNL A   1      33.955  23.519  23.982  1.00  0.00     0.042 A 
BRANCH  14  15
ATOM     15  N   UNL A   1      34.453  22.708  25.027  1.00  0.00    -0.352 N 
ATOM     16  H   UNL A   1      33.955  22.771  25.874  1.00  0.00     0.167 HD
BRANCH  15  17
ATOM     17  C   UNL A   1      35.556  21.822  25.045  1.00  0.00     0.088 A 
ATOM     18  C   UNL A   1      36.882  22.289  25.066  1.00  0.00     0.147 A 
ATOM     19  C   UNL A   1      35.372  20.426  24.968  1.00  0.00     0.040 A 
ATOM     20  F   UNL A   1      37.138  23.605  25.143  1.00  0.00    -0.205 F 
ATOM     21  C   UNL A   1      37.975  21.422  25.032  1.00  0.00     0.041 A 
ATOM     22  C   UNL A   1      36.467  19.549  24.937  1.00  0.00     0.017 A 
ATOM     23  I   UNL A   1      33.462  19.557  24.809  1.00  0.00    -0.042 I 
ATOM     24  C   UNL A   1      37.768  20.047  24.970  1.00  0.00     0.004 A 
ENDBRANCH  15  17
ENDBRANCH  14  15
ENDBRANCH   7   8
ENDBRANCH   4   7
ENDBRANCH   2   3
ENDBRANCH   1   2
BRANCH   1  25
ATOM     25  C   UNL A   1      34.358  29.748  27.489  1.00  0.00     0.118 C 
BRANCH  25  26
ATOM     26  N   UNL A   1      35.049  30.981  27.853  1.00  0.00    -0.352 N 
ATOM     27  C   UNL A   1      36.311  31.122  28.407  1.00  0.00     0.251 C 
ATOM     28  H   UNL A   1      34.557  31.816  27.684  1.00  0.00     0.163 HD
ATOM     29  O   UNL A   1      36.734  32.177  28.827  1.00  0.00    -0.269 OA
BRANCH  27  30
ATOM     30  C   UNL A   1      37.174  29.925  28.352  1.00  0.00     0.039 A 
ATOM     31  C   UNL A   1      37.273  29.167  29.523  1.00  0.00     0.014 A 
ATOM     32  C   UNL A   1      38.082  29.781  27.308  1.00  0.00     0.014 A 
ATOM     33  C   UNL A   1      38.407  28.389  29.733  1.00  0.00     0.010 A 
ATOM     34  C   UNL A   1      39.242  29.074  27.554  1.00  0.00     0.010 A 
ATOM     35  C   UNL A   1      39.428  28.426  28.786  1.00  0.00    -0.014 A 
BRANCH  35  36
ATOM     36  C   UNL A   1      40.758  27.871  29.013  1.00  0.00     0.031 A 
ATOM     37  C   UNL A   1      41.039  26.469  28.644  1.00  0.00     0.074 A 
ATOM     38  C   UNL A   1      41.757  28.671  29.442  1.00  0.00     0.049 A 
ATOM     39  N   UNL A   1      42.100  25.815  28.972  1.00  0.00    -0.248 NA
ATOM     40  C   UNL A   1      40.079  25.665  27.898  1.00  0.00     0.031 C 
ATOM     41  C   UNL A   1      43.191  28.404  29.381  1.00  0.00     0.029 A 
ATOM     42  N   UNL A   1      41.649  29.811  30.244  1.00  0.00    -0.354 N 
ATOM     43  C   UNL A   1      42.104  24.629  28.272  1.00  0.00     0.074 A 
ATOM     44  C   UNL A   1      40.789  24.558  27.678  1.00  0.00     0.031 C 
ATOM     45  C   UNL A   1      43.809  29.150  30.306  1.00  0.00     0.029 A 
ATOM     46  C   UNL A   1      42.779  29.800  31.095  1.00  0.00     0.049 A 
ATOM     47  H   UNL A   1      40.933  30.485  30.221  1.00  0.00     0.167 HD
ATOM     48  C   UNL A   1      43.266  23.915  28.190  1.00  0.00     0.037 A 
ATOM     49  C   UNL A   1      42.623  29.659  32.446  1.00  0.00     0.037 A 
ATOM     50  C   UNL A   1      44.273  24.444  29.118  1.00  0.00     0.049 A 
ATOM     51  C   UNL A   1      43.217  28.388  33.024  1.00  0.00     0.074 A 
ATOM     52  C   UNL A   1      45.385  25.264  29.005  1.00  0.00     0.029 A 
ATOM     53  N   UNL A   1      44.015  24.348  30.474  1.00  0.00    -0.354 N 
ATOM     54  N   UNL A   1      43.833  27.473  32.324  1.00  0.00    -0.248 NA
ATOM     55  C   UNL A   1      43.102  28.013  34.436  1.00  0.00     0.031 C 
ATOM     56  C   UNL A   1      45.753  25.698  30.315  1.00  0.00     0.029 A 
ATOM     57  C   UNL A   1      44.870  25.136  31.219  1.00  0.00     0.049 A 
ATOM     58  H   UNL A   1      43.306  23.784  30.861  1.00  0.00     0.167 HD
ATOM     59  C   UNL A   1      44.117  26.399  33.125  1.00  0.00     0.074 A 
ATOM     60  C   UNL A   1      43.668  26.794  34.446  1.00  0.00     0.031 C 
ATOM     61  C   UNL A   1      44.649  25.236  32.653  1.00  0.00     0.037 A 
BRANCH  48  62
ATOM     62  C   UNL A   1      43.568  22.886  27.113  1.00  0.00     0.058 A 
ATOM     63  C   UNL A   1      42.848  21.671  27.061  1.00  0.00     0.135 A 
ATOM     64  C   UNL A   1      44.599  22.982  26.156  1.00  0.00     0.135 A 
ATOM     65  F   UNL A   1      41.775  21.458  27.834  1.00  0.00    -0.206 F 
ATOM     66  C   UNL A   1      43.198  20.607  26.222  1.00  0.00     0.059 A 
ATOM     67  C   UNL A   1      45.005  21.917  25.347  1.00  0.00     0.059 A 
ATOM     68  F   UNL A   1      45.225  24.135  25.905  1.00  0.00    -0.206 F 
ATOM     69  C   UNL A   1      44.307  20.723  25.395  1.00  0.00     0.060 A 
BRANCH  69  70
ATOM     70  S   UNL A   1      44.809  19.318  24.387  1.00  0.00     0.124 S 
ATOM     71  O   UNL A   1      46.255  19.296  24.591  1.00  0.00    -0.237 OA
ATOM     72  O   UNL A   1      44.062  18.223  24.996  1.00  0.00    -0.237 OA
ATOM     73  O   UNL A   1      44.382  19.694  23.042  1.00  0.00    -0.744 OA
ENDBRANCH  69  70
ENDBRANCH  48  62
BRANCH  49  74
ATOM     74  C   UNL A   1      41.417  30.375  32.949  1.00  0.00     0.058 A 
ATOM     75  C   UNL A   1      40.267  29.601  33.212  1.00  0.00     0.135 A 
ATOM     76  C   UNL A   1      41.510  31.626  33.570  1.00  0.00     0.135 A 
ATOM     77  F   UNL A   1      40.118  28.398  32.631  1.00  0.00    -0.206 F 
ATOM     78  C   UNL A   1      39.343  29.969  34.183  1.00  0.00     0.059 A 
ATOM     79  C   UNL A   1      40.584  32.024  34.538  1.00  0.00     0.059 A 
ATOM     80  F   UNL A   1      42.576  32.411  33.354  1.00  0.00    -0.206 F 
ATOM     81  C   UNL A   1      39.550  31.153  34.888  1.00  0.00     0.060 A 
BRANCH  81  82
ATOM     82  S   UNL A   1      38.559  31.425  36.376  1.00  0.00     0.124 S 
ATOM     83  O   UNL A   1      38.177  30.066  36.739  1.00  0.00    -0.237 OA
ATOM     84  O   UNL A   1      39.526  32.066  37.268  1.00  0.00    -0.237 OA
ATOM     85  O   UNL A   1      37.477  32.282  35.906  1.00  0.00    -0.744 OA
ENDBRANCH  81  82
ENDBRANCH  49  74
BRANCH  61  86
ATOM     86  C   UNL A   1      44.987  24.075  33.540  1.00  0.00     0.058 A 
ATOM     87  C   UNL A   1      46.299  23.838  33.980  1.00  0.00     0.135 A 
ATOM     88  C   UNL A   1      44.029  23.091  33.859  1.00  0.00     0.135 A 
ATOM     89  F   UNL A   1      47.281  24.711  33.700  1.00  0.00    -0.206 F 
ATOM     90  C   UNL A   1      46.640  22.696  34.705  1.00  0.00     0.059 A 
ATOM     91  C   UNL A   1      44.355  21.923  34.542  1.00  0.00     0.059 A 
ATOM     92  F   UNL A   1      42.737  23.251  33.534  1.00  0.00    -0.206 F 
ATOM     93  C   UNL A   1      45.662  21.740  34.976  1.00  0.00     0.060 A 
BRANCH  93  94
ATOM     94  S   UNL A   1      46.104  20.237  35.870  1.00  0.00     0.124 S 
ATOM     95  O   UNL A   1      45.300  19.217  35.204  1.00  0.00    -0.237 OA
ATOM     96  O   UNL A   1      47.541  20.167  35.626  1.00  0.00    -0.237 OA
ATOM     97  O   UNL A   1      45.710  20.537  37.244  1.00  0.00    -0.744 OA
ENDBRANCH  93  94
ENDBRANCH  61  86
ENDBRANCH  35  36
ENDBRANCH  27  30
ENDBRANCH  25  26
ENDBRANCH   1  25
TORSDOF 16
ENDMDL
MODEL 2
REMARK VINA RESULT:     -13.8      5.104     11.567
REMARK SMILES Cc1ccc(Nc2c(F)cccc2I)c(CC(=O)NCCCNC(=O)c2ccc(-c3c4nc(c(-c5c(F)cc(S(=O)(=O)[O-])cc5F)c5ccc([nH]5)c(-c5c(F)cc(S(=O)(=O)[O-])cc5F)c5nc(c(-c6c(F)cc(S(=O)(=O)[O-])cc6F)c6ccc3[nH]6)C=C5)C=C4)cc2)c1
REMARK SMILES IDX 21 1 20 2 19 3 17 4 18 5 16 7 15 8 1 9 2 10 3 11 92 12 4 13
REMARK SMILES IDX 5 14 6 15 7 17 8 18 13 19 9 20 10 21 12 22 14 23 11 24 22 25
REMARK SMILES IDX 23 26 24 27 25 29 26 30 27 31 91 32 28 33 90 34 29 35 30 36
REMARK SMILES IDX 31 37 84 38 32 39 89 40 83 41 85 42 33 43 88 44 82 45 81 46
REMARK SMILES IDX 34 48 68 49 47 50 67 51 48 52 51 53 66 54 86 55 49 56 50 57
REMARK SMILES IDX 65 59 87 60 52 61 35 62 36 63 45 64 37 65 38 66 44 67 46 68
REMARK SMILES IDX 39 69 40 70 41 71 42 72 43 73 69 74 70 75 79 76 71 77 72 78
REMARK SMILES IDX 78 79 80 80 73 81 74 82 75 83 76 84 77 85 53 86 54 87 63 88
REMARK SMILES IDX 55 89 56 90 62 91 64 92 57 93 58 94 59 95 60 96 61 97
REMARK H PARENT 19 6 6 16 23 28 85 47 51 58
REMARK Flexibility Score: inf
ROOT
ATOM      1  C   UNL A   1      37.448  22.163  25.489  1.00  0.00     0.042 C 
ENDROOT
BRANCH   1   2
ATOM      2  C   UNL A   1      35.930  22.294  25.420  1.00  0.00     0.117 C 
BRANCH   2   3
ATOM      3  N   UNL A   1      35.473  22.888  24.171  1.00  0.00    -0.356 N 
ATOM      4  C   UNL A   1      34.831  24.072  23.961  1.00  0.00     0.224 C 
ATOM      5  O   UNL A   1      34.493  24.378  22.814  1.00  0.00    -0.275 OA
ATOM      6  H   UNL A   1      35.655  22.357  23.361  1.00  0.00     0.163 HD
BRANCH   4   7
ATOM      7  C   UNL A   1      34.509  25.007  25.113  1.00  0.00     0.137 C 
BRANCH   7   8
ATOM      8  C   UNL A   1      33.047  25.024  25.506  1.00  0.00    -0.015 A 
ATOM      9  C   UNL A   1      30.473  22.340  26.404  1.00  0.00     0.044 C 
ATOM     10  C   UNL A   1      31.103  23.676  26.151  1.00  0.00    -0.051 A 
ATOM     11  C   UNL A   1      30.319  24.826  26.120  1.00  0.00     0.005 A 
ATOM     12  C   UNL A   1      32.469  23.790  25.883  1.00  0.00     0.009 A 
ATOM     13  C   UNL A   1      30.889  26.062  25.798  1.00  0.00     0.026 A 
ATOM     14  C   UNL A   1      32.246  26.188  25.458  1.00  0.00     0.042 A 
BRANCH  14  15
ATOM     15  N   UNL A   1      32.787  27.442  25.092  1.00  0.00    -0.352 N 
ATOM     16  H   UNL A   1      33.435  27.414  24.351  1.00  0.00     0.167 HD
BRANCH  15  17
ATOM     17  C   UNL A   1      32.541  28.730  25.624  1.00  0.00     0.088 A 
ATOM     18  C   UNL A   1      33.183  29.184  26.789  1.00  0.00     0.147 A 
ATOM     19  C   UNL A   1      31.582  29.587  25.048  1.00  0.00     0.040 A 
ATOM     20  F   UNL A   1      34.112  28.426  27.395  1.00  0.00    -0.205 F 
ATOM     21  C   UNL A   1      32.907  30.433  27.349  1.00  0.00     0.041 A 
ATOM     22  C   UNL A   1      31.303  30.845  25.604  1.00  0.00     0.017 A 
ATOM     23  I   UNL A   1      30.441  29.024  23.372  1.00  0.00    -0.042 I 
ATOM     24  C   UNL A   1      31.967  31.268  26.755  1.00  0.00     0.004 A 
ENDBRANCH  15  17
ENDBRANCH  14  15
ENDBRANCH   7   8
ENDBRANCH   4   7
ENDBRANCH   2   3
ENDBRANCH   1   2
BRANCH   1  25
ATOM     25  C   UNL A   1      38.153  23.416  25.985  1.00  0.00     0.118 C 
BRANCH  25  26
ATOM     26  N   UNL A   1      39.461  23.123  26.563  1.00  0.00    -0.352 N 
ATOM     27  C   UNL A   1      40.362  24.009  27.129  1.00  0.00     0.251 C 
ATOM     28  H   UNL A   1      39.737  22.179  26.547  1.00  0.00     0.163 HD
ATOM     29  O   UNL A   1      41.492  23.698  27.433  1.00  0.00    -0.269 OA
BRANCH  27  30
ATOM     30  C   UNL A   1      39.829  25.347  27.458  1.00  0.00     0.039 A 
ATOM     31  C   UNL A   1      40.253  26.409  26.652  1.00  0.00     0.014 A 
ATOM     32  C   UNL A   1      39.227  25.562  28.693  1.00  0.00     0.014 A 
ATOM     33  C   UNL A   1      40.248  27.698  27.173  1.00  0.00     0.010 A 
ATOM     34  C   UNL A   1      39.300  26.829  29.236  1.00  0.00     0.010 A 
ATOM     35  C   UNL A   1      39.861  27.883  28.497  1.00  0.00    -0.014 A 
BRANCH  35  36
ATOM     36  C   UNL A   1      40.061  29.129  29.230  1.00  0.00     0.031 A 
ATOM     37  C   UNL A   1      39.033  30.188  29.167  1.00  0.00     0.074 A 
ATOM     38  C   UNL A   1      41.120  29.262  30.056  1.00  0.00     0.049 A 
ATOM     39  N   UNL A   1      39.183  31.392  29.603  1.00  0.00    -0.248 NA
ATOM     40  C   UNL A   1      37.739  29.965  28.537  1.00  0.00     0.031 C 
ATOM     41  C   UNL A   1      41.295  30.249  31.117  1.00  0.00     0.029 A 
ATOM     42  N   UNL A   1      42.373  28.653  29.938  1.00  0.00    -0.354 N 
ATOM     43  C   UNL A   1      37.954  32.013  29.571  1.00  0.00     0.074 A 
ATOM     44  C   UNL A   1      37.111  31.103  28.831  1.00  0.00     0.031 C 
ATOM     45  C   UNL A   1      42.604  30.387  31.368  1.00  0.00     0.029 A 
ATOM     46  C   UNL A   1      43.319  29.613  30.370  1.00  0.00     0.049 A 
ATOM     47  H   UNL A   1      42.561  27.741  29.619  1.00  0.00     0.167 HD
ATOM     48  C   UNL A   1      37.781  33.168  30.280  1.00  0.00     0.037 A 
ATOM     49  C   UNL A   1      44.233  30.124  29.491  1.00  0.00     0.037 A 
ATOM     50  C   UNL A   1      39.067  33.688  30.759  1.00  0.00     0.049 A 
ATOM     51  C   UNL A   1      44.092  31.611  29.222  1.00  0.00     0.074 A 
ATOM     52  C   UNL A   1      39.751  33.671  31.964  1.00  0.00     0.029 A 
ATOM     53  N   UNL A   1      39.985  34.110  29.813  1.00  0.00    -0.354 N 
ATOM     54  N   UNL A   1      43.182  32.378  29.760  1.00  0.00    -0.248 NA
ATOM     55  C   UNL A   1      44.928  32.339  28.264  1.00  0.00     0.031 C 
ATOM     56  C   UNL A   1      41.108  34.039  31.712  1.00  0.00     0.029 A 
ATOM     57  C   UNL A   1      41.242  34.286  30.358  1.00  0.00     0.049 A 
ATOM     58  H   UNL A   1      39.768  34.267  28.866  1.00  0.00     0.167 HD
ATOM     59  C   UNL A   1      43.245  33.626  29.197  1.00  0.00     0.074 A 
ATOM     60  C   UNL A   1      44.373  33.564  28.288  1.00  0.00     0.031 C 
ATOM     61  C   UNL A   1      42.344  34.613  29.467  1.00  0.00     0.037 A 
BRANCH  48  62
ATOM     62  C   UNL A   1      36.432  33.704  30.732  1.00  0.00     0.058 A 
ATOM     63  C   UNL A   1      35.516  34.225  29.791  1.00  0.00     0.135 A 
ATOM     64  C   UNL A   1      36.004  33.818  32.071  1.00  0.00     0.135 A 
ATOM     65  F   UNL A   1      35.723  34.109  28.472  1.00  0.00    -0.206 F 
ATOM     66  C   UNL A   1      34.346  34.903  30.152  1.00  0.00     0.059 A 
ATOM     67  C   UNL A   1      34.871  34.537  32.462  1.00  0.00     0.059 A 
ATOM     68  F   UNL A   1      36.624  33.179  33.067  1.00  0.00    -0.206 F 
ATOM     69  C   UNL A   1      34.051  35.091  31.495  1.00  0.00     0.060 A 
BRANCH  69  70
ATOM     70  S   UNL A   1      32.595  36.045  31.956  1.00  0.00     0.124 S 
ATOM     71  O   UNL A   1      33.128  36.949  32.970  1.00  0.00    -0.237 OA
ATOM     72  O   UNL A   1      32.220  36.660  30.687  1.00  0.00    -0.237 OA
ATOM     73  O   UNL A   1      31.669  35.032  32.457  1.00  0.00    -0.744 OA
ENDBRANCH  69  70
ENDBRANCH  48  62
BRANCH  49  74
ATOM     74  C   UNL A   1      44.719  29.097  28.528  1.00  0.00     0.058 A 
ATOM     75  C   UNL A   1      44.151  29.099  27.237  1.00  0.00     0.135 A 
ATOM     76  C   UNL A   1      45.961  28.469  28.687  1.00  0.00     0.135 A 
ATOM     77  F   UNL A   1      42.955  29.674  27.029  1.00  0.00    -0.206 F 
ATOM     78  C   UNL A   1      44.861  28.662  26.124  1.00  0.00     0.059 A 
ATOM     79  C   UNL A   1      46.685  28.008  27.585  1.00  0.00     0.059 A 
ATOM     80  F   UNL A   1      46.549  28.429  29.892  1.00  0.00    -0.206 F 
ATOM     81  C   UNL A   1      46.155  28.180  26.304  1.00  0.00     0.060 A 
BRANCH  81  82
ATOM     82  S   UNL A   1      47.182  27.967  24.830  1.00  0.00     0.124 S 
ATOM     83  O   UNL A   1      48.522  28.187  25.360  1.00  0.00    -0.237 OA
ATOM     84  O   UNL A   1      46.877  26.588  24.447  1.00  0.00    -0.237 OA
ATOM     85  O   UNL A   1      46.684  28.994  23.924  1.00  0.00    -0.744 OA
ENDBRANCH  81  82
ENDBRANCH  49  74
BRANCH  61  86
ATOM     86  C   UNL A   1      42.438  35.986  28.872  1.00  0.00     0.058 A 
ATOM     87  C   UNL A   1      41.837  36.301  27.642  1.00  0.00     0.135 A 
ATOM     88  C   UNL A   1      43.250  36.984  29.449  1.00  0.00     0.135 A 
ATOM     89  F   UNL A   1      41.067  35.401  27.009  1.00  0.00    -0.206 F 
ATOM     90  C   UNL A   1      42.021  37.539  27.027  1.00  0.00     0.059 A 
ATOM     91  C   UNL A   1      43.483  38.208  28.831  1.00  0.00     0.059 A 
ATOM     92  F   UNL A   1      43.823  36.802  30.649  1.00  0.00    -0.206 F 
ATOM     93  C   UNL A   1      42.852  38.485  27.626  1.00  0.00     0.060 A 
BRANCH  93  94
ATOM     94  S   UNL A   1      43.134  40.070  26.812  1.00  0.00     0.124 S 
ATOM     95  O   UNL A   1      43.416  40.962  27.933  1.00  0.00    -0.237 OA
ATOM     96  O   UNL A   1      44.272  39.756  25.954  1.00  0.00    -0.237 OA
ATOM     97  O   UNL A   1      41.872  40.322  26.122  1.00  0.00    -0.744 OA
ENDBRANCH  93  94
ENDBRANCH  61  86
ENDBRANCH  35  36
ENDBRANCH  27  30
ENDBRANCH  25  26
ENDBRANCH   1  25
TORSDOF 16
ENDMDL
MODEL 3
REMARK VINA RESULT:     -13.4      1.792      2.459
REMARK SMILES Cc1ccc(Nc2c(F)cccc2I)c(CC(=O)NCCCNC(=O)c2ccc(-c3c4nc(c(-c5c(F)cc(S(=O)(=O)[O-])cc5F)c5ccc([nH]5)c(-c5c(F)cc(S(=O)(=O)[O-])cc5F)c5nc(c(-c6c(F)cc(S(=O)(=O)[O-])cc6F)c6ccc3[nH]6)C=C5)C=C4)cc2)c1
REMARK SMILES IDX 21 1 20 2 19 3 17 4 18 5 16 7 15 8 1 9 2 10 3 11 92 12 4 13
REMARK SMILES IDX 5 14 6 15 7 17 8 18 13 19 9 20 10 21 12 22 14 23 11 24 22 25
REMARK SMILES IDX 23 26 24 27 25 29 26 30 27 31 91 32 28 33 90 34 29 35 30 36
REMARK SMILES IDX 31 37 84 38 32 39 89 40 83 41 85 42 33 43 88 44 82 45 81 46
REMARK SMILES IDX 34 48 68 49 47 50 67 51 48 52 51 53 66 54 86 55 49 56 50 57
REMARK SMILES IDX 65 59 87 60 52 61 35 62 36 63 45 64 37 65 38 66 44 67 46 68
REMARK SMILES IDX 39 69 40 70 41 71 42 72 43 73 69 74 70 75 79 76 71 77 72 78
REMARK SMILES IDX 78 79 80 80 73 81 74 82 75 83 76 84 77 85 53 86 54 87 63 88
REMARK SMILES IDX 55 89 56 90 62 91 64 92 57 93 58 94 59 95 60 96 61 97
REMARK H PARENT 19 6 6 16 23 28 85 47 51 58
REMARK Flexibility Score: inf
ROOT
ATOM      1  C   UNL A   1      33.630  29.556  26.182  1.00  0.00     0.042 C 
ENDROOT
BRANCH   1   2
ATOM      2  C   UNL A   1      33.875  28.263  25.410  1.00  0.00     0.117 C 
BRANCH   2   3
ATOM      3  N   UNL A   1      34.127  28.493  23.994  1.00  0.00    -0.356 N 
ATOM      4  C   UNL A   1      33.682  27.793  22.912  1.00  0.00     0.224 C 
ATOM      5  O   UNL A   1      34.046  28.134  21.784  1.00  0.00    -0.275 OA
ATOM      6  H   UNL A   1      34.701  29.267  23.788  1.00  0.00     0.163 HD
BRANCH   4   7
ATOM      7  C   UNL A   1      32.768  26.591  23.075  1.00  0.00     0.137 C 
BRANCH   7   8
ATOM      8  C   UNL A   1      31.299  26.942  23.189  1.00  0.00    -0.015 A 
ATOM      9  C   UNL A   1      29.305  30.207  23.180  1.00  0.00     0.044 C 
ATOM     10  C   UNL A   1      29.640  28.746  23.218  1.00  0.00    -0.051 A 
ATOM     11  C   UNL A   1      28.653  27.809  23.514  1.00  0.00     0.005 A 
ATOM     12  C   UNL A   1      30.948  28.301  23.018  1.00  0.00     0.009 A 
ATOM     13  C   UNL A   1      28.979  26.454  23.636  1.00  0.00     0.026 A 
ATOM     14  C   UNL A   1      30.300  25.994  23.508  1.00  0.00     0.042 A 
BRANCH  14  15
ATOM     15  N   UNL A   1      30.609  24.625  23.681  1.00  0.00    -0.352 N 
ATOM     16  H   UNL A   1      30.298  24.035  22.956  1.00  0.00     0.167 HD
BRANCH  15  17
ATOM     17  C   UNL A   1      31.294  23.972  24.733  1.00  0.00     0.088 A 
ATOM     18  C   UNL A   1      30.936  24.161  26.079  1.00  0.00     0.147 A 
ATOM     19  C   UNL A   1      32.416  23.159  24.479  1.00  0.00     0.040 A 
ATOM     20  F   UNL A   1      29.875  24.919  26.402  1.00  0.00    -0.205 F 
ATOM     21  C   UNL A   1      31.639  23.561  27.125  1.00  0.00     0.041 A 
ATOM     22  C   UNL A   1      33.125  22.550  25.526  1.00  0.00     0.017 A 
ATOM     23  I   UNL A   1      33.166  22.861  22.535  1.00  0.00    -0.042 I 
ATOM     24  C   UNL A   1      32.735  22.751  26.849  1.00  0.00     0.004 A 
ENDBRANCH  15  17
ENDBRANCH  14  15
ENDBRANCH   7   8
ENDBRANCH   4   7
ENDBRANCH   2   3
ENDBRANCH   1   2
BRANCH   1  25
ATOM     25  C   UNL A   1      34.229  29.562  27.580  1.00  0.00     0.118 C 
BRANCH  25  26
ATOM     26  N   UNL A   1      34.929  30.808  27.876  1.00  0.00    -0.352 N 
ATOM     27  C   UNL A   1      36.208  30.969  28.384  1.00  0.00     0.251 C 
ATOM     28  H   UNL A   1      34.430  31.636  27.694  1.00  0.00     0.163 HD
ATOM     29  O   UNL A   1      36.642  32.038  28.752  1.00  0.00    -0.269 OA
BRANCH  27  30
ATOM     30  C   UNL A   1      37.071  29.771  28.344  1.00  0.00     0.039 A 
ATOM     31  C   UNL A   1      37.199  29.048  29.534  1.00  0.00     0.014 A 
ATOM     32  C   UNL A   1      37.955  29.597  27.284  1.00  0.00     0.014 A 
ATOM     33  C   UNL A   1      38.338  28.277  29.740  1.00  0.00     0.010 A 
ATOM     34  C   UNL A   1      39.121  28.899  27.522  1.00  0.00     0.010 A 
ATOM     35  C   UNL A   1      39.336  28.287  28.769  1.00  0.00    -0.014 A 
BRANCH  35  36
ATOM     36  C   UNL A   1      40.672  27.740  28.980  1.00  0.00     0.031 A 
ATOM     37  C   UNL A   1      40.948  26.330  28.637  1.00  0.00     0.074 A 
ATOM     38  C   UNL A   1      41.678  28.551  29.370  1.00  0.00     0.049 A 
ATOM     39  N   UNL A   1      42.018  25.686  28.957  1.00  0.00    -0.248 NA
ATOM     40  C   UNL A   1      39.975  25.508  27.929  1.00  0.00     0.031 C 
ATOM     41  C   UNL A   1      43.111  28.285  29.286  1.00  0.00     0.029 A 
ATOM     42  N   UNL A   1      41.584  29.709  30.148  1.00  0.00    -0.354 N 
ATOM     43  C   UNL A   1      42.010  24.484  28.284  1.00  0.00     0.074 A 
ATOM     44  C   UNL A   1      40.683  24.397  27.720  1.00  0.00     0.031 C 
ATOM     45  C   UNL A   1      43.746  29.053  30.181  1.00  0.00     0.029 A 
ATOM     46  C   UNL A   1      42.731  29.719  30.977  1.00  0.00     0.049 A 
ATOM     47  H   UNL A   1      40.866  30.381  30.125  1.00  0.00     0.167 HD
ATOM     48  C   UNL A   1      43.172  23.771  28.194  1.00  0.00     0.037 A 
ATOM     49  C   UNL A   1      42.603  29.608  32.333  1.00  0.00     0.037 A 
ATOM     50  C   UNL A   1      44.196  24.322  29.089  1.00  0.00     0.049 A 
ATOM     51  C   UNL A   1      43.212  28.351  32.927  1.00  0.00     0.074 A 
ATOM     52  C   UNL A   1      45.303  25.141  28.935  1.00  0.00     0.029 A 
ATOM     53  N   UNL A   1      43.966  24.256  30.452  1.00  0.00    -0.354 N 
ATOM     54  N   UNL A   1      43.815  27.422  32.235  1.00  0.00    -0.248 NA
ATOM     55  C   UNL A   1      43.127  28.008  34.349  1.00  0.00     0.031 C 
ATOM     56  C   UNL A   1      45.698  25.606  30.227  1.00  0.00     0.029 A 
ATOM     57  C   UNL A   1      44.835  25.062  31.161  1.00  0.00     0.049 A 
ATOM     58  H   UNL A   1      43.267  23.700  30.866  1.00  0.00     0.167 HD
ATOM     59  C   UNL A   1      44.118  26.366  33.053  1.00  0.00     0.074 A 
ATOM     60  C   UNL A   1      43.696  26.790  34.374  1.00  0.00     0.031 C 
ATOM     61  C   UNL A   1      44.644  25.194  32.597  1.00  0.00     0.037 A 
BRANCH  48  62
ATOM     62  C   UNL A   1      43.454  22.718  27.134  1.00  0.00     0.058 A 
ATOM     63  C   UNL A   1      42.704  21.520  27.097  1.00  0.00     0.135 A 
ATOM     64  C   UNL A   1      44.491  22.774  26.181  1.00  0.00     0.135 A 
ATOM     65  F   UNL A   1      41.622  21.346  27.868  1.00  0.00    -0.206 F 
ATOM     66  C   UNL A   1      43.033  20.436  26.276  1.00  0.00     0.059 A 
ATOM     67  C   UNL A   1      44.875  21.688  25.391  1.00  0.00     0.059 A 
ATOM     68  F   UNL A   1      45.146  23.908  25.916  1.00  0.00    -0.206 F 
ATOM     69  C   UNL A   1      44.148  20.512  25.454  1.00  0.00     0.060 A 
BRANCH  69  70
ATOM     70  S   UNL A   1      44.621  19.080  24.469  1.00  0.00     0.124 S 
ATOM     71  O   UNL A   1      43.648  18.079  24.897  1.00  0.00    -0.237 OA
ATOM     72  O   UNL A   1      44.463  19.581  23.109  1.00  0.00    -0.237 OA
ATOM     73  O   UNL A   1      45.996  18.820  24.885  1.00  0.00    -0.744 OA
ENDBRANCH  69  70
ENDBRANCH  48  62
BRANCH  49  74
ATOM     74  C   UNL A   1      41.406  30.332  32.844  1.00  0.00     0.058 A 
ATOM     75  C   UNL A   1      40.259  29.564  33.135  1.00  0.00     0.135 A 
ATOM     76  C   UNL A   1      41.511  31.591  33.448  1.00  0.00     0.135 A 
ATOM     77  F   UNL A   1      40.099  28.355  32.572  1.00  0.00    -0.206 F 
ATOM     78  C   UNL A   1      39.351  29.947  34.115  1.00  0.00     0.059 A 
ATOM     79  C   UNL A   1      40.600  32.004  34.424  1.00  0.00     0.059 A 
ATOM     80  F   UNL A   1      42.575  32.371  33.205  1.00  0.00    -0.206 F 
ATOM     81  C   UNL A   1      39.570  31.139  34.801  1.00  0.00     0.060 A 
BRANCH  81  82
ATOM     82  S   UNL A   1      38.602  31.433  36.301  1.00  0.00     0.124 S 
ATOM     83  O   UNL A   1      38.211  30.081  36.679  1.00  0.00    -0.237 OA
ATOM     84  O   UNL A   1      39.588  32.070  37.174  1.00  0.00    -0.237 OA
ATOM     85  O   UNL A   1      37.523  32.298  35.838  1.00  0.00    -0.744 OA
ENDBRANCH  81  82
ENDBRANCH  49  74
BRANCH  61  86
ATOM     86  C   UNL A   1      45.002  24.054  33.503  1.00  0.00     0.058 A 
ATOM     87  C   UNL A   1      46.296  23.905  34.027  1.00  0.00     0.135 A 
ATOM     88  C   UNL A   1      44.096  23.004  33.758  1.00  0.00     0.135 A 
ATOM     89  F   UNL A   1      47.231  24.844  33.812  1.00  0.00    -0.206 F 
ATOM     90  C   UNL A   1      46.667  22.785  34.771  1.00  0.00     0.059 A 
ATOM     91  C   UNL A   1      44.456  21.858  34.459  1.00  0.00     0.059 A 
ATOM     92  F   UNL A   1      42.819  23.077  33.349  1.00  0.00    -0.206 F 
ATOM     93  C   UNL A   1      45.741  21.762  34.976  1.00  0.00     0.060 A 
BRANCH  93  94
ATOM     94  S   UNL A   1      46.227  20.288  35.895  1.00  0.00     0.124 S 
ATOM     95  O   UNL A   1      45.679  20.541  37.224  1.00  0.00    -0.237 OA
ATOM     96  O   UNL A   1      45.564  19.238  35.129  1.00  0.00    -0.237 OA
ATOM     97  O   UNL A   1      47.685  20.307  35.813  1.00  0.00    -0.744 OA
ENDBRANCH  93  94
ENDBRANCH  61  86
ENDBRANCH  35  36
ENDBRANCH  27  30
ENDBRANCH  25  26
ENDBRANCH   1  25
TORSDOF 16
ENDMDL
