MODEL 1
REMARK VINA RESULT:     -11.9      0.000      0.000
REMARK SMILES Cc1[nH]c2ccc(Br)cc2c(=O)c1CCC(=O)NCCCNC(=O)c1ccc(-c2c3nc(c(-c4c(F)cc(S(=O)(=O)[O-])cc4F)c4ccc([nH]4)c(-c4c(F)cc(S(=O)(=O)[O-])cc4F)c4nc(c(-c5c(F)cc(S(=O)(=O)[O-])cc5F)c5ccc2[nH]5)C=C4)C=C3)cc1
REMARK SMILES IDX 20 1 19 2 18 3 16 4 17 5 15 7 14 8 13 9 1 10 2 11 3 12 4 13
REMARK SMILES IDX 11 15 5 16 10 17 12 18 6 19 9 20 7 21 8 22 21 23 22 24 23 25
REMARK SMILES IDX 24 27 25 28 26 29 90 30 27 31 89 32 28 33 29 34 30 35 83 36
REMARK SMILES IDX 31 37 88 38 82 39 84 40 32 41 87 42 81 43 80 44 33 46 67 47
REMARK SMILES IDX 46 48 66 49 47 50 50 51 65 52 85 53 48 54 49 55 64 57 86 58
REMARK SMILES IDX 51 59 34 60 35 61 44 62 36 63 37 64 43 65 45 66 38 67 39 68
REMARK SMILES IDX 40 69 41 70 42 71 68 72 69 73 78 74 70 75 71 76 77 77 79 78
REMARK SMILES IDX 72 79 73 80 74 81 75 82 76 83 52 84 53 85 62 86 54 87 55 88
REMARK SMILES IDX 61 89 63 90 56 91 57 92 58 93 59 94 60 95
REMARK H PARENT 18 6 3 14 22 26 84 45 50 56
REMARK Flexibility Score: inf
ROOT
ATOM      1  C   UNL A   1      31.984  28.761  26.407  1.00  0.00     0.042 C 
ENDROOT
BRANCH   1   2
ATOM      2  C   UNL A   1      31.914  29.863  25.335  1.00  0.00     0.117 C 
BRANCH   2   3
ATOM      3  N   UNL A   1      32.833  29.609  24.220  1.00  0.00    -0.356 N 
ATOM      4  C   UNL A   1      32.722  28.873  23.074  1.00  0.00     0.220 C 
ATOM      5  O   UNL A   1      33.713  28.801  22.341  1.00  0.00    -0.275 OA
ATOM      6  H   UNL A   1      33.704  30.058  24.317  1.00  0.00     0.163 HD
BRANCH   4   7
ATOM      7  C   UNL A   1      31.411  28.233  22.643  1.00  0.00     0.105 C 
BRANCH   7   8
ATOM      8  C   UNL A   1      31.552  26.794  22.121  1.00  0.00     0.051 C 
BRANCH   8   9
ATOM      9  C   UNL A   1      32.021  25.893  23.230  1.00  0.00     0.020 A 
ATOM     10  C   UNL A   1      29.942  25.912  24.665  1.00  0.00     0.064 C 
ATOM     11  C   UNL A   1      31.390  25.597  24.391  1.00  0.00     0.019 A 
ATOM     12  N   UNL A   1      32.045  24.971  25.436  1.00  0.00    -0.358 N 
ATOM     13  C   UNL A   1      33.332  24.454  25.305  1.00  0.00     0.050 A 
ATOM     14  H   UNL A   1      31.585  24.890  26.303  1.00  0.00     0.166 HD
ATOM     15  C   UNL A   1      33.358  25.276  22.984  1.00  0.00     0.192 A 
ATOM     16  C   UNL A   1      34.018  23.903  26.381  1.00  0.00     0.028 A 
ATOM     17  C   UNL A   1      33.975  24.502  24.065  1.00  0.00     0.047 A 
ATOM     18  O   UNL A   1      33.953  25.426  21.922  1.00  0.00    -0.289 OA
ATOM     19  C   UNL A   1      35.226  23.242  26.151  1.00  0.00     0.018 A 
ATOM     20  C   UNL A   1      35.179  23.849  23.829  1.00  0.00     0.030 A 
ATOM     21  C   UNL A   1      35.745  23.134  24.862  1.00  0.00     0.018 A 
ATOM     22  Br  UNL A   1      37.088  21.884  24.430  1.00  0.00    -0.051 Br
ENDBRANCH   8   9
ENDBRANCH   7   8
ENDBRANCH   4   7
ENDBRANCH   2   3
ENDBRANCH   1   2
BRANCH   1  23
ATOM     23  C   UNL A   1      33.093  28.844  27.470  1.00  0.00     0.118 C 
BRANCH  23  24
ATOM     24  N   UNL A   1      33.437  30.206  27.868  1.00  0.00    -0.352 N 
ATOM     25  C   UNL A   1      34.566  30.845  28.339  1.00  0.00     0.251 C 
ATOM     26  H   UNL A   1      32.674  30.821  27.779  1.00  0.00     0.163 HD
ATOM     27  O   UNL A   1      34.428  32.046  28.596  1.00  0.00    -0.269 OA
BRANCH  25  28
ATOM     28  C   UNL A   1      35.910  30.229  28.604  1.00  0.00     0.039 A 
ATOM     29  C   UNL A   1      36.332  29.684  29.808  1.00  0.00     0.014 A 
ATOM     30  C   UNL A   1      36.796  30.106  27.513  1.00  0.00     0.014 A 
ATOM     31  C   UNL A   1      37.652  29.186  29.946  1.00  0.00     0.010 A 
ATOM     32  C   UNL A   1      38.100  29.570  27.648  1.00  0.00     0.010 A 
ATOM     33  C   UNL A   1      38.598  29.180  28.894  1.00  0.00    -0.014 A 
BRANCH  33  34
ATOM     34  C   UNL A   1      40.065  28.841  29.133  1.00  0.00     0.031 A 
ATOM     35  C   UNL A   1      40.664  27.471  28.773  1.00  0.00     0.074 A 
ATOM     36  C   UNL A   1      40.939  29.781  29.567  1.00  0.00     0.049 A 
ATOM     37  N   UNL A   1      41.926  27.095  28.725  1.00  0.00    -0.248 NA
ATOM     38  C   UNL A   1      39.743  26.392  28.388  1.00  0.00     0.031 C 
ATOM     39  C   UNL A   1      40.589  31.144  29.961  1.00  0.00     0.029 A 
ATOM     40  N   UNL A   1      42.312  29.742  29.728  1.00  0.00    -0.354 N 
ATOM     41  C   UNL A   1      41.939  25.780  28.250  1.00  0.00     0.074 A 
ATOM     42  C   UNL A   1      40.562  25.415  28.024  1.00  0.00     0.031 C 
ATOM     43  C   UNL A   1      41.708  31.825  30.252  1.00  0.00     0.029 A 
ATOM     44  C   UNL A   1      42.861  30.933  30.151  1.00  0.00     0.049 A 
ATOM     45  H   UNL A   1      42.849  28.934  29.556  1.00  0.00     0.167 HD
ATOM     46  C   UNL A   1      42.976  24.929  28.045  1.00  0.00     0.037 A 
ATOM     47  C   UNL A   1      44.130  31.283  30.458  1.00  0.00     0.037 A 
ATOM     48  C   UNL A   1      44.354  25.205  28.367  1.00  0.00     0.049 A 
ATOM     49  C   UNL A   1      45.250  30.278  30.354  1.00  0.00     0.074 A 
ATOM     50  C   UNL A   1      45.448  24.360  28.249  1.00  0.00     0.029 A 
ATOM     51  N   UNL A   1      44.826  26.390  28.901  1.00  0.00    -0.354 N 
ATOM     52  N   UNL A   1      45.219  29.053  29.890  1.00  0.00    -0.248 NA
ATOM     53  C   UNL A   1      46.575  30.699  30.841  1.00  0.00     0.031 C 
ATOM     54  C   UNL A   1      46.568  25.011  28.771  1.00  0.00     0.029 A 
ATOM     55  C   UNL A   1      46.185  26.282  29.157  1.00  0.00     0.049 A 
ATOM     56  H   UNL A   1      44.280  27.190  29.074  1.00  0.00     0.167 HD
ATOM     57  C   UNL A   1      46.515  28.562  30.030  1.00  0.00     0.074 A 
ATOM     58  C   UNL A   1      47.315  29.626  30.593  1.00  0.00     0.031 C 
ATOM     59  C   UNL A   1      46.991  27.330  29.726  1.00  0.00     0.037 A 
BRANCH  46  60
ATOM     60  C   UNL A   1      42.688  23.557  27.484  1.00  0.00     0.058 A 
ATOM     61  C   UNL A   1      42.841  23.277  26.117  1.00  0.00     0.135 A 
ATOM     62  C   UNL A   1      42.401  22.481  28.343  1.00  0.00     0.135 A 
ATOM     63  F   UNL A   1      43.106  24.266  25.250  1.00  0.00    -0.206 F 
ATOM     64  C   UNL A   1      42.733  21.978  25.624  1.00  0.00     0.059 A 
ATOM     65  C   UNL A   1      42.305  21.173  27.873  1.00  0.00     0.059 A 
ATOM     66  F   UNL A   1      42.249  22.693  29.659  1.00  0.00    -0.206 F 
ATOM     67  C   UNL A   1      42.473  20.931  26.511  1.00  0.00     0.060 A 
BRANCH  67  68
ATOM     68  S   UNL A   1      42.377  19.247  25.863  1.00  0.00     0.124 S 
ATOM     69  O   UNL A   1      40.938  19.100  25.647  1.00  0.00    -0.237 OA
ATOM     70  O   UNL A   1      43.189  19.335  24.648  1.00  0.00    -0.237 OA
ATOM     71  O   UNL A   1      42.934  18.433  26.930  1.00  0.00    -0.744 OA
ENDBRANCH  67  68
ENDBRANCH  46  60
BRANCH  47  72
ATOM     72  C   UNL A   1      44.416  32.653  30.977  1.00  0.00     0.058 A 
ATOM     73  C   UNL A   1      44.342  32.957  32.345  1.00  0.00     0.135 A 
ATOM     74  C   UNL A   1      44.744  33.698  30.096  1.00  0.00     0.135 A 
ATOM     75  F   UNL A   1      44.004  32.004  33.227  1.00  0.00    -0.206 F 
ATOM     76  C   UNL A   1      44.579  34.243  32.820  1.00  0.00     0.059 A 
ATOM     77  C   UNL A   1      45.020  34.981  30.549  1.00  0.00     0.059 A 
ATOM     78  F   UNL A   1      44.822  33.465  28.776  1.00  0.00    -0.206 F 
ATOM     79  C   UNL A   1      44.923  35.248  31.913  1.00  0.00     0.060 A 
BRANCH  79  80
ATOM     80  S   UNL A   1      45.277  36.906  32.536  1.00  0.00     0.124 S 
ATOM     81  O   UNL A   1      45.272  36.686  33.978  1.00  0.00    -0.237 OA
ATOM     82  O   UNL A   1      46.578  37.190  31.936  1.00  0.00    -0.237 OA
ATOM     83  O   UNL A   1      44.170  37.702  32.014  1.00  0.00    -0.744 OA
ENDBRANCH  79  80
ENDBRANCH  47  72
BRANCH  59  84
ATOM     84  C   UNL A   1      48.443  27.042  29.993  1.00  0.00     0.058 A 
ATOM     85  C   UNL A   1      49.441  27.385  29.066  1.00  0.00     0.135 A 
ATOM     86  C   UNL A   1      48.853  26.479  31.213  1.00  0.00     0.135 A 
ATOM     87  F   UNL A   1      49.105  27.926  27.883  1.00  0.00    -0.206 F 
ATOM     88  C   UNL A   1      50.789  27.163  29.330  1.00  0.00     0.059 A 
ATOM     89  C   UNL A   1      50.198  26.270  31.508  1.00  0.00     0.059 A 
ATOM     90  F   UNL A   1      47.944  26.142  32.141  1.00  0.00    -0.206 F 
ATOM     91  C   UNL A   1      51.159  26.607  30.556  1.00  0.00     0.060 A 
BRANCH  91  92
ATOM     92  S   UNL A   1      52.915  26.358  30.897  1.00  0.00     0.124 S 
ATOM     93  O   UNL A   1      52.886  25.173  31.747  1.00  0.00    -0.237 OA
ATOM     94  O   UNL A   1      53.468  26.166  29.560  1.00  0.00    -0.237 OA
ATOM     95  O   UNL A   1      53.313  27.596  31.561  1.00  0.00    -0.744 OA
ENDBRANCH  91  92
ENDBRANCH  59  84
ENDBRANCH  33  34
ENDBRANCH  25  28
ENDBRANCH  23  24
ENDBRANCH   1  23
TORSDOF 15
ENDMDL
MODEL 2
REMARK VINA RESULT:     -11.5      5.459     10.719
REMARK SMILES Cc1[nH]c2ccc(Br)cc2c(=O)c1CCC(=O)NCCCNC(=O)c1ccc(-c2c3nc(c(-c4c(F)cc(S(=O)(=O)[O-])cc4F)c4ccc([nH]4)c(-c4c(F)cc(S(=O)(=O)[O-])cc4F)c4nc(c(-c5c(F)cc(S(=O)(=O)[O-])cc5F)c5ccc2[nH]5)C=C4)C=C3)cc1
REMARK SMILES IDX 20 1 19 2 18 3 16 4 17 5 15 7 14 8 13 9 1 10 2 11 3 12 4 13
REMARK SMILES IDX 11 15 5 16 10 17 12 18 6 19 9 20 7 21 8 22 21 23 22 24 23 25
REMARK SMILES IDX 24 27 25 28 26 29 90 30 27 31 89 32 28 33 29 34 30 35 83 36
REMARK SMILES IDX 31 37 88 38 82 39 84 40 32 41 87 42 81 43 80 44 33 46 67 47
REMARK SMILES IDX 46 48 66 49 47 50 50 51 65 52 85 53 48 54 49 55 64 57 86 58
REMARK SMILES IDX 51 59 34 60 35 61 44 62 36 63 37 64 43 65 45 66 38 67 39 68
REMARK SMILES IDX 40 69 41 70 42 71 68 72 69 73 78 74 70 75 71 76 77 77 79 78
REMARK SMILES IDX 72 79 73 80 74 81 75 82 76 83 52 84 53 85 62 86 54 87 55 88
REMARK SMILES IDX 61 89 63 90 56 91 57 92 58 93 59 94 60 95
REMARK H PARENT 18 6 3 14 22 26 84 45 50 56
REMARK Flexibility Score: inf
ROOT
ATOM      1  C   UNL A   1      37.642  23.277  25.395  1.00  0.00     0.042 C 
ENDROOT
BRANCH   1   2
ATOM      2  C   UNL A   1      36.722  22.044  25.358  1.00  0.00     0.117 C 
BRANCH   2   3
ATOM      3  N   UNL A   1      35.800  22.008  26.500  1.00  0.00    -0.356 N 
ATOM      4  C   UNL A   1      34.446  21.852  26.596  1.00  0.00     0.220 C 
ATOM      5  O   UNL A   1      33.939  21.927  27.719  1.00  0.00    -0.275 OA
ATOM      6  H   UNL A   1      36.247  22.118  27.370  1.00  0.00     0.163 HD
BRANCH   4   7
ATOM      7  C   UNL A   1      33.581  21.502  25.395  1.00  0.00     0.105 C 
BRANCH   7   8
ATOM      8  C   UNL A   1      33.242  22.698  24.490  1.00  0.00     0.051 C 
BRANCH   8   9
ATOM      9  C   UNL A   1      32.717  23.834  25.322  1.00  0.00     0.020 A 
ATOM     10  C   UNL A   1      30.653  22.720  26.260  1.00  0.00     0.064 C 
ATOM     11  C   UNL A   1      31.545  23.906  25.996  1.00  0.00     0.019 A 
ATOM     12  N   UNL A   1      31.067  25.102  26.500  1.00  0.00    -0.358 N 
ATOM     13  C   UNL A   1      31.830  26.268  26.501  1.00  0.00     0.050 A 
ATOM     14  H   UNL A   1      30.154  25.130  26.870  1.00  0.00     0.166 HD
ATOM     15  C   UNL A   1      33.630  25.014  25.381  1.00  0.00     0.192 A 
ATOM     16  C   UNL A   1      31.315  27.485  26.929  1.00  0.00     0.028 A 
ATOM     17  C   UNL A   1      33.149  26.232  26.040  1.00  0.00     0.047 A 
ATOM     18  O   UNL A   1      34.745  24.994  24.870  1.00  0.00    -0.289 OA
ATOM     19  C   UNL A   1      32.177  28.574  27.075  1.00  0.00     0.018 A 
ATOM     20  C   UNL A   1      34.012  27.312  26.179  1.00  0.00     0.030 A 
ATOM     21  C   UNL A   1      33.537  28.450  26.796  1.00  0.00     0.018 A 
ATOM     22  Br  UNL A   1      34.800  29.709  27.407  1.00  0.00    -0.051 Br
ENDBRANCH   8   9
ENDBRANCH   7   8
ENDBRANCH   4   7
ENDBRANCH   2   3
ENDBRANCH   1   2
BRANCH   1  23
ATOM     23  C   UNL A   1      38.786  23.305  26.423  1.00  0.00     0.118 C 
BRANCH  23  24
ATOM     24  N   UNL A   1      40.038  23.852  25.907  1.00  0.00    -0.352 N 
ATOM     25  C   UNL A   1      40.943  24.811  26.317  1.00  0.00     0.251 C 
ATOM     26  H   UNL A   1      40.302  23.434  25.056  1.00  0.00     0.163 HD
ATOM     27  O   UNL A   1      41.894  25.005  25.550  1.00  0.00    -0.269 OA
BRANCH  25  28
ATOM     28  C   UNL A   1      40.869  25.655  27.557  1.00  0.00     0.039 A 
ATOM     29  C   UNL A   1      39.824  25.668  28.470  1.00  0.00     0.014 A 
ATOM     30  C   UNL A   1      41.996  26.439  27.879  1.00  0.00     0.014 A 
ATOM     31  C   UNL A   1      39.848  26.557  29.573  1.00  0.00     0.010 A 
ATOM     32  C   UNL A   1      42.030  27.296  29.006  1.00  0.00     0.010 A 
ATOM     33  C   UNL A   1      40.916  27.449  29.834  1.00  0.00    -0.014 A 
BRANCH  33  34
ATOM     34  C   UNL A   1      40.812  28.538  30.897  1.00  0.00     0.031 A 
ATOM     35  C   UNL A   1      39.785  29.680  30.811  1.00  0.00     0.074 A 
ATOM     36  C   UNL A   1      41.547  28.479  32.033  1.00  0.00     0.049 A 
ATOM     37  N   UNL A   1      39.435  30.561  31.725  1.00  0.00    -0.248 NA
ATOM     38  C   UNL A   1      39.032  29.840  29.559  1.00  0.00     0.031 C 
ATOM     39  C   UNL A   1      42.575  27.481  32.325  1.00  0.00     0.029 A 
ATOM     40  N   UNL A   1      41.527  29.262  33.172  1.00  0.00    -0.354 N 
ATOM     41  C   UNL A   1      38.395  31.319  31.179  1.00  0.00     0.074 A 
ATOM     42  C   UNL A   1      38.166  30.801  29.852  1.00  0.00     0.031 C 
ATOM     43  C   UNL A   1      43.036  27.668  33.571  1.00  0.00     0.029 A 
ATOM     44  C   UNL A   1      42.405  28.852  34.152  1.00  0.00     0.049 A 
ATOM     45  H   UNL A   1      40.939  30.045  33.273  1.00  0.00     0.167 HD
ATOM     46  C   UNL A   1      37.704  32.367  31.695  1.00  0.00     0.037 A 
ATOM     47  C   UNL A   1      42.709  29.365  35.365  1.00  0.00     0.037 A 
ATOM     48  C   UNL A   1      37.974  32.995  32.964  1.00  0.00     0.049 A 
ATOM     49  C   UNL A   1      42.026  30.613  35.862  1.00  0.00     0.074 A 
ATOM     50  C   UNL A   1      37.357  34.108  33.518  1.00  0.00     0.029 A 
ATOM     51  N   UNL A   1      38.955  32.602  33.857  1.00  0.00    -0.354 N 
ATOM     52  N   UNL A   1      41.042  31.288  35.320  1.00  0.00    -0.248 NA
ATOM     53  C   UNL A   1      42.514  31.185  37.129  1.00  0.00     0.031 C 
ATOM     54  C   UNL A   1      38.006  34.424  34.714  1.00  0.00     0.029 A 
ATOM     55  C   UNL A   1      38.987  33.474  34.935  1.00  0.00     0.049 A 
ATOM     56  H   UNL A   1      39.542  31.821  33.743  1.00  0.00     0.167 HD
ATOM     57  C   UNL A   1      40.797  32.358  36.177  1.00  0.00     0.074 A 
ATOM     58  C   UNL A   1      41.711  32.229  37.290  1.00  0.00     0.031 C 
ATOM     59  C   UNL A   1      39.899  33.363  36.043  1.00  0.00     0.037 A 
BRANCH  46  60
ATOM     60  C   UNL A   1      36.593  32.978  30.875  1.00  0.00     0.058 A 
ATOM     61  C   UNL A   1      35.245  32.815  31.231  1.00  0.00     0.135 A 
ATOM     62  C   UNL A   1      36.887  33.854  29.815  1.00  0.00     0.135 A 
ATOM     63  F   UNL A   1      34.905  31.985  32.230  1.00  0.00    -0.206 F 
ATOM     64  C   UNL A   1      34.230  33.508  30.575  1.00  0.00     0.059 A 
ATOM     65  C   UNL A   1      35.890  34.568  29.155  1.00  0.00     0.059 A 
ATOM     66  F   UNL A   1      38.159  34.048  29.436  1.00  0.00    -0.206 F 
ATOM     67  C   UNL A   1      34.562  34.388  29.543  1.00  0.00     0.060 A 
BRANCH  67  68
ATOM     68  S   UNL A   1      33.239  35.311  28.727  1.00  0.00     0.124 S 
ATOM     69  O   UNL A   1      34.003  36.241  27.896  1.00  0.00    -0.237 OA
ATOM     70  O   UNL A   1      32.529  34.257  28.001  1.00  0.00    -0.237 OA
ATOM     71  O   UNL A   1      32.508  35.914  29.829  1.00  0.00    -0.744 OA
ENDBRANCH  67  68
ENDBRANCH  46  60
BRANCH  47  72
ATOM     72  C   UNL A   1      43.783  28.735  36.188  1.00  0.00     0.058 A 
ATOM     73  C   UNL A   1      45.099  29.222  36.186  1.00  0.00     0.135 A 
ATOM     74  C   UNL A   1      43.509  27.605  36.978  1.00  0.00     0.135 A 
ATOM     75  F   UNL A   1      45.422  30.280  35.427  1.00  0.00    -0.206 F 
ATOM     76  C   UNL A   1      46.103  28.612  36.931  1.00  0.00     0.059 A 
ATOM     77  C   UNL A   1      44.486  27.001  37.759  1.00  0.00     0.059 A 
ATOM     78  F   UNL A   1      42.269  27.092  37.012  1.00  0.00    -0.206 F 
ATOM     79  C   UNL A   1      45.785  27.504  37.720  1.00  0.00     0.060 A 
BRANCH  79  80
ATOM     80  S   UNL A   1      47.079  26.742  38.724  1.00  0.00     0.124 S 
ATOM     81  O   UNL A   1      47.836  26.006  37.718  1.00  0.00    -0.237 OA
ATOM     82  O   UNL A   1      47.745  27.905  39.302  1.00  0.00    -0.237 OA
ATOM     83  O   UNL A   1      46.327  25.926  39.673  1.00  0.00    -0.744 OA
ENDBRANCH  79  80
ENDBRANCH  47  72
BRANCH  59  84
ATOM     84  C   UNL A   1      39.845  34.419  37.113  1.00  0.00     0.058 A 
ATOM     85  C   UNL A   1      40.559  35.622  36.992  1.00  0.00     0.135 A 
ATOM     86  C   UNL A   1      39.023  34.259  38.241  1.00  0.00     0.135 A 
ATOM     87  F   UNL A   1      41.361  35.827  35.934  1.00  0.00    -0.206 F 
ATOM     88  C   UNL A   1      40.474  36.620  37.958  1.00  0.00     0.059 A 
ATOM     89  C   UNL A   1      38.905  35.254  39.208  1.00  0.00     0.059 A 
ATOM     90  F   UNL A   1      38.310  33.134  38.404  1.00  0.00    -0.206 F 
ATOM     91  C   UNL A   1      39.642  36.429  39.063  1.00  0.00     0.060 A 
BRANCH  91  92
ATOM     92  S   UNL A   1      39.517  37.749  40.289  1.00  0.00     0.124 S 
ATOM     93  O   UNL A   1      38.992  37.029  41.445  1.00  0.00    -0.237 OA
ATOM     94  O   UNL A   1      40.900  38.203  40.400  1.00  0.00    -0.237 OA
ATOM     95  O   UNL A   1      38.598  38.701  39.674  1.00  0.00    -0.744 OA
ENDBRANCH  91  92
ENDBRANCH  59  84
ENDBRANCH  33  34
ENDBRANCH  25  28
ENDBRANCH  23  24
ENDBRANCH   1  23
TORSDOF 15
ENDMDL
MODEL 3
REMARK VINA RESULT:     -11.4      5.362     10.717
REMARK SMILES Cc1[nH]c2ccc(Br)cc2c(=O)c1CCC(=O)NCCCNC(=O)c1ccc(-c2c3nc(c(-c4c(F)cc(S(=O)(=O)[O-])cc4F)c4ccc([nH]4)c(-c4c(F)cc(S(=O)(=O)[O-])cc4F)c4nc(c(-c5c(F)cc(S(=O)(=O)[O-])cc5F)c5ccc2[nH]5)C=C4)C=C3)cc1
REMARK SMILES IDX 20 1 19 2 18 3 16 4 17 5 15 7 14 8 13 9 1 10 2 11 3 12 4 13
REMARK SMILES IDX 11 15 5 16 10 17 12 18 6 19 9 20 7 21 8 22 21 23 22 24 23 25
REMARK SMILES IDX 24 27 25 28 26 29 90 30 27 31 89 32 28 33 29 34 30 35 83 36
REMARK SMILES IDX 31 37 88 38 82 39 84 40 32 41 87 42 81 43 80 44 33 46 67 47
REMARK SMILES IDX 46 48 66 49 47 50 50 51 65 52 85 53 48 54 49 55 64 57 86 58
REMARK SMILES IDX 51 59 34 60 35 61 44 62 36 63 37 64 43 65 45 66 38 67 39 68
REMARK SMILES IDX 40 69 41 70 42 71 68 72 69 73 78 74 70 75 71 76 77 77 79 78
REMARK SMILES IDX 72 79 73 80 74 81 75 82 76 83 52 84 53 85 62 86 54 87 55 88
REMARK SMILES IDX 61 89 63 90 56 91 57 92 58 93 59 94 60 95
REMARK H PARENT 18 6 3 14 22 26 84 45 50 56
REMARK Flexibility Score: inf
ROOT
ATOM      1  C   UNL A   1      39.383  21.714  26.023  1.00  0.00     0.042 C 
ENDROOT
BRANCH   1   2
ATOM      2  C   UNL A   1      37.897  22.059  25.824  1.00  0.00     0.117 C 
BRANCH   2   3
ATOM      3  N   UNL A   1      37.617  22.542  24.467  1.00  0.00    -0.356 N 
ATOM      4  C   UNL A   1      36.462  22.688  23.751  1.00  0.00     0.220 C 
ATOM      5  O   UNL A   1      36.557  23.073  22.583  1.00  0.00    -0.275 OA
ATOM      6  H   UNL A   1      38.424  22.816  23.973  1.00  0.00     0.163 HD
BRANCH   4   7
ATOM      7  C   UNL A   1      35.089  22.482  24.374  1.00  0.00     0.105 C 
BRANCH   7   8
ATOM      8  C   UNL A   1      33.944  22.363  23.356  1.00  0.00     0.051 C 
BRANCH   8   9
ATOM      9  C   UNL A   1      32.817  23.276  23.748  1.00  0.00     0.020 A 
ATOM     10  C   UNL A   1      31.860  21.930  25.659  1.00  0.00     0.064 C 
ATOM     11  C   UNL A   1      31.837  23.055  24.655  1.00  0.00     0.019 A 
ATOM     12  N   UNL A   1      30.715  23.861  24.727  1.00  0.00    -0.358 N 
ATOM     13  C   UNL A   1      30.599  25.042  23.999  1.00  0.00     0.050 A 
ATOM     14  H   UNL A   1      29.972  23.588  25.314  1.00  0.00     0.166 HD
ATOM     15  C   UNL A   1      32.809  24.577  23.015  1.00  0.00     0.192 A 
ATOM     16  C   UNL A   1      29.437  25.803  24.009  1.00  0.00     0.028 A 
ATOM     17  C   UNL A   1      31.668  25.478  23.211  1.00  0.00     0.047 A 
ATOM     18  O   UNL A   1      33.708  24.888  22.242  1.00  0.00    -0.289 OA
ATOM     19  C   UNL A   1      29.443  27.062  23.406  1.00  0.00     0.018 A 
ATOM     20  C   UNL A   1      31.681  26.728  22.605  1.00  0.00     0.030 A 
ATOM     21  C   UNL A   1      30.596  27.555  22.797  1.00  0.00     0.018 A 
ATOM     22  Br  UNL A   1      30.805  29.385  22.393  1.00  0.00    -0.051 Br
ENDBRANCH   8   9
ENDBRANCH   7   8
ENDBRANCH   4   7
ENDBRANCH   2   3
ENDBRANCH   1   2
BRANCH   1  23
ATOM     23  C   UNL A   1      40.268  22.708  26.795  1.00  0.00     0.118 C 
BRANCH  23  24
ATOM     24  N   UNL A   1      40.880  23.737  25.959  1.00  0.00    -0.352 N 
ATOM     25  C   UNL A   1      41.284  25.045  26.134  1.00  0.00     0.251 C 
ATOM     26  H   UNL A   1      41.044  23.418  25.042  1.00  0.00     0.163 HD
ATOM     27  O   UNL A   1      41.744  25.597  25.128  1.00  0.00    -0.269 OA
BRANCH  25  28
ATOM     28  C   UNL A   1      41.186  25.862  27.390  1.00  0.00     0.039 A 
ATOM     29  C   UNL A   1      40.124  25.856  28.283  1.00  0.00     0.014 A 
ATOM     30  C   UNL A   1      42.307  26.638  27.751  1.00  0.00     0.014 A 
ATOM     31  C   UNL A   1      40.127  26.721  29.405  1.00  0.00     0.010 A 
ATOM     32  C   UNL A   1      42.319  27.471  28.896  1.00  0.00     0.010 A 
ATOM     33  C   UNL A   1      41.189  27.607  29.706  1.00  0.00    -0.014 A 
BRANCH  33  34
ATOM     34  C   UNL A   1      41.066  28.673  30.789  1.00  0.00     0.031 A 
ATOM     35  C   UNL A   1      40.008  29.788  30.732  1.00  0.00     0.074 A 
ATOM     36  C   UNL A   1      41.812  28.613  31.918  1.00  0.00     0.049 A 
ATOM     37  N   UNL A   1      39.641  30.642  31.666  1.00  0.00    -0.248 NA
ATOM     38  C   UNL A   1      39.240  29.950  29.490  1.00  0.00     0.031 C 
ATOM     39  C   UNL A   1      42.868  27.638  32.183  1.00  0.00     0.029 A 
ATOM     40  N   UNL A   1      41.780  29.375  33.071  1.00  0.00    -0.354 N 
ATOM     41  C   UNL A   1      38.576  31.381  31.142  1.00  0.00     0.074 A 
ATOM     42  C   UNL A   1      38.351  30.882  29.808  1.00  0.00     0.031 C 
ATOM     43  C   UNL A   1      43.335  27.815  33.429  1.00  0.00     0.029 A 
ATOM     44  C   UNL A   1      42.677  28.970  34.036  1.00  0.00     0.049 A 
ATOM     45  H   UNL A   1      41.171  30.139  33.192  1.00  0.00     0.167 HD
ATOM     46  C   UNL A   1      37.862  32.401  31.684  1.00  0.00     0.037 A 
ATOM     47  C   UNL A   1      42.977  29.469  35.256  1.00  0.00     0.037 A 
ATOM     48  C   UNL A   1      38.126  33.013  32.961  1.00  0.00     0.049 A 
ATOM     49  C   UNL A   1      42.265  30.689  35.783  1.00  0.00     0.074 A 
ATOM     50  C   UNL A   1      37.484  34.098  33.541  1.00  0.00     0.029 A 
ATOM     51  N   UNL A   1      39.124  32.630  33.839  1.00  0.00    -0.354 N 
ATOM     52  N   UNL A   1      41.258  31.346  35.261  1.00  0.00    -0.248 NA
ATOM     53  C   UNL A   1      42.748  31.251  37.056  1.00  0.00     0.031 C 
ATOM     54  C   UNL A   1      38.134  34.409  34.738  1.00  0.00     0.029 A 
ATOM     55  C   UNL A   1      39.142  33.482  34.933  1.00  0.00     0.049 A 
ATOM     56  H   UNL A   1      39.731  31.867  33.706  1.00  0.00     0.167 HD
ATOM     57  C   UNL A   1      40.992  32.394  36.140  1.00  0.00     0.074 A 
ATOM     58  C   UNL A   1      41.919  32.269  37.242  1.00  0.00     0.031 C 
ATOM     59  C   UNL A   1      40.066  33.376  36.031  1.00  0.00     0.037 A 
BRANCH  46  60
ATOM     60  C   UNL A   1      36.728  32.996  30.884  1.00  0.00     0.058 A 
ATOM     61  C   UNL A   1      35.388  32.707  31.185  1.00  0.00     0.135 A 
ATOM     62  C   UNL A   1      36.980  33.977  29.908  1.00  0.00     0.135 A 
ATOM     63  F   UNL A   1      35.088  31.773  32.102  1.00  0.00    -0.206 F 
ATOM     64  C   UNL A   1      34.339  33.376  30.558  1.00  0.00     0.059 A 
ATOM     65  C   UNL A   1      35.948  34.670  29.280  1.00  0.00     0.059 A 
ATOM     66  F   UNL A   1      38.243  34.295  29.585  1.00  0.00    -0.206 F 
ATOM     67  C   UNL A   1      34.629  34.362  29.613  1.00  0.00     0.060 A 
BRANCH  67  68
ATOM     68  S   UNL A   1      33.260  35.252  28.837  1.00  0.00     0.124 S 
ATOM     69  O   UNL A   1      33.974  36.278  28.078  1.00  0.00    -0.237 OA
ATOM     70  O   UNL A   1      32.625  34.205  28.034  1.00  0.00    -0.237 OA
ATOM     71  O   UNL A   1      32.480  35.737  29.963  1.00  0.00    -0.744 OA
ENDBRANCH  67  68
ENDBRANCH  46  60
BRANCH  47  72
ATOM     72  C   UNL A   1      44.075  28.853  36.059  1.00  0.00     0.058 A 
ATOM     73  C   UNL A   1      45.400  29.308  35.973  1.00  0.00     0.135 A 
ATOM     74  C   UNL A   1      43.814  27.769  36.915  1.00  0.00     0.135 A 
ATOM     75  F   UNL A   1      45.710  30.320  35.148  1.00  0.00    -0.206 F 
ATOM     76  C   UNL A   1      46.425  28.710  36.700  1.00  0.00     0.059 A 
ATOM     77  C   UNL A   1      44.814  27.180  37.679  1.00  0.00     0.059 A 
ATOM     78  F   UNL A   1      42.566  27.289  37.031  1.00  0.00    -0.206 F 
ATOM     79  C   UNL A   1      46.120  27.649  37.555  1.00  0.00     0.060 A 
BRANCH  79  80
ATOM     80  S   UNL A   1      47.443  26.905  38.535  1.00  0.00     0.124 S 
ATOM     81  O   UNL A   1      48.536  26.867  37.570  1.00  0.00    -0.237 OA
ATOM     82  O   UNL A   1      47.588  27.858  39.631  1.00  0.00    -0.237 OA
ATOM     83  O   UNL A   1      46.889  25.609  38.913  1.00  0.00    -0.744 OA
ENDBRANCH  79  80
ENDBRANCH  47  72
BRANCH  59  84
ATOM     84  C   UNL A   1      39.993  34.410  37.122  1.00  0.00     0.058 A 
ATOM     85  C   UNL A   1      40.697  35.622  37.030  1.00  0.00     0.135 A 
ATOM     86  C   UNL A   1      39.162  34.221  38.238  1.00  0.00     0.135 A 
ATOM     87  F   UNL A   1      41.507  35.855  35.984  1.00  0.00    -0.206 F 
ATOM     88  C   UNL A   1      40.595  36.600  38.015  1.00  0.00     0.059 A 
ATOM     89  C   UNL A   1      39.026  35.196  39.223  1.00  0.00     0.059 A 
ATOM     90  F   UNL A   1      38.457  33.087  38.372  1.00  0.00    -0.206 F 
ATOM     91  C   UNL A   1      39.754  36.379  39.108  1.00  0.00     0.060 A 
BRANCH  91  92
ATOM     92  S   UNL A   1      39.606  37.674  40.358  1.00  0.00     0.124 S 
ATOM     93  O   UNL A   1      38.260  38.179  40.104  1.00  0.00    -0.237 OA
ATOM     94  O   UNL A   1      39.778  36.928  41.601  1.00  0.00    -0.237 OA
ATOM     95  O   UNL A   1      40.692  38.593  40.030  1.00  0.00    -0.744 OA
ENDBRANCH  91  92
ENDBRANCH  59  84
ENDBRANCH  33  34
ENDBRANCH  25  28
ENDBRANCH  23  24
ENDBRANCH   1  23
TORSDOF 15
ENDMDL
