MODEL 1
REMARK VINA RESULT:     -12.0      0.000      0.000
REMARK SMILES CN(C)S(=O)(=O)c1ccc(NC(=O)[C@@H]2CCCC[C@@H]2C(=O)NCCCNC(=O)c2ccc(-c3c4nc(c(-c5c(F)cc(S(=O)(=O)[O-])cc5F)c5ccc([nH]5)c(-c5c(F)cc(S(=O)(=O)[O-])cc5F)c5nc(c(-c6c(F)cc(S(=O)(=O)[O-])cc6F)c6ccc3[nH]6)C=C5)C=C4)cc2)cc1
REMARK SMILES IDX 23 1 22 2 20 3 21 4 19 6 14 7 15 8 16 9 18 10 17 11 12 12
REMARK SMILES IDX 11 13 13 15 10 16 7 17 8 18 96 19 9 20 95 21 4 22 5 23 6 24
REMARK SMILES IDX 2 25 1 26 3 27 24 28 25 29 26 30 27 31 28 33 29 34 30 35
REMARK SMILES IDX 94 36 31 37 93 38 32 39 33 40 34 41 87 42 35 43 92 44 86 45
REMARK SMILES IDX 88 46 36 47 91 48 85 49 84 50 37 52 71 53 50 54 70 55 51 56
REMARK SMILES IDX 54 57 69 58 89 59 52 60 53 61 68 63 90 64 55 65 38 66 39 67
REMARK SMILES IDX 48 68 40 69 41 70 47 71 49 72 42 73 43 74 44 75 45 76 46 77
REMARK SMILES IDX 72 78 73 79 82 80 74 81 75 82 81 83 83 84 76 85 77 86 78 87
REMARK SMILES IDX 79 88 80 89 56 90 57 91 66 92 58 93 59 94 65 95 67 96 60 97
REMARK SMILES IDX 61 98 62 99 63 100 64 101
REMARK H PARENT 22 5 11 14 26 32 88 51 54 62
REMARK Flexibility Score: inf
ROOT
ATOM      1  C   UNL A   1      33.976  27.436  24.616  1.00  0.00     0.117 C 
ENDROOT
BRANCH   1   2
ATOM      2  N   UNL A   1      34.014  26.294  25.502  1.00  0.00    -0.356 N 
ATOM      3  C   UNL A   1      33.398  25.090  25.441  1.00  0.00     0.223 C 
ATOM      4  O   UNL A   1      33.709  24.297  26.335  1.00  0.00    -0.275 OA
ATOM      5  H   UNL A   1      34.593  26.414  26.290  1.00  0.00     0.163 HD
BRANCH   3   6
ATOM      6  C   UNL A   1      32.370  24.749  24.345  1.00  0.00     0.091 C 
ATOM      7  C   UNL A   1      31.270  23.789  24.919  1.00  0.00     0.091 C 
ATOM      8  C   UNL A   1      31.938  22.435  25.276  1.00  0.00     0.014 C 
ATOM      9  C   UNL A   1      32.648  21.803  24.079  1.00  0.00     0.001 C 
ATOM     10  C   UNL A   1      32.973  24.080  23.096  1.00  0.00     0.014 C 
ATOM     11  C   UNL A   1      33.639  22.751  23.424  1.00  0.00     0.001 C 
BRANCH   7  12
ATOM     12  C   UNL A   1      30.461  24.514  26.024  1.00  0.00     0.228 C 
ATOM     13  N   UNL A   1      29.647  25.586  25.776  1.00  0.00    -0.326 N 
ATOM     14  H   UNL A   1      29.057  25.835  26.523  1.00  0.00     0.169 HD
ATOM     15  O   UNL A   1      30.553  24.161  27.207  1.00  0.00    -0.274 OA
BRANCH  13  16
ATOM     16  C   UNL A   1      29.513  26.384  24.637  1.00  0.00     0.041 A 
ATOM     17  C   UNL A   1      29.266  28.451  22.797  1.00  0.00     0.082 A 
ATOM     18  C   UNL A   1      28.151  27.669  23.126  1.00  0.00     0.024 A 
ATOM     19  C   UNL A   1      30.535  28.061  23.219  1.00  0.00     0.024 A 
ATOM     20  C   UNL A   1      28.281  26.618  24.031  1.00  0.00     0.027 A 
ATOM     21  C   UNL A   1      30.657  27.016  24.143  1.00  0.00     0.027 A 
BRANCH  17  22
ATOM     22  S   UNL A   1      28.931  29.992  21.971  1.00  0.00     0.242 S 
ATOM     23  O   UNL A   1      27.684  29.826  21.257  1.00  0.00    -0.207 OA
ATOM     24  O   UNL A   1      30.152  30.335  21.268  1.00  0.00    -0.207 OA
BRANCH  22  25
ATOM     25  N   UNL A   1      28.681  31.200  23.164  1.00  0.00    -0.204 NA
ATOM     26  C   UNL A   1      28.939  32.562  22.618  1.00  0.00     0.124 C 
ATOM     27  C   UNL A   1      27.346  31.179  23.821  1.00  0.00     0.124 C 
ENDBRANCH  22  25
ENDBRANCH  17  22
ENDBRANCH  13  16
ENDBRANCH   7  12
ENDBRANCH   3   6
ENDBRANCH   1   2
BRANCH   1  28
ATOM     28  C   UNL A   1      33.634  28.740  25.322  1.00  0.00     0.042 C 
BRANCH  28  29
ATOM     29  C   UNL A   1      33.662  28.699  26.844  1.00  0.00     0.118 C 
BRANCH  29  30
ATOM     30  N   UNL A   1      33.704  30.010  27.479  1.00  0.00    -0.352 N 
ATOM     31  C   UNL A   1      34.705  30.622  28.201  1.00  0.00     0.251 C 
ATOM     32  H   UNL A   1      32.884  30.544  27.375  1.00  0.00     0.163 HD
ATOM     33  O   UNL A   1      34.490  31.709  28.733  1.00  0.00    -0.269 OA
BRANCH  31  34
ATOM     34  C   UNL A   1      36.012  29.953  28.391  1.00  0.00     0.039 A 
ATOM     35  C   UNL A   1      36.924  29.952  27.332  1.00  0.00     0.014 A 
ATOM     36  C   UNL A   1      36.360  29.365  29.607  1.00  0.00     0.014 A 
ATOM     37  C   UNL A   1      38.224  29.482  27.537  1.00  0.00     0.010 A 
ATOM     38  C   UNL A   1      37.681  28.991  29.840  1.00  0.00     0.010 A 
ATOM     39  C   UNL A   1      38.635  29.067  28.815  1.00  0.00    -0.014 A 
BRANCH  39  40
ATOM     40  C   UNL A   1      40.061  28.769  29.117  1.00  0.00     0.031 A 
ATOM     41  C   UNL A   1      40.966  29.841  29.662  1.00  0.00     0.074 A 
ATOM     42  C   UNL A   1      40.566  27.558  28.797  1.00  0.00     0.049 A 
ATOM     43  N   UNL A   1      42.259  29.805  29.860  1.00  0.00    -0.248 NA
ATOM     44  C   UNL A   1      40.346  31.134  29.997  1.00  0.00     0.031 C 
ATOM     45  C   UNL A   1      39.810  26.453  28.197  1.00  0.00     0.029 A 
ATOM     46  N   UNL A   1      41.841  27.058  28.907  1.00  0.00    -0.354 N 
ATOM     47  C   UNL A   1      42.611  31.071  30.314  1.00  0.00     0.074 A 
ATOM     48  C   UNL A   1      41.402  31.865  30.329  1.00  0.00     0.031 C 
ATOM     49  C   UNL A   1      40.630  25.407  28.007  1.00  0.00     0.029 A 
ATOM     50  C   UNL A   1      41.977  25.775  28.427  1.00  0.00     0.049 A 
ATOM     51  H   UNL A   1      42.588  27.569  29.294  1.00  0.00     0.167 HD
ATOM     52  C   UNL A   1      43.827  31.522  30.700  1.00  0.00     0.037 A 
ATOM     53  C   UNL A   1      43.065  24.989  28.315  1.00  0.00     0.037 A 
ATOM     54  C   UNL A   1      45.016  30.713  30.739  1.00  0.00     0.049 A 
ATOM     55  C   UNL A   1      44.400  25.513  28.770  1.00  0.00     0.074 A 
ATOM     56  C   UNL A   1      46.267  31.049  31.227  1.00  0.00     0.029 A 
ATOM     57  N   UNL A   1      45.105  29.409  30.275  1.00  0.00    -0.354 N 
ATOM     58  N   UNL A   1      44.692  26.684  29.282  1.00  0.00    -0.248 NA
ATOM     59  C   UNL A   1      45.553  24.613  28.628  1.00  0.00     0.031 C 
ATOM     60  C   UNL A   1      47.124  29.963  31.020  1.00  0.00     0.029 A 
ATOM     61  C   UNL A   1      46.397  28.939  30.437  1.00  0.00     0.049 A 
ATOM     62  H   UNL A   1      44.360  28.895  29.888  1.00  0.00     0.167 HD
ATOM     63  C   UNL A   1      46.059  26.656  29.534  1.00  0.00     0.074 A 
ATOM     64  C   UNL A   1      46.532  25.346  29.140  1.00  0.00     0.031 C 
ATOM     65  C   UNL A   1      46.852  27.631  30.040  1.00  0.00     0.037 A 
BRANCH  52  66
ATOM     66  C   UNL A   1      43.944  32.954  31.138  1.00  0.00     0.058 A 
ATOM     67  C   UNL A   1      43.850  33.318  32.490  1.00  0.00     0.135 A 
ATOM     68  C   UNL A   1      44.243  33.961  30.206  1.00  0.00     0.135 A 
ATOM     69  F   UNL A   1      43.551  32.396  33.420  1.00  0.00    -0.206 F 
ATOM     70  C   UNL A   1      44.044  34.632  32.903  1.00  0.00     0.059 A 
ATOM     71  C   UNL A   1      44.461  35.278  30.600  1.00  0.00     0.059 A 
ATOM     72  F   UNL A   1      44.340  33.665  28.900  1.00  0.00    -0.206 F 
ATOM     73  C   UNL A   1      44.355  35.604  31.951  1.00  0.00     0.060 A 
BRANCH  73  74
ATOM     74  S   UNL A   1      44.652  37.294  32.511  1.00  0.00     0.124 S 
ATOM     75  O   UNL A   1      43.774  37.374  33.675  1.00  0.00    -0.237 OA
ATOM     76  O   UNL A   1      46.084  37.281  32.797  1.00  0.00    -0.237 OA
ATOM     77  O   UNL A   1      44.254  38.107  31.367  1.00  0.00    -0.744 OA
ENDBRANCH  73  74
ENDBRANCH  52  66
BRANCH  53  78
ATOM     78  C   UNL A   1      42.951  23.624  27.735  1.00  0.00     0.058 A 
ATOM     79  C   UNL A   1      43.208  23.395  26.374  1.00  0.00     0.135 A 
ATOM     80  C   UNL A   1      42.561  22.529  28.520  1.00  0.00     0.135 A 
ATOM     81  F   UNL A   1      43.577  24.412  25.582  1.00  0.00    -0.206 F 
ATOM     82  C   UNL A   1      43.053  22.134  25.807  1.00  0.00     0.059 A 
ATOM     83  C   UNL A   1      42.422  21.254  27.980  1.00  0.00     0.059 A 
ATOM     84  F   UNL A   1      42.321  22.692  29.831  1.00  0.00    -0.206 F 
ATOM     85  C   UNL A   1      42.654  21.071  26.618  1.00  0.00     0.060 A 
BRANCH  85  86
ATOM     86  S   UNL A   1      42.472  19.433  25.879  1.00  0.00     0.124 S 
ATOM     87  O   UNL A   1      41.032  19.372  25.657  1.00  0.00    -0.237 OA
ATOM     88  O   UNL A   1      43.299  19.538  24.681  1.00  0.00    -0.237 OA
ATOM     89  O   UNL A   1      42.992  18.543  26.912  1.00  0.00    -0.744 OA
ENDBRANCH  85  86
ENDBRANCH  53  78
BRANCH  65  90
ATOM     90  C   UNL A   1      48.311  27.318  30.206  1.00  0.00     0.058 A 
ATOM     91  C   UNL A   1      49.227  27.539  29.166  1.00  0.00     0.135 A 
ATOM     92  C   UNL A   1      48.805  26.845  31.431  1.00  0.00     0.135 A 
ATOM     93  F   UNL A   1      48.800  27.981  27.973  1.00  0.00    -0.206 F 
ATOM     94  C   UNL A   1      50.584  27.288  29.331  1.00  0.00     0.059 A 
ATOM     95  C   UNL A   1      50.163  26.608  31.626  1.00  0.00     0.059 A 
ATOM     96  F   UNL A   1      47.970  26.625  32.459  1.00  0.00    -0.206 F 
ATOM     97  C   UNL A   1      51.043  26.825  30.566  1.00  0.00     0.060 A 
BRANCH  97  98
ATOM     98  S   UNL A   1      52.814  26.545  30.782  1.00  0.00     0.124 S 
ATOM     99  O   UNL A   1      53.211  27.737  31.522  1.00  0.00    -0.237 OA
ATOM    100  O   UNL A   1      52.844  25.293  31.533  1.00  0.00    -0.237 OA
ATOM    101  O   UNL A   1      53.313  26.459  29.413  1.00  0.00    -0.744 OA
ENDBRANCH  97  98
ENDBRANCH  65  90
ENDBRANCH  39  40
ENDBRANCH  31  34
ENDBRANCH  29  30
ENDBRANCH  28  29
ENDBRANCH   1  28
TORSDOF 17
ENDMDL
MODEL 2
REMARK VINA RESULT:     -11.9      4.930     10.015
REMARK SMILES CN(C)S(=O)(=O)c1ccc(NC(=O)[C@@H]2CCCC[C@@H]2C(=O)NCCCNC(=O)c2ccc(-c3c4nc(c(-c5c(F)cc(S(=O)(=O)[O-])cc5F)c5ccc([nH]5)c(-c5c(F)cc(S(=O)(=O)[O-])cc5F)c5nc(c(-c6c(F)cc(S(=O)(=O)[O-])cc6F)c6ccc3[nH]6)C=C5)C=C4)cc2)cc1
REMARK SMILES IDX 23 1 22 2 20 3 21 4 19 6 14 7 15 8 16 9 18 10 17 11 12 12
REMARK SMILES IDX 11 13 13 15 10 16 7 17 8 18 96 19 9 20 95 21 4 22 5 23 6 24
REMARK SMILES IDX 2 25 1 26 3 27 24 28 25 29 26 30 27 31 28 33 29 34 30 35
REMARK SMILES IDX 94 36 31 37 93 38 32 39 33 40 34 41 87 42 35 43 92 44 86 45
REMARK SMILES IDX 88 46 36 47 91 48 85 49 84 50 37 52 71 53 50 54 70 55 51 56
REMARK SMILES IDX 54 57 69 58 89 59 52 60 53 61 68 63 90 64 55 65 38 66 39 67
REMARK SMILES IDX 48 68 40 69 41 70 47 71 49 72 42 73 43 74 44 75 45 76 46 77
REMARK SMILES IDX 72 78 73 79 82 80 74 81 75 82 81 83 83 84 76 85 77 86 78 87
REMARK SMILES IDX 79 88 80 89 56 90 57 91 66 92 58 93 59 94 65 95 67 96 60 97
REMARK SMILES IDX 61 98 62 99 63 100 64 101
REMARK H PARENT 22 5 11 14 26 32 88 51 54 62
REMARK Flexibility Score: inf
ROOT
ATOM      1  C   UNL A   1      36.747  23.902  25.755  1.00  0.00     0.117 C 
ENDROOT
BRANCH   1   2
ATOM      2  N   UNL A   1      35.461  23.339  26.100  1.00  0.00    -0.356 N 
ATOM      3  C   UNL A   1      34.281  23.322  25.436  1.00  0.00     0.223 C 
ATOM      4  O   UNL A   1      33.380  22.680  25.985  1.00  0.00    -0.275 OA
ATOM      5  H   UNL A   1      35.440  22.885  26.974  1.00  0.00     0.163 HD
BRANCH   3   6
ATOM      6  C   UNL A   1      34.079  24.070  24.103  1.00  0.00     0.091 C 
ATOM      7  C   UNL A   1      32.757  24.913  24.155  1.00  0.00     0.091 C 
ATOM      8  C   UNL A   1      31.555  23.937  24.252  1.00  0.00     0.014 C 
ATOM      9  C   UNL A   1      31.524  22.936  23.097  1.00  0.00     0.001 C 
ATOM     10  C   UNL A   1      34.005  23.154  22.867  1.00  0.00     0.014 C 
ATOM     11  C   UNL A   1      32.835  22.183  22.944  1.00  0.00     0.001 C 
BRANCH   7  12
ATOM     12  C   UNL A   1      32.881  26.023  25.229  1.00  0.00     0.228 C 
ATOM     13  N   UNL A   1      32.111  27.155  25.229  1.00  0.00    -0.326 N 
ATOM     14  H   UNL A   1      32.162  27.686  26.056  1.00  0.00     0.169 HD
ATOM     15  O   UNL A   1      33.726  25.938  26.129  1.00  0.00    -0.274 OA
BRANCH  13  16
ATOM     16  C   UNL A   1      31.266  27.682  24.249  1.00  0.00     0.041 A 
ATOM     17  C   UNL A   1      29.466  29.174  22.748  1.00  0.00     0.082 A 
ATOM     18  C   UNL A   1      29.073  27.945  23.294  1.00  0.00     0.024 A 
ATOM     19  C   UNL A   1      30.809  29.545  22.770  1.00  0.00     0.024 A 
ATOM     20  C   UNL A   1      29.983  27.186  24.027  1.00  0.00     0.027 A 
ATOM     21  C   UNL A   1      31.715  28.788  23.524  1.00  0.00     0.027 A 
BRANCH  17  22
ATOM     22  S   UNL A   1      28.156  30.244  22.193  1.00  0.00     0.242 S 
ATOM     23  O   UNL A   1      27.178  30.302  23.257  1.00  0.00    -0.207 OA
ATOM     24  O   UNL A   1      27.792  29.766  20.872  1.00  0.00    -0.207 OA
BRANCH  22  25
ATOM     25  N   UNL A   1      28.796  31.824  21.998  1.00  0.00    -0.204 NA
ATOM     26  C   UNL A   1      28.130  32.544  20.877  1.00  0.00     0.124 C 
ATOM     27  C   UNL A   1      28.766  32.677  23.217  1.00  0.00     0.124 C 
ENDBRANCH  22  25
ENDBRANCH  17  22
ENDBRANCH  13  16
ENDBRANCH   7  12
ENDBRANCH   3   6
ENDBRANCH   1   2
BRANCH   1  28
ATOM     28  C   UNL A   1      37.921  23.015  26.141  1.00  0.00     0.042 C 
BRANCH  28  29
ATOM     29  C   UNL A   1      39.083  23.714  26.833  1.00  0.00     0.118 C 
BRANCH  29  30
ATOM     30  N   UNL A   1      40.052  24.312  25.923  1.00  0.00    -0.352 N 
ATOM     31  C   UNL A   1      40.905  25.379  26.099  1.00  0.00     0.251 C 
ATOM     32  H   UNL A   1      40.104  23.884  25.038  1.00  0.00     0.163 HD
ATOM     33  O   UNL A   1      41.580  25.778  25.154  1.00  0.00    -0.269 OA
BRANCH  31  34
ATOM     34  C   UNL A   1      40.968  26.083  27.400  1.00  0.00     0.039 A 
ATOM     35  C   UNL A   1      42.102  26.845  27.696  1.00  0.00     0.014 A 
ATOM     36  C   UNL A   1      39.910  26.032  28.308  1.00  0.00     0.014 A 
ATOM     37  C   UNL A   1      42.115  27.654  28.836  1.00  0.00     0.010 A 
ATOM     38  C   UNL A   1      39.882  26.913  29.386  1.00  0.00     0.010 A 
ATOM     39  C   UNL A   1      40.974  27.752  29.649  1.00  0.00    -0.014 A 
BRANCH  39  40
ATOM     40  C   UNL A   1      40.877  28.762  30.739  1.00  0.00     0.031 A 
ATOM     41  C   UNL A   1      41.724  28.634  31.976  1.00  0.00     0.074 A 
ATOM     42  C   UNL A   1      39.944  29.734  30.658  1.00  0.00     0.049 A 
ATOM     43  N   UNL A   1      41.683  29.337  33.079  1.00  0.00    -0.248 NA
ATOM     44  C   UNL A   1      42.727  27.556  31.992  1.00  0.00     0.031 C 
ATOM     45  C   UNL A   1      39.010  29.926  29.542  1.00  0.00     0.029 A 
ATOM     46  N   UNL A   1      39.607  30.732  31.540  1.00  0.00    -0.354 N 
ATOM     47  C   UNL A   1      42.628  28.772  33.926  1.00  0.00     0.074 A 
ATOM     48  C   UNL A   1      43.205  27.645  33.226  1.00  0.00     0.031 C 
ATOM     49  C   UNL A   1      38.221  30.981  29.801  1.00  0.00     0.029 A 
ATOM     50  C   UNL A   1      38.557  31.516  31.116  1.00  0.00     0.049 A 
ATOM     51  H   UNL A   1      40.073  30.875  32.394  1.00  0.00     0.167 HD
ATOM     52  C   UNL A   1      42.995  29.170  35.168  1.00  0.00     0.037 A 
ATOM     53  C   UNL A   1      37.919  32.535  31.724  1.00  0.00     0.037 A 
ATOM     54  C   UNL A   1      42.461  30.325  35.838  1.00  0.00     0.049 A 
ATOM     55  C   UNL A   1      38.361  32.965  33.096  1.00  0.00     0.074 A 
ATOM     56  C   UNL A   1      42.854  30.874  37.046  1.00  0.00     0.029 A 
ATOM     57  N   UNL A   1      41.422  31.110  35.362  1.00  0.00    -0.354 N 
ATOM     58  N   UNL A   1      39.321  32.472  33.842  1.00  0.00    -0.248 NA
ATOM     59  C   UNL A   1      37.634  34.083  33.711  1.00  0.00     0.031 C 
ATOM     60  C   UNL A   1      42.026  31.967  37.321  1.00  0.00     0.029 A 
ATOM     61  C   UNL A   1      41.141  32.120  36.268  1.00  0.00     0.049 A 
ATOM     62  H   UNL A   1      40.954  30.970  34.508  1.00  0.00     0.167 HD
ATOM     63  C   UNL A   1      39.319  33.229  35.008  1.00  0.00     0.074 A 
ATOM     64  C   UNL A   1      38.279  34.225  34.861  1.00  0.00     0.031 C 
ATOM     65  C   UNL A   1      40.103  33.104  36.105  1.00  0.00     0.037 A 
BRANCH  52  66
ATOM     66  C   UNL A   1      44.042  28.367  35.887  1.00  0.00     0.058 A 
ATOM     67  C   UNL A   1      43.697  27.301  36.731  1.00  0.00     0.135 A 
ATOM     68  C   UNL A   1      45.406  28.608  35.656  1.00  0.00     0.135 A 
ATOM     69  F   UNL A   1      42.407  27.038  36.997  1.00  0.00    -0.206 F 
ATOM     70  C   UNL A   1      44.668  26.505  37.329  1.00  0.00     0.059 A 
ATOM     71  C   UNL A   1      46.394  27.811  36.227  1.00  0.00     0.059 A 
ATOM     72  F   UNL A   1      45.788  29.618  34.858  1.00  0.00    -0.206 F 
ATOM     73  C   UNL A   1      46.014  26.764  37.065  1.00  0.00     0.060 A 
BRANCH  73  74
ATOM     74  S   UNL A   1      47.260  25.689  37.809  1.00  0.00     0.124 S 
ATOM     75  O   UNL A   1      46.873  25.725  39.216  1.00  0.00    -0.237 OA
ATOM     76  O   UNL A   1      47.030  24.422  37.121  1.00  0.00    -0.237 OA
ATOM     77  O   UNL A   1      48.519  26.353  37.487  1.00  0.00    -0.744 OA
ENDBRANCH  73  74
ENDBRANCH  52  66
BRANCH  53  78
ATOM     78  C   UNL A   1      36.781  33.218  31.053  1.00  0.00     0.058 A 
ATOM     79  C   UNL A   1      35.457  32.965  31.442  1.00  0.00     0.135 A 
ATOM     80  C   UNL A   1      36.991  34.115  29.994  1.00  0.00     0.135 A 
ATOM     81  F   UNL A   1      35.205  32.110  32.444  1.00  0.00    -0.206 F 
ATOM     82  C   UNL A   1      34.380  33.555  30.788  1.00  0.00     0.059 A 
ATOM     83  C   UNL A   1      35.932  34.736  29.341  1.00  0.00     0.059 A 
ATOM     84  F   UNL A   1      38.241  34.404  29.596  1.00  0.00    -0.206 F 
ATOM     85  C   UNL A   1      34.628  34.436  29.734  1.00  0.00     0.060 A 
BRANCH  85  86
ATOM     86  S   UNL A   1      33.228  35.213  28.900  1.00  0.00     0.124 S 
ATOM     87  O   UNL A   1      33.887  36.280  28.157  1.00  0.00    -0.237 OA
ATOM     88  O   UNL A   1      32.693  34.114  28.101  1.00  0.00    -0.237 OA
ATOM     89  O   UNL A   1      32.378  35.642  30.006  1.00  0.00    -0.744 OA
ENDBRANCH  85  86
ENDBRANCH  53  78
BRANCH  65  90
ATOM     90  C   UNL A   1      39.876  34.073  37.230  1.00  0.00     0.058 A 
ATOM     91  C   UNL A   1      40.405  35.373  37.190  1.00  0.00     0.135 A 
ATOM     92  C   UNL A   1      39.080  33.718  38.329  1.00  0.00     0.135 A 
ATOM     93  F   UNL A   1      41.181  35.754  36.164  1.00  0.00    -0.206 F 
ATOM     94  C   UNL A   1      40.162  36.284  38.211  1.00  0.00     0.059 A 
ATOM     95  C   UNL A   1      38.805  34.623  39.351  1.00  0.00     0.059 A 
ATOM     96  F   UNL A   1      38.546  32.489  38.410  1.00  0.00    -0.206 F 
ATOM     97  C   UNL A   1      39.358  35.901  39.286  1.00  0.00     0.060 A 
BRANCH  97  98
ATOM     98  S   UNL A   1      39.014  37.108  40.584  1.00  0.00     0.124 S 
ATOM     99  O   UNL A   1      40.360  37.437  41.043  1.00  0.00    -0.237 OA
ATOM    100  O   UNL A   1      38.317  38.164  39.856  1.00  0.00    -0.237 OA
ATOM    101  O   UNL A   1      38.192  36.361  41.532  1.00  0.00    -0.744 OA
ENDBRANCH  97  98
ENDBRANCH  65  90
ENDBRANCH  39  40
ENDBRANCH  31  34
ENDBRANCH  29  30
ENDBRANCH  28  29
ENDBRANCH   1  28
TORSDOF 17
ENDMDL
MODEL 3
REMARK VINA RESULT:     -11.9      2.241      4.683
REMARK SMILES CN(C)S(=O)(=O)c1ccc(NC(=O)[C@@H]2CCCC[C@@H]2C(=O)NCCCNC(=O)c2ccc(-c3c4nc(c(-c5c(F)cc(S(=O)(=O)[O-])cc5F)c5ccc([nH]5)c(-c5c(F)cc(S(=O)(=O)[O-])cc5F)c5nc(c(-c6c(F)cc(S(=O)(=O)[O-])cc6F)c6ccc3[nH]6)C=C5)C=C4)cc2)cc1
REMARK SMILES IDX 23 1 22 2 20 3 21 4 19 6 14 7 15 8 16 9 18 10 17 11 12 12
REMARK SMILES IDX 11 13 13 15 10 16 7 17 8 18 96 19 9 20 95 21 4 22 5 23 6 24
REMARK SMILES IDX 2 25 1 26 3 27 24 28 25 29 26 30 27 31 28 33 29 34 30 35
REMARK SMILES IDX 94 36 31 37 93 38 32 39 33 40 34 41 87 42 35 43 92 44 86 45
REMARK SMILES IDX 88 46 36 47 91 48 85 49 84 50 37 52 71 53 50 54 70 55 51 56
REMARK SMILES IDX 54 57 69 58 89 59 52 60 53 61 68 63 90 64 55 65 38 66 39 67
REMARK SMILES IDX 48 68 40 69 41 70 47 71 49 72 42 73 43 74 44 75 45 76 46 77
REMARK SMILES IDX 72 78 73 79 82 80 74 81 75 82 81 83 83 84 76 85 77 86 78 87
REMARK SMILES IDX 79 88 80 89 56 90 57 91 66 92 58 93 59 94 65 95 67 96 60 97
REMARK SMILES IDX 61 98 62 99 63 100 64 101
REMARK H PARENT 22 5 11 14 26 32 88 51 54 62
REMARK Flexibility Score: inf
ROOT
ATOM      1  C   UNL A   1      32.866  28.732  24.666  1.00  0.00     0.117 C 
ENDROOT
BRANCH   1   2
ATOM      2  N   UNL A   1      33.164  27.743  23.655  1.00  0.00    -0.356 N 
ATOM      3  C   UNL A   1      32.823  26.437  23.549  1.00  0.00     0.223 C 
ATOM      4  O   UNL A   1      33.182  25.885  22.505  1.00  0.00    -0.275 OA
ATOM      5  H   UNL A   1      33.714  28.080  22.910  1.00  0.00     0.163 HD
BRANCH   3   6
ATOM      6  C   UNL A   1      32.058  25.696  24.663  1.00  0.00     0.091 C 
ATOM      7  C   UNL A   1      32.713  24.294  24.923  1.00  0.00     0.091 C 
ATOM      8  C   UNL A   1      32.519  23.420  23.656  1.00  0.00     0.014 C 
ATOM      9  C   UNL A   1      31.047  23.276  23.267  1.00  0.00     0.001 C 
ATOM     10  C   UNL A   1      30.564  25.471  24.365  1.00  0.00     0.014 C 
ATOM     11  C   UNL A   1      30.351  24.619  23.122  1.00  0.00     0.001 C 
BRANCH   7  12
ATOM     12  C   UNL A   1      34.151  24.475  25.468  1.00  0.00     0.228 C 
ATOM     13  N   UNL A   1      35.008  23.430  25.686  1.00  0.00    -0.326 N 
ATOM     14  H   UNL A   1      35.940  23.692  25.858  1.00  0.00     0.169 HD
ATOM     15  O   UNL A   1      34.575  25.598  25.768  1.00  0.00    -0.274 OA
BRANCH  13  16
ATOM     16  C   UNL A   1      34.777  22.052  25.702  1.00  0.00     0.041 A 
ATOM     17  C   UNL A   1      34.024  19.429  25.177  1.00  0.00     0.082 A 
ATOM     18  C   UNL A   1      33.343  20.172  26.151  1.00  0.00     0.024 A 
ATOM     19  C   UNL A   1      35.207  19.923  24.631  1.00  0.00     0.024 A 
ATOM     20  C   UNL A   1      33.736  21.479  26.430  1.00  0.00     0.027 A 
ATOM     21  C   UNL A   1      35.587  21.243  24.901  1.00  0.00     0.027 A 
BRANCH  17  22
ATOM     22  S   UNL A   1      33.215  17.950  24.606  1.00  0.00     0.242 S 
ATOM     23  O   UNL A   1      33.710  17.686  23.273  1.00  0.00    -0.207 OA
ATOM     24  O   UNL A   1      31.800  18.159  24.847  1.00  0.00    -0.207 OA
BRANCH  22  25
ATOM     25  N   UNL A   1      33.709  16.645  25.604  1.00  0.00    -0.204 NA
ATOM     26  C   UNL A   1      32.642  15.610  25.711  1.00  0.00     0.124 C 
ATOM     27  C   UNL A   1      34.988  15.994  25.213  1.00  0.00     0.124 C 
ENDBRANCH  22  25
ENDBRANCH  17  22
ENDBRANCH  13  16
ENDBRANCH   7  12
ENDBRANCH   3   6
ENDBRANCH   1   2
BRANCH   1  28
ATOM     28  C   UNL A   1      33.953  28.867  25.723  1.00  0.00     0.042 C 
BRANCH  28  29
ATOM     29  C   UNL A   1      33.477  28.879  27.169  1.00  0.00     0.118 C 
BRANCH  29  30
ATOM     30  N   UNL A   1      33.525  30.190  27.805  1.00  0.00    -0.352 N 
ATOM     31  C   UNL A   1      34.546  30.815  28.487  1.00  0.00     0.251 C 
ATOM     32  H   UNL A   1      32.694  30.712  27.737  1.00  0.00     0.163 HD
ATOM     33  O   UNL A   1      34.339  31.898  29.029  1.00  0.00    -0.269 OA
BRANCH  31  34
ATOM     34  C   UNL A   1      35.870  30.165  28.620  1.00  0.00     0.039 A 
ATOM     35  C   UNL A   1      36.725  30.154  27.515  1.00  0.00     0.014 A 
ATOM     36  C   UNL A   1      36.288  29.605  29.827  1.00  0.00     0.014 A 
ATOM     37  C   UNL A   1      38.040  29.702  27.661  1.00  0.00     0.010 A 
ATOM     38  C   UNL A   1      37.624  29.251  29.998  1.00  0.00     0.010 A 
ATOM     39  C   UNL A   1      38.522  29.317  28.922  1.00  0.00    -0.014 A 
BRANCH  39  40
ATOM     40  C   UNL A   1      39.966  29.041  29.155  1.00  0.00     0.031 A 
ATOM     41  C   UNL A   1      40.884  30.133  29.635  1.00  0.00     0.074 A 
ATOM     42  C   UNL A   1      40.469  27.832  28.828  1.00  0.00     0.049 A 
ATOM     43  N   UNL A   1      42.186  30.116  29.767  1.00  0.00    -0.248 NA
ATOM     44  C   UNL A   1      40.266  31.424  29.981  1.00  0.00     0.031 C 
ATOM     45  C   UNL A   1      39.697  26.708  28.286  1.00  0.00     0.029 A 
ATOM     46  N   UNL A   1      41.755  27.349  28.880  1.00  0.00    -0.354 N 
ATOM     47  C   UNL A   1      42.544  31.393  30.181  1.00  0.00     0.074 A 
ATOM     48  C   UNL A   1      41.327  32.173  30.246  1.00  0.00     0.031 C 
ATOM     49  C   UNL A   1      40.520  25.669  28.070  1.00  0.00     0.029 A 
ATOM     50  C   UNL A   1      41.882  26.059  28.414  1.00  0.00     0.049 A 
ATOM     51  H   UNL A   1      42.513  27.875  29.219  1.00  0.00     0.167 HD
ATOM     52  C   UNL A   1      43.773  31.865  30.497  1.00  0.00     0.037 A 
ATOM     53  C   UNL A   1      42.973  25.285  28.258  1.00  0.00     0.037 A 
ATOM     54  C   UNL A   1      44.972  31.071  30.487  1.00  0.00     0.049 A 
ATOM     55  C   UNL A   1      44.322  25.832  28.635  1.00  0.00     0.074 A 
ATOM     56  C   UNL A   1      46.242  31.430  30.904  1.00  0.00     0.029 A 
ATOM     57  N   UNL A   1      45.054  29.761  30.039  1.00  0.00    -0.354 N 
ATOM     58  N   UNL A   1      44.626  27.015  29.112  1.00  0.00    -0.248 NA
ATOM     59  C   UNL A   1      45.478  24.944  28.448  1.00  0.00     0.031 C 
ATOM     60  C   UNL A   1      47.101  30.351  30.670  1.00  0.00     0.029 A 
ATOM     61  C   UNL A   1      46.359  29.309  30.142  1.00  0.00     0.049 A 
ATOM     62  H   UNL A   1      44.297  29.232  29.700  1.00  0.00     0.167 HD
ATOM     63  C   UNL A   1      46.004  27.008  29.294  1.00  0.00     0.074 A 
ATOM     64  C   UNL A   1      46.473  25.698  28.897  1.00  0.00     0.031 C 
ATOM     65  C   UNL A   1      46.809  28.001  29.743  1.00  0.00     0.037 A 
BRANCH  52  66
ATOM     66  C   UNL A   1      43.893  33.306  30.905  1.00  0.00     0.058 A 
ATOM     67  C   UNL A   1      43.823  33.695  32.251  1.00  0.00     0.135 A 
ATOM     68  C   UNL A   1      44.174  34.295  29.949  1.00  0.00     0.135 A 
ATOM     69  F   UNL A   1      43.542  32.791  33.203  1.00  0.00    -0.206 F 
ATOM     70  C   UNL A   1      44.020  35.017  32.636  1.00  0.00     0.059 A 
ATOM     71  C   UNL A   1      44.395  35.620  30.314  1.00  0.00     0.059 A 
ATOM     72  F   UNL A   1      44.249  33.975  28.647  1.00  0.00    -0.206 F 
ATOM     73  C   UNL A   1      44.312  35.971  31.660  1.00  0.00     0.060 A 
BRANCH  73  74
ATOM     74  S   UNL A   1      44.615  37.673  32.182  1.00  0.00     0.124 S 
ATOM     75  O   UNL A   1      44.181  38.420  31.005  1.00  0.00    -0.237 OA
ATOM     76  O   UNL A   1      43.760  37.794  33.360  1.00  0.00    -0.237 OA
ATOM     77  O   UNL A   1      46.049  37.698  32.449  1.00  0.00    -0.744 OA
ENDBRANCH  73  74
ENDBRANCH  52  66
BRANCH  53  78
ATOM     78  C   UNL A   1      42.847  23.909  27.707  1.00  0.00     0.058 A 
ATOM     79  C   UNL A   1      42.893  23.680  26.323  1.00  0.00     0.135 A 
ATOM     80  C   UNL A   1      42.653  22.802  28.547  1.00  0.00     0.135 A 
ATOM     81  F   UNL A   1      43.069  24.708  25.480  1.00  0.00    -0.206 F 
ATOM     82  C   UNL A   1      42.722  22.407  25.790  1.00  0.00     0.059 A 
ATOM     83  C   UNL A   1      42.504  21.516  28.039  1.00  0.00     0.059 A 
ATOM     84  F   UNL A   1      42.620  22.966  29.879  1.00  0.00    -0.206 F 
ATOM     85  C   UNL A   1      42.523  21.331  26.657  1.00  0.00     0.060 A 
BRANCH  85  86
ATOM     86  S   UNL A   1      42.320  19.677  25.960  1.00  0.00     0.124 S 
ATOM     87  O   UNL A   1      43.357  19.663  24.936  1.00  0.00    -0.237 OA
ATOM     88  O   UNL A   1      42.554  18.821  27.119  1.00  0.00    -0.237 OA
ATOM     89  O   UNL A   1      40.945  19.689  25.469  1.00  0.00    -0.744 OA
ENDBRANCH  85  86
ENDBRANCH  53  78
BRANCH  65  90
ATOM     90  C   UNL A   1      48.279  27.708  29.838  1.00  0.00     0.058 A 
ATOM     91  C   UNL A   1      48.824  27.072  30.965  1.00  0.00     0.135 A 
ATOM     92  C   UNL A   1      49.139  28.015  28.773  1.00  0.00     0.135 A 
ATOM     93  F   UNL A   1      48.042  26.768  32.012  1.00  0.00    -0.206 F 
ATOM     94  C   UNL A   1      50.177  26.763  31.038  1.00  0.00     0.059 A 
ATOM     95  C   UNL A   1      50.493  27.694  28.816  1.00  0.00     0.059 A 
ATOM     96  F   UNL A   1      48.665  28.616  27.671  1.00  0.00    -0.206 F 
ATOM     97  C   UNL A   1      51.003  27.075  29.957  1.00  0.00     0.060 A 
BRANCH  97  98
ATOM     98  S   UNL A   1      52.751  26.630  30.045  1.00  0.00     0.124 S 
ATOM     99  O   UNL A   1      53.000  26.150  28.690  1.00  0.00    -0.237 OA
ATOM    100  O   UNL A   1      53.382  27.900  30.393  1.00  0.00    -0.237 OA
ATOM    101  O   UNL A   1      52.789  25.611  31.090  1.00  0.00    -0.744 OA
ENDBRANCH  97  98
ENDBRANCH  65  90
ENDBRANCH  39  40
ENDBRANCH  31  34
ENDBRANCH  29  30
ENDBRANCH  28  29
ENDBRANCH   1  28
TORSDOF 17
ENDMDL
