MODEL 1
REMARK VINA RESULT:     -12.2      0.000      0.000
REMARK SMILES CCn1c(=O)n(CC)c2cc(C(=O)NCCCNC(=O)c3ccc(-c4c5nc(c(-c6c(F)cc(S(=O)(=O)[O-])cc6F)c6ccc([nH]6)c(-c6c(F)cc(S(=O)(=O)[O-])cc6F)c6nc(c(-c7c(F)cc(S(=O)(=O)[O-])cc7F)c7ccc4[nH]7)C=C6)C=C5)cc3)ccc21
REMARK SMILES IDX 17 1 16 2 15 3 14 4 12 5 13 6 11 8 3 9 4 10 89 11 5 12 6 13
REMARK SMILES IDX 9 14 88 15 10 16 87 17 2 18 1 19 7 20 8 21 18 22 19 23 20 25
REMARK SMILES IDX 21 26 22 27 86 28 23 29 85 30 24 31 25 32 26 33 79 34 27 35
REMARK SMILES IDX 84 36 78 37 80 38 28 39 83 40 77 41 76 42 29 44 63 45 42 46
REMARK SMILES IDX 62 47 43 48 46 49 61 50 81 51 44 52 45 53 60 55 82 56 47 57
REMARK SMILES IDX 30 58 31 59 40 60 32 61 33 62 39 63 41 64 34 65 35 66 36 67
REMARK SMILES IDX 37 68 38 69 64 70 65 71 74 72 66 73 67 74 73 75 75 76 68 77
REMARK SMILES IDX 69 78 70 79 71 80 72 81 48 82 49 83 58 84 50 85 51 86 57 87
REMARK SMILES IDX 59 88 52 89 53 90 54 91 55 92 56 93
REMARK H PARENT 14 7 18 24 80 43 46 54
REMARK Flexibility Score: inf
ROOT
ATOM      1  C   UNL A   1      40.210  21.807  26.505  1.00  0.00     0.118 C 
ENDROOT
BRANCH   1   2
ATOM      2  C   UNL A   1      39.103  22.863  26.455  1.00  0.00     0.042 C 
BRANCH   2   3
ATOM      3  C   UNL A   1      37.783  22.319  25.896  1.00  0.00     0.118 C 
BRANCH   3   4
ATOM      4  N   UNL A   1      37.669  22.565  24.465  1.00  0.00    -0.352 N 
ATOM      5  C   UNL A   1      36.633  22.914  23.639  1.00  0.00     0.251 C 
ATOM      6  O   UNL A   1      36.909  23.095  22.451  1.00  0.00    -0.269 OA
ATOM      7  H   UNL A   1      38.523  22.458  23.987  1.00  0.00     0.163 HD
BRANCH   5   8
ATOM      8  C   UNL A   1      35.226  23.133  24.089  1.00  0.00     0.042 A 
ATOM      9  N   UNL A   1      31.536  24.094  25.744  1.00  0.00    -0.292 N 
ATOM     10  C   UNL A   1      31.788  25.398  26.216  1.00  0.00     0.329 A 
ATOM     11  C   UNL A   1      32.689  23.614  25.111  1.00  0.00     0.069 A 
ATOM     12  O   UNL A   1      31.000  26.146  26.788  1.00  0.00    -0.248 OA
ATOM     13  N   UNL A   1      33.132  25.693  25.877  1.00  0.00    -0.292 N 
ATOM     14  C   UNL A   1      33.686  24.581  25.225  1.00  0.00     0.070 A 
ATOM     15  C   UNL A   1      32.898  22.436  24.431  1.00  0.00     0.029 A 
ATOM     16  C   UNL A   1      34.956  24.363  24.728  1.00  0.00     0.042 A 
ATOM     17  C   UNL A   1      34.173  22.215  23.896  1.00  0.00     0.016 A 
BRANCH   9  18
ATOM     18  C   UNL A   1      30.285  23.379  25.851  1.00  0.00     0.124 C 
ATOM     19  C   UNL A   1      30.010  22.864  27.257  1.00  0.00     0.028 C 
ENDBRANCH   9  18
BRANCH  13  20
ATOM     20  C   UNL A   1      33.760  26.978  26.052  1.00  0.00     0.124 C 
ATOM     21  C   UNL A   1      33.639  27.890  24.844  1.00  0.00     0.028 C 
ENDBRANCH  13  20
ENDBRANCH   5   8
ENDBRANCH   3   4
ENDBRANCH   2   3
ENDBRANCH   1   2
BRANCH   1  22
ATOM     22  N   UNL A   1      41.351  22.123  25.669  1.00  0.00    -0.352 N 
ATOM     23  C   UNL A   1      42.233  23.161  25.567  1.00  0.00     0.251 C 
ATOM     24  H   UNL A   1      41.538  21.413  25.013  1.00  0.00     0.163 HD
ATOM     25  O   UNL A   1      43.120  23.018  24.720  1.00  0.00    -0.269 OA
BRANCH  23  26
ATOM     26  C   UNL A   1      42.169  24.438  26.327  1.00  0.00     0.039 A 
ATOM     27  C   UNL A   1      42.638  24.646  27.622  1.00  0.00     0.014 A 
ATOM     28  C   UNL A   1      41.526  25.505  25.664  1.00  0.00     0.014 A 
ATOM     29  C   UNL A   1      42.366  25.845  28.278  1.00  0.00     0.010 A 
ATOM     30  C   UNL A   1      41.272  26.710  26.306  1.00  0.00     0.010 A 
ATOM     31  C   UNL A   1      41.640  26.858  27.636  1.00  0.00    -0.014 A 
BRANCH  31  32
ATOM     32  C   UNL A   1      41.419  28.114  28.351  1.00  0.00     0.031 A 
ATOM     33  C   UNL A   1      42.500  29.110  28.114  1.00  0.00     0.074 A 
ATOM     34  C   UNL A   1      40.311  28.395  29.073  1.00  0.00     0.049 A 
ATOM     35  N   UNL A   1      43.408  29.498  28.948  1.00  0.00    -0.248 NA
ATOM     36  C   UNL A   1      42.717  29.593  26.740  1.00  0.00     0.031 C 
ATOM     37  C   UNL A   1      39.072  27.613  29.148  1.00  0.00     0.029 A 
ATOM     38  N   UNL A   1      40.020  29.487  29.845  1.00  0.00    -0.354 N 
ATOM     39  C   UNL A   1      44.139  30.479  28.279  1.00  0.00     0.074 A 
ATOM     40  C   UNL A   1      43.810  30.345  26.885  1.00  0.00     0.031 C 
ATOM     41  C   UNL A   1      38.096  28.359  29.720  1.00  0.00     0.029 A 
ATOM     42  C   UNL A   1      38.674  29.602  30.198  1.00  0.00     0.049 A 
ATOM     43  H   UNL A   1      40.702  30.137  30.126  1.00  0.00     0.167 HD
ATOM     44  C   UNL A   1      44.711  31.505  28.968  1.00  0.00     0.037 A 
ATOM     45  C   UNL A   1      38.085  30.648  30.836  1.00  0.00     0.037 A 
ATOM     46  C   UNL A   1      44.748  31.210  30.378  1.00  0.00     0.049 A 
ATOM     47  C   UNL A   1      39.152  31.360  31.577  1.00  0.00     0.074 A 
ATOM     48  C   UNL A   1      45.517  30.450  31.231  1.00  0.00     0.029 A 
ATOM     49  N   UNL A   1      43.570  31.482  31.018  1.00  0.00    -0.354 N 
ATOM     50  N   UNL A   1      39.801  30.833  32.578  1.00  0.00    -0.248 NA
ATOM     51  C   UNL A   1      39.755  32.552  30.994  1.00  0.00     0.031 C 
ATOM     52  C   UNL A   1      44.687  30.148  32.354  1.00  0.00     0.029 A 
ATOM     53  C   UNL A   1      43.455  30.773  32.183  1.00  0.00     0.049 A 
ATOM     54  H   UNL A   1      42.890  32.109  30.683  1.00  0.00     0.167 HD
ATOM     55  C   UNL A   1      41.071  31.358  32.472  1.00  0.00     0.074 A 
ATOM     56  C   UNL A   1      40.940  32.525  31.607  1.00  0.00     0.031 C 
ATOM     57  C   UNL A   1      42.163  30.617  32.813  1.00  0.00     0.037 A 
BRANCH  44  58
ATOM     58  C   UNL A   1      44.768  32.940  28.479  1.00  0.00     0.058 A 
ATOM     59  C   UNL A   1      46.021  33.545  28.238  1.00  0.00     0.135 A 
ATOM     60  C   UNL A   1      43.671  33.831  28.527  1.00  0.00     0.135 A 
ATOM     61  F   UNL A   1      47.140  32.804  28.195  1.00  0.00    -0.206 F 
ATOM     62  C   UNL A   1      46.175  34.928  28.096  1.00  0.00     0.059 A 
ATOM     63  C   UNL A   1      43.795  35.204  28.340  1.00  0.00     0.059 A 
ATOM     64  F   UNL A   1      42.438  33.427  28.852  1.00  0.00    -0.206 F 
ATOM     65  C   UNL A   1      45.053  35.750  28.154  1.00  0.00     0.060 A 
BRANCH  65  66
ATOM     66  S   UNL A   1      45.250  37.537  28.026  1.00  0.00     0.124 S 
ATOM     67  O   UNL A   1      46.387  37.774  28.907  1.00  0.00    -0.237 OA
ATOM     68  O   UNL A   1      45.498  37.708  26.599  1.00  0.00    -0.237 OA
ATOM     69  O   UNL A   1      43.966  38.051  28.498  1.00  0.00    -0.744 OA
ENDBRANCH  65  66
ENDBRANCH  44  58
BRANCH  45  70
ATOM     70  C   UNL A   1      36.754  31.283  30.605  1.00  0.00     0.058 A 
ATOM     71  C   UNL A   1      36.029  31.842  31.678  1.00  0.00     0.135 A 
ATOM     72  C   UNL A   1      36.346  31.668  29.316  1.00  0.00     0.135 A 
ATOM     73  F   UNL A   1      36.340  31.524  32.944  1.00  0.00    -0.206 F 
ATOM     74  C   UNL A   1      35.036  32.811  31.488  1.00  0.00     0.059 A 
ATOM     75  C   UNL A   1      35.354  32.628  29.101  1.00  0.00     0.059 A 
ATOM     76  F   UNL A   1      36.973  31.200  28.227  1.00  0.00    -0.206 F 
ATOM     77  C   UNL A   1      34.734  33.226  30.193  1.00  0.00     0.060 A 
BRANCH  77  78
ATOM     78  S   UNL A   1      33.635  34.646  29.954  1.00  0.00     0.124 S 
ATOM     79  O   UNL A   1      33.184  34.912  31.315  1.00  0.00    -0.237 OA
ATOM     80  O   UNL A   1      34.537  35.638  29.377  1.00  0.00    -0.237 OA
ATOM     81  O   UNL A   1      32.613  34.132  29.046  1.00  0.00    -0.744 OA
ENDBRANCH  77  78
ENDBRANCH  45  70
BRANCH  57  82
ATOM     82  C   UNL A   1      41.970  29.505  33.799  1.00  0.00     0.058 A 
ATOM     83  C   UNL A   1      41.657  28.177  33.469  1.00  0.00     0.135 A 
ATOM     84  C   UNL A   1      42.178  29.803  35.153  1.00  0.00     0.135 A 
ATOM     85  F   UNL A   1      41.516  27.797  32.191  1.00  0.00    -0.206 F 
ATOM     86  C   UNL A   1      41.524  27.192  34.452  1.00  0.00     0.059 A 
ATOM     87  C   UNL A   1      42.082  28.835  36.145  1.00  0.00     0.059 A 
ATOM     88  F   UNL A   1      42.520  31.048  35.523  1.00  0.00    -0.206 F 
ATOM     89  C   UNL A   1      41.743  27.533  35.789  1.00  0.00     0.060 A 
BRANCH  89  90
ATOM     90  S   UNL A   1      41.630  26.250  37.055  1.00  0.00     0.124 S 
ATOM     91  O   UNL A   1      40.342  26.538  37.674  1.00  0.00    -0.237 OA
ATOM     92  O   UNL A   1      41.695  25.023  36.265  1.00  0.00    -0.237 OA
ATOM     93  O   UNL A   1      42.798  26.499  37.898  1.00  0.00    -0.744 OA
ENDBRANCH  89  90
ENDBRANCH  57  82
ENDBRANCH  31  32
ENDBRANCH  23  26
ENDBRANCH   1  22
TORSDOF 15
ENDMDL
MODEL 2
REMARK VINA RESULT:     -12.2      1.786      2.614
REMARK SMILES CCn1c(=O)n(CC)c2cc(C(=O)NCCCNC(=O)c3ccc(-c4c5nc(c(-c6c(F)cc(S(=O)(=O)[O-])cc6F)c6ccc([nH]6)c(-c6c(F)cc(S(=O)(=O)[O-])cc6F)c6nc(c(-c7c(F)cc(S(=O)(=O)[O-])cc7F)c7ccc4[nH]7)C=C6)C=C5)cc3)ccc21
REMARK SMILES IDX 17 1 16 2 15 3 14 4 12 5 13 6 11 8 3 9 4 10 89 11 5 12 6 13
REMARK SMILES IDX 9 14 88 15 10 16 87 17 2 18 1 19 7 20 8 21 18 22 19 23 20 25
REMARK SMILES IDX 21 26 22 27 86 28 23 29 85 30 24 31 25 32 26 33 79 34 27 35
REMARK SMILES IDX 84 36 78 37 80 38 28 39 83 40 77 41 76 42 29 44 63 45 42 46
REMARK SMILES IDX 62 47 43 48 46 49 61 50 81 51 44 52 45 53 60 55 82 56 47 57
REMARK SMILES IDX 30 58 31 59 40 60 32 61 33 62 39 63 41 64 34 65 35 66 36 67
REMARK SMILES IDX 37 68 38 69 64 70 65 71 74 72 66 73 67 74 73 75 75 76 68 77
REMARK SMILES IDX 69 78 70 79 71 80 72 81 48 82 49 83 58 84 50 85 51 86 57 87
REMARK SMILES IDX 59 88 52 89 53 90 54 91 55 92 56 93
REMARK H PARENT 14 7 18 24 80 43 46 54
REMARK Flexibility Score: inf
ROOT
ATOM      1  C   UNL A   1      42.275  21.436  27.343  1.00  0.00     0.118 C 
ENDROOT
BRANCH   1   2
ATOM      2  C   UNL A   1      40.780  21.643  27.596  1.00  0.00     0.042 C 
BRANCH   2   3
ATOM      3  C   UNL A   1      39.923  21.403  26.347  1.00  0.00     0.118 C 
BRANCH   3   4
ATOM      4  N   UNL A   1      38.945  22.465  26.161  1.00  0.00    -0.352 N 
ATOM      5  C   UNL A   1      37.641  22.495  25.738  1.00  0.00     0.251 C 
ATOM      6  O   UNL A   1      37.080  23.593  25.750  1.00  0.00    -0.269 OA
ATOM      7  H   UNL A   1      39.295  23.356  26.391  1.00  0.00     0.163 HD
BRANCH   5   8
ATOM      8  C   UNL A   1      36.859  21.295  25.317  1.00  0.00     0.042 A 
ATOM      9  N   UNL A   1      34.254  18.167  24.474  1.00  0.00    -0.292 N 
ATOM     10  C   UNL A   1      33.010  18.823  24.576  1.00  0.00     0.329 A 
ATOM     11  C   UNL A   1      35.273  19.099  24.701  1.00  0.00     0.069 A 
ATOM     12  O   UNL A   1      31.897  18.334  24.402  1.00  0.00    -0.248 OA
ATOM     13  N   UNL A   1      33.295  20.174  24.893  1.00  0.00    -0.292 N 
ATOM     14  C   UNL A   1      34.687  20.328  24.997  1.00  0.00     0.070 A 
ATOM     15  C   UNL A   1      36.640  18.950  24.628  1.00  0.00     0.029 A 
ATOM     16  C   UNL A   1      35.454  21.432  25.311  1.00  0.00     0.042 A 
ATOM     17  C   UNL A   1      37.430  20.070  24.914  1.00  0.00     0.016 A 
BRANCH   9  18
ATOM     18  C   UNL A   1      34.456  16.774  24.148  1.00  0.00     0.124 C 
ATOM     19  C   UNL A   1      34.655  15.896  25.377  1.00  0.00     0.028 C 
ENDBRANCH   9  18
BRANCH  13  20
ATOM     20  C   UNL A   1      32.315  21.228  24.952  1.00  0.00     0.124 C 
ATOM     21  C   UNL A   1      32.168  22.003  23.654  1.00  0.00     0.028 C 
ENDBRANCH  13  20
ENDBRANCH   5   8
ENDBRANCH   3   4
ENDBRANCH   2   3
ENDBRANCH   1   2
BRANCH   1  22
ATOM     22  N   UNL A   1      42.722  21.940  26.060  1.00  0.00    -0.352 N 
ATOM     23  C   UNL A   1      43.028  23.166  25.542  1.00  0.00     0.251 C 
ATOM     24  H   UNL A   1      42.834  21.220  25.397  1.00  0.00     0.163 HD
ATOM     25  O   UNL A   1      43.425  23.161  24.372  1.00  0.00    -0.269 OA
BRANCH  23  26
ATOM     26  C   UNL A   1      42.861  24.472  26.234  1.00  0.00     0.039 A 
ATOM     27  C   UNL A   1      43.560  24.897  27.362  1.00  0.00     0.014 A 
ATOM     28  C   UNL A   1      41.862  25.316  25.703  1.00  0.00     0.014 A 
ATOM     29  C   UNL A   1      43.189  26.074  28.009  1.00  0.00     0.010 A 
ATOM     30  C   UNL A   1      41.504  26.501  26.332  1.00  0.00     0.010 A 
ATOM     31  C   UNL A   1      42.129  26.850  27.521  1.00  0.00    -0.014 A 
BRANCH  31  32
ATOM     32  C   UNL A   1      41.808  28.099  28.210  1.00  0.00     0.031 A 
ATOM     33  C   UNL A   1      42.857  29.140  28.036  1.00  0.00     0.074 A 
ATOM     34  C   UNL A   1      40.645  28.335  28.857  1.00  0.00     0.049 A 
ATOM     35  N   UNL A   1      43.692  29.572  28.923  1.00  0.00    -0.248 NA
ATOM     36  C   UNL A   1      43.142  29.625  26.674  1.00  0.00     0.031 C 
ATOM     37  C   UNL A   1      39.438  27.501  28.859  1.00  0.00     0.029 A 
ATOM     38  N   UNL A   1      40.257  29.418  29.600  1.00  0.00    -0.354 N 
ATOM     39  C   UNL A   1      44.422  30.580  28.295  1.00  0.00     0.074 A 
ATOM     40  C   UNL A   1      44.190  30.425  26.884  1.00  0.00     0.031 C 
ATOM     41  C   UNL A   1      38.396  28.206  29.360  1.00  0.00     0.029 A 
ATOM     42  C   UNL A   1      38.887  29.475  29.865  1.00  0.00     0.049 A 
ATOM     43  H   UNL A   1      40.891  30.099  29.919  1.00  0.00     0.167 HD
ATOM     44  C   UNL A   1      44.903  31.634  29.011  1.00  0.00     0.037 A 
ATOM     45  C   UNL A   1      38.213  30.498  30.454  1.00  0.00     0.037 A 
ATOM     46  C   UNL A   1      44.862  31.348  30.423  1.00  0.00     0.049 A 
ATOM     47  C   UNL A   1      39.198  31.259  31.258  1.00  0.00     0.074 A 
ATOM     48  C   UNL A   1      45.606  30.627  31.329  1.00  0.00     0.029 A 
ATOM     49  N   UNL A   1      43.634  31.572  30.984  1.00  0.00    -0.354 N 
ATOM     50  N   UNL A   1      39.803  30.767  32.302  1.00  0.00    -0.248 NA
ATOM     51  C   UNL A   1      39.785  32.474  30.705  1.00  0.00     0.031 C 
ATOM     52  C   UNL A   1      44.719  30.295  32.399  1.00  0.00     0.029 A 
ATOM     53  C   UNL A   1      43.474  30.864  32.144  1.00  0.00     0.049 A 
ATOM     54  H   UNL A   1      42.950  32.167  30.600  1.00  0.00     0.167 HD
ATOM     55  C   UNL A   1      41.053  31.347  32.274  1.00  0.00     0.074 A 
ATOM     56  C   UNL A   1      40.928  32.502  31.394  1.00  0.00     0.031 C 
ATOM     57  C   UNL A   1      42.153  30.656  32.691  1.00  0.00     0.037 A 
BRANCH  44  58
ATOM     58  C   UNL A   1      44.929  33.068  28.515  1.00  0.00     0.058 A 
ATOM     59  C   UNL A   1      46.168  33.729  28.359  1.00  0.00     0.135 A 
ATOM     60  C   UNL A   1      43.792  33.908  28.477  1.00  0.00     0.135 A 
ATOM     61  F   UNL A   1      47.319  33.040  28.402  1.00  0.00    -0.206 F 
ATOM     62  C   UNL A   1      46.268  35.117  28.216  1.00  0.00     0.059 A 
ATOM     63  C   UNL A   1      43.866  35.284  28.289  1.00  0.00     0.059 A 
ATOM     64  F   UNL A   1      42.559  33.449  28.717  1.00  0.00    -0.206 F 
ATOM     65  C   UNL A   1      45.108  35.887  28.188  1.00  0.00     0.060 A 
BRANCH  65  66
ATOM     66  S   UNL A   1      45.233  37.680  28.059  1.00  0.00     0.124 S 
ATOM     67  O   UNL A   1      44.609  38.110  29.304  1.00  0.00    -0.237 OA
ATOM     68  O   UNL A   1      46.676  37.873  27.964  1.00  0.00    -0.237 OA
ATOM     69  O   UNL A   1      44.486  37.982  26.840  1.00  0.00    -0.744 OA
ENDBRANCH  65  66
ENDBRANCH  44  58
BRANCH  45  70
ATOM     70  C   UNL A   1      36.874  31.073  30.134  1.00  0.00     0.058 A 
ATOM     71  C   UNL A   1      36.088  31.669  31.142  1.00  0.00     0.135 A 
ATOM     72  C   UNL A   1      36.508  31.368  28.809  1.00  0.00     0.135 A 
ATOM     73  F   UNL A   1      36.355  31.435  32.436  1.00  0.00    -0.206 F 
ATOM     74  C   UNL A   1      35.074  32.591  30.855  1.00  0.00     0.059 A 
ATOM     75  C   UNL A   1      35.496  32.280  28.497  1.00  0.00     0.059 A 
ATOM     76  F   UNL A   1      37.195  30.859  27.776  1.00  0.00    -0.206 F 
ATOM     77  C   UNL A   1      34.813  32.919  29.526  1.00  0.00     0.060 A 
BRANCH  77  78
ATOM     78  S   UNL A   1      33.681  34.284  29.160  1.00  0.00     0.124 S 
ATOM     79  O   UNL A   1      32.696  33.639  28.298  1.00  0.00    -0.237 OA
ATOM     80  O   UNL A   1      33.213  34.660  30.490  1.00  0.00    -0.237 OA
ATOM     81  O   UNL A   1      34.538  35.267  28.501  1.00  0.00    -0.744 OA
ENDBRANCH  77  78
ENDBRANCH  45  70
BRANCH  57  82
ATOM     82  C   UNL A   1      41.944  29.542  33.671  1.00  0.00     0.058 A 
ATOM     83  C   UNL A   1      41.675  28.206  33.332  1.00  0.00     0.135 A 
ATOM     84  C   UNL A   1      42.090  29.847  35.032  1.00  0.00     0.135 A 
ATOM     85  F   UNL A   1      41.596  27.821  32.051  1.00  0.00    -0.206 F 
ATOM     86  C   UNL A   1      41.525  27.220  34.312  1.00  0.00     0.059 A 
ATOM     87  C   UNL A   1      41.975  28.879  36.022  1.00  0.00     0.059 A 
ATOM     88  F   UNL A   1      42.388  31.100  35.412  1.00  0.00    -0.206 F 
ATOM     89  C   UNL A   1      41.680  27.568  35.656  1.00  0.00     0.060 A 
BRANCH  89  90
ATOM     90  S   UNL A   1      41.545  26.286  36.920  1.00  0.00     0.124 S 
ATOM     91  O   UNL A   1      42.801  26.433  37.646  1.00  0.00    -0.237 OA
ATOM     92  O   UNL A   1      40.342  26.686  37.645  1.00  0.00    -0.237 OA
ATOM     93  O   UNL A   1      41.412  25.054  36.143  1.00  0.00    -0.744 OA
ENDBRANCH  89  90
ENDBRANCH  57  82
ENDBRANCH  31  32
ENDBRANCH  23  26
ENDBRANCH   1  22
TORSDOF 15
ENDMDL
MODEL 3
REMARK VINA RESULT:     -12.1      2.876      9.656
REMARK SMILES CCn1c(=O)n(CC)c2cc(C(=O)NCCCNC(=O)c3ccc(-c4c5nc(c(-c6c(F)cc(S(=O)(=O)[O-])cc6F)c6ccc([nH]6)c(-c6c(F)cc(S(=O)(=O)[O-])cc6F)c6nc(c(-c7c(F)cc(S(=O)(=O)[O-])cc7F)c7ccc4[nH]7)C=C6)C=C5)cc3)ccc21
REMARK SMILES IDX 17 1 16 2 15 3 14 4 12 5 13 6 11 8 3 9 4 10 89 11 5 12 6 13
REMARK SMILES IDX 9 14 88 15 10 16 87 17 2 18 1 19 7 20 8 21 18 22 19 23 20 25
REMARK SMILES IDX 21 26 22 27 86 28 23 29 85 30 24 31 25 32 26 33 79 34 27 35
REMARK SMILES IDX 84 36 78 37 80 38 28 39 83 40 77 41 76 42 29 44 63 45 42 46
REMARK SMILES IDX 62 47 43 48 46 49 61 50 81 51 44 52 45 53 60 55 82 56 47 57
REMARK SMILES IDX 30 58 31 59 40 60 32 61 33 62 39 63 41 64 34 65 35 66 36 67
REMARK SMILES IDX 37 68 38 69 64 70 65 71 74 72 66 73 67 74 73 75 75 76 68 77
REMARK SMILES IDX 69 78 70 79 71 80 72 81 48 82 49 83 58 84 50 85 51 86 57 87
REMARK SMILES IDX 59 88 52 89 53 90 54 91 55 92 56 93
REMARK H PARENT 14 7 18 24 80 43 46 54
REMARK Flexibility Score: inf
ROOT
ATOM      1  C   UNL A   1      33.727  29.990  27.052  1.00  0.00     0.118 C 
ENDROOT
BRANCH   1   2
ATOM      2  C   UNL A   1      32.285  29.490  26.936  1.00  0.00     0.042 C 
BRANCH   2   3
ATOM      3  C   UNL A   1      32.024  28.223  27.759  1.00  0.00     0.118 C 
BRANCH   3   4
ATOM      4  N   UNL A   1      31.054  27.355  27.108  1.00  0.00    -0.352 N 
ATOM      5  C   UNL A   1      31.151  26.212  26.358  1.00  0.00     0.251 C 
ATOM      6  O   UNL A   1      30.092  25.695  25.996  1.00  0.00    -0.269 OA
ATOM      7  H   UNL A   1      30.124  27.655  27.234  1.00  0.00     0.163 HD
BRANCH   5   8
ATOM      8  C   UNL A   1      32.436  25.539  26.001  1.00  0.00     0.042 A 
ATOM      9  N   UNL A   1      35.861  23.263  25.395  1.00  0.00    -0.292 N 
ATOM     10  C   UNL A   1      35.374  21.971  25.676  1.00  0.00     0.329 A 
ATOM     11  C   UNL A   1      34.808  24.178  25.520  1.00  0.00     0.069 A 
ATOM     12  O   UNL A   1      36.000  20.916  25.630  1.00  0.00    -0.248 OA
ATOM     13  N   UNL A   1      34.003  22.122  26.000  1.00  0.00    -0.292 N 
ATOM     14  C   UNL A   1      33.672  23.484  25.929  1.00  0.00     0.070 A 
ATOM     15  C   UNL A   1      34.777  25.530  25.267  1.00  0.00     0.029 A 
ATOM     16  C   UNL A   1      32.482  24.139  26.179  1.00  0.00     0.042 A 
ATOM     17  C   UNL A   1      33.569  26.203  25.488  1.00  0.00     0.016 A 
BRANCH   9  18
ATOM     18  C   UNL A   1      37.210  23.596  24.999  1.00  0.00     0.124 C 
ATOM     19  C   UNL A   1      38.111  23.938  26.178  1.00  0.00     0.028 C 
ENDBRANCH   9  18
BRANCH  13  20
ATOM     20  C   UNL A   1      33.086  21.032  26.219  1.00  0.00     0.124 C 
ATOM     21  C   UNL A   1      32.284  20.647  24.989  1.00  0.00     0.028 C 
ENDBRANCH  13  20
ENDBRANCH   5   8
ENDBRANCH   3   4
ENDBRANCH   2   3
ENDBRANCH   1   2
BRANCH   1  22
ATOM     22  N   UNL A   1      33.866  31.174  27.877  1.00  0.00    -0.352 N 
ATOM     23  C   UNL A   1      34.858  31.727  28.636  1.00  0.00     0.251 C 
ATOM     24  H   UNL A   1      33.043  31.714  27.894  1.00  0.00     0.163 HD
ATOM     25  O   UNL A   1      34.577  32.806  29.167  1.00  0.00    -0.269 OA
BRANCH  23  26
ATOM     26  C   UNL A   1      36.185  31.116  28.917  1.00  0.00     0.039 A 
ATOM     27  C   UNL A   1      37.322  31.792  29.356  1.00  0.00     0.014 A 
ATOM     28  C   UNL A   1      36.280  29.732  28.663  1.00  0.00     0.014 A 
ATOM     29  C   UNL A   1      38.546  31.127  29.421  1.00  0.00     0.010 A 
ATOM     30  C   UNL A   1      37.493  29.060  28.749  1.00  0.00     0.010 A 
ATOM     31  C   UNL A   1      38.638  29.773  29.071  1.00  0.00    -0.014 A 
BRANCH  31  32
ATOM     32  C   UNL A   1      39.935  29.111  29.199  1.00  0.00     0.031 A 
ATOM     33  C   UNL A   1      40.320  28.864  30.616  1.00  0.00     0.074 A 
ATOM     34  C   UNL A   1      40.674  28.672  28.155  1.00  0.00     0.049 A 
ATOM     35  N   UNL A   1      41.240  29.464  31.297  1.00  0.00    -0.248 NA
ATOM     36  C   UNL A   1      39.462  27.986  31.431  1.00  0.00     0.031 C 
ATOM     37  C   UNL A   1      40.276  28.607  26.744  1.00  0.00     0.029 A 
ATOM     38  N   UNL A   1      41.924  28.114  28.136  1.00  0.00    -0.354 N 
ATOM     39  C   UNL A   1      41.254  28.840  32.543  1.00  0.00     0.074 A 
ATOM     40  C   UNL A   1      40.024  28.100  32.636  1.00  0.00     0.031 C 
ATOM     41  C   UNL A   1      41.155  27.838  26.057  1.00  0.00     0.029 A 
ATOM     42  C   UNL A   1      42.261  27.493  26.932  1.00  0.00     0.049 A 
ATOM     43  H   UNL A   1      42.534  28.149  28.907  1.00  0.00     0.167 HD
ATOM     44  C   UNL A   1      42.411  28.745  33.256  1.00  0.00     0.037 A 
ATOM     45  C   UNL A   1      43.370  26.747  26.682  1.00  0.00     0.037 A 
ATOM     46  C   UNL A   1      43.406  29.642  32.727  1.00  0.00     0.049 A 
ATOM     47  C   UNL A   1      44.399  27.159  27.664  1.00  0.00     0.074 A 
ATOM     48  C   UNL A   1      43.690  30.987  32.793  1.00  0.00     0.029 A 
ATOM     49  N   UNL A   1      44.071  29.134  31.645  1.00  0.00    -0.354 N 
ATOM     50  N   UNL A   1      44.936  28.348  27.683  1.00  0.00    -0.248 NA
ATOM     51  C   UNL A   1      44.601  26.359  28.866  1.00  0.00     0.031 C 
ATOM     52  C   UNL A   1      44.434  31.297  31.613  1.00  0.00     0.029 A 
ATOM     53  C   UNL A   1      44.628  30.126  30.885  1.00  0.00     0.049 A 
ATOM     54  H   UNL A   1      44.140  28.174  31.438  1.00  0.00     0.167 HD
ATOM     55  C   UNL A   1      45.164  28.596  29.019  1.00  0.00     0.074 A 
ATOM     56  C   UNL A   1      45.109  27.293  29.673  1.00  0.00     0.031 C 
ATOM     57  C   UNL A   1      45.042  29.855  29.527  1.00  0.00     0.037 A 
BRANCH  44  58
ATOM     58  C   UNL A   1      42.820  27.530  34.068  1.00  0.00     0.058 A 
ATOM     59  C   UNL A   1      42.883  27.622  35.476  1.00  0.00     0.135 A 
ATOM     60  C   UNL A   1      43.437  26.385  33.513  1.00  0.00     0.135 A 
ATOM     61  F   UNL A   1      42.353  28.677  36.115  1.00  0.00    -0.206 F 
ATOM     62  C   UNL A   1      43.541  26.672  36.264  1.00  0.00     0.059 A 
ATOM     63  C   UNL A   1      44.055  25.404  34.282  1.00  0.00     0.059 A 
ATOM     64  F   UNL A   1      43.556  26.208  32.193  1.00  0.00    -0.206 F 
ATOM     65  C   UNL A   1      44.130  25.568  35.655  1.00  0.00     0.060 A 
BRANCH  65  66
ATOM     66  S   UNL A   1      45.026  24.369  36.658  1.00  0.00     0.124 S 
ATOM     67  O   UNL A   1      44.507  24.651  37.991  1.00  0.00    -0.237 OA
ATOM     68  O   UNL A   1      44.605  23.106  36.060  1.00  0.00    -0.237 OA
ATOM     69  O   UNL A   1      46.426  24.724  36.436  1.00  0.00    -0.744 OA
ENDBRANCH  65  66
ENDBRANCH  44  58
BRANCH  45  70
ATOM     70  C   UNL A   1      43.519  25.490  25.893  1.00  0.00     0.058 A 
ATOM     71  C   UNL A   1      44.723  25.206  25.214  1.00  0.00     0.135 A 
ATOM     72  C   UNL A   1      42.646  24.404  26.082  1.00  0.00     0.135 A 
ATOM     73  F   UNL A   1      45.613  26.183  24.978  1.00  0.00    -0.206 F 
ATOM     74  C   UNL A   1      45.089  23.905  24.848  1.00  0.00     0.059 A 
ATOM     75  C   UNL A   1      42.987  23.099  25.720  1.00  0.00     0.059 A 
ATOM     76  F   UNL A   1      41.479  24.564  26.722  1.00  0.00    -0.206 F 
ATOM     77  C   UNL A   1      44.227  22.851  25.143  1.00  0.00     0.060 A 
BRANCH  77  78
ATOM     78  S   UNL A   1      44.797  21.150  24.898  1.00  0.00     0.124 S 
ATOM     79  O   UNL A   1      44.645  20.983  23.457  1.00  0.00    -0.237 OA
ATOM     80  O   UNL A   1      46.170  21.213  25.390  1.00  0.00    -0.237 OA
ATOM     81  O   UNL A   1      43.879  20.364  25.718  1.00  0.00    -0.744 OA
ENDBRANCH  77  78
ENDBRANCH  45  70
BRANCH  57  82
ATOM     82  C   UNL A   1      45.222  31.006  28.584  1.00  0.00     0.058 A 
ATOM     83  C   UNL A   1      46.459  31.514  28.155  1.00  0.00     0.135 A 
ATOM     84  C   UNL A   1      44.065  31.580  28.041  1.00  0.00     0.135 A 
ATOM     85  F   UNL A   1      47.611  30.970  28.571  1.00  0.00    -0.206 F 
ATOM     86  C   UNL A   1      46.538  32.574  27.247  1.00  0.00     0.059 A 
ATOM     87  C   UNL A   1      44.118  32.614  27.114  1.00  0.00     0.059 A 
ATOM     88  F   UNL A   1      42.855  31.107  28.384  1.00  0.00    -0.206 F 
ATOM     89  C   UNL A   1      45.358  33.115  26.729  1.00  0.00     0.060 A 
BRANCH  89  90
ATOM     90  S   UNL A   1      45.458  34.444  25.512  1.00  0.00     0.124 S 
ATOM     91  O   UNL A   1      44.604  33.947  24.440  1.00  0.00    -0.237 OA
ATOM     92  O   UNL A   1      44.942  35.590  26.255  1.00  0.00    -0.237 OA
ATOM     93  O   UNL A   1      46.884  34.510  25.195  1.00  0.00    -0.744 OA
ENDBRANCH  89  90
ENDBRANCH  57  82
ENDBRANCH  31  32
ENDBRANCH  23  26
ENDBRANCH   1  22
TORSDOF 15
ENDMDL
