MODEL 1
REMARK VINA RESULT:     -12.6      0.000      0.000
REMARK SMILES O=C(NCCCNC(=O)[C@@]1(Cc2cn3ccccc3n2)CCC[NH2+]C1)c1ccc(-c2c3nc(c(-c4c(F)cc(S(=O)(=O)[O-])cc4F)c4ccc([nH]4)c(-c4c(F)cc(S(=O)(=O)[O-])cc4F)c4nc(c(-c5c(F)cc(S(=O)(=O)[O-])cc5F)c5ccc2[nH]5)C=C4)C=C3)cc1
REMARK SMILES IDX 4 1 3 2 1 3 2 4 26 6 27 7 91 8 28 9 90 10 29 11 30 12 31 13
REMARK SMILES IDX 84 14 32 15 89 16 83 17 85 18 33 19 88 20 82 21 81 22 34 24
REMARK SMILES IDX 68 25 47 26 67 27 48 28 51 29 66 30 86 31 49 32 50 33 65 35
REMARK SMILES IDX 87 36 52 37 35 38 36 39 45 40 37 41 38 42 44 43 46 44 39 45
REMARK SMILES IDX 40 46 41 47 42 48 43 49 69 50 70 51 79 52 71 53 72 54 78 55
REMARK SMILES IDX 80 56 73 57 74 58 75 59 76 60 77 61 53 62 54 63 63 64 55 65
REMARK SMILES IDX 56 66 62 67 64 68 57 69 58 70 59 71 60 72 61 73 5 74 6 75
REMARK SMILES IDX 7 76 8 77 9 79 10 80 21 81 25 82 22 83 24 84 23 85 11 88
REMARK SMILES IDX 12 89 13 90 20 91 14 92 19 93 15 94 18 95 16 96 17 97
REMARK H PARENT 3 5 85 23 51 34 7 78 24 86 24 87
REMARK Flexibility Score: inf
ROOT
ATOM      1  C   UNL A   1      35.572  31.157  28.073  1.00  0.00     0.118 C 
ENDROOT
BRANCH   1   2
ATOM      2  N   UNL A   1      35.471  31.104  29.524  1.00  0.00    -0.352 N 
ATOM      3  O   UNL A   1      35.934  30.394  31.603  1.00  0.00    -0.269 OA
ATOM      4  C   UNL A   1      36.320  30.546  30.448  1.00  0.00     0.251 C 
ATOM      5  H   UNL A   1      34.671  31.536  29.902  1.00  0.00     0.163 HD
BRANCH   4   6
ATOM      6  C   UNL A   1      37.684  30.122  30.057  1.00  0.00     0.039 A 
ATOM      7  C   UNL A   1      38.144  30.298  28.749  1.00  0.00     0.014 A 
ATOM      8  C   UNL A   1      38.537  29.588  31.027  1.00  0.00     0.014 A 
ATOM      9  C   UNL A   1      39.393  29.815  28.379  1.00  0.00     0.010 A 
ATOM     10  C   UNL A   1      39.831  29.193  30.676  1.00  0.00     0.010 A 
ATOM     11  C   UNL A   1      40.262  29.284  29.343  1.00  0.00    -0.014 A 
BRANCH  11  12
ATOM     12  C   UNL A   1      41.647  28.918  28.956  1.00  0.00     0.031 A 
ATOM     13  C   UNL A   1      42.750  29.937  28.953  1.00  0.00     0.074 A 
ATOM     14  C   UNL A   1      41.897  27.645  28.593  1.00  0.00     0.049 A 
ATOM     15  N   UNL A   1      44.004  29.791  28.610  1.00  0.00    -0.248 NA
ATOM     16  C   UNL A   1      42.399  31.301  29.378  1.00  0.00     0.031 C 
ATOM     17  C   UNL A   1      40.897  26.575  28.536  1.00  0.00     0.029 A 
ATOM     18  N   UNL A   1      43.058  27.031  28.199  1.00  0.00    -0.354 N 
ATOM     19  C   UNL A   1      44.588  31.044  28.755  1.00  0.00     0.074 A 
ATOM     20  C   UNL A   1      43.544  31.944  29.195  1.00  0.00     0.031 C 
ATOM     21  C   UNL A   1      41.488  25.437  28.149  1.00  0.00     0.029 A 
ATOM     22  C   UNL A   1      42.893  25.708  27.869  1.00  0.00     0.049 A 
ATOM     23  H   UNL A   1      43.926  27.495  28.155  1.00  0.00     0.167 HD
ATOM     24  C   UNL A   1      45.879  31.403  28.543  1.00  0.00     0.037 A 
ATOM     25  C   UNL A   1      43.764  24.814  27.364  1.00  0.00     0.037 A 
ATOM     26  C   UNL A   1      46.908  30.490  28.110  1.00  0.00     0.049 A 
ATOM     27  C   UNL A   1      45.182  25.236  27.123  1.00  0.00     0.074 A 
ATOM     28  C   UNL A   1      48.254  30.742  27.917  1.00  0.00     0.029 A 
ATOM     29  N   UNL A   1      46.703  29.155  27.790  1.00  0.00    -0.354 N 
ATOM     30  N   UNL A   1      45.732  26.412  27.317  1.00  0.00    -0.248 NA
ATOM     31  C   UNL A   1      46.100  24.218  26.597  1.00  0.00     0.031 C 
ATOM     32  C   UNL A   1      48.852  29.575  27.429  1.00  0.00     0.029 A 
ATOM     33  C   UNL A   1      47.891  28.578  27.371  1.00  0.00     0.049 A 
ATOM     34  H   UNL A   1      45.839  28.686  27.851  1.00  0.00     0.167 HD
ATOM     35  C   UNL A   1      47.064  26.274  26.949  1.00  0.00     0.074 A 
ATOM     36  C   UNL A   1      47.240  24.895  26.535  1.00  0.00     0.031 C 
ATOM     37  C   UNL A   1      48.049  27.204  26.957  1.00  0.00     0.037 A 
BRANCH  24  38
ATOM     38  C   UNL A   1      46.240  32.849  28.745  1.00  0.00     0.058 A 
ATOM     39  C   UNL A   1      46.175  33.786  27.701  1.00  0.00     0.135 A 
ATOM     40  C   UNL A   1      46.648  33.310  30.009  1.00  0.00     0.135 A 
ATOM     41  F   UNL A   1      45.801  33.402  26.470  1.00  0.00    -0.206 F 
ATOM     42  C   UNL A   1      46.543  35.115  27.890  1.00  0.00     0.059 A 
ATOM     43  C   UNL A   1      46.994  34.641  30.227  1.00  0.00     0.059 A 
ATOM     44  F   UNL A   1      46.723  32.461  31.045  1.00  0.00    -0.206 F 
ATOM     45  C   UNL A   1      46.961  35.531  29.155  1.00  0.00     0.060 A 
BRANCH  45  46
ATOM     46  S   UNL A   1      47.472  37.248  29.377  1.00  0.00     0.124 S 
ATOM     47  O   UNL A   1      47.979  37.224  30.746  1.00  0.00    -0.237 OA
ATOM     48  O   UNL A   1      48.478  37.414  28.333  1.00  0.00    -0.237 OA
ATOM     49  O   UNL A   1      46.237  38.000  29.179  1.00  0.00    -0.744 OA
ENDBRANCH  45  46
ENDBRANCH  24  38
BRANCH  25  50
ATOM     50  C   UNL A   1      43.286  23.444  27.043  1.00  0.00     0.058 A 
ATOM     51  C   UNL A   1      43.085  23.035  25.718  1.00  0.00     0.135 A 
ATOM     52  C   UNL A   1      43.100  22.491  28.060  1.00  0.00     0.135 A 
ATOM     53  F   UNL A   1      43.248  23.910  24.714  1.00  0.00    -0.206 F 
ATOM     54  C   UNL A   1      42.721  21.729  25.408  1.00  0.00     0.059 A 
ATOM     55  C   UNL A   1      42.762  21.174  27.774  1.00  0.00     0.059 A 
ATOM     56  F   UNL A   1      43.301  22.830  29.342  1.00  0.00    -0.206 F 
ATOM     57  C   UNL A   1      42.572  20.803  26.443  1.00  0.00     0.060 A 
BRANCH  57  58
ATOM     58  S   UNL A   1      42.188  19.088  26.025  1.00  0.00     0.124 S 
ATOM     59  O   UNL A   1      42.609  18.390  27.234  1.00  0.00    -0.237 OA
ATOM     60  O   UNL A   1      40.749  19.146  25.787  1.00  0.00    -0.237 OA
ATOM     61  O   UNL A   1      43.001  18.843  24.838  1.00  0.00    -0.744 OA
ENDBRANCH  57  58
ENDBRANCH  25  50
BRANCH  37  62
ATOM     62  C   UNL A   1      49.419  26.762  26.523  1.00  0.00     0.058 A 
ATOM     63  C   UNL A   1      50.319  26.168  27.420  1.00  0.00     0.135 A 
ATOM     64  C   UNL A   1      49.806  26.871  25.177  1.00  0.00     0.135 A 
ATOM     65  F   UNL A   1      50.002  26.052  28.719  1.00  0.00    -0.206 F 
ATOM     66  C   UNL A   1      51.563  25.705  27.000  1.00  0.00     0.059 A 
ATOM     67  C   UNL A   1      51.034  26.392  24.731  1.00  0.00     0.059 A 
ATOM     68  F   UNL A   1      48.978  27.426  24.278  1.00  0.00    -0.206 F 
ATOM     69  C   UNL A   1      51.907  25.815  25.651  1.00  0.00     0.060 A 
BRANCH  69  70
ATOM     70  S   UNL A   1      53.498  25.157  25.109  1.00  0.00     0.124 S 
ATOM     71  O   UNL A   1      53.300  23.722  25.287  1.00  0.00    -0.237 OA
ATOM     72  O   UNL A   1      53.573  25.620  23.726  1.00  0.00    -0.237 OA
ATOM     73  O   UNL A   1      54.452  25.778  26.022  1.00  0.00    -0.744 OA
ENDBRANCH  69  70
ENDBRANCH  37  62
ENDBRANCH  11  12
ENDBRANCH   4   6
ENDBRANCH   1   2
BRANCH   1  74
ATOM     74  C   UNL A   1      34.892  29.970  27.410  1.00  0.00     0.042 C 
BRANCH  74  75
ATOM     75  C   UNL A   1      33.511  30.293  26.858  1.00  0.00     0.117 C 
BRANCH  75  76
ATOM     76  N   UNL A   1      32.464  29.480  27.460  1.00  0.00    -0.355 N 
ATOM     77  C   UNL A   1      31.878  28.304  27.091  1.00  0.00     0.232 C 
ATOM     78  H   UNL A   1      32.108  29.851  28.300  1.00  0.00     0.163 HD
ATOM     79  O   UNL A   1      31.018  27.877  27.870  1.00  0.00    -0.274 OA
BRANCH  77  80
ATOM     80  C   UNL A   1      32.284  27.525  25.816  1.00  0.00     0.104 C 
ATOM     81  C   UNL A   1      33.618  26.776  26.068  1.00  0.00     0.029 C 
ATOM     82  C   UNL A   1      31.099  26.583  25.464  1.00  0.00     0.277 C 
ATOM     83  C   UNL A   1      33.813  25.514  25.231  1.00  0.00     0.063 C 
ATOM     84  N   UNL A   1      31.422  25.423  24.628  1.00  0.00    -0.345 N 
ATOM     85  C   UNL A   1      32.555  24.663  25.144  1.00  0.00     0.260 C 
ATOM     86  H   UNL A   1      30.607  24.810  24.590  1.00  0.00     0.346 HD
ATOM     87  H   UNL A   1      31.674  25.767  23.702  1.00  0.00     0.346 HD
BRANCH  80  88
ATOM     88  C   UNL A   1      32.486  28.603  24.691  1.00  0.00     0.080 C 
BRANCH  88  89
ATOM     89  C   UNL A   1      31.242  29.153  24.079  1.00  0.00     0.061 A 
ATOM     90  C   UNL A   1      30.618  28.775  22.907  1.00  0.00     0.116 A 
ATOM     91  N   UNL A   1      30.570  30.207  24.662  1.00  0.00    -0.234 NA
ATOM     92  N   UNL A   1      29.687  29.747  22.662  1.00  0.00    -0.307 N 
ATOM     93  C   UNL A   1      29.645  30.555  23.791  1.00  0.00     0.136 A 
ATOM     94  C   UNL A   1      28.932  29.977  21.516  1.00  0.00     0.093 A 
ATOM     95  C   UNL A   1      28.703  31.622  23.785  1.00  0.00     0.048 A 
ATOM     96  C   UNL A   1      28.084  31.020  21.493  1.00  0.00     0.018 A 
ATOM     97  C   UNL A   1      27.959  31.849  22.684  1.00  0.00     0.005 A 
ENDBRANCH  88  89
ENDBRANCH  80  88
ENDBRANCH  77  80
ENDBRANCH  75  76
ENDBRANCH  74  75
ENDBRANCH   1  74
TORSDOF 15
ENDMDL
MODEL 2
REMARK VINA RESULT:     -12.4      3.266      5.308
REMARK SMILES O=C(NCCCNC(=O)[C@@]1(Cc2cn3ccccc3n2)CCC[NH2+]C1)c1ccc(-c2c3nc(c(-c4c(F)cc(S(=O)(=O)[O-])cc4F)c4ccc([nH]4)c(-c4c(F)cc(S(=O)(=O)[O-])cc4F)c4nc(c(-c5c(F)cc(S(=O)(=O)[O-])cc5F)c5ccc2[nH]5)C=C4)C=C3)cc1
REMARK SMILES IDX 4 1 3 2 1 3 2 4 26 6 27 7 91 8 28 9 90 10 29 11 30 12 31 13
REMARK SMILES IDX 84 14 32 15 89 16 83 17 85 18 33 19 88 20 82 21 81 22 34 24
REMARK SMILES IDX 68 25 47 26 67 27 48 28 51 29 66 30 86 31 49 32 50 33 65 35
REMARK SMILES IDX 87 36 52 37 35 38 36 39 45 40 37 41 38 42 44 43 46 44 39 45
REMARK SMILES IDX 40 46 41 47 42 48 43 49 69 50 70 51 79 52 71 53 72 54 78 55
REMARK SMILES IDX 80 56 73 57 74 58 75 59 76 60 77 61 53 62 54 63 63 64 55 65
REMARK SMILES IDX 56 66 62 67 64 68 57 69 58 70 59 71 60 72 61 73 5 74 6 75
REMARK SMILES IDX 7 76 8 77 9 79 10 80 21 81 25 82 22 83 24 84 23 85 11 88
REMARK SMILES IDX 12 89 13 90 20 91 14 92 19 93 15 94 18 95 16 96 17 97
REMARK H PARENT 3 5 85 23 51 34 7 78 24 86 24 87
REMARK Flexibility Score: inf
ROOT
ATOM      1  C   UNL A   1      33.698  27.984  26.960  1.00  0.00     0.118 C 
ENDROOT
BRANCH   1   2
ATOM      2  N   UNL A   1      33.531  29.407  27.216  1.00  0.00    -0.352 N 
ATOM      3  O   UNL A   1      33.940  31.396  28.173  1.00  0.00    -0.269 OA
ATOM      4  C   UNL A   1      34.370  30.296  27.842  1.00  0.00     0.251 C 
ATOM      5  H   UNL A   1      32.685  29.793  26.890  1.00  0.00     0.163 HD
BRANCH   4   6
ATOM      6  C   UNL A   1      35.777  29.930  28.123  1.00  0.00     0.039 A 
ATOM      7  C   UNL A   1      36.768  30.079  27.149  1.00  0.00     0.014 A 
ATOM      8  C   UNL A   1      36.122  29.480  29.401  1.00  0.00     0.014 A 
ATOM      9  C   UNL A   1      38.064  29.649  27.403  1.00  0.00     0.010 A 
ATOM     10  C   UNL A   1      37.448  29.141  29.686  1.00  0.00     0.010 A 
ATOM     11  C   UNL A   1      38.427  29.203  28.682  1.00  0.00    -0.014 A 
BRANCH  11  12
ATOM     12  C   UNL A   1      39.849  28.897  28.974  1.00  0.00     0.031 A 
ATOM     13  C   UNL A   1      40.762  29.929  29.571  1.00  0.00     0.074 A 
ATOM     14  C   UNL A   1      40.314  27.666  28.680  1.00  0.00     0.049 A 
ATOM     15  N   UNL A   1      42.035  29.835  29.856  1.00  0.00    -0.248 NA
ATOM     16  C   UNL A   1      40.173  31.241  29.877  1.00  0.00     0.031 C 
ATOM     17  C   UNL A   1      39.522  26.590  28.077  1.00  0.00     0.029 A 
ATOM     18  N   UNL A   1      41.557  27.110  28.842  1.00  0.00    -0.354 N 
ATOM     19  C   UNL A   1      42.408  31.078  30.352  1.00  0.00     0.074 A 
ATOM     20  C   UNL A   1      41.229  31.917  30.308  1.00  0.00     0.031 C 
ATOM     21  C   UNL A   1      40.291  25.502  27.935  1.00  0.00     0.029 A 
ATOM     22  C   UNL A   1      41.644  25.820  28.377  1.00  0.00     0.049 A 
ATOM     23  H   UNL A   1      42.314  27.590  29.250  1.00  0.00     0.167 HD
ATOM     24  C   UNL A   1      43.623  31.475  30.806  1.00  0.00     0.037 A 
ATOM     25  C   UNL A   1      42.700  24.991  28.282  1.00  0.00     0.037 A 
ATOM     26  C   UNL A   1      44.785  30.623  30.848  1.00  0.00     0.049 A 
ATOM     27  C   UNL A   1      44.037  25.456  28.776  1.00  0.00     0.074 A 
ATOM     28  C   UNL A   1      46.046  30.913  31.337  1.00  0.00     0.029 A 
ATOM     29  N   UNL A   1      44.833  29.320  30.372  1.00  0.00    -0.354 N 
ATOM     30  N   UNL A   1      44.361  26.617  29.294  1.00  0.00    -0.248 NA
ATOM     31  C   UNL A   1      45.151  24.506  28.676  1.00  0.00     0.031 C 
ATOM     32  C   UNL A   1      46.870  29.806  31.108  1.00  0.00     0.029 A 
ATOM     33  C   UNL A   1      46.109  28.803  30.526  1.00  0.00     0.049 A 
ATOM     34  H   UNL A   1      44.071  28.834  29.980  1.00  0.00     0.167 HD
ATOM     35  C   UNL A   1      45.714  26.535  29.594  1.00  0.00     0.074 A 
ATOM     36  C   UNL A   1      46.144  25.203  29.213  1.00  0.00     0.031 C 
ATOM     37  C   UNL A   1      46.524  27.477  30.138  1.00  0.00     0.037 A 
BRANCH  24  38
ATOM     38  C   UNL A   1      43.761  32.903  31.262  1.00  0.00     0.058 A 
ATOM     39  C   UNL A   1      43.552  33.282  32.597  1.00  0.00     0.135 A 
ATOM     40  C   UNL A   1      44.122  33.908  30.347  1.00  0.00     0.135 A 
ATOM     41  F   UNL A   1      43.197  32.366  33.513  1.00  0.00    -0.206 F 
ATOM     42  C   UNL A   1      43.651  34.610  33.002  1.00  0.00     0.059 A 
ATOM     43  C   UNL A   1      44.253  35.239  30.736  1.00  0.00     0.059 A 
ATOM     44  F   UNL A   1      44.340  33.603  29.060  1.00  0.00    -0.206 F 
ATOM     45  C   UNL A   1      43.992  35.584  32.061  1.00  0.00     0.060 A 
BRANCH  45  46
ATOM     46  S   UNL A   1      44.079  37.307  32.591  1.00  0.00     0.124 S 
ATOM     47  O   UNL A   1      43.793  38.008  31.343  1.00  0.00    -0.237 OA
ATOM     48  O   UNL A   1      43.034  37.376  33.608  1.00  0.00    -0.237 OA
ATOM     49  O   UNL A   1      45.444  37.443  33.088  1.00  0.00    -0.744 OA
ENDBRANCH  45  46
ENDBRANCH  24  38
BRANCH  25  50
ATOM     50  C   UNL A   1      42.510  23.649  27.672  1.00  0.00     0.058 A 
ATOM     51  C   UNL A   1      42.583  23.463  26.286  1.00  0.00     0.135 A 
ATOM     52  C   UNL A   1      42.333  22.512  28.479  1.00  0.00     0.135 A 
ATOM     53  F   UNL A   1      42.748  24.519  25.475  1.00  0.00    -0.206 F 
ATOM     54  C   UNL A   1      42.492  22.196  25.717  1.00  0.00     0.059 A 
ATOM     55  C   UNL A   1      42.265  21.234  27.937  1.00  0.00     0.059 A 
ATOM     56  F   UNL A   1      42.279  22.638  29.814  1.00  0.00    -0.206 F 
ATOM     57  C   UNL A   1      42.344  21.087  26.553  1.00  0.00     0.060 A 
BRANCH  57  58
ATOM     58  S   UNL A   1      42.317  19.440  25.811  1.00  0.00     0.124 S 
ATOM     59  O   UNL A   1      40.919  19.321  25.412  1.00  0.00    -0.237 OA
ATOM     60  O   UNL A   1      43.283  19.577  24.726  1.00  0.00    -0.237 OA
ATOM     61  O   UNL A   1      42.738  18.572  26.907  1.00  0.00    -0.744 OA
ENDBRANCH  57  58
ENDBRANCH  25  50
BRANCH  37  62
ATOM     62  C   UNL A   1      47.959  27.098  30.375  1.00  0.00     0.058 A 
ATOM     63  C   UNL A   1      48.951  27.330  29.410  1.00  0.00     0.135 A 
ATOM     64  C   UNL A   1      48.356  26.562  31.611  1.00  0.00     0.135 A 
ATOM     65  F   UNL A   1      48.621  27.830  28.208  1.00  0.00    -0.206 F 
ATOM     66  C   UNL A   1      50.288  27.034  29.658  1.00  0.00     0.059 A 
ATOM     67  C   UNL A   1      49.690  26.282  31.889  1.00  0.00     0.059 A 
ATOM     68  F   UNL A   1      47.447  26.327  32.569  1.00  0.00    -0.206 F 
ATOM     69  C   UNL A   1      50.648  26.517  30.904  1.00  0.00     0.060 A 
BRANCH  69  70
ATOM     70  S   UNL A   1      52.392  26.193  31.234  1.00  0.00     0.124 S 
ATOM     71  O   UNL A   1      52.344  24.837  31.772  1.00  0.00    -0.237 OA
ATOM     72  O   UNL A   1      52.992  26.329  29.910  1.00  0.00    -0.237 OA
ATOM     73  O   UNL A   1      52.757  27.234  32.190  1.00  0.00    -0.744 OA
ENDBRANCH  69  70
ENDBRANCH  37  62
ENDBRANCH  11  12
ENDBRANCH   4   6
ENDBRANCH   1   2
BRANCH   1  74
ATOM     74  C   UNL A   1      33.904  27.689  25.484  1.00  0.00     0.042 C 
BRANCH  74  75
ATOM     75  C   UNL A   1      32.874  26.729  24.906  1.00  0.00     0.117 C 
BRANCH  75  76
ATOM     76  N   UNL A   1      32.155  25.994  25.938  1.00  0.00    -0.355 N 
ATOM     77  C   UNL A   1      32.126  24.674  26.284  1.00  0.00     0.232 C 
ATOM     78  H   UNL A   1      31.576  26.561  26.497  1.00  0.00     0.163 HD
ATOM     79  O   UNL A   1      31.405  24.398  27.249  1.00  0.00    -0.274 OA
BRANCH  77  80
ATOM     80  C   UNL A   1      32.967  23.595  25.559  1.00  0.00     0.104 C 
ATOM     81  C   UNL A   1      32.861  23.798  24.025  1.00  0.00     0.029 C 
ATOM     82  C   UNL A   1      34.419  23.711  26.101  1.00  0.00     0.277 C 
ATOM     83  C   UNL A   1      34.062  23.297  23.227  1.00  0.00     0.063 C 
ATOM     84  N   UNL A   1      35.475  23.162  25.245  1.00  0.00    -0.345 N 
ATOM     85  C   UNL A   1      35.392  23.653  23.875  1.00  0.00     0.260 C 
ATOM     86  H   UNL A   1      36.380  23.426  25.633  1.00  0.00     0.346 HD
ATOM     87  H   UNL A   1      35.360  22.149  25.220  1.00  0.00     0.346 HD
BRANCH  80  88
ATOM     88  C   UNL A   1      32.338  22.211  25.954  1.00  0.00     0.080 C 
BRANCH  88  89
ATOM     89  C   UNL A   1      32.796  21.032  25.163  1.00  0.00     0.061 A 
ATOM     90  C   UNL A   1      32.154  20.389  24.124  1.00  0.00     0.116 A 
ATOM     91  N   UNL A   1      33.988  20.402  25.454  1.00  0.00    -0.234 NA
ATOM     92  N   UNL A   1      32.854  19.231  23.926  1.00  0.00    -0.307 N 
ATOM     93  C   UNL A   1      34.000  19.318  24.706  1.00  0.00     0.136 A 
ATOM     94  C   UNL A   1      32.523  18.121  23.155  1.00  0.00     0.093 A 
ATOM     95  C   UNL A   1      34.917  18.231  24.626  1.00  0.00     0.048 A 
ATOM     96  C   UNL A   1      33.364  17.073  23.126  1.00  0.00     0.018 A 
ATOM     97  C   UNL A   1      34.611  17.155  23.875  1.00  0.00     0.005 A 
ENDBRANCH  88  89
ENDBRANCH  80  88
ENDBRANCH  77  80
ENDBRANCH  75  76
ENDBRANCH  74  75
ENDBRANCH   1  74
TORSDOF 15
ENDMDL
MODEL 3
REMARK VINA RESULT:     -12.3      1.086      1.689
REMARK SMILES O=C(NCCCNC(=O)[C@@]1(Cc2cn3ccccc3n2)CCC[NH2+]C1)c1ccc(-c2c3nc(c(-c4c(F)cc(S(=O)(=O)[O-])cc4F)c4ccc([nH]4)c(-c4c(F)cc(S(=O)(=O)[O-])cc4F)c4nc(c(-c5c(F)cc(S(=O)(=O)[O-])cc5F)c5ccc2[nH]5)C=C4)C=C3)cc1
REMARK SMILES IDX 4 1 3 2 1 3 2 4 26 6 27 7 91 8 28 9 90 10 29 11 30 12 31 13
REMARK SMILES IDX 84 14 32 15 89 16 83 17 85 18 33 19 88 20 82 21 81 22 34 24
REMARK SMILES IDX 68 25 47 26 67 27 48 28 51 29 66 30 86 31 49 32 50 33 65 35
REMARK SMILES IDX 87 36 52 37 35 38 36 39 45 40 37 41 38 42 44 43 46 44 39 45
REMARK SMILES IDX 40 46 41 47 42 48 43 49 69 50 70 51 79 52 71 53 72 54 78 55
REMARK SMILES IDX 80 56 73 57 74 58 75 59 76 60 77 61 53 62 54 63 63 64 55 65
REMARK SMILES IDX 56 66 62 67 64 68 57 69 58 70 59 71 60 72 61 73 5 74 6 75
REMARK SMILES IDX 7 76 8 77 9 79 10 80 21 81 25 82 22 83 24 84 23 85 11 88
REMARK SMILES IDX 12 89 13 90 20 91 14 92 19 93 15 94 18 95 16 96 17 97
REMARK H PARENT 3 5 85 23 51 34 7 78 24 86 24 87
REMARK Flexibility Score: inf
ROOT
ATOM      1  C   UNL A   1      35.146  29.718  27.798  1.00  0.00     0.118 C 
ENDROOT
BRANCH   1   2
ATOM      2  N   UNL A   1      35.184  30.430  29.067  1.00  0.00    -0.352 N 
ATOM      3  O   UNL A   1      35.944  30.976  31.108  1.00  0.00    -0.269 OA
ATOM      4  C   UNL A   1      36.195  30.534  29.991  1.00  0.00     0.251 C 
ATOM      5  H   UNL A   1      34.357  30.913  29.299  1.00  0.00     0.163 HD
BRANCH   4   6
ATOM      6  C   UNL A   1      37.571  30.107  29.651  1.00  0.00     0.039 A 
ATOM      7  C   UNL A   1      38.055  30.215  28.344  1.00  0.00     0.014 A 
ATOM      8  C   UNL A   1      38.412  29.642  30.667  1.00  0.00     0.014 A 
ATOM      9  C   UNL A   1      39.317  29.728  28.027  1.00  0.00     0.010 A 
ATOM     10  C   UNL A   1      39.718  29.246  30.363  1.00  0.00     0.010 A 
ATOM     11  C   UNL A   1      40.174  29.266  29.036  1.00  0.00    -0.014 A 
BRANCH  11  12
ATOM     12  C   UNL A   1      41.571  28.899  28.698  1.00  0.00     0.031 A 
ATOM     13  C   UNL A   1      42.670  29.923  28.702  1.00  0.00     0.074 A 
ATOM     14  C   UNL A   1      41.837  27.618  28.372  1.00  0.00     0.049 A 
ATOM     15  N   UNL A   1      43.933  29.775  28.399  1.00  0.00    -0.248 NA
ATOM     16  C   UNL A   1      42.300  31.294  29.085  1.00  0.00     0.031 C 
ATOM     17  C   UNL A   1      40.843  26.542  28.312  1.00  0.00     0.029 A 
ATOM     18  N   UNL A   1      43.012  27.002  28.025  1.00  0.00    -0.354 N 
ATOM     19  C   UNL A   1      44.508  31.033  28.530  1.00  0.00     0.074 A 
ATOM     20  C   UNL A   1      43.447  31.939  28.919  1.00  0.00     0.031 C 
ATOM     21  C   UNL A   1      41.450  25.399  27.969  1.00  0.00     0.029 A 
ATOM     22  C   UNL A   1      42.862  25.670  27.723  1.00  0.00     0.049 A 
ATOM     23  H   UNL A   1      43.878  27.468  27.996  1.00  0.00     0.167 HD
ATOM     24  C   UNL A   1      45.802  31.394  28.347  1.00  0.00     0.037 A 
ATOM     25  C   UNL A   1      43.751  24.769  27.264  1.00  0.00     0.037 A 
ATOM     26  C   UNL A   1      46.847  30.477  27.965  1.00  0.00     0.049 A 
ATOM     27  C   UNL A   1      45.173  25.192  27.053  1.00  0.00     0.074 A 
ATOM     28  C   UNL A   1      48.197  30.731  27.804  1.00  0.00     0.029 A 
ATOM     29  N   UNL A   1      46.657  29.133  27.671  1.00  0.00    -0.354 N 
ATOM     30  N   UNL A   1      45.712  26.375  27.235  1.00  0.00    -0.248 NA
ATOM     31  C   UNL A   1      46.110  24.167  26.578  1.00  0.00     0.031 C 
ATOM     32  C   UNL A   1      48.814  29.556  27.361  1.00  0.00     0.029 A 
ATOM     33  C   UNL A   1      47.859  28.553  27.299  1.00  0.00     0.049 A 
ATOM     34  H   UNL A   1      45.793  28.661  27.718  1.00  0.00     0.167 HD
ATOM     35  C   UNL A   1      47.054  26.235  26.909  1.00  0.00     0.074 A 
ATOM     36  C   UNL A   1      47.248  24.848  26.532  1.00  0.00     0.031 C 
ATOM     37  C   UNL A   1      48.035  27.171  26.922  1.00  0.00     0.037 A 
BRANCH  24  38
ATOM     38  C   UNL A   1      46.151  32.847  28.525  1.00  0.00     0.058 A 
ATOM     39  C   UNL A   1      46.556  33.369  29.764  1.00  0.00     0.135 A 
ATOM     40  C   UNL A   1      46.090  33.731  27.434  1.00  0.00     0.135 A 
ATOM     41  F   UNL A   1      46.623  32.573  30.844  1.00  0.00    -0.206 F 
ATOM     42  C   UNL A   1      46.845  34.721  29.926  1.00  0.00     0.059 A 
ATOM     43  C   UNL A   1      46.401  35.081  27.567  1.00  0.00     0.059 A 
ATOM     44  F   UNL A   1      45.715  33.287  26.225  1.00  0.00    -0.206 F 
ATOM     45  C   UNL A   1      46.755  35.572  28.822  1.00  0.00     0.060 A 
BRANCH  45  46
ATOM     46  S   UNL A   1      47.095  37.330  29.055  1.00  0.00     0.124 S 
ATOM     47  O   UNL A   1      47.753  37.326  30.359  1.00  0.00    -0.237 OA
ATOM     48  O   UNL A   1      47.952  37.638  27.915  1.00  0.00    -0.237 OA
ATOM     49  O   UNL A   1      45.770  37.940  29.023  1.00  0.00    -0.744 OA
ENDBRANCH  45  46
ENDBRANCH  24  38
BRANCH  25  50
ATOM     50  C   UNL A   1      43.288  23.389  26.962  1.00  0.00     0.058 A 
ATOM     51  C   UNL A   1      43.103  22.957  25.642  1.00  0.00     0.135 A 
ATOM     52  C   UNL A   1      43.101  22.452  27.992  1.00  0.00     0.135 A 
ATOM     53  F   UNL A   1      43.266  23.816  24.625  1.00  0.00    -0.206 F 
ATOM     54  C   UNL A   1      42.753  21.642  25.351  1.00  0.00     0.059 A 
ATOM     55  C   UNL A   1      42.778  21.127  27.726  1.00  0.00     0.059 A 
ATOM     56  F   UNL A   1      43.288  22.814  29.271  1.00  0.00    -0.206 F 
ATOM     57  C   UNL A   1      42.603  20.732  26.400  1.00  0.00     0.060 A 
BRANCH  57  58
ATOM     58  S   UNL A   1      42.239  19.007  26.007  1.00  0.00     0.124 S 
ATOM     59  O   UNL A   1      42.585  18.342  27.257  1.00  0.00    -0.237 OA
ATOM     60  O   UNL A   1      40.817  19.061  25.684  1.00  0.00    -0.237 OA
ATOM     61  O   UNL A   1      43.119  18.727  24.877  1.00  0.00    -0.744 OA
ENDBRANCH  57  58
ENDBRANCH  25  50
BRANCH  37  62
ATOM     62  C   UNL A   1      49.419  26.725  26.538  1.00  0.00     0.058 A 
ATOM     63  C   UNL A   1      50.242  26.026  27.434  1.00  0.00     0.135 A 
ATOM     64  C   UNL A   1      49.896  26.940  25.235  1.00  0.00     0.135 A 
ATOM     65  F   UNL A   1      49.836  25.805  28.694  1.00  0.00    -0.206 F 
ATOM     66  C   UNL A   1      51.498  25.562  27.053  1.00  0.00     0.059 A 
ATOM     67  C   UNL A   1      51.138  26.464  24.826  1.00  0.00     0.059 A 
ATOM     68  F   UNL A   1      49.145  27.599  24.339  1.00  0.00    -0.206 F 
ATOM     69  C   UNL A   1      51.934  25.780  25.744  1.00  0.00     0.060 A 
BRANCH  69  70
ATOM     70  S   UNL A   1      53.539  25.123  25.247  1.00  0.00     0.124 S 
ATOM     71  O   UNL A   1      54.432  25.769  26.204  1.00  0.00    -0.237 OA
ATOM     72  O   UNL A   1      53.356  23.686  25.420  1.00  0.00    -0.237 OA
ATOM     73  O   UNL A   1      53.675  25.568  23.863  1.00  0.00    -0.744 OA
ENDBRANCH  69  70
ENDBRANCH  37  62
ENDBRANCH  11  12
ENDBRANCH   4   6
ENDBRANCH   1   2
BRANCH   1  74
ATOM     74  C   UNL A   1      33.724  29.426  27.349  1.00  0.00     0.042 C 
BRANCH  74  75
ATOM     75  C   UNL A   1      33.630  28.305  26.324  1.00  0.00     0.117 C 
BRANCH  75  76
ATOM     76  N   UNL A   1      33.952  28.751  24.975  1.00  0.00    -0.355 N 
ATOM     77  C   UNL A   1      33.689  28.233  23.741  1.00  0.00     0.232 C 
ATOM     78  H   UNL A   1      34.461  29.594  24.949  1.00  0.00     0.163 HD
ATOM     79  O   UNL A   1      34.101  28.903  22.789  1.00  0.00    -0.274 OA
BRANCH  77  80
ATOM     80  C   UNL A   1      32.889  26.923  23.532  1.00  0.00     0.104 C 
ATOM     81  C   UNL A   1      32.759  26.633  22.014  1.00  0.00     0.029 C 
ATOM     82  C   UNL A   1      33.634  25.807  24.316  1.00  0.00     0.277 C 
ATOM     83  C   UNL A   1      32.607  25.156  21.654  1.00  0.00     0.063 C 
ATOM     84  N   UNL A   1      33.375  24.430  23.884  1.00  0.00    -0.345 N 
ATOM     85  C   UNL A   1      33.544  24.257  22.446  1.00  0.00     0.260 C 
ATOM     86  H   UNL A   1      34.023  23.808  24.367  1.00  0.00     0.346 HD
ATOM     87  H   UNL A   1      32.405  24.210  24.112  1.00  0.00     0.346 HD
BRANCH  80  88
ATOM     88  C   UNL A   1      31.466  27.175  24.147  1.00  0.00     0.080 C 
BRANCH  88  89
ATOM     89  C   UNL A   1      30.738  28.376  23.643  1.00  0.00     0.061 A 
ATOM     90  C   UNL A   1      30.627  29.624  24.223  1.00  0.00     0.116 A 
ATOM     91  N   UNL A   1      30.015  28.326  22.470  1.00  0.00    -0.234 NA
ATOM     92  N   UNL A   1      29.654  30.269  23.512  1.00  0.00    -0.307 N 
ATOM     93  C   UNL A   1      29.363  29.470  22.414  1.00  0.00     0.136 A 
ATOM     94  C   UNL A   1      28.999  31.464  23.796  1.00  0.00     0.093 A 
ATOM     95  C   UNL A   1      28.397  29.966  21.493  1.00  0.00     0.048 A 
ATOM     96  C   UNL A   1      28.047  31.901  22.954  1.00  0.00     0.018 A 
ATOM     97  C   UNL A   1      27.763  31.127  21.754  1.00  0.00     0.005 A 
ENDBRANCH  88  89
ENDBRANCH  80  88
ENDBRANCH  77  80
ENDBRANCH  75  76
ENDBRANCH  74  75
ENDBRANCH   1  74
TORSDOF 15
ENDMDL
