MODEL 1
REMARK VINA RESULT:     -11.2      0.000      0.000
REMARK SMILES COc1ccccc1N1C(=O)CC[C@H]1CC(=O)NCCCNC(=O)c1ccc(-c2c3nc(c(-c4c(F)cc(S(=O)(=O)[O-])cc4F)c4ccc([nH]4)c(-c4c(F)cc(S(=O)(=O)[O-])cc4F)c4nc(c(-c5c(F)cc(S(=O)(=O)[O-])cc5F)c5ccc2[nH]5)C=C4)C=C3)cc1
REMARK SMILES IDX 20 1 19 2 18 3 16 4 17 5 15 7 14 8 9 9 10 10 11 11 12 12
REMARK SMILES IDX 13 13 8 14 3 15 4 16 5 17 7 18 6 19 2 20 1 21 21 22 22 23
REMARK SMILES IDX 23 24 24 26 25 27 26 28 90 29 27 30 89 31 28 32 29 33 30 34
REMARK SMILES IDX 83 35 31 36 88 37 82 38 84 39 32 40 87 41 81 42 80 43 33 45
REMARK SMILES IDX 67 46 46 47 66 48 47 49 50 50 65 51 85 52 48 53 49 54 64 56
REMARK SMILES IDX 86 57 51 58 34 59 35 60 44 61 36 62 37 63 43 64 45 65 38 66
REMARK SMILES IDX 39 67 40 68 41 69 42 70 68 71 69 72 78 73 70 74 71 75 77 76
REMARK SMILES IDX 79 77 72 78 73 79 74 80 75 81 76 82 52 83 53 84 62 85 54 86
REMARK SMILES IDX 55 87 61 88 63 89 56 90 57 91 58 92 59 93 60 94
REMARK H PARENT 18 6 22 25 84 44 50 55
REMARK Flexibility Score: inf
ROOT
ATOM      1  C   UNL A   1      34.017  27.860  25.801  1.00  0.00     0.042 C 
ENDROOT
BRANCH   1   2
ATOM      2  C   UNL A   1      33.033  27.528  24.688  1.00  0.00     0.117 C 
BRANCH   2   3
ATOM      3  N   UNL A   1      33.615  26.753  23.614  1.00  0.00    -0.356 N 
ATOM      4  C   UNL A   1      33.042  26.037  22.620  1.00  0.00     0.222 C 
ATOM      5  O   UNL A   1      33.761  25.773  21.648  1.00  0.00    -0.275 OA
ATOM      6  H   UNL A   1      34.600  26.745  23.605  1.00  0.00     0.163 HD
BRANCH   4   7
ATOM      7  C   UNL A   1      31.585  25.617  22.604  1.00  0.00     0.125 C 
BRANCH   7   8
ATOM      8  C   UNL A   1      30.881  24.967  23.809  1.00  0.00     0.100 C 
ATOM      9  N   UNL A   1      31.611  24.399  24.931  1.00  0.00    -0.305 N 
ATOM     10  C   UNL A   1      31.019  24.740  26.159  1.00  0.00     0.227 C 
ATOM     11  O   UNL A   1      31.422  24.480  27.282  1.00  0.00    -0.275 OA
ATOM     12  C   UNL A   1      29.759  25.521  25.892  1.00  0.00     0.103 C 
ATOM     13  C   UNL A   1      29.879  25.940  24.441  1.00  0.00     0.036 C 
BRANCH   9  14
ATOM     14  C   UNL A   1      32.376  23.198  24.809  1.00  0.00     0.086 A 
ATOM     15  C   UNL A   1      33.774  23.156  24.986  1.00  0.00     0.142 A 
ATOM     16  C   UNL A   1      34.486  21.959  24.818  1.00  0.00     0.048 A 
ATOM     17  C   UNL A   1      33.820  20.781  24.495  1.00  0.00     0.004 A 
ATOM     18  C   UNL A   1      31.740  22.005  24.456  1.00  0.00     0.030 A 
ATOM     19  C   UNL A   1      32.445  20.807  24.307  1.00  0.00     0.002 A 
BRANCH  15  20
ATOM     20  O   UNL A   1      34.536  24.263  25.257  1.00  0.00    -0.495 OA
ATOM     21  C   UNL A   1      35.929  23.986  25.208  1.00  0.00     0.278 C 
ENDBRANCH  15  20
ENDBRANCH   9  14
ENDBRANCH   7   8
ENDBRANCH   4   7
ENDBRANCH   2   3
ENDBRANCH   1   2
BRANCH   1  22
ATOM     22  C   UNL A   1      33.394  28.175  27.155  1.00  0.00     0.118 C 
BRANCH  22  23
ATOM     23  N   UNL A   1      33.335  29.605  27.404  1.00  0.00    -0.352 N 
ATOM     24  C   UNL A   1      34.243  30.449  27.994  1.00  0.00     0.251 C 
ATOM     25  H   UNL A   1      32.506  30.040  27.100  1.00  0.00     0.163 HD
ATOM     26  O   UNL A   1      33.861  31.566  28.340  1.00  0.00    -0.269 OA
BRANCH  24  27
ATOM     27  C   UNL A   1      35.655  30.051  28.226  1.00  0.00     0.039 A 
ATOM     28  C   UNL A   1      36.035  29.670  29.518  1.00  0.00     0.014 A 
ATOM     29  C   UNL A   1      36.628  30.139  27.227  1.00  0.00     0.014 A 
ATOM     30  C   UNL A   1      37.369  29.351  29.797  1.00  0.00     0.010 A 
ATOM     31  C   UNL A   1      37.945  29.749  27.487  1.00  0.00     0.010 A 
ATOM     32  C   UNL A   1      38.335  29.371  28.780  1.00  0.00    -0.014 A 
BRANCH  32  33
ATOM     33  C   UNL A   1      39.758  29.036  29.062  1.00  0.00     0.031 A 
ATOM     34  C   UNL A   1      40.670  30.059  29.689  1.00  0.00     0.074 A 
ATOM     35  C   UNL A   1      40.243  27.824  28.724  1.00  0.00     0.049 A 
ATOM     36  N   UNL A   1      41.946  29.972  29.968  1.00  0.00    -0.248 NA
ATOM     37  C   UNL A   1      40.073  31.361  30.030  1.00  0.00     0.031 C 
ATOM     38  C   UNL A   1      39.476  26.757  28.080  1.00  0.00     0.029 A 
ATOM     39  N   UNL A   1      41.500  27.288  28.867  1.00  0.00    -0.354 N 
ATOM     40  C   UNL A   1      42.307  31.206  30.498  1.00  0.00     0.074 A 
ATOM     41  C   UNL A   1      41.126  32.041  30.460  1.00  0.00     0.031 C 
ATOM     42  C   UNL A   1      40.270  25.688  27.904  1.00  0.00     0.029 A 
ATOM     43  C   UNL A   1      41.611  26.004  28.387  1.00  0.00     0.049 A 
ATOM     44  H   UNL A   1      42.250  27.778  29.275  1.00  0.00     0.167 HD
ATOM     45  C   UNL A   1      43.506  31.602  30.994  1.00  0.00     0.037 A 
ATOM     46  C   UNL A   1      42.674  25.178  28.335  1.00  0.00     0.037 A 
ATOM     47  C   UNL A   1      44.674  30.761  31.052  1.00  0.00     0.049 A 
ATOM     48  C   UNL A   1      43.996  25.641  28.886  1.00  0.00     0.074 A 
ATOM     49  C   UNL A   1      45.921  31.055  31.578  1.00  0.00     0.029 A 
ATOM     50  N   UNL A   1      44.741  29.463  30.568  1.00  0.00    -0.354 N 
ATOM     51  N   UNL A   1      44.305  26.793  29.432  1.00  0.00    -0.248 NA
ATOM     52  C   UNL A   1      45.114  24.689  28.819  1.00  0.00     0.031 C 
ATOM     53  C   UNL A   1      46.752  29.947  31.379  1.00  0.00     0.029 A 
ATOM     54  C   UNL A   1      46.010  28.946  30.770  1.00  0.00     0.049 A 
ATOM     55  H   UNL A   1      43.996  28.980  30.143  1.00  0.00     0.167 HD
ATOM     56  C   UNL A   1      45.641  26.694  29.800  1.00  0.00     0.074 A 
ATOM     57  C   UNL A   1      46.081  25.366  29.423  1.00  0.00     0.031 C 
ATOM     58  C   UNL A   1      46.432  27.618  30.399  1.00  0.00     0.037 A 
BRANCH  45  59
ATOM     59  C   UNL A   1      43.612  33.010  31.515  1.00  0.00     0.058 A 
ATOM     60  C   UNL A   1      43.436  33.306  32.876  1.00  0.00     0.135 A 
ATOM     61  C   UNL A   1      43.921  34.074  30.651  1.00  0.00     0.135 A 
ATOM     62  F   UNL A   1      43.127  32.331  33.746  1.00  0.00    -0.206 F 
ATOM     63  C   UNL A   1      43.526  34.609  33.356  1.00  0.00     0.059 A 
ATOM     64  C   UNL A   1      44.044  35.382  31.114  1.00  0.00     0.059 A 
ATOM     65  F   UNL A   1      44.104  33.849  29.341  1.00  0.00    -0.206 F 
ATOM     66  C   UNL A   1      43.827  35.641  32.467  1.00  0.00     0.060 A 
BRANCH  66  67
ATOM     67  S   UNL A   1      43.935  37.327  33.103  1.00  0.00     0.124 S 
ATOM     68  O   UNL A   1      43.823  38.109  31.876  1.00  0.00    -0.237 OA
ATOM     69  O   UNL A   1      42.787  37.396  34.004  1.00  0.00    -0.237 OA
ATOM     70  O   UNL A   1      45.240  37.364  33.755  1.00  0.00    -0.744 OA
ENDBRANCH  66  67
ENDBRANCH  45  59
BRANCH  46  71
ATOM     71  C   UNL A   1      42.524  23.812  27.764  1.00  0.00     0.058 A 
ATOM     72  C   UNL A   1      42.375  22.695  28.599  1.00  0.00     0.135 A 
ATOM     73  C   UNL A   1      42.513  23.597  26.378  1.00  0.00     0.135 A 
ATOM     74  F   UNL A   1      42.387  22.849  29.932  1.00  0.00    -0.206 F 
ATOM     75  C   UNL A   1      42.233  21.411  28.083  1.00  0.00     0.059 A 
ATOM     76  C   UNL A   1      42.348  22.325  25.836  1.00  0.00     0.059 A 
ATOM     77  F   UNL A   1      42.637  24.634  25.535  1.00  0.00    -0.206 F 
ATOM     78  C   UNL A   1      42.218  21.237  26.698  1.00  0.00     0.060 A 
BRANCH  78  79
ATOM     79  S   UNL A   1      41.980  19.573  26.036  1.00  0.00     0.124 S 
ATOM     80  O   UNL A   1      42.895  19.575  24.900  1.00  0.00    -0.237 OA
ATOM     81  O   UNL A   1      42.367  18.734  27.166  1.00  0.00    -0.237 OA
ATOM     82  O   UNL A   1      40.559  19.545  25.703  1.00  0.00    -0.744 OA
ENDBRANCH  78  79
ENDBRANCH  46  71
BRANCH  58  83
ATOM     83  C   UNL A   1      47.844  27.216  30.724  1.00  0.00     0.058 A 
ATOM     84  C   UNL A   1      48.170  26.557  31.920  1.00  0.00     0.135 A 
ATOM     85  C   UNL A   1      48.878  27.452  29.803  1.00  0.00     0.135 A 
ATOM     86  F   UNL A   1      47.219  26.314  32.838  1.00  0.00    -0.206 F 
ATOM     87  C   UNL A   1      49.475  26.167  32.203  1.00  0.00     0.059 A 
ATOM     88  C   UNL A   1      50.186  27.047  30.054  1.00  0.00     0.059 A 
ATOM     89  F   UNL A   1      48.619  28.069  28.640  1.00  0.00    -0.206 F 
ATOM     90  C   UNL A   1      50.477  26.415  31.262  1.00  0.00     0.060 A 
BRANCH  90  91
ATOM     91  S   UNL A   1      52.160  25.875  31.625  1.00  0.00     0.124 S 
ATOM     92  O   UNL A   1      51.943  24.493  32.041  1.00  0.00    -0.237 OA
ATOM     93  O   UNL A   1      52.831  26.052  30.340  1.00  0.00    -0.237 OA
ATOM     94  O   UNL A   1      52.590  26.788  32.680  1.00  0.00    -0.744 OA
ENDBRANCH  90  91
ENDBRANCH  58  83
ENDBRANCH  32  33
ENDBRANCH  24  27
ENDBRANCH  22  23
ENDBRANCH   1  22
TORSDOF 16
ENDMDL
MODEL 2
REMARK VINA RESULT:     -11.0      2.752      3.981
REMARK SMILES COc1ccccc1N1C(=O)CC[C@H]1CC(=O)NCCCNC(=O)c1ccc(-c2c3nc(c(-c4c(F)cc(S(=O)(=O)[O-])cc4F)c4ccc([nH]4)c(-c4c(F)cc(S(=O)(=O)[O-])cc4F)c4nc(c(-c5c(F)cc(S(=O)(=O)[O-])cc5F)c5ccc2[nH]5)C=C4)C=C3)cc1
REMARK SMILES IDX 20 1 19 2 18 3 16 4 17 5 15 7 14 8 9 9 10 10 11 11 12 12
REMARK SMILES IDX 13 13 8 14 3 15 4 16 5 17 7 18 6 19 2 20 1 21 21 22 22 23
REMARK SMILES IDX 23 24 24 26 25 27 26 28 90 29 27 30 89 31 28 32 29 33 30 34
REMARK SMILES IDX 83 35 31 36 88 37 82 38 84 39 32 40 87 41 81 42 80 43 33 45
REMARK SMILES IDX 67 46 46 47 66 48 47 49 50 50 65 51 85 52 48 53 49 54 64 56
REMARK SMILES IDX 86 57 51 58 34 59 35 60 44 61 36 62 37 63 43 64 45 65 38 66
REMARK SMILES IDX 39 67 40 68 41 69 42 70 68 71 69 72 78 73 70 74 71 75 77 76
REMARK SMILES IDX 79 77 72 78 73 79 74 80 75 81 76 82 52 83 53 84 62 85 54 86
REMARK SMILES IDX 55 87 61 88 63 89 56 90 57 91 58 92 59 93 60 94
REMARK H PARENT 18 6 22 25 84 44 50 55
REMARK Flexibility Score: inf
ROOT
ATOM      1  C   UNL A   1      34.742  30.082  27.495  1.00  0.00     0.042 C 
ENDROOT
BRANCH   1   2
ATOM      2  C   UNL A   1      33.308  30.436  27.129  1.00  0.00     0.117 C 
BRANCH   2   3
ATOM      3  N   UNL A   1      32.348  29.421  27.506  1.00  0.00    -0.356 N 
ATOM      4  C   UNL A   1      31.758  28.441  26.784  1.00  0.00     0.222 C 
ATOM      5  O   UNL A   1      31.259  27.509  27.429  1.00  0.00    -0.275 OA
ATOM      6  H   UNL A   1      32.079  29.448  28.452  1.00  0.00     0.163 HD
BRANCH   4   7
ATOM      7  C   UNL A   1      31.741  28.392  25.269  1.00  0.00     0.125 C 
BRANCH   7   8
ATOM      8  C   UNL A   1      32.953  27.954  24.425  1.00  0.00     0.100 C 
ATOM      9  N   UNL A   1      33.054  26.633  23.825  1.00  0.00    -0.305 N 
ATOM     10  C   UNL A   1      33.544  26.699  22.510  1.00  0.00     0.227 C 
ATOM     11  O   UNL A   1      33.683  25.781  21.716  1.00  0.00    -0.275 OA
ATOM     12  C   UNL A   1      33.885  28.131  22.189  1.00  0.00     0.103 C 
ATOM     13  C   UNL A   1      33.190  28.932  23.269  1.00  0.00     0.036 C 
BRANCH   9  14
ATOM     14  C   UNL A   1      33.254  25.457  24.611  1.00  0.00     0.086 A 
ATOM     15  C   UNL A   1      32.203  24.600  24.995  1.00  0.00     0.142 A 
ATOM     16  C   UNL A   1      32.444  23.476  25.798  1.00  0.00     0.048 A 
ATOM     17  C   UNL A   1      33.737  23.172  26.216  1.00  0.00     0.004 A 
ATOM     18  C   UNL A   1      34.536  25.140  25.070  1.00  0.00     0.030 A 
ATOM     19  C   UNL A   1      34.783  24.010  25.856  1.00  0.00     0.002 A 
BRANCH  15  20
ATOM     20  O   UNL A   1      30.888  24.830  24.682  1.00  0.00    -0.495 OA
ATOM     21  C   UNL A   1      30.530  24.287  23.418  1.00  0.00     0.278 C 
ENDBRANCH  15  20
ENDBRANCH   9  14
ENDBRANCH   7   8
ENDBRANCH   4   7
ENDBRANCH   2   3
ENDBRANCH   1   2
BRANCH   1  22
ATOM     22  C   UNL A   1      35.541  31.192  28.167  1.00  0.00     0.118 C 
BRANCH  22  23
ATOM     23  N   UNL A   1      35.475  31.105  29.616  1.00  0.00    -0.352 N 
ATOM     24  C   UNL A   1      36.349  30.554  30.519  1.00  0.00     0.251 C 
ATOM     25  H   UNL A   1      34.670  31.507  30.015  1.00  0.00     0.163 HD
ATOM     26  O   UNL A   1      35.954  30.357  31.667  1.00  0.00    -0.269 OA
BRANCH  24  27
ATOM     27  C   UNL A   1      37.742  30.192  30.150  1.00  0.00     0.039 A 
ATOM     28  C   UNL A   1      38.104  30.232  28.798  1.00  0.00     0.014 A 
ATOM     29  C   UNL A   1      38.665  29.722  31.089  1.00  0.00     0.014 A 
ATOM     30  C   UNL A   1      39.384  29.836  28.398  1.00  0.00     0.010 A 
ATOM     31  C   UNL A   1      39.967  29.398  30.698  1.00  0.00     0.010 A 
ATOM     32  C   UNL A   1      40.335  29.431  29.346  1.00  0.00    -0.014 A 
BRANCH  32  33
ATOM     33  C   UNL A   1      41.702  29.005  28.934  1.00  0.00     0.031 A 
ATOM     34  C   UNL A   1      42.836  29.998  28.923  1.00  0.00     0.074 A 
ATOM     35  C   UNL A   1      41.919  27.736  28.536  1.00  0.00     0.049 A 
ATOM     36  N   UNL A   1      44.081  29.830  28.554  1.00  0.00    -0.248 NA
ATOM     37  C   UNL A   1      42.526  31.366  29.369  1.00  0.00     0.031 C 
ATOM     38  C   UNL A   1      40.900  26.686  28.466  1.00  0.00     0.029 A 
ATOM     39  N   UNL A   1      43.065  27.113  28.107  1.00  0.00    -0.354 N 
ATOM     40  C   UNL A   1      44.695  31.069  28.705  1.00  0.00     0.074 A 
ATOM     41  C   UNL A   1      43.675  31.990  29.156  1.00  0.00     0.031 C 
ATOM     42  C   UNL A   1      41.471  25.547  28.042  1.00  0.00     0.029 A 
ATOM     43  C   UNL A   1      42.885  25.791  27.775  1.00  0.00     0.049 A 
ATOM     44  H   UNL A   1      43.934  27.571  28.043  1.00  0.00     0.167 HD
ATOM     45  C   UNL A   1      45.994  31.405  28.509  1.00  0.00     0.037 A 
ATOM     46  C   UNL A   1      43.759  24.880  27.302  1.00  0.00     0.037 A 
ATOM     47  C   UNL A   1      47.012  30.480  28.082  1.00  0.00     0.049 A 
ATOM     48  C   UNL A   1      45.194  25.276  27.086  1.00  0.00     0.074 A 
ATOM     49  C   UNL A   1      48.365  30.712  27.900  1.00  0.00     0.029 A 
ATOM     50  N   UNL A   1      46.791  29.146  27.770  1.00  0.00    -0.354 N 
ATOM     51  N   UNL A   1      45.768  26.439  27.285  1.00  0.00    -0.248 NA
ATOM     52  C   UNL A   1      46.103  24.235  26.588  1.00  0.00     0.031 C 
ATOM     53  C   UNL A   1      48.955  29.528  27.442  1.00  0.00     0.029 A 
ATOM     54  C   UNL A   1      47.978  28.546  27.383  1.00  0.00     0.049 A 
ATOM     55  H   UNL A   1      45.919  28.693  27.816  1.00  0.00     0.167 HD
ATOM     56  C   UNL A   1      47.109  26.262  26.965  1.00  0.00     0.074 A 
ATOM     57  C   UNL A   1      47.263  24.878  26.567  1.00  0.00     0.031 C 
ATOM     58  C   UNL A   1      48.121  27.163  27.000  1.00  0.00     0.037 A 
BRANCH  45  59
ATOM     59  C   UNL A   1      46.388  32.836  28.757  1.00  0.00     0.058 A 
ATOM     60  C   UNL A   1      46.800  33.277  30.025  1.00  0.00     0.135 A 
ATOM     61  C   UNL A   1      46.381  33.774  27.711  1.00  0.00     0.135 A 
ATOM     62  F   UNL A   1      46.815  32.427  31.065  1.00  0.00    -0.206 F 
ATOM     63  C   UNL A   1      47.156  34.602  30.256  1.00  0.00     0.059 A 
ATOM     64  C   UNL A   1      46.760  35.099  27.913  1.00  0.00     0.059 A 
ATOM     65  F   UNL A   1      46.000  33.408  26.478  1.00  0.00    -0.206 F 
ATOM     66  C   UNL A   1      47.129  35.507  29.194  1.00  0.00     0.060 A 
BRANCH  66  67
ATOM     67  S   UNL A   1      47.588  37.224  29.511  1.00  0.00     0.124 S 
ATOM     68  O   UNL A   1      48.077  37.641  28.200  1.00  0.00    -0.237 OA
ATOM     69  O   UNL A   1      46.320  37.814  29.930  1.00  0.00    -0.237 OA
ATOM     70  O   UNL A   1      48.602  37.120  30.555  1.00  0.00    -0.744 OA
ENDBRANCH  66  67
ENDBRANCH  45  59
BRANCH  46  71
ATOM     71  C   UNL A   1      43.303  23.490  27.027  1.00  0.00     0.058 A 
ATOM     72  C   UNL A   1      43.083  23.052  25.714  1.00  0.00     0.135 A 
ATOM     73  C   UNL A   1      43.092  22.571  28.067  1.00  0.00     0.135 A 
ATOM     74  F   UNL A   1      43.263  23.895  24.686  1.00  0.00    -0.206 F 
ATOM     75  C   UNL A   1      42.657  21.756  25.438  1.00  0.00     0.059 A 
ATOM     76  C   UNL A   1      42.690  21.262  27.816  1.00  0.00     0.059 A 
ATOM     77  F   UNL A   1      43.303  22.936  29.341  1.00  0.00    -0.206 F 
ATOM     78  C   UNL A   1      42.466  20.867  26.498  1.00  0.00     0.060 A 
BRANCH  78  79
ATOM     79  S   UNL A   1      41.964  19.172  26.127  1.00  0.00     0.124 S 
ATOM     80  O   UNL A   1      42.311  18.485  27.366  1.00  0.00    -0.237 OA
ATOM     81  O   UNL A   1      40.537  19.325  25.859  1.00  0.00    -0.237 OA
ATOM     82  O   UNL A   1      42.777  18.828  24.964  1.00  0.00    -0.744 OA
ENDBRANCH  78  79
ENDBRANCH  46  71
BRANCH  58  83
ATOM     83  C   UNL A   1      49.496  26.675  26.638  1.00  0.00     0.058 A 
ATOM     84  C   UNL A   1      50.370  26.142  27.600  1.00  0.00     0.135 A 
ATOM     85  C   UNL A   1      49.928  26.698  25.302  1.00  0.00     0.135 A 
ATOM     86  F   UNL A   1      50.008  26.104  28.893  1.00  0.00    -0.206 F 
ATOM     87  C   UNL A   1      51.632  25.671  27.253  1.00  0.00     0.059 A 
ATOM     88  C   UNL A   1      51.176  26.208  24.929  1.00  0.00     0.059 A 
ATOM     89  F   UNL A   1      49.128  27.188  24.341  1.00  0.00    -0.206 F 
ATOM     90  C   UNL A   1      52.026  25.707  25.913  1.00  0.00     0.060 A 
BRANCH  90  91
ATOM     91  S   UNL A   1      53.652  25.062  25.470  1.00  0.00     0.124 S 
ATOM     92  O   UNL A   1      54.031  25.947  24.373  1.00  0.00    -0.237 OA
ATOM     93  O   UNL A   1      54.406  25.230  26.709  1.00  0.00    -0.237 OA
ATOM     94  O   UNL A   1      53.378  23.678  25.093  1.00  0.00    -0.744 OA
ENDBRANCH  90  91
ENDBRANCH  58  83
ENDBRANCH  32  33
ENDBRANCH  24  27
ENDBRANCH  22  23
ENDBRANCH   1  22
TORSDOF 16
ENDMDL
MODEL 3
REMARK VINA RESULT:     -11.0      2.664      3.809
REMARK SMILES COc1ccccc1N1C(=O)CC[C@H]1CC(=O)NCCCNC(=O)c1ccc(-c2c3nc(c(-c4c(F)cc(S(=O)(=O)[O-])cc4F)c4ccc([nH]4)c(-c4c(F)cc(S(=O)(=O)[O-])cc4F)c4nc(c(-c5c(F)cc(S(=O)(=O)[O-])cc5F)c5ccc2[nH]5)C=C4)C=C3)cc1
REMARK SMILES IDX 20 1 19 2 18 3 16 4 17 5 15 7 14 8 9 9 10 10 11 11 12 12
REMARK SMILES IDX 13 13 8 14 3 15 4 16 5 17 7 18 6 19 2 20 1 21 21 22 22 23
REMARK SMILES IDX 23 24 24 26 25 27 26 28 90 29 27 30 89 31 28 32 29 33 30 34
REMARK SMILES IDX 83 35 31 36 88 37 82 38 84 39 32 40 87 41 81 42 80 43 33 45
REMARK SMILES IDX 67 46 46 47 66 48 47 49 50 50 65 51 85 52 48 53 49 54 64 56
REMARK SMILES IDX 86 57 51 58 34 59 35 60 44 61 36 62 37 63 43 64 45 65 38 66
REMARK SMILES IDX 39 67 40 68 41 69 42 70 68 71 69 72 78 73 70 74 71 75 77 76
REMARK SMILES IDX 79 77 72 78 73 79 74 80 75 81 76 82 52 83 53 84 62 85 54 86
REMARK SMILES IDX 55 87 61 88 63 89 56 90 57 91 58 92 59 93 60 94
REMARK H PARENT 18 6 22 25 84 44 50 55
REMARK Flexibility Score: inf
ROOT
ATOM      1  C   UNL A   1      33.251  27.539  26.487  1.00  0.00     0.042 C 
ENDROOT
BRANCH   1   2
ATOM      2  C   UNL A   1      31.743  27.730  26.568  1.00  0.00     0.117 C 
BRANCH   2   3
ATOM      3  N   UNL A   1      31.021  26.509  26.853  1.00  0.00    -0.356 N 
ATOM      4  C   UNL A   1      30.598  25.513  26.040  1.00  0.00     0.222 C 
ATOM      5  O   UNL A   1      30.325  24.437  26.587  1.00  0.00    -0.275 OA
ATOM      6  H   UNL A   1      30.799  26.380  27.803  1.00  0.00     0.163 HD
BRANCH   4   7
ATOM      7  C   UNL A   1      30.515  25.624  24.530  1.00  0.00     0.125 C 
BRANCH   7   8
ATOM      8  C   UNL A   1      31.755  25.722  23.622  1.00  0.00     0.100 C 
ATOM      9  N   UNL A   1      32.618  24.584  23.347  1.00  0.00    -0.305 N 
ATOM     10  C   UNL A   1      32.980  24.525  21.991  1.00  0.00     0.227 C 
ATOM     11  O   UNL A   1      33.635  23.662  21.428  1.00  0.00    -0.275 OA
ATOM     12  C   UNL A   1      32.412  25.727  21.283  1.00  0.00     0.103 C 
ATOM     13  C   UNL A   1      31.374  26.271  22.242  1.00  0.00     0.036 C 
BRANCH   9  14
ATOM     14  C   UNL A   1      33.471  24.021  24.346  1.00  0.00     0.086 A 
ATOM     15  C   UNL A   1      33.151  22.845  25.055  1.00  0.00     0.142 A 
ATOM     16  C   UNL A   1      34.003  22.351  26.054  1.00  0.00     0.048 A 
ATOM     17  C   UNL A   1      35.198  23.003  26.348  1.00  0.00     0.004 A 
ATOM     18  C   UNL A   1      34.662  24.668  24.684  1.00  0.00     0.030 A 
ATOM     19  C   UNL A   1      35.523  24.167  25.666  1.00  0.00     0.002 A 
BRANCH  15  20
ATOM     20  O   UNL A   1      31.981  22.151  24.882  1.00  0.00    -0.495 OA
ATOM     21  C   UNL A   1      32.192  20.748  24.803  1.00  0.00     0.278 C 
ENDBRANCH  15  20
ENDBRANCH   9  14
ENDBRANCH   7   8
ENDBRANCH   4   7
ENDBRANCH   2   3
ENDBRANCH   1   2
BRANCH   1  22
ATOM     22  C   UNL A   1      34.006  28.606  25.703  1.00  0.00     0.118 C 
BRANCH  22  23
ATOM     23  N   UNL A   1      33.730  29.942  26.203  1.00  0.00    -0.352 N 
ATOM     24  C   UNL A   1      34.293  30.643  27.240  1.00  0.00     0.251 C 
ATOM     25  H   UNL A   1      33.021  30.422  25.718  1.00  0.00     0.163 HD
ATOM     26  O   UNL A   1      33.712  31.647  27.648  1.00  0.00    -0.269 OA
BRANCH  24  27
ATOM     27  C   UNL A   1      35.568  30.224  27.876  1.00  0.00     0.039 A 
ATOM     28  C   UNL A   1      35.524  29.703  29.175  1.00  0.00     0.014 A 
ATOM     29  C   UNL A   1      36.808  30.421  27.263  1.00  0.00     0.014 A 
ATOM     30  C   UNL A   1      36.706  29.357  29.838  1.00  0.00     0.010 A 
ATOM     31  C   UNL A   1      37.983  30.005  27.896  1.00  0.00     0.010 A 
ATOM     32  C   UNL A   1      37.948  29.489  29.198  1.00  0.00    -0.014 A 
BRANCH  32  33
ATOM     33  C   UNL A   1      39.215  29.126  29.892  1.00  0.00     0.031 A 
ATOM     34  C   UNL A   1      39.646  29.874  31.128  1.00  0.00     0.074 A 
ATOM     35  C   UNL A   1      39.998  28.148  29.394  1.00  0.00     0.049 A 
ATOM     36  N   UNL A   1      40.734  29.736  31.843  1.00  0.00    -0.248 NA
ATOM     37  C   UNL A   1      38.743  30.929  31.615  1.00  0.00     0.031 C 
ATOM     38  C   UNL A   1      39.713  27.371  28.186  1.00  0.00     0.029 A 
ATOM     39  N   UNL A   1      41.197  27.645  29.836  1.00  0.00    -0.354 N 
ATOM     40  C   UNL A   1      40.656  30.694  32.848  1.00  0.00     0.074 A 
ATOM     41  C   UNL A   1      39.435  31.438  32.624  1.00  0.00     0.031 C 
ATOM     42  C   UNL A   1      40.697  26.477  27.996  1.00  0.00     0.029 A 
ATOM     43  C   UNL A   1      41.700  26.639  29.044  1.00  0.00     0.049 A 
ATOM     44  H   UNL A   1      41.653  27.973  30.644  1.00  0.00     0.167 HD
ATOM     45  C   UNL A   1      41.509  30.920  33.877  1.00  0.00     0.037 A 
ATOM     46  C   UNL A   1      42.843  25.932  29.147  1.00  0.00     0.037 A 
ATOM     47  C   UNL A   1      42.712  30.163  34.111  1.00  0.00     0.049 A 
ATOM     48  C   UNL A   1      43.778  26.205  30.294  1.00  0.00     0.074 A 
ATOM     49  C   UNL A   1      43.618  30.285  35.151  1.00  0.00     0.029 A 
ATOM     50  N   UNL A   1      43.178  29.144  33.293  1.00  0.00    -0.354 N 
ATOM     51  N   UNL A   1      43.661  27.079  31.265  1.00  0.00    -0.248 NA
ATOM     52  C   UNL A   1      44.999  25.390  30.364  1.00  0.00     0.031 C 
ATOM     53  C   UNL A   1      44.650  29.364  34.943  1.00  0.00     0.029 A 
ATOM     54  C   UNL A   1      44.365  28.637  33.797  1.00  0.00     0.049 A 
ATOM     55  H   UNL A   1      42.732  28.827  32.475  1.00  0.00     0.167 HD
ATOM     56  C   UNL A   1      44.775  26.900  32.076  1.00  0.00     0.074 A 
ATOM     57  C   UNL A   1      45.551  25.827  31.488  1.00  0.00     0.031 C 
ATOM     58  C   UNL A   1      45.122  27.561  33.208  1.00  0.00     0.037 A 
BRANCH  45  59
ATOM     59  C   UNL A   1      41.169  32.034  34.831  1.00  0.00     0.058 A 
ATOM     60  C   UNL A   1      41.671  33.333  34.656  1.00  0.00     0.135 A 
ATOM     61  C   UNL A   1      40.308  31.808  35.919  1.00  0.00     0.135 A 
ATOM     62  F   UNL A   1      42.508  33.603  33.641  1.00  0.00    -0.206 F 
ATOM     63  C   UNL A   1      41.363  34.360  35.543  1.00  0.00     0.059 A 
ATOM     64  C   UNL A   1      39.963  32.828  36.803  1.00  0.00     0.059 A 
ATOM     65  F   UNL A   1      39.794  30.587  36.132  1.00  0.00    -0.206 F 
ATOM     66  C   UNL A   1      40.511  34.096  36.616  1.00  0.00     0.060 A 
BRANCH  66  67
ATOM     67  S   UNL A   1      40.126  35.437  37.762  1.00  0.00     0.124 S 
ATOM     68  O   UNL A   1      41.346  35.496  38.561  1.00  0.00    -0.237 OA
ATOM     69  O   UNL A   1      39.904  36.565  36.862  1.00  0.00    -0.237 OA
ATOM     70  O   UNL A   1      38.939  34.957  38.463  1.00  0.00    -0.744 OA
ENDBRANCH  66  67
ENDBRANCH  45  59
BRANCH  46  71
ATOM     71  C   UNL A   1      43.153  24.875  28.147  1.00  0.00     0.058 A 
ATOM     72  C   UNL A   1      43.770  25.196  26.929  1.00  0.00     0.135 A 
ATOM     73  C   UNL A   1      42.852  23.527  28.391  1.00  0.00     0.135 A 
ATOM     74  F   UNL A   1      44.071  26.473  26.645  1.00  0.00    -0.206 F 
ATOM     75  C   UNL A   1      44.067  24.221  25.982  1.00  0.00     0.059 A 
ATOM     76  C   UNL A   1      43.161  22.529  27.471  1.00  0.00     0.059 A 
ATOM     77  F   UNL A   1      42.274  23.165  29.548  1.00  0.00    -0.206 F 
ATOM     78  C   UNL A   1      43.760  22.888  26.264  1.00  0.00     0.060 A 
BRANCH  78  79
ATOM     79  S   UNL A   1      44.198  21.623  25.051  1.00  0.00     0.124 S 
ATOM     80  O   UNL A   1      45.536  21.245  25.491  1.00  0.00    -0.237 OA
ATOM     81  O   UNL A   1      43.152  20.625  25.257  1.00  0.00    -0.237 OA
ATOM     82  O   UNL A   1      44.128  22.339  23.781  1.00  0.00    -0.744 OA
ENDBRANCH  78  79
ENDBRANCH  46  71
BRANCH  58  83
ATOM     83  C   UNL A   1      46.376  27.120  33.911  1.00  0.00     0.058 A 
ATOM     84  C   UNL A   1      47.624  27.697  33.632  1.00  0.00     0.135 A 
ATOM     85  C   UNL A   1      46.318  26.137  34.913  1.00  0.00     0.135 A 
ATOM     86  F   UNL A   1      47.736  28.636  32.678  1.00  0.00    -0.206 F 
ATOM     87  C   UNL A   1      48.775  27.299  34.304  1.00  0.00     0.059 A 
ATOM     88  C   UNL A   1      47.452  25.743  35.617  1.00  0.00     0.059 A 
ATOM     89  F   UNL A   1      45.147  25.560  35.227  1.00  0.00    -0.206 F 
ATOM     90  C   UNL A   1      48.679  26.322  35.297  1.00  0.00     0.060 A 
BRANCH  90  91
ATOM     91  S   UNL A   1      50.173  25.838  36.186  1.00  0.00     0.124 S 
ATOM     92  O   UNL A   1      51.092  26.914  35.826  1.00  0.00    -0.237 OA
ATOM     93  O   UNL A   1      49.724  25.828  37.575  1.00  0.00    -0.237 OA
ATOM     94  O   UNL A   1      50.492  24.528  35.627  1.00  0.00    -0.744 OA
ENDBRANCH  90  91
ENDBRANCH  58  83
ENDBRANCH  32  33
ENDBRANCH  24  27
ENDBRANCH  22  23
ENDBRANCH   1  22
TORSDOF 16
ENDMDL
