MODEL 1
REMARK VINA RESULT:     -11.9      0.000      0.000
REMARK SMILES COc1ccc(Br)c([C@H]2[NH2+][C@H](C(=O)NCCCNC(=O)c3ccc(-c4c5nc(c(-c6c(F)cc(S(=O)(=O)[O-])cc6F)c6ccc([nH]6)c(-c6c(F)cc(S(=O)(=O)[O-])cc6F)c6nc(c(-c7c(F)cc(S(=O)(=O)[O-])cc7F)c7ccc4[nH]7)C=C6)C=C5)cc3)CS2)c1O
REMARK SMILES IDX 16 1 15 2 14 3 12 4 13 5 11 7 9 8 10 9 88 10 87 13 8 14 3 15
REMARK SMILES IDX 4 16 89 17 5 18 6 19 7 20 2 21 1 22 90 23 17 25 18 26 19 27
REMARK SMILES IDX 20 29 21 30 22 31 86 32 23 33 85 34 24 35 25 36 26 37 79 38
REMARK SMILES IDX 27 39 84 40 78 41 80 42 28 43 83 44 77 45 76 46 29 48 63 49
REMARK SMILES IDX 42 50 62 51 43 52 46 53 61 54 81 55 44 56 45 57 60 59 82 60
REMARK SMILES IDX 47 61 30 62 31 63 40 64 32 65 33 66 39 67 41 68 34 69 35 70
REMARK SMILES IDX 36 71 37 72 38 73 64 74 65 75 74 76 66 77 67 78 73 79 75 80
REMARK SMILES IDX 68 81 69 82 70 83 71 84 72 85 48 86 49 87 58 88 50 89 51 90
REMARK SMILES IDX 57 91 59 92 52 93 53 94 54 95 55 96 56 97
REMARK H PARENT 14 6 10 11 10 12 90 24 18 28 80 47 46 58
REMARK Flexibility Score: inf
ROOT
ATOM      1  C   UNL A   1      38.033  23.001  25.767  1.00  0.00     0.042 C 
ENDROOT
BRANCH   1   2
ATOM      2  C   UNL A   1      36.539  23.297  25.786  1.00  0.00     0.118 C 
BRANCH   2   3
ATOM      3  N   UNL A   1      36.003  23.452  24.449  1.00  0.00    -0.351 N 
ATOM      4  C   UNL A   1      34.798  23.896  23.999  1.00  0.00     0.279 C 
ATOM      5  O   UNL A   1      34.632  23.872  22.773  1.00  0.00    -0.268 OA
ATOM      6  H   UNL A   1      36.625  23.187  23.733  1.00  0.00     0.163 HD
BRANCH   4   7
ATOM      7  C   UNL A   1      33.693  24.466  24.908  1.00  0.00     0.283 C 
ATOM      8  C   UNL A   1      31.915  25.854  23.987  1.00  0.00     0.279 C 
ATOM      9  N   UNL A   1      33.278  25.842  24.535  1.00  0.00    -0.320 N 
ATOM     10  S   UNL A   1      31.066  24.547  24.935  1.00  0.00    -0.087 SA
ATOM     11  H   UNL A   1      33.309  26.435  25.364  1.00  0.00     0.348 HD
ATOM     12  H   UNL A   1      33.916  26.189  23.820  1.00  0.00     0.348 HD
ATOM     13  C   UNL A   1      32.527  23.520  25.128  1.00  0.00     0.151 C 
BRANCH   8  14
ATOM     14  C   UNL A   1      31.274  27.249  23.901  1.00  0.00     0.080 A 
ATOM     15  C   UNL A   1      30.278  29.102  22.586  1.00  0.00     0.161 A 
ATOM     16  C   UNL A   1      30.307  29.953  23.675  1.00  0.00     0.051 A 
ATOM     17  C   UNL A   1      30.805  27.800  22.685  1.00  0.00     0.169 A 
ATOM     18  C   UNL A   1      30.826  29.484  24.874  1.00  0.00     0.020 A 
ATOM     19  C   UNL A   1      31.304  28.163  24.991  1.00  0.00     0.032 A 
ATOM     20  Br  UNL A   1      32.095  27.796  26.691  1.00  0.00    -0.050 Br
BRANCH  15  21
ATOM     21  O   UNL A   1      29.851  29.621  21.388  1.00  0.00    -0.493 OA
ATOM     22  C   UNL A   1      28.756  30.527  21.546  1.00  0.00     0.278 C 
ENDBRANCH  15  21
BRANCH  17  23
ATOM     23  O   UNL A   1      30.957  27.123  21.502  1.00  0.00    -0.504 OA
ATOM     24  H   UNL A   1      31.804  26.825  21.239  1.00  0.00     0.293 HD
ENDBRANCH  17  23
ENDBRANCH   8  14
ENDBRANCH   4   7
ENDBRANCH   2   3
ENDBRANCH   1   2
BRANCH   1  25
ATOM     25  C   UNL A   1      38.861  24.014  26.546  1.00  0.00     0.118 C 
BRANCH  25  26
ATOM     26  N   UNL A   1      40.243  24.055  26.085  1.00  0.00    -0.352 N 
ATOM     27  C   UNL A   1      41.247  24.933  26.394  1.00  0.00     0.251 C 
ATOM     28  H   UNL A   1      40.493  23.342  25.455  1.00  0.00     0.163 HD
ATOM     29  O   UNL A   1      42.282  24.920  25.721  1.00  0.00    -0.269 OA
BRANCH  27  30
ATOM     30  C   UNL A   1      41.105  25.893  27.509  1.00  0.00     0.039 A 
ATOM     31  C   UNL A   1      41.927  27.023  27.536  1.00  0.00     0.014 A 
ATOM     32  C   UNL A   1      40.201  25.663  28.551  1.00  0.00     0.014 A 
ATOM     33  C   UNL A   1      41.812  27.941  28.583  1.00  0.00     0.010 A 
ATOM     34  C   UNL A   1      40.030  26.619  29.548  1.00  0.00     0.010 A 
ATOM     35  C   UNL A   1      40.845  27.760  29.583  1.00  0.00    -0.014 A 
BRANCH  35  36
ATOM     36  C   UNL A   1      40.686  28.740  30.687  1.00  0.00     0.031 A 
ATOM     37  C   UNL A   1      41.536  28.627  31.925  1.00  0.00     0.074 A 
ATOM     38  C   UNL A   1      39.740  29.696  30.597  1.00  0.00     0.049 A 
ATOM     39  N   UNL A   1      41.504  29.346  33.017  1.00  0.00    -0.248 NA
ATOM     40  C   UNL A   1      42.534  27.545  31.951  1.00  0.00     0.031 C 
ATOM     41  C   UNL A   1      38.822  29.872  29.468  1.00  0.00     0.029 A 
ATOM     42  N   UNL A   1      39.386  30.692  31.471  1.00  0.00    -0.354 N 
ATOM     43  C   UNL A   1      42.460  28.795  33.862  1.00  0.00     0.074 A 
ATOM     44  C   UNL A   1      43.018  27.649  33.179  1.00  0.00     0.031 C 
ATOM     45  C   UNL A   1      38.026  30.926  29.709  1.00  0.00     0.029 A 
ATOM     46  C   UNL A   1      38.350  31.477  31.021  1.00  0.00     0.049 A 
ATOM     47  H   UNL A   1      39.830  30.831  32.337  1.00  0.00     0.167 HD
ATOM     48  C   UNL A   1      42.855  29.219  35.087  1.00  0.00     0.037 A 
ATOM     49  C   UNL A   1      37.729  32.521  31.604  1.00  0.00     0.037 A 
ATOM     50  C   UNL A   1      42.313  30.379  35.746  1.00  0.00     0.049 A 
ATOM     51  C   UNL A   1      38.194  32.984  32.958  1.00  0.00     0.074 A 
ATOM     52  C   UNL A   1      42.683  30.931  36.960  1.00  0.00     0.029 A 
ATOM     53  N   UNL A   1      41.286  31.168  35.247  1.00  0.00    -0.354 N 
ATOM     54  N   UNL A   1      39.143  32.488  33.716  1.00  0.00    -0.248 NA
ATOM     55  C   UNL A   1      37.512  34.152  33.531  1.00  0.00     0.031 C 
ATOM     56  C   UNL A   1      41.852  32.028  37.214  1.00  0.00     0.029 A 
ATOM     57  C   UNL A   1      40.999  32.191  36.134  1.00  0.00     0.049 A 
ATOM     58  H   UNL A   1      40.830  31.022  34.386  1.00  0.00     0.167 HD
ATOM     59  C   UNL A   1      39.191  33.300  34.844  1.00  0.00     0.074 A 
ATOM     60  C   UNL A   1      38.184  34.326  34.661  1.00  0.00     0.031 C 
ATOM     61  C   UNL A   1      39.996  33.207  35.931  1.00  0.00     0.037 A 
BRANCH  48  62
ATOM     62  C   UNL A   1      43.926  28.430  35.790  1.00  0.00     0.058 A 
ATOM     63  C   UNL A   1      43.613  27.383  36.671  1.00  0.00     0.135 A 
ATOM     64  C   UNL A   1      45.284  28.700  35.553  1.00  0.00     0.135 A 
ATOM     65  F   UNL A   1      42.332  27.091  36.947  1.00  0.00    -0.206 F 
ATOM     66  C   UNL A   1      44.605  26.653  37.317  1.00  0.00     0.059 A 
ATOM     67  C   UNL A   1      46.294  27.963  36.167  1.00  0.00     0.059 A 
ATOM     68  F   UNL A   1      45.642  29.690  34.720  1.00  0.00    -0.206 F 
ATOM     69  C   UNL A   1      45.944  26.950  37.059  1.00  0.00     0.060 A 
BRANCH  69  70
ATOM     70  S   UNL A   1      47.219  25.988  37.900  1.00  0.00     0.124 S 
ATOM     71  O   UNL A   1      48.425  26.443  37.215  1.00  0.00    -0.237 OA
ATOM     72  O   UNL A   1      47.075  26.422  39.286  1.00  0.00    -0.237 OA
ATOM     73  O   UNL A   1      46.831  24.605  37.635  1.00  0.00    -0.744 OA
ENDBRANCH  69  70
ENDBRANCH  48  62
BRANCH  49  74
ATOM     74  C   UNL A   1      36.619  33.214  30.895  1.00  0.00     0.058 A 
ATOM     75  C   UNL A   1      35.292  33.080  31.330  1.00  0.00     0.135 A 
ATOM     76  C   UNL A   1      36.863  34.037  29.786  1.00  0.00     0.135 A 
ATOM     77  F   UNL A   1      35.007  32.300  32.383  1.00  0.00    -0.206 F 
ATOM     78  C   UNL A   1      34.244  33.722  30.679  1.00  0.00     0.059 A 
ATOM     79  C   UNL A   1      35.835  34.712  29.135  1.00  0.00     0.059 A 
ATOM     80  F   UNL A   1      38.118  34.214  29.343  1.00  0.00    -0.206 F 
ATOM     81  C   UNL A   1      34.526  34.539  29.584  1.00  0.00     0.060 A 
BRANCH  81  82
ATOM     82  S   UNL A   1      33.165  35.410  28.777  1.00  0.00     0.124 S 
ATOM     83  O   UNL A   1      33.878  36.432  28.020  1.00  0.00    -0.237 OA
ATOM     84  O   UNL A   1      32.546  34.348  27.990  1.00  0.00    -0.237 OA
ATOM     85  O   UNL A   1      32.365  35.895  29.898  1.00  0.00    -0.744 OA
ENDBRANCH  81  82
ENDBRANCH  49  74
BRANCH  61  86
ATOM     86  C   UNL A   1      39.848  34.263  36.992  1.00  0.00     0.058 A 
ATOM     87  C   UNL A   1      40.468  35.516  36.879  1.00  0.00     0.135 A 
ATOM     88  C   UNL A   1      39.038  34.029  38.116  1.00  0.00     0.135 A 
ATOM     89  F   UNL A   1      41.258  35.788  35.827  1.00  0.00    -0.206 F 
ATOM     90  C   UNL A   1      40.311  36.494  37.854  1.00  0.00     0.059 A 
ATOM     91  C   UNL A   1      38.844  35.004  39.089  1.00  0.00     0.059 A 
ATOM     92  F   UNL A   1      38.414  32.851  38.267  1.00  0.00    -0.206 F 
ATOM     93  C   UNL A   1      39.495  36.229  38.957  1.00  0.00     0.060 A 
BRANCH  93  94
ATOM     94  S   UNL A   1      39.278  37.516  40.203  1.00  0.00     0.124 S 
ATOM     95  O   UNL A   1      38.865  36.735  41.364  1.00  0.00    -0.237 OA
ATOM     96  O   UNL A   1      40.610  38.108  40.278  1.00  0.00    -0.237 OA
ATOM     97  O   UNL A   1      38.248  38.377  39.626  1.00  0.00    -0.744 OA
ENDBRANCH  93  94
ENDBRANCH  61  86
ENDBRANCH  35  36
ENDBRANCH  27  30
ENDBRANCH  25  26
ENDBRANCH   1  25
TORSDOF 16
ENDMDL
MODEL 2
REMARK VINA RESULT:     -11.8      1.397      2.314
REMARK SMILES COc1ccc(Br)c([C@H]2[NH2+][C@H](C(=O)NCCCNC(=O)c3ccc(-c4c5nc(c(-c6c(F)cc(S(=O)(=O)[O-])cc6F)c6ccc([nH]6)c(-c6c(F)cc(S(=O)(=O)[O-])cc6F)c6nc(c(-c7c(F)cc(S(=O)(=O)[O-])cc7F)c7ccc4[nH]7)C=C6)C=C5)cc3)CS2)c1O
REMARK SMILES IDX 16 1 15 2 14 3 12 4 13 5 11 7 9 8 10 9 88 10 87 13 8 14 3 15
REMARK SMILES IDX 4 16 89 17 5 18 6 19 7 20 2 21 1 22 90 23 17 25 18 26 19 27
REMARK SMILES IDX 20 29 21 30 22 31 86 32 23 33 85 34 24 35 25 36 26 37 79 38
REMARK SMILES IDX 27 39 84 40 78 41 80 42 28 43 83 44 77 45 76 46 29 48 63 49
REMARK SMILES IDX 42 50 62 51 43 52 46 53 61 54 81 55 44 56 45 57 60 59 82 60
REMARK SMILES IDX 47 61 30 62 31 63 40 64 32 65 33 66 39 67 41 68 34 69 35 70
REMARK SMILES IDX 36 71 37 72 38 73 64 74 65 75 74 76 66 77 67 78 73 79 75 80
REMARK SMILES IDX 68 81 69 82 70 83 71 84 72 85 48 86 49 87 58 88 50 89 51 90
REMARK SMILES IDX 57 91 59 92 52 93 53 94 54 95 55 96 56 97
REMARK H PARENT 14 6 10 11 10 12 90 24 18 28 80 47 46 58
REMARK Flexibility Score: inf
ROOT
ATOM      1  C   UNL A   1      38.581  23.547  26.503  1.00  0.00     0.042 C 
ENDROOT
BRANCH   1   2
ATOM      2  C   UNL A   1      38.100  22.276  25.814  1.00  0.00     0.118 C 
BRANCH   2   3
ATOM      3  N   UNL A   1      37.726  22.519  24.435  1.00  0.00    -0.351 N 
ATOM      4  C   UNL A   1      36.516  22.688  23.839  1.00  0.00     0.279 C 
ATOM      5  O   UNL A   1      36.530  22.844  22.611  1.00  0.00    -0.268 OA
ATOM      6  H   UNL A   1      38.490  22.572  23.815  1.00  0.00     0.163 HD
BRANCH   4   7
ATOM      7  C   UNL A   1      35.179  22.754  24.600  1.00  0.00     0.283 C 
ATOM      8  C   UNL A   1      33.394  24.236  23.859  1.00  0.00     0.279 C 
ATOM      9  N   UNL A   1      34.612  24.124  24.672  1.00  0.00    -0.320 N 
ATOM     10  S   UNL A   1      32.619  22.593  24.025  1.00  0.00    -0.087 SA
ATOM     11  H   UNL A   1      34.383  24.339  25.643  1.00  0.00     0.348 HD
ATOM     12  H   UNL A   1      35.303  24.780  24.311  1.00  0.00     0.348 HD
ATOM     13  C   UNL A   1      34.172  21.703  24.170  1.00  0.00     0.151 C 
BRANCH   8  14
ATOM     14  C   UNL A   1      32.551  25.491  24.141  1.00  0.00     0.080 A 
ATOM     15  C   UNL A   1      31.281  26.949  25.696  1.00  0.00     0.161 A 
ATOM     16  C   UNL A   1      30.761  27.690  24.651  1.00  0.00     0.051 A 
ATOM     17  C   UNL A   1      32.109  25.839  25.439  1.00  0.00     0.169 A 
ATOM     18  C   UNL A   1      31.105  27.344  23.351  1.00  0.00     0.020 A 
ATOM     19  C   UNL A   1      31.978  26.267  23.094  1.00  0.00     0.032 A 
ATOM     20  Br  UNL A   1      32.189  25.898  21.231  1.00  0.00    -0.050 Br
BRANCH  15  21
ATOM     21  O   UNL A   1      30.847  27.250  26.963  1.00  0.00    -0.493 OA
ATOM     22  C   UNL A   1      31.728  28.150  27.642  1.00  0.00     0.278 C 
ENDBRANCH  15  21
BRANCH  17  23
ATOM     23  O   UNL A   1      32.371  25.026  26.511  1.00  0.00    -0.504 OA
ATOM     24  H   UNL A   1      31.693  24.827  27.125  1.00  0.00     0.293 HD
ENDBRANCH  17  23
ENDBRANCH   8  14
ENDBRANCH   4   7
ENDBRANCH   2   3
ENDBRANCH   1   2
BRANCH   1  25
ATOM     25  C   UNL A   1      40.017  23.457  27.006  1.00  0.00     0.118 C 
BRANCH  25  26
ATOM     26  N   UNL A   1      40.958  24.057  26.069  1.00  0.00    -0.352 N 
ATOM     27  C   UNL A   1      41.466  25.327  26.027  1.00  0.00     0.251 C 
ATOM     28  H   UNL A   1      41.277  23.457  25.358  1.00  0.00     0.163 HD
ATOM     29  O   UNL A   1      42.078  25.694  25.018  1.00  0.00    -0.269 OA
BRANCH  27  30
ATOM     30  C   UNL A   1      41.286  26.259  27.159  1.00  0.00     0.039 A 
ATOM     31  C   UNL A   1      40.316  25.971  28.124  1.00  0.00     0.014 A 
ATOM     32  C   UNL A   1      42.034  27.437  27.253  1.00  0.00     0.014 A 
ATOM     33  C   UNL A   1      40.127  26.840  29.200  1.00  0.00     0.010 A 
ATOM     34  C   UNL A   1      41.902  28.259  28.368  1.00  0.00     0.010 A 
ATOM     35  C   UNL A   1      40.936  27.978  29.345  1.00  0.00    -0.014 A 
BRANCH  35  36
ATOM     36  C   UNL A   1      40.771  28.898  30.500  1.00  0.00     0.031 A 
ATOM     37  C   UNL A   1      41.635  28.738  31.722  1.00  0.00     0.074 A 
ATOM     38  C   UNL A   1      39.806  29.837  30.467  1.00  0.00     0.049 A 
ATOM     39  N   UNL A   1      41.602  29.399  32.849  1.00  0.00    -0.248 NA
ATOM     40  C   UNL A   1      42.654  27.676  31.682  1.00  0.00     0.031 C 
ATOM     41  C   UNL A   1      38.872  30.053  29.358  1.00  0.00     0.029 A 
ATOM     42  N   UNL A   1      39.442  30.781  31.394  1.00  0.00    -0.354 N 
ATOM     43  C   UNL A   1      42.577  28.825  33.656  1.00  0.00     0.074 A 
ATOM     44  C   UNL A   1      43.150  27.727  32.909  1.00  0.00     0.031 C 
ATOM     45  C   UNL A   1      38.059  31.078  29.660  1.00  0.00     0.029 A 
ATOM     46  C   UNL A   1      38.387  31.568  30.996  1.00  0.00     0.049 A 
ATOM     47  H   UNL A   1      39.893  30.885  32.263  1.00  0.00     0.167 HD
ATOM     48  C   UNL A   1      42.977  29.194  34.897  1.00  0.00     0.037 A 
ATOM     49  C   UNL A   1      37.752  32.568  31.637  1.00  0.00     0.037 A 
ATOM     50  C   UNL A   1      42.420  30.308  35.619  1.00  0.00     0.049 A 
ATOM     51  C   UNL A   1      38.223  32.970  33.009  1.00  0.00     0.074 A 
ATOM     52  C   UNL A   1      42.793  30.805  36.857  1.00  0.00     0.029 A 
ATOM     53  N   UNL A   1      41.373  31.101  35.171  1.00  0.00    -0.354 N 
ATOM     54  N   UNL A   1      39.189  32.455  33.731  1.00  0.00    -0.248 NA
ATOM     55  C   UNL A   1      37.525  34.094  33.648  1.00  0.00     0.031 C 
ATOM     56  C   UNL A   1      41.944  31.870  37.174  1.00  0.00     0.029 A 
ATOM     57  C   UNL A   1      41.076  32.071  36.113  1.00  0.00     0.049 A 
ATOM     58  H   UNL A   1      40.910  30.990  34.309  1.00  0.00     0.167 HD
ATOM     59  C   UNL A   1      39.234  33.210  34.899  1.00  0.00     0.074 A 
ATOM     60  C   UNL A   1      38.206  34.223  34.779  1.00  0.00     0.031 C 
ATOM     61  C   UNL A   1      40.052  33.077  35.972  1.00  0.00     0.037 A 
BRANCH  48  62
ATOM     62  C   UNL A   1      44.070  28.391  35.547  1.00  0.00     0.058 A 
ATOM     63  C   UNL A   1      45.427  28.682  35.334  1.00  0.00     0.135 A 
ATOM     64  C   UNL A   1      43.759  27.337  36.423  1.00  0.00     0.135 A 
ATOM     65  F   UNL A   1      45.783  29.669  34.495  1.00  0.00    -0.206 F 
ATOM     66  C   UNL A   1      46.436  27.940  35.939  1.00  0.00     0.059 A 
ATOM     67  C   UNL A   1      44.753  26.599  37.061  1.00  0.00     0.059 A 
ATOM     68  F   UNL A   1      42.479  27.013  36.663  1.00  0.00    -0.206 F 
ATOM     69  C   UNL A   1      46.089  26.900  36.801  1.00  0.00     0.060 A 
BRANCH  69  70
ATOM     70  S   UNL A   1      47.412  25.952  37.584  1.00  0.00     0.124 S 
ATOM     71  O   UNL A   1      46.661  24.862  38.200  1.00  0.00    -0.237 OA
ATOM     72  O   UNL A   1      48.247  25.582  36.445  1.00  0.00    -0.237 OA
ATOM     73  O   UNL A   1      48.010  26.905  38.513  1.00  0.00    -0.744 OA
ENDBRANCH  69  70
ENDBRANCH  48  62
BRANCH  49  74
ATOM     74  C   UNL A   1      36.622  33.274  30.976  1.00  0.00     0.058 A 
ATOM     75  C   UNL A   1      36.849  34.172  29.923  1.00  0.00     0.135 A 
ATOM     76  C   UNL A   1      35.293  33.052  31.369  1.00  0.00     0.135 A 
ATOM     77  F   UNL A   1      38.102  34.422  29.514  1.00  0.00    -0.206 F 
ATOM     78  C   UNL A   1      35.803  34.839  29.294  1.00  0.00     0.059 A 
ATOM     79  C   UNL A   1      34.227  33.685  30.738  1.00  0.00     0.059 A 
ATOM     80  F   UNL A   1      35.020  32.187  32.359  1.00  0.00    -0.206 F 
ATOM     81  C   UNL A   1      34.494  34.586  29.707  1.00  0.00     0.060 A 
BRANCH  81  82
ATOM     82  S   UNL A   1      33.138  35.417  28.851  1.00  0.00     0.124 S 
ATOM     83  O   UNL A   1      32.374  35.958  29.968  1.00  0.00    -0.237 OA
ATOM     84  O   UNL A   1      33.847  36.394  28.030  1.00  0.00    -0.237 OA
ATOM     85  O   UNL A   1      32.496  34.336  28.109  1.00  0.00    -0.744 OA
ENDBRANCH  81  82
ENDBRANCH  49  74
BRANCH  61  86
ATOM     86  C   UNL A   1      39.896  34.074  37.087  1.00  0.00     0.058 A 
ATOM     87  C   UNL A   1      40.573  35.303  37.080  1.00  0.00     0.135 A 
ATOM     88  C   UNL A   1      39.021  33.812  38.154  1.00  0.00     0.135 A 
ATOM     89  F   UNL A   1      41.426  35.599  36.086  1.00  0.00    -0.206 F 
ATOM     90  C   UNL A   1      40.408  36.228  38.104  1.00  0.00     0.059 A 
ATOM     91  C   UNL A   1      38.819  34.736  39.174  1.00  0.00     0.059 A 
ATOM     92  F   UNL A   1      38.340  32.657  38.203  1.00  0.00    -0.206 F 
ATOM     93  C   UNL A   1      39.528  35.936  39.148  1.00  0.00     0.060 A 
BRANCH  93  94
ATOM     94  S   UNL A   1      39.302  37.156  40.459  1.00  0.00     0.124 S 
ATOM     95  O   UNL A   1      40.680  37.549  40.734  1.00  0.00    -0.237 OA
ATOM     96  O   UNL A   1      38.473  38.165  39.809  1.00  0.00    -0.237 OA
ATOM     97  O   UNL A   1      38.641  36.398  41.518  1.00  0.00    -0.744 OA
ENDBRANCH  93  94
ENDBRANCH  61  86
ENDBRANCH  35  36
ENDBRANCH  27  30
ENDBRANCH  25  26
ENDBRANCH   1  25
TORSDOF 16
ENDMDL
MODEL 3
REMARK VINA RESULT:     -11.8      1.289      1.923
REMARK SMILES COc1ccc(Br)c([C@H]2[NH2+][C@H](C(=O)NCCCNC(=O)c3ccc(-c4c5nc(c(-c6c(F)cc(S(=O)(=O)[O-])cc6F)c6ccc([nH]6)c(-c6c(F)cc(S(=O)(=O)[O-])cc6F)c6nc(c(-c7c(F)cc(S(=O)(=O)[O-])cc7F)c7ccc4[nH]7)C=C6)C=C5)cc3)CS2)c1O
REMARK SMILES IDX 16 1 15 2 14 3 12 4 13 5 11 7 9 8 10 9 88 10 87 13 8 14 3 15
REMARK SMILES IDX 4 16 89 17 5 18 6 19 7 20 2 21 1 22 90 23 17 25 18 26 19 27
REMARK SMILES IDX 20 29 21 30 22 31 86 32 23 33 85 34 24 35 25 36 26 37 79 38
REMARK SMILES IDX 27 39 84 40 78 41 80 42 28 43 83 44 77 45 76 46 29 48 63 49
REMARK SMILES IDX 42 50 62 51 43 52 46 53 61 54 81 55 44 56 45 57 60 59 82 60
REMARK SMILES IDX 47 61 30 62 31 63 40 64 32 65 33 66 39 67 41 68 34 69 35 70
REMARK SMILES IDX 36 71 37 72 38 73 64 74 65 75 74 76 66 77 67 78 73 79 75 80
REMARK SMILES IDX 68 81 69 82 70 83 71 84 72 85 48 86 49 87 58 88 50 89 51 90
REMARK SMILES IDX 57 91 59 92 52 93 53 94 54 95 55 96 56 97
REMARK H PARENT 14 6 10 11 10 12 90 24 18 28 80 47 46 58
REMARK Flexibility Score: inf
ROOT
ATOM      1  C   UNL A   1      37.276  23.506  25.527  1.00  0.00     0.042 C 
ENDROOT
BRANCH   1   2
ATOM      2  C   UNL A   1      36.024  22.946  26.190  1.00  0.00     0.118 C 
BRANCH   2   3
ATOM      3  N   UNL A   1      35.033  22.539  25.215  1.00  0.00    -0.351 N 
ATOM      4  C   UNL A   1      33.699  22.788  25.118  1.00  0.00     0.279 C 
ATOM      5  O   UNL A   1      33.114  22.256  24.167  1.00  0.00    -0.268 OA
ATOM      6  H   UNL A   1      35.391  21.979  24.488  1.00  0.00     0.163 HD
BRANCH   4   7
ATOM      7  C   UNL A   1      32.923  23.720  26.066  1.00  0.00     0.283 C 
ATOM      8  C   UNL A   1      31.833  25.729  25.223  1.00  0.00     0.279 C 
ATOM      9  N   UNL A   1      33.085  25.159  25.737  1.00  0.00    -0.320 N 
ATOM     10  S   UNL A   1      30.545  24.837  26.157  1.00  0.00    -0.087 SA
ATOM     11  H   UNL A   1      33.358  25.664  26.581  1.00  0.00     0.348 HD
ATOM     12  H   UNL A   1      33.800  25.248  25.017  1.00  0.00     0.348 HD
ATOM     13  C   UNL A   1      31.479  23.309  26.289  1.00  0.00     0.151 C 
BRANCH   8  14
ATOM     14  C   UNL A   1      31.798  27.266  25.186  1.00  0.00     0.080 A 
ATOM     15  C   UNL A   1      31.948  29.469  26.319  1.00  0.00     0.161 A 
ATOM     16  C   UNL A   1      31.486  30.130  25.197  1.00  0.00     0.051 A 
ATOM     17  C   UNL A   1      32.044  28.064  26.329  1.00  0.00     0.169 A 
ATOM     18  C   UNL A   1      31.160  29.386  24.071  1.00  0.00     0.020 A 
ATOM     19  C   UNL A   1      31.307  27.984  24.059  1.00  0.00     0.032 A 
ATOM     20  Br  UNL A   1      30.665  27.173  22.453  1.00  0.00    -0.050 Br
BRANCH  15  21
ATOM     21  O   UNL A   1      32.168  30.217  27.449  1.00  0.00    -0.493 OA
ATOM     22  C   UNL A   1      33.431  30.889  27.421  1.00  0.00     0.278 C 
ENDBRANCH  15  21
BRANCH  17  23
ATOM     23  O   UNL A   1      32.271  27.487  27.552  1.00  0.00    -0.504 OA
ATOM     24  H   UNL A   1      32.403  28.026  28.307  1.00  0.00     0.293 HD
ENDBRANCH  17  23
ENDBRANCH   8  14
ENDBRANCH   4   7
ENDBRANCH   2   3
ENDBRANCH   1   2
BRANCH   1  25
ATOM     25  C   UNL A   1      38.202  24.230  26.496  1.00  0.00     0.118 C 
BRANCH  25  26
ATOM     26  N   UNL A   1      39.602  24.092  26.114  1.00  0.00    -0.352 N 
ATOM     27  C   UNL A   1      40.690  24.838  26.480  1.00  0.00     0.251 C 
ATOM     28  H   UNL A   1      39.794  23.349  25.498  1.00  0.00     0.163 HD
ATOM     29  O   UNL A   1      41.751  24.690  25.866  1.00  0.00    -0.269 OA
BRANCH  27  30
ATOM     30  C   UNL A   1      40.608  25.815  27.586  1.00  0.00     0.039 A 
ATOM     31  C   UNL A   1      41.495  26.895  27.600  1.00  0.00     0.014 A 
ATOM     32  C   UNL A   1      39.696  25.648  28.633  1.00  0.00     0.014 A 
ATOM     33  C   UNL A   1      41.438  27.828  28.638  1.00  0.00     0.010 A 
ATOM     34  C   UNL A   1      39.585  26.621  29.622  1.00  0.00     0.010 A 
ATOM     35  C   UNL A   1      40.466  27.713  29.643  1.00  0.00    -0.014 A 
BRANCH  35  36
ATOM     36  C   UNL A   1      40.369  28.712  30.738  1.00  0.00     0.031 A 
ATOM     37  C   UNL A   1      41.253  28.590  31.951  1.00  0.00     0.074 A 
ATOM     38  C   UNL A   1      39.447  29.692  30.664  1.00  0.00     0.049 A 
ATOM     39  N   UNL A   1      41.275  29.323  33.034  1.00  0.00    -0.248 NA
ATOM     40  C   UNL A   1      42.221  27.480  31.960  1.00  0.00     0.031 C 
ATOM     41  C   UNL A   1      38.499  29.880  29.562  1.00  0.00     0.029 A 
ATOM     42  N   UNL A   1      39.148  30.708  31.535  1.00  0.00    -0.354 N 
ATOM     43  C   UNL A   1      42.242  28.756  33.856  1.00  0.00     0.074 A 
ATOM     44  C   UNL A   1      42.746  27.586  33.171  1.00  0.00     0.031 C 
ATOM     45  C   UNL A   1      37.741  30.959  29.813  1.00  0.00     0.029 A 
ATOM     46  C   UNL A   1      38.121  31.517  31.107  1.00  0.00     0.049 A 
ATOM     47  H   UNL A   1      39.623  30.846  32.386  1.00  0.00     0.167 HD
ATOM     48  C   UNL A   1      42.685  29.184  35.062  1.00  0.00     0.037 A 
ATOM     49  C   UNL A   1      37.548  32.585  31.694  1.00  0.00     0.037 A 
ATOM     50  C   UNL A   1      42.197  30.367  35.722  1.00  0.00     0.049 A 
ATOM     51  C   UNL A   1      38.067  33.051  33.028  1.00  0.00     0.074 A 
ATOM     52  C   UNL A   1      42.620  30.923  36.917  1.00  0.00     0.029 A 
ATOM     53  N   UNL A   1      41.178  31.178  35.244  1.00  0.00    -0.354 N 
ATOM     54  N   UNL A   1      39.026  32.539  33.763  1.00  0.00    -0.248 NA
ATOM     55  C   UNL A   1      37.437  34.245  33.606  1.00  0.00     0.031 C 
ATOM     56  C   UNL A   1      41.828  32.046  37.181  1.00  0.00     0.029 A 
ATOM     57  C   UNL A   1      40.946  32.219  36.127  1.00  0.00     0.049 A 
ATOM     58  H   UNL A   1      40.691  31.034  34.400  1.00  0.00     0.167 HD
ATOM     59  C   UNL A   1      39.131  33.363  34.878  1.00  0.00     0.074 A 
ATOM     60  C   UNL A   1      38.148  34.414  34.712  1.00  0.00     0.031 C 
ATOM     61  C   UNL A   1      39.967  33.261  35.941  1.00  0.00     0.037 A 
BRANCH  48  62
ATOM     62  C   UNL A   1      43.756  28.373  35.742  1.00  0.00     0.058 A 
ATOM     63  C   UNL A   1      45.120  28.623  35.525  1.00  0.00     0.135 A 
ATOM     64  C   UNL A   1      43.414  27.356  36.648  1.00  0.00     0.135 A 
ATOM     65  F   UNL A   1      45.504  29.573  34.658  1.00  0.00    -0.206 F 
ATOM     66  C   UNL A   1      46.108  27.874  36.157  1.00  0.00     0.059 A 
ATOM     67  C   UNL A   1      44.387  26.612  37.314  1.00  0.00     0.059 A 
ATOM     68  F   UNL A   1      42.126  27.073  36.894  1.00  0.00    -0.206 F 
ATOM     69  C   UNL A   1      45.731  26.870  37.050  1.00  0.00     0.060 A 
BRANCH  69  70
ATOM     70  S   UNL A   1      47.026  25.913  37.867  1.00  0.00     0.124 S 
ATOM     71  O   UNL A   1      48.226  26.445  37.229  1.00  0.00    -0.237 OA
ATOM     72  O   UNL A   1      46.842  26.272  39.270  1.00  0.00    -0.237 OA
ATOM     73  O   UNL A   1      46.694  24.533  37.527  1.00  0.00    -0.744 OA
ENDBRANCH  69  70
ENDBRANCH  48  62
BRANCH  49  74
ATOM     74  C   UNL A   1      36.436  33.300  31.011  1.00  0.00     0.058 A 
ATOM     75  C   UNL A   1      35.115  33.184  31.469  1.00  0.00     0.135 A 
ATOM     76  C   UNL A   1      36.673  34.127  29.903  1.00  0.00     0.135 A 
ATOM     77  F   UNL A   1      34.837  32.401  32.523  1.00  0.00    -0.206 F 
ATOM     78  C   UNL A   1      34.065  33.847  30.843  1.00  0.00     0.059 A 
ATOM     79  C   UNL A   1      35.644  34.822  29.276  1.00  0.00     0.059 A 
ATOM     80  F   UNL A   1      37.922  34.287  29.438  1.00  0.00    -0.206 F 
ATOM     81  C   UNL A   1      34.341  34.668  29.747  1.00  0.00     0.060 A 
BRANCH  81  82
ATOM     82  S   UNL A   1      32.979  35.565  28.972  1.00  0.00     0.124 S 
ATOM     83  O   UNL A   1      32.167  35.924  30.129  1.00  0.00    -0.237 OA
ATOM     84  O   UNL A   1      33.674  36.666  28.313  1.00  0.00    -0.237 OA
ATOM     85  O   UNL A   1      32.394  34.575  28.071  1.00  0.00    -0.744 OA
ENDBRANCH  81  82
ENDBRANCH  49  74
BRANCH  61  86
ATOM     86  C   UNL A   1      39.881  34.334  36.992  1.00  0.00     0.058 A 
ATOM     87  C   UNL A   1      40.517  35.574  36.834  1.00  0.00     0.135 A 
ATOM     88  C   UNL A   1      39.115  34.130  38.151  1.00  0.00     0.135 A 
ATOM     89  F   UNL A   1      41.267  35.817  35.747  1.00  0.00    -0.206 F 
ATOM     90  C   UNL A   1      40.418  36.568  37.801  1.00  0.00     0.059 A 
ATOM     91  C   UNL A   1      38.978  35.121  39.117  1.00  0.00     0.059 A 
ATOM     92  F   UNL A   1      38.477  32.966  38.345  1.00  0.00    -0.206 F 
ATOM     93  C   UNL A   1      39.645  36.333  38.941  1.00  0.00     0.060 A 
BRANCH  93  94
ATOM     94  S   UNL A   1      39.502  37.641  40.176  1.00  0.00     0.124 S 
ATOM     95  O   UNL A   1      40.877  38.119  40.258  1.00  0.00    -0.237 OA
ATOM     96  O   UNL A   1      38.548  38.555  39.556  1.00  0.00    -0.237 OA
ATOM     97  O   UNL A   1      39.009  36.938  41.358  1.00  0.00    -0.744 OA
ENDBRANCH  93  94
ENDBRANCH  61  86
ENDBRANCH  35  36
ENDBRANCH  27  30
ENDBRANCH  25  26
ENDBRANCH   1  25
TORSDOF 16
ENDMDL
