MODEL 1
REMARK VINA RESULT:     -13.5      0.000      0.000
REMARK SMILES O=C(NCCCNC(=O)[C@@H](Cc1ccccc1)/N=C1\C(=O)c2ccccc2C(=O)[C@H]1Cl)c1ccc(-c2c3nc(c(-c4c(F)cc(S(=O)(=O)[O-])cc4F)c4ccc([nH]4)c(-c4c(F)cc(S(=O)(=O)[O-])cc4F)c4nc(c(-c5c(F)cc(S(=O)(=O)[O-])cc5F)c5ccc2[nH]5)C=C4)C=C3)cc1
REMARK SMILES IDX 4 1 3 2 1 3 2 4 32 6 33 7 97 8 34 9 96 10 35 11 36 12 37 13
REMARK SMILES IDX 90 14 38 15 95 16 89 17 91 18 39 19 94 20 88 21 87 22 40 24
REMARK SMILES IDX 74 25 53 26 73 27 54 28 57 29 72 30 92 31 55 32 56 33 71 35
REMARK SMILES IDX 93 36 58 37 41 38 42 39 51 40 43 41 44 42 50 43 52 44 45 45
REMARK SMILES IDX 46 46 47 47 48 48 49 49 75 50 76 51 85 52 77 53 78 54 84 55
REMARK SMILES IDX 86 56 79 57 80 58 81 59 82 60 83 61 59 62 60 63 69 64 61 65
REMARK SMILES IDX 62 66 68 67 70 68 63 69 64 70 65 71 66 72 67 73 5 74 6 75
REMARK SMILES IDX 7 76 8 77 9 79 10 80 11 81 12 82 13 83 17 84 14 85 16 86
REMARK SMILES IDX 15 87 18 88 19 89 20 90 30 91 21 92 22 93 28 94 31 95 23 96
REMARK SMILES IDX 27 97 29 98 24 99 26 100 25 101
REMARK H PARENT 3 5 91 23 57 34 7 78
REMARK Flexibility Score: inf
ROOT
ATOM      1  C   UNL A   1      39.392  23.342  26.906  1.00  0.00     0.118 C 
ENDROOT
BRANCH   1   2
ATOM      2  N   UNL A   1      40.103  24.296  26.068  1.00  0.00    -0.352 N 
ATOM      3  O   UNL A   1      41.013  26.106  25.206  1.00  0.00    -0.269 OA
ATOM      4  C   UNL A   1      40.589  25.565  26.232  1.00  0.00     0.251 C 
ATOM      5  H   UNL A   1      40.278  23.943  25.165  1.00  0.00     0.163 HD
BRANCH   4   6
ATOM      6  C   UNL A   1      40.649  26.323  27.521  1.00  0.00     0.039 A 
ATOM      7  C   UNL A   1      41.593  27.292  27.860  1.00  0.00     0.014 A 
ATOM      8  C   UNL A   1      39.623  26.055  28.452  1.00  0.00     0.014 A 
ATOM      9  C   UNL A   1      41.511  27.985  29.074  1.00  0.00     0.010 A 
ATOM     10  C   UNL A   1      39.521  26.761  29.658  1.00  0.00     0.010 A 
ATOM     11  C   UNL A   1      40.461  27.744  29.968  1.00  0.00    -0.014 A 
BRANCH  11  12
ATOM     12  C   UNL A   1      40.300  28.626  31.146  1.00  0.00     0.031 A 
ATOM     13  C   UNL A   1      41.199  28.516  32.337  1.00  0.00     0.074 A 
ATOM     14  C   UNL A   1      39.348  29.577  31.103  1.00  0.00     0.049 A 
ATOM     15  N   UNL A   1      41.293  29.317  33.368  1.00  0.00    -0.248 NA
ATOM     16  C   UNL A   1      42.104  27.360  32.380  1.00  0.00     0.031 C 
ATOM     17  C   UNL A   1      38.387  29.756  30.012  1.00  0.00     0.029 A 
ATOM     18  N   UNL A   1      39.054  30.586  31.982  1.00  0.00    -0.354 N 
ATOM     19  C   UNL A   1      42.265  28.764  34.189  1.00  0.00     0.074 A 
ATOM     20  C   UNL A   1      42.726  27.553  33.538  1.00  0.00     0.031 C 
ATOM     21  C   UNL A   1      37.637  30.840  30.266  1.00  0.00     0.029 A 
ATOM     22  C   UNL A   1      38.072  31.432  31.528  1.00  0.00     0.049 A 
ATOM     23  H   UNL A   1      39.501  30.695  32.852  1.00  0.00     0.167 HD
ATOM     24  C   UNL A   1      42.731  29.227  35.373  1.00  0.00     0.037 A 
ATOM     25  C   UNL A   1      37.599  32.579  32.049  1.00  0.00     0.037 A 
ATOM     26  C   UNL A   1      42.277  30.429  36.022  1.00  0.00     0.049 A 
ATOM     27  C   UNL A   1      38.184  33.114  33.319  1.00  0.00     0.074 A 
ATOM     28  C   UNL A   1      42.695  30.976  37.224  1.00  0.00     0.029 A 
ATOM     29  N   UNL A   1      41.300  31.276  35.519  1.00  0.00    -0.354 N 
ATOM     30  N   UNL A   1      39.135  32.604  34.062  1.00  0.00    -0.248 NA
ATOM     31  C   UNL A   1      37.644  34.388  33.810  1.00  0.00     0.031 C 
ATOM     32  C   UNL A   1      41.969  32.155  37.447  1.00  0.00     0.029 A 
ATOM     33  C   UNL A   1      41.104  32.342  36.381  1.00  0.00     0.049 A 
ATOM     34  H   UNL A   1      40.817  31.138  34.673  1.00  0.00     0.167 HD
ATOM     35  C   UNL A   1      39.312  33.495  35.111  1.00  0.00     0.074 A 
ATOM     36  C   UNL A   1      38.375  34.582  34.902  1.00  0.00     0.031 C 
ATOM     37  C   UNL A   1      40.172  33.417  36.155  1.00  0.00     0.037 A 
BRANCH  24  38
ATOM     38  C   UNL A   1      43.797  28.413  36.039  1.00  0.00     0.058 A 
ATOM     39  C   UNL A   1      45.155  28.714  35.858  1.00  0.00     0.135 A 
ATOM     40  C   UNL A   1      43.463  27.320  36.852  1.00  0.00     0.135 A 
ATOM     41  F   UNL A   1      45.519  29.741  35.075  1.00  0.00    -0.206 F 
ATOM     42  C   UNL A   1      46.152  27.942  36.443  1.00  0.00     0.059 A 
ATOM     43  C   UNL A   1      44.444  26.536  37.450  1.00  0.00     0.059 A 
ATOM     44  F   UNL A   1      42.177  26.989  37.045  1.00  0.00    -0.206 F 
ATOM     45  C   UNL A   1      45.787  26.844  37.225  1.00  0.00     0.060 A 
BRANCH  45  46
ATOM     46  S   UNL A   1      47.074  25.810  37.955  1.00  0.00     0.124 S 
ATOM     47  O   UNL A   1      48.263  26.620  37.713  1.00  0.00    -0.237 OA
ATOM     48  O   UNL A   1      46.656  25.704  39.349  1.00  0.00    -0.237 OA
ATOM     49  O   UNL A   1      46.982  24.575  37.182  1.00  0.00    -0.744 OA
ENDBRANCH  45  46
ENDBRANCH  24  38
BRANCH  25  50
ATOM     50  C   UNL A   1      36.558  33.325  31.309  1.00  0.00     0.058 A 
ATOM     51  C   UNL A   1      36.872  33.984  30.112  1.00  0.00     0.135 A 
ATOM     52  C   UNL A   1      35.224  33.319  31.735  1.00  0.00     0.135 A 
ATOM     53  F   UNL A   1      38.138  34.004  29.669  1.00  0.00    -0.206 F 
ATOM     54  C   UNL A   1      35.890  34.605  29.348  1.00  0.00     0.059 A 
ATOM     55  C   UNL A   1      34.225  33.929  30.986  1.00  0.00     0.059 A 
ATOM     56  F   UNL A   1      34.884  32.687  32.868  1.00  0.00    -0.206 F 
ATOM     57  C   UNL A   1      34.568  34.567  29.792  1.00  0.00     0.060 A 
BRANCH  57  58
ATOM     58  S   UNL A   1      33.260  35.270  28.763  1.00  0.00     0.124 S 
ATOM     59  O   UNL A   1      32.390  35.871  29.766  1.00  0.00    -0.237 OA
ATOM     60  O   UNL A   1      33.987  36.205  27.907  1.00  0.00    -0.237 OA
ATOM     61  O   UNL A   1      32.729  34.095  28.078  1.00  0.00    -0.744 OA
ENDBRANCH  57  58
ENDBRANCH  25  50
BRANCH  37  62
ATOM     62  C   UNL A   1      40.131  34.541  37.143  1.00  0.00     0.058 A 
ATOM     63  C   UNL A   1      39.202  34.543  38.195  1.00  0.00     0.135 A 
ATOM     64  C   UNL A   1      41.017  35.622  37.038  1.00  0.00     0.135 A 
ATOM     65  F   UNL A   1      38.331  33.531  38.329  1.00  0.00    -0.206 F 
ATOM     66  C   UNL A   1      39.141  35.594  39.104  1.00  0.00     0.059 A 
ATOM     67  C   UNL A   1      40.977  36.682  37.939  1.00  0.00     0.059 A 
ATOM     68  F   UNL A   1      41.919  35.663  36.045  1.00  0.00    -0.206 F 
ATOM     69  C   UNL A   1      40.027  36.664  38.961  1.00  0.00     0.060 A 
BRANCH  69  70
ATOM     70  S   UNL A   1      39.963  38.036  40.134  1.00  0.00     0.124 S 
ATOM     71  O   UNL A   1      38.759  38.736  39.697  1.00  0.00    -0.237 OA
ATOM     72  O   UNL A   1      39.869  37.362  41.425  1.00  0.00    -0.237 OA
ATOM     73  O   UNL A   1      41.223  38.732  39.890  1.00  0.00    -0.744 OA
ENDBRANCH  69  70
ENDBRANCH  37  62
ENDBRANCH  11  12
ENDBRANCH   4   6
ENDBRANCH   1   2
BRANCH   1  74
ATOM     74  C   UNL A   1      38.570  22.346  26.086  1.00  0.00     0.042 C 
BRANCH  74  75
ATOM     75  C   UNL A   1      37.220  22.908  25.656  1.00  0.00     0.117 C 
BRANCH  75  76
ATOM     76  N   UNL A   1      36.174  22.711  26.632  1.00  0.00    -0.354 N 
ATOM     77  C   UNL A   1      34.971  22.092  26.485  1.00  0.00     0.245 C 
ATOM     78  H   UNL A   1      36.357  23.075  27.528  1.00  0.00     0.163 HD
ATOM     79  O   UNL A   1      34.444  21.668  27.524  1.00  0.00    -0.273 OA
BRANCH  77  80
ATOM     80  C   UNL A   1      34.231  21.969  25.143  1.00  0.00     0.199 C 
BRANCH  80  81
ATOM     81  C   UNL A   1      34.489  20.738  24.244  1.00  0.00     0.073 C 
BRANCH  81  82
ATOM     82  C   UNL A   1      34.073  19.353  24.694  1.00  0.00    -0.045 A 
ATOM     83  C   UNL A   1      34.843  18.237  24.330  1.00  0.00     0.004 A 
ATOM     84  C   UNL A   1      32.877  19.130  25.390  1.00  0.00     0.004 A 
ATOM     85  C   UNL A   1      34.482  16.950  24.734  1.00  0.00     0.000 A 
ATOM     86  C   UNL A   1      32.513  17.843  25.795  1.00  0.00     0.000 A 
ATOM     87  C   UNL A   1      33.323  16.756  25.480  1.00  0.00     0.000 A 
ENDBRANCH  81  82
ENDBRANCH  80  81
BRANCH  80  88
ATOM     88  N   UNL A   1      32.878  22.527  25.045  1.00  0.00    -0.270 NA
ATOM     89  C   UNL A   1      32.454  23.711  24.805  1.00  0.00     0.109 C 
ATOM     90  C   UNL A   1      33.254  24.954  24.556  1.00  0.00     0.209 C 
ATOM     91  C   UNL A   1      30.983  23.994  24.927  1.00  0.00     0.205 C 
ATOM     92  O   UNL A   1      34.021  25.033  23.615  1.00  0.00    -0.287 OA
ATOM     93  C   UNL A   1      32.965  26.082  25.460  1.00  0.00     0.035 A 
ATOM     94  C   UNL A   1      30.697  25.097  25.920  1.00  0.00     0.187 C 
ATOM     95  Cl  UNL A   1      30.336  24.473  23.342  1.00  0.00    -0.107 Cl
ATOM     96  C   UNL A   1      33.904  27.107  25.617  1.00  0.00     0.013 A 
ATOM     97  C   UNL A   1      31.754  26.120  26.158  1.00  0.00     0.031 A 
ATOM     98  O   UNL A   1      29.615  25.197  26.494  1.00  0.00    -0.292 OA
ATOM     99  C   UNL A   1      33.655  28.142  26.517  1.00  0.00     0.001 A 
ATOM    100  C   UNL A   1      31.508  27.166  27.055  1.00  0.00     0.012 A 
ATOM    101  C   UNL A   1      32.463  28.168  27.241  1.00  0.00     0.001 A 
ENDBRANCH  80  88
ENDBRANCH  77  80
ENDBRANCH  75  76
ENDBRANCH  74  75
ENDBRANCH   1  74
TORSDOF 16
ENDMDL
MODEL 2
REMARK VINA RESULT:     -13.3      5.552     10.318
REMARK SMILES O=C(NCCCNC(=O)[C@@H](Cc1ccccc1)/N=C1\C(=O)c2ccccc2C(=O)[C@H]1Cl)c1ccc(-c2c3nc(c(-c4c(F)cc(S(=O)(=O)[O-])cc4F)c4ccc([nH]4)c(-c4c(F)cc(S(=O)(=O)[O-])cc4F)c4nc(c(-c5c(F)cc(S(=O)(=O)[O-])cc5F)c5ccc2[nH]5)C=C4)C=C3)cc1
REMARK SMILES IDX 4 1 3 2 1 3 2 4 32 6 33 7 97 8 34 9 96 10 35 11 36 12 37 13
REMARK SMILES IDX 90 14 38 15 95 16 89 17 91 18 39 19 94 20 88 21 87 22 40 24
REMARK SMILES IDX 74 25 53 26 73 27 54 28 57 29 72 30 92 31 55 32 56 33 71 35
REMARK SMILES IDX 93 36 58 37 41 38 42 39 51 40 43 41 44 42 50 43 52 44 45 45
REMARK SMILES IDX 46 46 47 47 48 48 49 49 75 50 76 51 85 52 77 53 78 54 84 55
REMARK SMILES IDX 86 56 79 57 80 58 81 59 82 60 83 61 59 62 60 63 69 64 61 65
REMARK SMILES IDX 62 66 68 67 70 68 63 69 64 70 65 71 66 72 67 73 5 74 6 75
REMARK SMILES IDX 7 76 8 77 9 79 10 80 11 81 12 82 13 83 17 84 14 85 16 86
REMARK SMILES IDX 15 87 18 88 19 89 20 90 30 91 21 92 22 93 28 94 31 95 23 96
REMARK SMILES IDX 27 97 29 98 24 99 26 100 25 101
REMARK H PARENT 3 5 91 23 57 34 7 78
REMARK Flexibility Score: inf
ROOT
ATOM      1  C   UNL A   1      33.444  28.966  27.223  1.00  0.00     0.118 C 
ENDROOT
BRANCH   1   2
ATOM      2  N   UNL A   1      33.701  30.222  27.910  1.00  0.00    -0.352 N 
ATOM      3  O   UNL A   1      34.538  31.833  29.156  1.00  0.00    -0.269 OA
ATOM      4  C   UNL A   1      34.771  30.777  28.560  1.00  0.00     0.251 C 
ATOM      5  H   UNL A   1      32.916  30.818  27.907  1.00  0.00     0.163 HD
BRANCH   4   6
ATOM      6  C   UNL A   1      36.160  30.221  28.599  1.00  0.00     0.039 A 
ATOM      7  C   UNL A   1      37.065  30.201  27.538  1.00  0.00     0.014 A 
ATOM      8  C   UNL A   1      36.596  29.714  29.841  1.00  0.00     0.014 A 
ATOM      9  C   UNL A   1      38.367  29.712  27.710  1.00  0.00     0.010 A 
ATOM     10  C   UNL A   1      37.904  29.245  30.027  1.00  0.00     0.010 A 
ATOM     11  C   UNL A   1      38.803  29.257  28.960  1.00  0.00    -0.014 A 
BRANCH  11  12
ATOM     12  C   UNL A   1      40.233  28.929  29.149  1.00  0.00     0.031 A 
ATOM     13  C   UNL A   1      40.796  27.605  28.737  1.00  0.00     0.074 A 
ATOM     14  C   UNL A   1      41.041  29.877  29.660  1.00  0.00     0.049 A 
ATOM     15  N   UNL A   1      42.048  27.230  28.683  1.00  0.00    -0.248 NA
ATOM     16  C   UNL A   1      39.833  26.570  28.339  1.00  0.00     0.031 C 
ATOM     17  C   UNL A   1      40.600  31.192  30.133  1.00  0.00     0.029 A 
ATOM     18  N   UNL A   1      42.399  29.893  29.836  1.00  0.00    -0.354 N 
ATOM     19  C   UNL A   1      42.030  25.913  28.248  1.00  0.00     0.074 A 
ATOM     20  C   UNL A   1      40.639  25.551  28.060  1.00  0.00     0.031 C 
ATOM     21  C   UNL A   1      41.674  31.904  30.505  1.00  0.00     0.029 A 
ATOM     22  C   UNL A   1      42.874  31.100  30.288  1.00  0.00     0.049 A 
ATOM     23  H   UNL A   1      42.978  29.117  29.657  1.00  0.00     0.167 HD
ATOM     24  C   UNL A   1      43.078  25.084  28.024  1.00  0.00     0.037 A 
ATOM     25  C   UNL A   1      44.137  31.528  30.470  1.00  0.00     0.037 A 
ATOM     26  C   UNL A   1      44.460  25.439  28.209  1.00  0.00     0.049 A 
ATOM     27  C   UNL A   1      45.283  30.622  30.140  1.00  0.00     0.074 A 
ATOM     28  C   UNL A   1      45.590  24.663  28.004  1.00  0.00     0.029 A 
ATOM     29  N   UNL A   1      44.905  26.680  28.641  1.00  0.00    -0.354 N 
ATOM     30  N   UNL A   1      45.251  29.393  29.687  1.00  0.00    -0.248 NA
ATOM     31  C   UNL A   1      46.632  31.167  30.330  1.00  0.00     0.031 C 
ATOM     32  C   UNL A   1      46.717  25.437  28.313  1.00  0.00     0.029 A 
ATOM     33  C   UNL A   1      46.289  26.695  28.705  1.00  0.00     0.049 A 
ATOM     34  H   UNL A   1      44.322  27.439  28.870  1.00  0.00     0.167 HD
ATOM     35  C   UNL A   1      46.578  29.015  29.533  1.00  0.00     0.074 A 
ATOM     36  C   UNL A   1      47.387  30.149  29.935  1.00  0.00     0.031 C 
ATOM     37  C   UNL A   1      47.078  27.832  29.101  1.00  0.00     0.037 A 
BRANCH  24  38
ATOM     38  C   UNL A   1      42.751  23.702  27.550  1.00  0.00     0.058 A 
ATOM     39  C   UNL A   1      42.537  22.658  28.462  1.00  0.00     0.135 A 
ATOM     40  C   UNL A   1      42.663  23.414  26.180  1.00  0.00     0.135 A 
ATOM     41  F   UNL A   1      42.627  22.885  29.781  1.00  0.00    -0.206 F 
ATOM     42  C   UNL A   1      42.269  21.363  28.030  1.00  0.00     0.059 A 
ATOM     43  C   UNL A   1      42.392  22.128  25.726  1.00  0.00     0.059 A 
ATOM     44  F   UNL A   1      42.870  24.380  25.272  1.00  0.00    -0.206 F 
ATOM     45  C   UNL A   1      42.215  21.104  26.659  1.00  0.00     0.060 A 
BRANCH  45  46
ATOM     46  S   UNL A   1      41.909  19.419  26.087  1.00  0.00     0.124 S 
ATOM     47  O   UNL A   1      42.763  19.361  24.905  1.00  0.00    -0.237 OA
ATOM     48  O   UNL A   1      42.341  18.607  27.219  1.00  0.00    -0.237 OA
ATOM     49  O   UNL A   1      40.472  19.415  25.830  1.00  0.00    -0.744 OA
ENDBRANCH  45  46
ENDBRANCH  24  38
BRANCH  25  50
ATOM     50  C   UNL A   1      44.362  32.917  30.924  1.00  0.00     0.058 A 
ATOM     51  C   UNL A   1      44.422  33.966  29.997  1.00  0.00     0.135 A 
ATOM     52  C   UNL A   1      44.435  33.229  32.287  1.00  0.00     0.135 A 
ATOM     53  F   UNL A   1      44.347  33.706  28.683  1.00  0.00    -0.206 F 
ATOM     54  C   UNL A   1      44.531  35.290  30.407  1.00  0.00     0.059 A 
ATOM     55  C   UNL A   1      44.541  34.545  32.722  1.00  0.00     0.059 A 
ATOM     56  F   UNL A   1      44.369  32.252  33.204  1.00  0.00    -0.206 F 
ATOM     57  C   UNL A   1      44.585  35.569  31.774  1.00  0.00     0.060 A 
BRANCH  57  58
ATOM     58  S   UNL A   1      44.616  37.287  32.334  1.00  0.00     0.124 S 
ATOM     59  O   UNL A   1      43.469  37.321  33.233  1.00  0.00    -0.237 OA
ATOM     60  O   UNL A   1      45.927  37.398  32.968  1.00  0.00    -0.237 OA
ATOM     61  O   UNL A   1      44.471  38.030  31.085  1.00  0.00    -0.744 OA
ENDBRANCH  57  58
ENDBRANCH  25  50
BRANCH  37  62
ATOM     62  C   UNL A   1      48.570  27.717  29.045  1.00  0.00     0.058 A 
ATOM     63  C   UNL A   1      49.277  28.070  27.886  1.00  0.00     0.135 A 
ATOM     64  C   UNL A   1      49.296  27.249  30.149  1.00  0.00     0.135 A 
ATOM     65  F   UNL A   1      48.620  28.516  26.803  1.00  0.00    -0.206 F 
ATOM     66  C   UNL A   1      50.661  27.946  27.816  1.00  0.00     0.059 A 
ATOM     67  C   UNL A   1      50.681  27.121  30.103  1.00  0.00     0.059 A 
ATOM     68  F   UNL A   1      48.660  26.896  31.277  1.00  0.00    -0.206 F 
ATOM     69  C   UNL A   1      51.353  27.460  28.927  1.00  0.00     0.060 A 
BRANCH  69  70
ATOM     70  S   UNL A   1      53.150  27.294  28.856  1.00  0.00     0.124 S 
ATOM     71  O   UNL A   1      53.562  28.680  28.655  1.00  0.00    -0.237 OA
ATOM     72  O   UNL A   1      53.480  26.720  30.157  1.00  0.00    -0.237 OA
ATOM     73  O   UNL A   1      53.350  26.403  27.717  1.00  0.00    -0.744 OA
ENDBRANCH  69  70
ENDBRANCH  37  62
ENDBRANCH  11  12
ENDBRANCH   4   6
ENDBRANCH   1   2
BRANCH   1  74
ATOM     74  C   UNL A   1      32.239  29.051  26.285  1.00  0.00     0.042 C 
BRANCH  74  75
ATOM     75  C   UNL A   1      32.633  29.363  24.846  1.00  0.00     0.117 C 
BRANCH  75  76
ATOM     76  N   UNL A   1      33.366  28.298  24.203  1.00  0.00    -0.354 N 
ATOM     77  C   UNL A   1      32.918  27.354  23.331  1.00  0.00     0.245 C 
ATOM     78  H   UNL A   1      34.323  28.247  24.426  1.00  0.00     0.163 HD
ATOM     79  O   UNL A   1      33.772  26.838  22.596  1.00  0.00    -0.273 OA
BRANCH  77  80
ATOM     80  C   UNL A   1      31.461  26.867  23.274  1.00  0.00     0.199 C 
BRANCH  80  81
ATOM     81  C   UNL A   1      30.489  27.495  22.249  1.00  0.00     0.073 C 
BRANCH  81  82
ATOM     82  C   UNL A   1      29.515  28.576  22.670  1.00  0.00    -0.045 A 
ATOM     83  C   UNL A   1      28.180  28.245  22.951  1.00  0.00     0.004 A 
ATOM     84  C   UNL A   1      29.879  29.929  22.699  1.00  0.00     0.004 A 
ATOM     85  C   UNL A   1      27.264  29.222  23.344  1.00  0.00     0.000 A 
ATOM     86  C   UNL A   1      28.964  30.909  23.091  1.00  0.00     0.000 A 
ATOM     87  C   UNL A   1      27.660  30.553  23.428  1.00  0.00     0.000 A 
ENDBRANCH  81  82
ENDBRANCH  80  81
BRANCH  80  88
ATOM     88  N   UNL A   1      31.188  25.461  23.595  1.00  0.00    -0.270 NA
ATOM     89  C   UNL A   1      31.750  24.640  24.401  1.00  0.00     0.109 C 
ATOM     90  C   UNL A   1      32.930  24.875  25.294  1.00  0.00     0.209 C 
ATOM     91  C   UNL A   1      31.324  23.200  24.385  1.00  0.00     0.205 C 
ATOM     92  O   UNL A   1      32.903  25.721  26.168  1.00  0.00    -0.287 OA
ATOM     93  C   UNL A   1      34.061  23.949  25.103  1.00  0.00     0.035 A 
ATOM     94  C   UNL A   1      32.479  22.268  24.104  1.00  0.00     0.187 C 
ATOM     95  Cl  UNL A   1      30.616  22.772  25.959  1.00  0.00    -0.107 Cl
ATOM     96  C   UNL A   1      35.339  24.309  25.543  1.00  0.00     0.013 A 
ATOM     97  C   UNL A   1      33.850  22.715  24.480  1.00  0.00     0.031 A 
ATOM     98  O   UNL A   1      32.317  21.148  23.624  1.00  0.00    -0.292 OA
ATOM     99  C   UNL A   1      36.419  23.459  25.308  1.00  0.00     0.001 A 
ATOM    100  C   UNL A   1      34.938  21.863  24.253  1.00  0.00     0.012 A 
ATOM    101  C   UNL A   1      36.219  22.241  24.657  1.00  0.00     0.001 A 
ENDBRANCH  80  88
ENDBRANCH  77  80
ENDBRANCH  75  76
ENDBRANCH  74  75
ENDBRANCH   1  74
TORSDOF 16
ENDMDL
MODEL 3
REMARK VINA RESULT:     -13.3      6.127      8.093
REMARK SMILES O=C(NCCCNC(=O)[C@@H](Cc1ccccc1)/N=C1\C(=O)c2ccccc2C(=O)[C@H]1Cl)c1ccc(-c2c3nc(c(-c4c(F)cc(S(=O)(=O)[O-])cc4F)c4ccc([nH]4)c(-c4c(F)cc(S(=O)(=O)[O-])cc4F)c4nc(c(-c5c(F)cc(S(=O)(=O)[O-])cc5F)c5ccc2[nH]5)C=C4)C=C3)cc1
REMARK SMILES IDX 4 1 3 2 1 3 2 4 32 6 33 7 97 8 34 9 96 10 35 11 36 12 37 13
REMARK SMILES IDX 90 14 38 15 95 16 89 17 91 18 39 19 94 20 88 21 87 22 40 24
REMARK SMILES IDX 74 25 53 26 73 27 54 28 57 29 72 30 92 31 55 32 56 33 71 35
REMARK SMILES IDX 93 36 58 37 41 38 42 39 51 40 43 41 44 42 50 43 52 44 45 45
REMARK SMILES IDX 46 46 47 47 48 48 49 49 75 50 76 51 85 52 77 53 78 54 84 55
REMARK SMILES IDX 86 56 79 57 80 58 81 59 82 60 83 61 59 62 60 63 69 64 61 65
REMARK SMILES IDX 62 66 68 67 70 68 63 69 64 70 65 71 66 72 67 73 5 74 6 75
REMARK SMILES IDX 7 76 8 77 9 79 10 80 11 81 12 82 13 83 17 84 14 85 16 86
REMARK SMILES IDX 15 87 18 88 19 89 20 90 30 91 21 92 22 93 28 94 31 95 23 96
REMARK SMILES IDX 27 97 29 98 24 99 26 100 25 101
REMARK H PARENT 3 5 91 23 57 34 7 78
REMARK Flexibility Score: inf
ROOT
ATOM      1  C   UNL A   1      38.545  20.952  25.910  1.00  0.00     0.118 C 
ENDROOT
BRANCH   1   2
ATOM      2  N   UNL A   1      39.627  19.980  25.962  1.00  0.00    -0.352 N 
ATOM      3  O   UNL A   1      41.583  18.969  25.921  1.00  0.00    -0.269 OA
ATOM      4  C   UNL A   1      40.991  20.044  26.063  1.00  0.00     0.251 C 
ATOM      5  H   UNL A   1      39.299  19.053  25.913  1.00  0.00     0.163 HD
BRANCH   4   6
ATOM      6  C   UNL A   1      41.796  21.278  26.330  1.00  0.00     0.039 A 
ATOM      7  C   UNL A   1      42.224  22.200  25.376  1.00  0.00     0.014 A 
ATOM      8  C   UNL A   1      42.105  21.542  27.681  1.00  0.00     0.014 A 
ATOM      9  C   UNL A   1      42.918  23.357  25.753  1.00  0.00     0.010 A 
ATOM     10  C   UNL A   1      42.778  22.709  28.068  1.00  0.00     0.010 A 
ATOM     11  C   UNL A   1      43.176  23.632  27.101  1.00  0.00    -0.014 A 
BRANCH  11  12
ATOM     12  C   UNL A   1      43.739  24.949  27.473  1.00  0.00     0.031 A 
ATOM     13  C   UNL A   1      45.172  25.292  27.211  1.00  0.00     0.074 A 
ATOM     14  C   UNL A   1      42.913  25.864  28.013  1.00  0.00     0.049 A 
ATOM     15  N   UNL A   1      45.770  26.450  27.325  1.00  0.00    -0.248 NA
ATOM     16  C   UNL A   1      46.046  24.197  26.769  1.00  0.00     0.031 C 
ATOM     17  C   UNL A   1      41.506  25.632  28.350  1.00  0.00     0.029 A 
ATOM     18  N   UNL A   1      43.127  27.177  28.343  1.00  0.00    -0.354 N 
ATOM     19  C   UNL A   1      47.093  26.230  26.973  1.00  0.00     0.074 A 
ATOM     20  C   UNL A   1      47.212  24.821  26.649  1.00  0.00     0.031 C 
ATOM     21  C   UNL A   1      40.971  26.778  28.799  1.00  0.00     0.029 A 
ATOM     22  C   UNL A   1      41.993  27.821  28.771  1.00  0.00     0.049 A 
ATOM     23  H   UNL A   1      44.007  27.614  28.280  1.00  0.00     0.167 HD
ATOM     24  C   UNL A   1      48.112  27.120  26.922  1.00  0.00     0.037 A 
ATOM     25  C   UNL A   1      41.786  29.116  29.070  1.00  0.00     0.037 A 
ATOM     26  C   UNL A   1      47.997  28.519  27.243  1.00  0.00     0.049 A 
ATOM     27  C   UNL A   1      42.906  30.099  28.931  1.00  0.00     0.074 A 
ATOM     28  C   UNL A   1      48.978  29.497  27.217  1.00  0.00     0.029 A 
ATOM     29  N   UNL A   1      46.826  29.142  27.646  1.00  0.00    -0.354 N 
ATOM     30  N   UNL A   1      44.143  29.884  28.554  1.00  0.00    -0.248 NA
ATOM     31  C   UNL A   1      42.600  31.501  29.240  1.00  0.00     0.031 C 
ATOM     32  C   UNL A   1      48.397  30.713  27.605  1.00  0.00     0.029 A 
ATOM     33  C   UNL A   1      47.055  30.490  27.867  1.00  0.00     0.049 A 
ATOM     34  H   UNL A   1      45.958  28.692  27.758  1.00  0.00     0.167 HD
ATOM     35  C   UNL A   1      44.765  31.124  28.578  1.00  0.00     0.074 A 
ATOM     36  C   UNL A   1      43.766  32.087  28.998  1.00  0.00     0.031 C 
ATOM     37  C   UNL A   1      46.050  31.435  28.280  1.00  0.00     0.037 A 
BRANCH  24  38
ATOM     38  C   UNL A   1      49.447  26.589  26.500  1.00  0.00     0.058 A 
ATOM     39  C   UNL A   1      50.333  26.038  27.437  1.00  0.00     0.135 A 
ATOM     40  C   UNL A   1      49.850  26.643  25.158  1.00  0.00     0.135 A 
ATOM     41  F   UNL A   1      49.996  25.982  28.734  1.00  0.00    -0.206 F 
ATOM     42  C   UNL A   1      51.590  25.576  27.060  1.00  0.00     0.059 A 
ATOM     43  C   UNL A   1      51.100  26.183  24.757  1.00  0.00     0.059 A 
ATOM     44  F   UNL A   1      49.038  27.171  24.229  1.00  0.00    -0.206 F 
ATOM     45  C   UNL A   1      51.971  25.667  25.720  1.00  0.00     0.060 A 
BRANCH  45  46
ATOM     46  S   UNL A   1      53.616  25.109  25.226  1.00  0.00     0.124 S 
ATOM     47  O   UNL A   1      53.682  25.600  23.853  1.00  0.00    -0.237 OA
ATOM     48  O   UNL A   1      54.489  25.783  26.181  1.00  0.00    -0.237 OA
ATOM     49  O   UNL A   1      53.530  23.660  25.376  1.00  0.00    -0.744 OA
ENDBRANCH  45  46
ENDBRANCH  24  38
BRANCH  25  50
ATOM     50  C   UNL A   1      40.427  29.552  29.460  1.00  0.00     0.058 A 
ATOM     51  C   UNL A   1      40.131  29.840  30.800  1.00  0.00     0.135 A 
ATOM     52  C   UNL A   1      39.434  29.769  28.498  1.00  0.00     0.135 A 
ATOM     53  F   UNL A   1      41.061  29.652  31.749  1.00  0.00    -0.206 F 
ATOM     54  C   UNL A   1      38.892  30.348  31.174  1.00  0.00     0.059 A 
ATOM     55  C   UNL A   1      38.189  30.279  28.847  1.00  0.00     0.059 A 
ATOM     56  F   UNL A   1      39.684  29.515  27.205  1.00  0.00    -0.206 F 
ATOM     57  C   UNL A   1      37.929  30.568  30.189  1.00  0.00     0.060 A 
BRANCH  57  58
ATOM     58  S   UNL A   1      36.353  31.330  30.636  1.00  0.00     0.124 S 
ATOM     59  O   UNL A   1      36.769  32.684  30.979  1.00  0.00    -0.237 OA
ATOM     60  O   UNL A   1      35.568  31.195  29.412  1.00  0.00    -0.237 OA
ATOM     61  O   UNL A   1      35.904  30.499  31.749  1.00  0.00    -0.744 OA
ENDBRANCH  57  58
ENDBRANCH  25  50
BRANCH  37  62
ATOM     62  C   UNL A   1      46.436  32.877  28.402  1.00  0.00     0.058 A 
ATOM     63  C   UNL A   1      46.913  33.395  29.616  1.00  0.00     0.135 A 
ATOM     64  C   UNL A   1      46.327  33.744  27.307  1.00  0.00     0.135 A 
ATOM     65  F   UNL A   1      47.027  32.600  30.691  1.00  0.00    -0.206 F 
ATOM     66  C   UNL A   1      47.252  34.738  29.745  1.00  0.00     0.059 A 
ATOM     67  C   UNL A   1      46.665  35.090  27.412  1.00  0.00     0.059 A 
ATOM     68  F   UNL A   1      45.872  33.292  26.128  1.00  0.00    -0.206 F 
ATOM     69  C   UNL A   1      47.115  35.579  28.639  1.00  0.00     0.060 A 
BRANCH  69  70
ATOM     70  S   UNL A   1      47.553  37.325  28.789  1.00  0.00     0.124 S 
ATOM     71  O   UNL A   1      46.634  37.939  27.836  1.00  0.00    -0.237 OA
ATOM     72  O   UNL A   1      47.289  37.612  30.196  1.00  0.00    -0.237 OA
ATOM     73  O   UNL A   1      48.963  37.341  28.409  1.00  0.00    -0.744 OA
ENDBRANCH  69  70
ENDBRANCH  37  62
ENDBRANCH  11  12
ENDBRANCH   4   6
ENDBRANCH   1   2
BRANCH   1  74
ATOM     74  C   UNL A   1      37.441  20.544  24.933  1.00  0.00     0.042 C 
BRANCH  74  75
ATOM     75  C   UNL A   1      36.668  21.738  24.384  1.00  0.00     0.117 C 
BRANCH  75  76
ATOM     76  N   UNL A   1      36.075  22.563  25.410  1.00  0.00    -0.354 N 
ATOM     77  C   UNL A   1      34.901  22.389  26.077  1.00  0.00     0.245 C 
ATOM     78  H   UNL A   1      36.591  23.362  25.662  1.00  0.00     0.163 HD
ATOM     79  O   UNL A   1      34.809  22.953  27.177  1.00  0.00    -0.273 OA
BRANCH  77  80
ATOM     80  C   UNL A   1      33.703  21.612  25.509  1.00  0.00     0.199 C 
BRANCH  80  81
ATOM     81  C   UNL A   1      33.531  20.116  25.860  1.00  0.00     0.073 C 
BRANCH  81  82
ATOM     82  C   UNL A   1      33.487  19.067  24.769  1.00  0.00    -0.045 A 
ATOM     83  C   UNL A   1      34.477  18.073  24.712  1.00  0.00     0.004 A 
ATOM     84  C   UNL A   1      32.535  19.109  23.742  1.00  0.00     0.004 A 
ATOM     85  C   UNL A   1      34.457  17.094  23.717  1.00  0.00     0.000 A 
ATOM     86  C   UNL A   1      32.512  18.131  22.744  1.00  0.00     0.000 A 
ATOM     87  C   UNL A   1      33.464  17.115  22.741  1.00  0.00     0.000 A 
ENDBRANCH  81  82
ENDBRANCH  80  81
BRANCH  80  88
ATOM     88  N   UNL A   1      32.446  22.338  25.293  1.00  0.00    -0.270 NA
ATOM     89  C   UNL A   1      32.203  23.545  24.941  1.00  0.00     0.109 C 
ATOM     90  C   UNL A   1      33.179  24.643  24.643  1.00  0.00     0.209 C 
ATOM     91  C   UNL A   1      30.782  24.034  24.960  1.00  0.00     0.205 C 
ATOM     92  O   UNL A   1      33.991  24.539  23.743  1.00  0.00    -0.287 OA
ATOM     93  C   UNL A   1      33.011  25.870  25.441  1.00  0.00     0.035 A 
ATOM     94  C   UNL A   1      30.609  25.244  25.849  1.00  0.00     0.187 C 
ATOM     95  Cl  UNL A   1      30.279  24.464  23.309  1.00  0.00    -0.107 Cl
ATOM     96  C   UNL A   1      34.076  26.768  25.571  1.00  0.00     0.013 A 
ATOM     97  C   UNL A   1      31.787  26.130  26.066  1.00  0.00     0.031 A 
ATOM     98  O   UNL A   1      29.527  25.538  26.352  1.00  0.00    -0.292 OA
ATOM     99  C   UNL A   1      33.935  27.899  26.375  1.00  0.00     0.001 A 
ATOM    100  C   UNL A   1      31.650  27.272  26.866  1.00  0.00     0.012 A 
ATOM    101  C   UNL A   1      32.726  28.146  27.027  1.00  0.00     0.001 A 
ENDBRANCH  80  88
ENDBRANCH  77  80
ENDBRANCH  75  76
ENDBRANCH  74  75
ENDBRANCH   1  74
TORSDOF 16
ENDMDL
