MODEL 1
REMARK VINA RESULT:     -12.5      0.000      0.000
REMARK SMILES O=C(NCCCNC(=O)c1cc2cnc(Cl)cc2[nH]1)c1ccc(-c2c3nc(c(-c4c(F)cc(S(=O)(=O)[O-])cc4F)c4ccc([nH]4)c(-c4c(F)cc(S(=O)(=O)[O-])cc4F)c4nc(c(-c5c(F)cc(S(=O)(=O)[O-])cc5F)c5ccc2[nH]5)C=C4)C=C3)cc1
REMARK SMILES IDX 1 1 2 2 3 3 20 5 21 6 85 7 22 8 84 9 23 10 24 11 25 12 78 13
REMARK SMILES IDX 26 14 83 15 77 16 79 17 27 18 82 19 76 20 75 21 28 23 62 24
REMARK SMILES IDX 41 25 61 26 42 27 45 28 60 29 80 30 43 31 44 32 59 34 81 35
REMARK SMILES IDX 46 36 29 37 30 38 39 39 31 40 32 41 38 42 40 43 33 44 34 45
REMARK SMILES IDX 35 46 36 47 37 48 63 49 64 50 73 51 65 52 66 53 72 54 74 55
REMARK SMILES IDX 67 56 68 57 69 58 70 59 71 60 47 61 48 62 57 63 49 64 50 65
REMARK SMILES IDX 56 66 58 67 51 68 52 69 53 70 54 71 55 72 4 73 5 74 6 75
REMARK SMILES IDX 7 76 8 77 9 79 10 80 11 81 19 82 12 83 18 84 13 86 17 87
REMARK SMILES IDX 14 88 15 89 16 90
REMARK H PARENT 3 4 79 22 45 33 7 78 19 85
REMARK Flexibility Score: inf
ROOT
ATOM      1  O   UNL A   1      38.771  22.995  25.709  1.00  0.00    -0.269 OA
ATOM      2  C   UNL A   1      39.652  22.759  26.533  1.00  0.00     0.251 C 
ATOM      3  N   UNL A   1      40.242  21.499  26.619  1.00  0.00    -0.352 N 
ATOM      4  H   UNL A   1      40.107  20.905  25.846  1.00  0.00     0.163 HD
ENDROOT
BRANCH   2   5
ATOM      5  C   UNL A   1      40.143  23.806  27.445  1.00  0.00     0.039 A 
ATOM      6  C   UNL A   1      41.483  24.081  27.723  1.00  0.00     0.014 A 
ATOM      7  C   UNL A   1      39.155  24.653  27.901  1.00  0.00     0.014 A 
ATOM      8  C   UNL A   1      41.767  25.257  28.420  1.00  0.00     0.010 A 
ATOM      9  C   UNL A   1      39.501  25.952  28.045  1.00  0.00     0.010 A 
ATOM     10  C   UNL A   1      40.738  26.201  28.577  1.00  0.00    -0.014 A 
BRANCH  10  11
ATOM     11  C   UNL A   1      40.876  27.517  29.181  1.00  0.00     0.031 A 
ATOM     12  C   UNL A   1      41.919  28.329  28.528  1.00  0.00     0.074 A 
ATOM     13  C   UNL A   1      40.004  28.007  30.100  1.00  0.00     0.049 A 
ATOM     14  N   UNL A   1      43.118  28.522  28.961  1.00  0.00    -0.248 NA
ATOM     15  C   UNL A   1      41.712  28.764  27.136  1.00  0.00     0.031 C 
ATOM     16  C   UNL A   1      38.762  27.416  30.628  1.00  0.00     0.029 A 
ATOM     17  N   UNL A   1      40.021  29.216  30.729  1.00  0.00    -0.354 N 
ATOM     18  C   UNL A   1      43.714  29.359  28.033  1.00  0.00     0.074 A 
ATOM     19  C   UNL A   1      42.915  29.261  26.840  1.00  0.00     0.031 C 
ATOM     20  C   UNL A   1      38.047  28.344  31.304  1.00  0.00     0.029 A 
ATOM     21  C   UNL A   1      38.850  29.543  31.424  1.00  0.00     0.049 A 
ATOM     22  H   UNL A   1      40.801  29.816  30.698  1.00  0.00     0.167 HD
ATOM     23  C   UNL A   1      44.639  30.274  28.435  1.00  0.00     0.037 A 
ATOM     24  C   UNL A   1      38.589  30.715  32.067  1.00  0.00     0.037 A 
ATOM     25  C   UNL A   1      45.078  29.990  29.784  1.00  0.00     0.049 A 
ATOM     26  C   UNL A   1      39.916  31.335  32.342  1.00  0.00     0.074 A 
ATOM     27  C   UNL A   1      45.687  28.909  30.391  1.00  0.00     0.029 A 
ATOM     28  N   UNL A   1      44.495  30.714  30.800  1.00  0.00    -0.354 N 
ATOM     29  N   UNL A   1      40.795  30.807  33.154  1.00  0.00    -0.248 NA
ATOM     30  C   UNL A   1      40.458  32.217  31.321  1.00  0.00     0.031 C 
ATOM     31  C   UNL A   1      45.035  28.777  31.653  1.00  0.00     0.029 A 
ATOM     32  C   UNL A   1      44.142  29.841  31.800  1.00  0.00     0.049 A 
ATOM     33  H   UNL A   1      44.355  31.688  30.809  1.00  0.00     0.167 HD
ATOM     34  C   UNL A   1      42.010  30.933  32.494  1.00  0.00     0.074 A 
ATOM     35  C   UNL A   1      41.743  31.856  31.387  1.00  0.00     0.031 C 
ATOM     36  C   UNL A   1      43.031  30.051  32.707  1.00  0.00     0.037 A 
BRANCH  23  37
ATOM     37  C   UNL A   1      44.846  31.620  27.792  1.00  0.00     0.058 A 
ATOM     38  C   UNL A   1      46.042  31.857  27.086  1.00  0.00     0.135 A 
ATOM     39  C   UNL A   1      44.061  32.763  28.064  1.00  0.00     0.135 A 
ATOM     40  F   UNL A   1      46.867  30.843  26.778  1.00  0.00    -0.206 F 
ATOM     41  C   UNL A   1      46.463  33.140  26.740  1.00  0.00     0.059 A 
ATOM     42  C   UNL A   1      44.435  34.045  27.681  1.00  0.00     0.059 A 
ATOM     43  F   UNL A   1      42.941  32.711  28.794  1.00  0.00    -0.206 F 
ATOM     44  C   UNL A   1      45.655  34.228  27.052  1.00  0.00     0.060 A 
BRANCH  44  45
ATOM     45  S   UNL A   1      46.235  35.890  26.677  1.00  0.00     0.124 S 
ATOM     46  O   UNL A   1      44.978  36.614  26.537  1.00  0.00    -0.237 OA
ATOM     47  O   UNL A   1      47.027  36.202  27.863  1.00  0.00    -0.237 OA
ATOM     48  O   UNL A   1      47.001  35.709  25.448  1.00  0.00    -0.744 OA
ENDBRANCH  44  45
ENDBRANCH  23  37
BRANCH  24  49
ATOM     49  C   UNL A   1      37.317  31.503  32.088  1.00  0.00     0.058 A 
ATOM     50  C   UNL A   1      36.766  31.975  33.297  1.00  0.00     0.135 A 
ATOM     51  C   UNL A   1      36.786  32.070  30.913  1.00  0.00     0.135 A 
ATOM     52  F   UNL A   1      37.212  31.501  34.471  1.00  0.00    -0.206 F 
ATOM     53  C   UNL A   1      35.801  32.993  33.341  1.00  0.00     0.059 A 
ATOM     54  C   UNL A   1      35.821  33.082  30.931  1.00  0.00     0.059 A 
ATOM     55  F   UNL A   1      37.257  31.723  29.707  1.00  0.00    -0.206 F 
ATOM     56  C   UNL A   1      35.355  33.562  32.149  1.00  0.00     0.060 A 
BRANCH  56  57
ATOM     57  S   UNL A   1      34.261  35.004  32.201  1.00  0.00     0.124 S 
ATOM     58  O   UNL A   1      34.119  35.332  30.786  1.00  0.00    -0.237 OA
ATOM     59  O   UNL A   1      33.071  34.466  32.851  1.00  0.00    -0.237 OA
ATOM     60  O   UNL A   1      35.013  35.975  32.993  1.00  0.00    -0.744 OA
ENDBRANCH  56  57
ENDBRANCH  24  49
BRANCH  36  61
ATOM     61  C   UNL A   1      42.925  29.086  33.868  1.00  0.00     0.058 A 
ATOM     62  C   UNL A   1      43.142  29.419  35.219  1.00  0.00     0.135 A 
ATOM     63  C   UNL A   1      42.400  27.813  33.607  1.00  0.00     0.135 A 
ATOM     64  F   UNL A   1      43.554  30.645  35.569  1.00  0.00    -0.206 F 
ATOM     65  C   UNL A   1      42.874  28.518  36.255  1.00  0.00     0.059 A 
ATOM     66  C   UNL A   1      42.097  26.910  34.623  1.00  0.00     0.059 A 
ATOM     67  F   UNL A   1      42.114  27.453  32.344  1.00  0.00    -0.206 F 
ATOM     68  C   UNL A   1      42.345  27.264  35.945  1.00  0.00     0.060 A 
BRANCH  68  69
ATOM     69  S   UNL A   1      41.938  26.119  37.282  1.00  0.00     0.124 S 
ATOM     70  O   UNL A   1      42.051  24.822  36.623  1.00  0.00    -0.237 OA
ATOM     71  O   UNL A   1      42.963  26.415  38.278  1.00  0.00    -0.237 OA
ATOM     72  O   UNL A   1      40.581  26.506  37.663  1.00  0.00    -0.744 OA
ENDBRANCH  68  69
ENDBRANCH  36  61
ENDBRANCH  10  11
ENDBRANCH   2   5
BRANCH   3  73
ATOM     73  C   UNL A   1      41.048  20.947  27.730  1.00  0.00     0.118 C 
BRANCH  73  74
ATOM     74  C   UNL A   1      41.844  19.712  27.369  1.00  0.00     0.042 C 
BRANCH  74  75
ATOM     75  C   UNL A   1      42.051  19.605  25.858  1.00  0.00     0.118 C 
BRANCH  75  76
ATOM     76  N   UNL A   1      43.207  18.801  25.460  1.00  0.00    -0.351 N 
ATOM     77  C   UNL A   1      44.473  19.179  25.074  1.00  0.00     0.267 C 
ATOM     78  H   UNL A   1      43.054  17.829  25.471  1.00  0.00     0.163 HD
ATOM     79  O   UNL A   1      45.256  18.322  24.676  1.00  0.00    -0.268 OA
BRANCH  77  80
ATOM     80  C   UNL A   1      44.792  20.580  25.124  1.00  0.00     0.105 A 
ATOM     81  C   UNL A   1      44.432  21.597  24.257  1.00  0.00     0.043 A 
ATOM     82  N   UNL A   1      45.581  21.168  26.083  1.00  0.00    -0.350 N 
ATOM     83  C   UNL A   1      44.658  22.826  24.939  1.00  0.00     0.019 A 
ATOM     84  C   UNL A   1      45.308  22.510  26.132  1.00  0.00     0.051 A 
ATOM     85  H   UNL A   1      46.239  20.700  26.646  1.00  0.00     0.167 HD
ATOM     86  C   UNL A   1      44.317  24.163  24.704  1.00  0.00     0.123 A 
ATOM     87  C   UNL A   1      45.562  23.451  27.123  1.00  0.00     0.067 A 
ATOM     88  N   UNL A   1      44.542  25.106  25.656  1.00  0.00    -0.244 NA
ATOM     89  C   UNL A   1      45.121  24.727  26.815  1.00  0.00     0.131 A 
ATOM     90  Cl  UNL A   1      45.266  25.983  27.978  1.00  0.00    -0.062 Cl
ENDBRANCH  77  80
ENDBRANCH  75  76
ENDBRANCH  74  75
ENDBRANCH  73  74
ENDBRANCH   3  73
TORSDOF 13
ENDMDL
MODEL 2
REMARK VINA RESULT:     -12.4      3.261     11.899
REMARK SMILES O=C(NCCCNC(=O)c1cc2cnc(Cl)cc2[nH]1)c1ccc(-c2c3nc(c(-c4c(F)cc(S(=O)(=O)[O-])cc4F)c4ccc([nH]4)c(-c4c(F)cc(S(=O)(=O)[O-])cc4F)c4nc(c(-c5c(F)cc(S(=O)(=O)[O-])cc5F)c5ccc2[nH]5)C=C4)C=C3)cc1
REMARK SMILES IDX 1 1 2 2 3 3 20 5 21 6 85 7 22 8 84 9 23 10 24 11 25 12 78 13
REMARK SMILES IDX 26 14 83 15 77 16 79 17 27 18 82 19 76 20 75 21 28 23 62 24
REMARK SMILES IDX 41 25 61 26 42 27 45 28 60 29 80 30 43 31 44 32 59 34 81 35
REMARK SMILES IDX 46 36 29 37 30 38 39 39 31 40 32 41 38 42 40 43 33 44 34 45
REMARK SMILES IDX 35 46 36 47 37 48 63 49 64 50 73 51 65 52 66 53 72 54 74 55
REMARK SMILES IDX 67 56 68 57 69 58 70 59 71 60 47 61 48 62 57 63 49 64 50 65
REMARK SMILES IDX 56 66 58 67 51 68 52 69 53 70 54 71 55 72 4 73 5 74 6 75
REMARK SMILES IDX 7 76 8 77 9 79 10 80 11 81 19 82 12 83 18 84 13 86 17 87
REMARK SMILES IDX 14 88 15 89 16 90
REMARK H PARENT 3 4 79 22 45 33 7 78 19 85
REMARK Flexibility Score: inf
ROOT
ATOM      1  O   UNL A   1      34.187  30.350  27.938  1.00  0.00    -0.269 OA
ATOM      2  C   UNL A   1      34.935  31.314  28.094  1.00  0.00     0.251 C 
ATOM      3  N   UNL A   1      34.439  32.616  28.116  1.00  0.00    -0.352 N 
ATOM      4  H   UNL A   1      33.469  32.708  28.256  1.00  0.00     0.163 HD
ENDROOT
BRANCH   2   5
ATOM      5  C   UNL A   1      36.382  31.131  28.294  1.00  0.00     0.039 A 
ATOM      6  C   UNL A   1      37.170  31.818  29.217  1.00  0.00     0.014 A 
ATOM      7  C   UNL A   1      36.908  30.065  27.594  1.00  0.00     0.014 A 
ATOM      8  C   UNL A   1      38.468  31.348  29.433  1.00  0.00     0.010 A 
ATOM      9  C   UNL A   1      37.881  29.363  28.217  1.00  0.00     0.010 A 
ATOM     10  C   UNL A   1      38.813  30.090  28.910  1.00  0.00    -0.014 A 
BRANCH  10  11
ATOM     11  C   UNL A   1      40.076  29.400  29.119  1.00  0.00     0.031 A 
ATOM     12  C   UNL A   1      40.380  29.206  30.549  1.00  0.00     0.074 A 
ATOM     13  C   UNL A   1      40.782  28.822  28.113  1.00  0.00     0.049 A 
ATOM     14  N   UNL A   1      41.189  29.915  31.258  1.00  0.00    -0.248 NA
ATOM     15  C   UNL A   1      39.523  28.309  31.342  1.00  0.00     0.031 C 
ATOM     16  C   UNL A   1      40.450  28.694  26.683  1.00  0.00     0.029 A 
ATOM     17  N   UNL A   1      41.964  28.146  28.181  1.00  0.00    -0.354 N 
ATOM     18  C   UNL A   1      41.164  29.349  32.522  1.00  0.00     0.074 A 
ATOM     19  C   UNL A   1      39.963  28.558  32.578  1.00  0.00     0.031 C 
ATOM     20  C   UNL A   1      41.277  27.807  26.084  1.00  0.00     0.029 A 
ATOM     21  C   UNL A   1      42.314  27.438  27.025  1.00  0.00     0.049 A 
ATOM     22  H   UNL A   1      42.531  28.157  28.985  1.00  0.00     0.167 HD
ATOM     23  C   UNL A   1      42.285  29.354  33.294  1.00  0.00     0.037 A 
ATOM     24  C   UNL A   1      43.399  26.630  26.866  1.00  0.00     0.037 A 
ATOM     25  C   UNL A   1      43.270  30.263  32.750  1.00  0.00     0.049 A 
ATOM     26  C   UNL A   1      44.378  27.050  27.909  1.00  0.00     0.074 A 
ATOM     27  C   UNL A   1      43.285  31.619  32.483  1.00  0.00     0.029 A 
ATOM     28  N   UNL A   1      44.275  29.716  31.984  1.00  0.00    -0.354 N 
ATOM     29  N   UNL A   1      44.953  28.225  27.915  1.00  0.00    -0.248 NA
ATOM     30  C   UNL A   1      44.291  26.388  29.201  1.00  0.00     0.031 C 
ATOM     31  C   UNL A   1      43.956  31.741  31.230  1.00  0.00     0.029 A 
ATOM     32  C   UNL A   1      44.409  30.477  30.848  1.00  0.00     0.049 A 
ATOM     33  H   UNL A   1      44.805  28.918  32.210  1.00  0.00     0.167 HD
ATOM     34  C   UNL A   1      44.906  28.636  29.241  1.00  0.00     0.074 A 
ATOM     35  C   UNL A   1      44.528  27.437  29.994  1.00  0.00     0.031 C 
ATOM     36  C   UNL A   1      44.869  29.960  29.575  1.00  0.00     0.037 A 
BRANCH  23  37
ATOM     37  C   UNL A   1      42.649  28.276  34.281  1.00  0.00     0.058 A 
ATOM     38  C   UNL A   1      42.797  28.620  35.639  1.00  0.00     0.135 A 
ATOM     39  C   UNL A   1      43.122  26.993  33.922  1.00  0.00     0.135 A 
ATOM     40  F   UNL A   1      42.386  29.816  36.089  1.00  0.00    -0.206 F 
ATOM     41  C   UNL A   1      43.432  27.785  36.556  1.00  0.00     0.059 A 
ATOM     42  C   UNL A   1      43.711  26.123  34.831  1.00  0.00     0.059 A 
ATOM     43  F   UNL A   1      43.125  26.554  32.658  1.00  0.00    -0.206 F 
ATOM     44  C   UNL A   1      43.895  26.542  36.137  1.00  0.00     0.060 A 
BRANCH  44  45
ATOM     45  S   UNL A   1      44.786  25.498  37.301  1.00  0.00     0.124 S 
ATOM     46  O   UNL A   1      44.106  25.809  38.552  1.00  0.00    -0.237 OA
ATOM     47  O   UNL A   1      44.543  24.167  36.752  1.00  0.00    -0.237 OA
ATOM     48  O   UNL A   1      46.162  25.972  37.193  1.00  0.00    -0.744 OA
ENDBRANCH  44  45
ENDBRANCH  23  37
BRANCH  24  49
ATOM     49  C   UNL A   1      43.480  25.304  26.179  1.00  0.00     0.058 A 
ATOM     50  C   UNL A   1      44.471  25.037  25.212  1.00  0.00     0.135 A 
ATOM     51  C   UNL A   1      42.791  24.179  26.673  1.00  0.00     0.135 A 
ATOM     52  F   UNL A   1      45.188  26.043  24.686  1.00  0.00    -0.206 F 
ATOM     53  C   UNL A   1      44.805  23.733  24.813  1.00  0.00     0.059 A 
ATOM     54  C   UNL A   1      43.102  22.872  26.288  1.00  0.00     0.059 A 
ATOM     55  F   UNL A   1      41.851  24.309  27.621  1.00  0.00    -0.206 F 
ATOM     56  C   UNL A   1      44.132  22.652  25.381  1.00  0.00     0.060 A 
BRANCH  56  57
ATOM     57  S   UNL A   1      44.686  20.966  25.022  1.00  0.00     0.124 S 
ATOM     58  O   UNL A   1      46.015  20.945  25.623  1.00  0.00    -0.237 OA
ATOM     59  O   UNL A   1      43.672  20.159  25.691  1.00  0.00    -0.237 OA
ATOM     60  O   UNL A   1      44.661  20.903  23.562  1.00  0.00    -0.744 OA
ENDBRANCH  56  57
ENDBRANCH  24  49
BRANCH  36  61
ATOM     61  C   UNL A   1      45.148  30.987  28.498  1.00  0.00     0.058 A 
ATOM     62  C   UNL A   1      44.194  31.486  27.590  1.00  0.00     0.135 A 
ATOM     63  C   UNL A   1      46.398  31.620  28.514  1.00  0.00     0.135 A 
ATOM     64  F   UNL A   1      42.944  31.003  27.569  1.00  0.00    -0.206 F 
ATOM     65  C   UNL A   1      44.482  32.547  26.724  1.00  0.00     0.059 A 
ATOM     66  C   UNL A   1      46.698  32.697  27.683  1.00  0.00     0.059 A 
ATOM     67  F   UNL A   1      47.335  31.232  29.396  1.00  0.00    -0.206 F 
ATOM     68  C   UNL A   1      45.738  33.150  26.783  1.00  0.00     0.060 A 
BRANCH  68  69
ATOM     69  S   UNL A   1      46.096  34.561  25.712  1.00  0.00     0.124 S 
ATOM     70  O   UNL A   1      45.198  34.329  24.586  1.00  0.00    -0.237 OA
ATOM     71  O   UNL A   1      45.763  35.698  26.564  1.00  0.00    -0.237 OA
ATOM     72  O   UNL A   1      47.518  34.412  25.413  1.00  0.00    -0.744 OA
ENDBRANCH  68  69
ENDBRANCH  36  61
ENDBRANCH  10  11
ENDBRANCH   2   5
BRANCH   3  73
ATOM     73  C   UNL A   1      35.194  33.879  27.958  1.00  0.00     0.118 C 
BRANCH  73  74
ATOM     74  C   UNL A   1      34.411  35.123  28.315  1.00  0.00     0.042 C 
BRANCH  74  75
ATOM     75  C   UNL A   1      33.241  34.797  29.243  1.00  0.00     0.118 C 
BRANCH  75  76
ATOM     76  N   UNL A   1      32.821  35.905  30.102  1.00  0.00    -0.351 N 
ATOM     77  C   UNL A   1      33.141  36.198  31.408  1.00  0.00     0.267 C 
ATOM     78  H   UNL A   1      32.209  36.546  29.675  1.00  0.00     0.163 HD
ATOM     79  O   UNL A   1      32.577  37.135  31.964  1.00  0.00    -0.268 OA
BRANCH  77  80
ATOM     80  C   UNL A   1      34.102  35.352  32.063  1.00  0.00     0.105 A 
ATOM     81  C   UNL A   1      33.960  34.059  32.534  1.00  0.00     0.043 A 
ATOM     82  N   UNL A   1      35.387  35.725  32.374  1.00  0.00    -0.350 N 
ATOM     83  C   UNL A   1      35.272  33.542  32.734  1.00  0.00     0.019 A 
ATOM     84  C   UNL A   1      36.156  34.602  32.538  1.00  0.00     0.051 A 
ATOM     85  H   UNL A   1      35.706  36.652  32.465  1.00  0.00     0.167 HD
ATOM     86  C   UNL A   1      35.804  32.273  32.990  1.00  0.00     0.123 A 
ATOM     87  C   UNL A   1      37.535  34.437  32.512  1.00  0.00     0.067 A 
ATOM     88  N   UNL A   1      37.148  32.075  32.962  1.00  0.00    -0.244 NA
ATOM     89  C   UNL A   1      37.950  33.130  32.707  1.00  0.00     0.131 A 
ATOM     90  Cl  UNL A   1      39.620  32.741  32.601  1.00  0.00    -0.062 Cl
ENDBRANCH  77  80
ENDBRANCH  75  76
ENDBRANCH  74  75
ENDBRANCH  73  74
ENDBRANCH   3  73
TORSDOF 13
ENDMDL
MODEL 3
REMARK VINA RESULT:     -12.1      3.629      5.487
REMARK SMILES O=C(NCCCNC(=O)c1cc2cnc(Cl)cc2[nH]1)c1ccc(-c2c3nc(c(-c4c(F)cc(S(=O)(=O)[O-])cc4F)c4ccc([nH]4)c(-c4c(F)cc(S(=O)(=O)[O-])cc4F)c4nc(c(-c5c(F)cc(S(=O)(=O)[O-])cc5F)c5ccc2[nH]5)C=C4)C=C3)cc1
REMARK SMILES IDX 1 1 2 2 3 3 20 5 21 6 85 7 22 8 84 9 23 10 24 11 25 12 78 13
REMARK SMILES IDX 26 14 83 15 77 16 79 17 27 18 82 19 76 20 75 21 28 23 62 24
REMARK SMILES IDX 41 25 61 26 42 27 45 28 60 29 80 30 43 31 44 32 59 34 81 35
REMARK SMILES IDX 46 36 29 37 30 38 39 39 31 40 32 41 38 42 40 43 33 44 34 45
REMARK SMILES IDX 35 46 36 47 37 48 63 49 64 50 73 51 65 52 66 53 72 54 74 55
REMARK SMILES IDX 67 56 68 57 69 58 70 59 71 60 47 61 48 62 57 63 49 64 50 65
REMARK SMILES IDX 56 66 58 67 51 68 52 69 53 70 54 71 55 72 4 73 5 74 6 75
REMARK SMILES IDX 7 76 8 77 9 79 10 80 11 81 19 82 12 83 18 84 13 86 17 87
REMARK SMILES IDX 14 88 15 89 16 90
REMARK H PARENT 3 4 79 22 45 33 7 78 19 85
REMARK Flexibility Score: inf
ROOT
ATOM      1  O   UNL A   1      40.728  21.624  27.805  1.00  0.00    -0.269 OA
ATOM      2  C   UNL A   1      39.944  22.380  27.234  1.00  0.00     0.251 C 
ATOM      3  N   UNL A   1      38.899  21.885  26.456  1.00  0.00    -0.352 N 
ATOM      4  H   UNL A   1      38.672  20.937  26.590  1.00  0.00     0.163 HD
ENDROOT
BRANCH   2   5
ATOM      5  C   UNL A   1      40.058  23.842  27.373  1.00  0.00     0.039 A 
ATOM      6  C   UNL A   1      38.997  24.748  27.348  1.00  0.00     0.014 A 
ATOM      7  C   UNL A   1      41.323  24.270  27.715  1.00  0.00     0.014 A 
ATOM      8  C   UNL A   1      39.265  26.064  27.732  1.00  0.00     0.010 A 
ATOM      9  C   UNL A   1      41.390  25.321  28.563  1.00  0.00     0.010 A 
ATOM     10  C   UNL A   1      40.497  26.337  28.350  1.00  0.00    -0.014 A 
BRANCH  10  11
ATOM     11  C   UNL A   1      40.904  27.619  28.905  1.00  0.00     0.031 A 
ATOM     12  C   UNL A   1      42.059  28.196  28.194  1.00  0.00     0.074 A 
ATOM     13  C   UNL A   1      40.175  28.293  29.831  1.00  0.00     0.049 A 
ATOM     14  N   UNL A   1      43.287  28.168  28.585  1.00  0.00    -0.248 NA
ATOM     15  C   UNL A   1      41.890  28.623  26.794  1.00  0.00     0.031 C 
ATOM     16  C   UNL A   1      38.861  27.966  30.415  1.00  0.00     0.029 A 
ATOM     17  N   UNL A   1      40.443  29.494  30.417  1.00  0.00    -0.354 N 
ATOM     18  C   UNL A   1      43.999  28.849  27.611  1.00  0.00     0.074 A 
ATOM     19  C   UNL A   1      43.155  28.872  26.446  1.00  0.00     0.031 C 
ATOM     20  C   UNL A   1      38.361  29.033  31.079  1.00  0.00     0.029 A 
ATOM     21  C   UNL A   1      39.382  30.059  31.134  1.00  0.00     0.049 A 
ATOM     22  H   UNL A   1      41.322  29.931  30.343  1.00  0.00     0.167 HD
ATOM     23  C   UNL A   1      45.094  29.580  27.955  1.00  0.00     0.037 A 
ATOM     24  C   UNL A   1      39.372  31.277  31.743  1.00  0.00     0.037 A 
ATOM     25  C   UNL A   1      45.519  29.257  29.299  1.00  0.00     0.049 A 
ATOM     26  C   UNL A   1      40.802  31.639  31.959  1.00  0.00     0.074 A 
ATOM     27  C   UNL A   1      45.931  28.096  29.925  1.00  0.00     0.029 A 
ATOM     28  N   UNL A   1      45.120  30.107  30.306  1.00  0.00    -0.354 N 
ATOM     29  N   UNL A   1      41.592  30.974  32.762  1.00  0.00    -0.248 NA
ATOM     30  C   UNL A   1      41.466  32.370  30.892  1.00  0.00     0.031 C 
ATOM     31  C   UNL A   1      45.311  28.128  31.209  1.00  0.00     0.029 A 
ATOM     32  C   UNL A   1      44.643  29.347  31.345  1.00  0.00     0.049 A 
ATOM     33  H   UNL A   1      45.169  31.090  30.285  1.00  0.00     0.167 HD
ATOM     34  C   UNL A   1      42.784  30.847  32.063  1.00  0.00     0.074 A 
ATOM     35  C   UNL A   1      42.660  31.772  30.933  1.00  0.00     0.031 C 
ATOM     36  C   UNL A   1      43.626  29.792  32.277  1.00  0.00     0.037 A 
BRANCH  23  37
ATOM     37  C   UNL A   1      45.533  30.843  27.259  1.00  0.00     0.058 A 
ATOM     38  C   UNL A   1      46.876  30.962  26.851  1.00  0.00     0.135 A 
ATOM     39  C   UNL A   1      44.775  32.035  27.220  1.00  0.00     0.135 A 
ATOM     40  F   UNL A   1      47.688  29.893  26.854  1.00  0.00    -0.206 F 
ATOM     41  C   UNL A   1      47.444  32.185  26.501  1.00  0.00     0.059 A 
ATOM     42  C   UNL A   1      45.307  33.255  26.823  1.00  0.00     0.059 A 
ATOM     43  F   UNL A   1      43.511  32.100  27.652  1.00  0.00    -0.206 F 
ATOM     44  C   UNL A   1      46.651  33.328  26.501  1.00  0.00     0.060 A 
BRANCH  44  45
ATOM     45  S   UNL A   1      47.404  34.919  26.126  1.00  0.00     0.124 S 
ATOM     46  O   UNL A   1      48.265  34.578  25.001  1.00  0.00    -0.237 OA
ATOM     47  O   UNL A   1      46.233  35.735  25.815  1.00  0.00    -0.237 OA
ATOM     48  O   UNL A   1      48.091  35.267  27.366  1.00  0.00    -0.744 OA
ENDBRANCH  44  45
ENDBRANCH  23  37
BRANCH  24  49
ATOM     49  C   UNL A   1      38.275  32.294  31.775  1.00  0.00     0.058 A 
ATOM     50  C   UNL A   1      37.575  32.656  30.606  1.00  0.00     0.135 A 
ATOM     51  C   UNL A   1      37.686  32.700  32.989  1.00  0.00     0.135 A 
ATOM     52  F   UNL A   1      38.052  32.308  29.400  1.00  0.00    -0.206 F 
ATOM     53  C   UNL A   1      36.337  33.316  30.640  1.00  0.00     0.059 A 
ATOM     54  C   UNL A   1      36.456  33.361  33.049  1.00  0.00     0.059 A 
ATOM     55  F   UNL A   1      38.245  32.381  34.165  1.00  0.00    -0.206 F 
ATOM     56  C   UNL A   1      35.770  33.639  31.872  1.00  0.00     0.060 A 
BRANCH  56  57
ATOM     57  S   UNL A   1      34.089  34.312  31.935  1.00  0.00     0.124 S 
ATOM     58  O   UNL A   1      34.321  35.670  32.412  1.00  0.00    -0.237 OA
ATOM     59  O   UNL A   1      33.656  34.190  30.547  1.00  0.00    -0.237 OA
ATOM     60  O   UNL A   1      33.404  33.428  32.876  1.00  0.00    -0.744 OA
ENDBRANCH  56  57
ENDBRANCH  24  49
BRANCH  36  61
ATOM     61  C   UNL A   1      43.378  28.899  33.473  1.00  0.00     0.058 A 
ATOM     62  C   UNL A   1      43.742  29.203  34.799  1.00  0.00     0.135 A 
ATOM     63  C   UNL A   1      42.572  27.768  33.282  1.00  0.00     0.135 A 
ATOM     64  F   UNL A   1      44.433  30.314  35.086  1.00  0.00    -0.206 F 
ATOM     65  C   UNL A   1      43.344  28.405  35.877  1.00  0.00     0.059 A 
ATOM     66  C   UNL A   1      42.138  26.975  34.342  1.00  0.00     0.059 A 
ATOM     67  F   UNL A   1      42.140  27.453  32.049  1.00  0.00    -0.206 F 
ATOM     68  C   UNL A   1      42.535  27.293  35.637  1.00  0.00     0.060 A 
BRANCH  68  69
ATOM     69  S   UNL A   1      41.965  26.294  37.030  1.00  0.00     0.124 S 
ATOM     70  O   UNL A   1      43.043  26.468  37.997  1.00  0.00    -0.237 OA
ATOM     71  O   UNL A   1      40.696  26.927  37.376  1.00  0.00    -0.237 OA
ATOM     72  O   UNL A   1      41.848  24.952  36.464  1.00  0.00    -0.744 OA
ENDBRANCH  68  69
ENDBRANCH  36  61
ENDBRANCH  10  11
ENDBRANCH   2   5
BRANCH   3  73
ATOM     73  C   UNL A   1      38.090  22.612  25.453  1.00  0.00     0.118 C 
BRANCH  73  74
ATOM     74  C   UNL A   1      37.031  21.768  24.778  1.00  0.00     0.042 C 
BRANCH  74  75
ATOM     75  C   UNL A   1      35.913  21.392  25.751  1.00  0.00     0.118 C 
BRANCH  75  76
ATOM     76  N   UNL A   1      34.802  22.344  25.794  1.00  0.00    -0.351 N 
ATOM     77  C   UNL A   1      33.479  22.193  25.449  1.00  0.00     0.267 C 
ATOM     78  H   UNL A   1      35.042  23.239  26.125  1.00  0.00     0.163 HD
ATOM     79  O   UNL A   1      32.742  23.174  25.468  1.00  0.00    -0.268 OA
BRANCH  77  80
ATOM     80  C   UNL A   1      33.042  20.884  25.044  1.00  0.00     0.105 A 
ATOM     81  C   UNL A   1      32.926  20.349  23.772  1.00  0.00     0.043 A 
ATOM     82  N   UNL A   1      32.615  19.902  25.904  1.00  0.00    -0.350 N 
ATOM     83  C   UNL A   1      32.835  18.936  23.922  1.00  0.00     0.019 A 
ATOM     84  C   UNL A   1      32.729  18.683  25.289  1.00  0.00     0.051 A 
ATOM     85  H   UNL A   1      32.279  20.051  26.817  1.00  0.00     0.167 HD
ATOM     86  C   UNL A   1      32.903  17.845  23.048  1.00  0.00     0.123 A 
ATOM     87  C   UNL A   1      32.763  17.399  25.821  1.00  0.00     0.067 A 
ATOM     88  N   UNL A   1      32.949  16.578  23.536  1.00  0.00    -0.244 NA
ATOM     89  C   UNL A   1      32.903  16.400  24.874  1.00  0.00     0.131 A 
ATOM     90  Cl  UNL A   1      33.067  14.765  25.376  1.00  0.00    -0.062 Cl
ENDBRANCH  77  80
ENDBRANCH  75  76
ENDBRANCH  74  75
ENDBRANCH  73  74
ENDBRANCH   3  73
TORSDOF 13
ENDMDL
