MODEL 1
REMARK VINA RESULT:     -13.5      0.000      0.000
REMARK SMILES Cc1cccc2c1[C@H]1c3c(C)cccc3[C@H](CC(=O)NCCCNC(=O)c3ccc(-c4c5nc(c(-c6c(F)cc(S(=O)(=O)[O-])cc6F)c6ccc([nH]6)c(-c6c(F)cc(S(=O)(=O)[O-])cc6F)c6nc(c(-c7c(F)cc(S(=O)(=O)[O-])cc7F)c7ccc4[nH]7)C=C6)C=C5)cc3)C[C@H]1CC2
REMARK SMILES IDX 23 1 22 2 21 3 20 4 18 5 19 6 17 8 16 9 1 10 2 11 3 12 7 13
REMARK SMILES IDX 4 14 6 15 8 16 5 17 96 18 9 19 94 20 95 21 10 22 15 23 93 24
REMARK SMILES IDX 12 25 11 26 14 27 13 28 24 29 25 30 26 32 27 33 28 34 92 35
REMARK SMILES IDX 29 36 91 37 30 38 31 39 32 40 85 41 33 42 90 43 84 44 86 45
REMARK SMILES IDX 34 46 89 47 83 48 82 49 35 51 69 52 48 53 68 54 49 55 52 56
REMARK SMILES IDX 67 57 87 58 50 59 51 60 66 62 88 63 53 64 36 65 37 66 46 67
REMARK SMILES IDX 38 68 39 69 45 70 47 71 40 72 41 73 42 74 43 75 44 76 70 77
REMARK SMILES IDX 71 78 80 79 72 80 73 81 79 82 81 83 74 84 75 85 76 86 77 87
REMARK SMILES IDX 78 88 54 89 55 90 64 91 56 92 57 93 63 94 65 95 58 96 59 97
REMARK SMILES IDX 60 98 61 99 62 100
REMARK H PARENT 20 7 24 31 86 50 52 61
REMARK Flexibility Score: inf
ROOT
ATOM      1  C   UNL A   1      39.581  20.246  26.126  1.00  0.00     0.118 C 
ENDROOT
BRANCH   1   2
ATOM      2  C   UNL A   1      38.446  19.900  25.165  1.00  0.00     0.042 C 
BRANCH   2   3
ATOM      3  C   UNL A   1      37.647  21.123  24.716  1.00  0.00     0.117 C 
BRANCH   3   4
ATOM      4  N   UNL A   1      36.873  21.656  25.822  1.00  0.00    -0.356 N 
ATOM      5  C   UNL A   1      35.549  21.957  25.900  1.00  0.00     0.220 C 
ATOM      6  O   UNL A   1      35.153  22.590  26.879  1.00  0.00    -0.275 OA
ATOM      7  H   UNL A   1      37.387  21.827  26.643  1.00  0.00     0.163 HD
BRANCH   5   8
ATOM      8  C   UNL A   1      34.580  21.415  24.875  1.00  0.00     0.108 C 
BRANCH   8   9
ATOM      9  C   UNL A   1      33.788  22.436  24.033  1.00  0.00     0.029 C 
ATOM     10  C   UNL A   1      34.028  27.875  26.125  1.00  0.00     0.044 C 
ATOM     11  C   UNL A   1      33.081  27.902  24.952  1.00  0.00    -0.047 A 
ATOM     12  C   UNL A   1      32.450  29.124  24.660  1.00  0.00     0.004 A 
ATOM     13  C   UNL A   1      32.865  26.784  24.104  1.00  0.00    -0.034 A 
ATOM     14  C   UNL A   1      31.641  29.262  23.537  1.00  0.00     0.001 A 
ATOM     15  C   UNL A   1      32.155  26.978  22.896  1.00  0.00    -0.044 A 
ATOM     16  C   UNL A   1      33.385  25.387  24.446  1.00  0.00     0.053 C 
ATOM     17  C   UNL A   1      31.521  28.206  22.644  1.00  0.00     0.004 A 
ATOM     18  C   UNL A   1      32.179  25.970  21.769  1.00  0.00     0.036 C 
ATOM     19  C   UNL A   1      32.398  24.376  25.096  1.00  0.00    -0.034 A 
ATOM     20  C   UNL A   1      33.986  24.812  23.138  1.00  0.00     0.002 C 
ATOM     21  C   UNL A   1      32.897  24.654  22.062  1.00  0.00     0.009 C 
ATOM     22  C   UNL A   1      31.311  24.722  25.950  1.00  0.00    -0.047 A 
ATOM     23  C   UNL A   1      32.614  22.986  24.853  1.00  0.00    -0.040 A 
ATOM     24  C   UNL A   1      34.718  23.512  23.464  1.00  0.00     0.013 C 
ATOM     25  C   UNL A   1      30.449  23.721  26.448  1.00  0.00     0.004 A 
ATOM     26  C   UNL A   1      30.960  26.116  26.393  1.00  0.00     0.044 C 
ATOM     27  C   UNL A   1      31.689  22.028  25.327  1.00  0.00     0.004 A 
ATOM     28  C   UNL A   1      30.621  22.388  26.126  1.00  0.00     0.001 A 
ENDBRANCH   8   9
ENDBRANCH   5   8
ENDBRANCH   3   4
ENDBRANCH   2   3
ENDBRANCH   1   2
BRANCH   1  29
ATOM     29  N   UNL A   1      40.634  19.243  26.113  1.00  0.00    -0.352 N 
ATOM     30  C   UNL A   1      41.994  19.438  26.169  1.00  0.00     0.251 C 
ATOM     31  H   UNL A   1      40.336  18.306  26.058  1.00  0.00     0.163 HD
ATOM     32  O   UNL A   1      42.761  18.507  25.974  1.00  0.00    -0.269 OA
BRANCH  30  33
ATOM     33  C   UNL A   1      42.508  20.795  26.448  1.00  0.00     0.039 A 
ATOM     34  C   UNL A   1      42.829  21.628  25.376  1.00  0.00     0.014 A 
ATOM     35  C   UNL A   1      42.653  21.236  27.767  1.00  0.00     0.014 A 
ATOM     36  C   UNL A   1      43.263  22.930  25.628  1.00  0.00     0.010 A 
ATOM     37  C   UNL A   1      43.040  22.550  28.014  1.00  0.00     0.010 A 
ATOM     38  C   UNL A   1      43.357  23.403  26.947  1.00  0.00    -0.014 A 
BRANCH  38  39
ATOM     39  C   UNL A   1      43.828  24.781  27.221  1.00  0.00     0.031 A 
ATOM     40  C   UNL A   1      45.278  25.122  27.029  1.00  0.00     0.074 A 
ATOM     41  C   UNL A   1      42.958  25.712  27.656  1.00  0.00     0.049 A 
ATOM     42  N   UNL A   1      45.884  26.268  27.196  1.00  0.00    -0.248 NA
ATOM     43  C   UNL A   1      46.168  24.027  26.608  1.00  0.00     0.031 C 
ATOM     44  C   UNL A   1      41.535  25.485  27.911  1.00  0.00     0.029 A 
ATOM     45  N   UNL A   1      43.143  27.037  27.958  1.00  0.00    -0.354 N 
ATOM     46  C   UNL A   1      47.219  26.037  26.890  1.00  0.00     0.074 A 
ATOM     47  C   UNL A   1      47.348  24.628  26.590  1.00  0.00     0.031 C 
ATOM     48  C   UNL A   1      40.970  26.637  28.307  1.00  0.00     0.029 A 
ATOM     49  C   UNL A   1      41.994  27.679  28.352  1.00  0.00     0.049 A 
ATOM     50  H   UNL A   1      44.018  27.486  27.899  1.00  0.00     0.167 HD
ATOM     51  C   UNL A   1      48.238  26.926  26.831  1.00  0.00     0.037 A 
ATOM     52  C   UNL A   1      41.789  28.964  28.701  1.00  0.00     0.037 A 
ATOM     53  C   UNL A   1      48.100  28.328  27.121  1.00  0.00     0.049 A 
ATOM     54  C   UNL A   1      42.944  29.928  28.660  1.00  0.00     0.074 A 
ATOM     55  C   UNL A   1      49.062  29.319  27.055  1.00  0.00     0.029 A 
ATOM     56  N   UNL A   1      46.924  28.937  27.534  1.00  0.00    -0.354 N 
ATOM     57  N   UNL A   1      44.188  29.706  28.311  1.00  0.00    -0.248 NA
ATOM     58  C   UNL A   1      42.667  31.317  29.053  1.00  0.00     0.031 C 
ATOM     59  C   UNL A   1      48.477  30.523  27.462  1.00  0.00     0.029 A 
ATOM     60  C   UNL A   1      47.141  30.288  27.745  1.00  0.00     0.049 A 
ATOM     61  H   UNL A   1      46.063  28.476  27.658  1.00  0.00     0.167 HD
ATOM     62  C   UNL A   1      44.839  30.930  28.422  1.00  0.00     0.074 A 
ATOM     63  C   UNL A   1      43.848  31.891  28.863  1.00  0.00     0.031 C 
ATOM     64  C   UNL A   1      46.139  31.229  28.182  1.00  0.00     0.037 A 
BRANCH  51  65
ATOM     65  C   UNL A   1      49.585  26.406  26.417  1.00  0.00     0.058 A 
ATOM     66  C   UNL A   1      50.016  26.486  25.083  1.00  0.00     0.135 A 
ATOM     67  C   UNL A   1      50.465  25.852  27.360  1.00  0.00     0.135 A 
ATOM     68  F   UNL A   1      49.206  26.990  24.139  1.00  0.00    -0.206 F 
ATOM     69  C   UNL A   1      51.263  26.010  24.693  1.00  0.00     0.059 A 
ATOM     70  C   UNL A   1      51.727  25.392  26.995  1.00  0.00     0.059 A 
ATOM     71  F   UNL A   1      50.100  25.750  28.647  1.00  0.00    -0.206 F 
ATOM     72  C   UNL A   1      52.111  25.464  25.657  1.00  0.00     0.060 A 
BRANCH  72  73
ATOM     73  S   UNL A   1      53.728  24.855  25.131  1.00  0.00     0.124 S 
ATOM     74  O   UNL A   1      53.917  25.578  23.877  1.00  0.00    -0.237 OA
ATOM     75  O   UNL A   1      54.590  25.268  26.234  1.00  0.00    -0.237 OA
ATOM     76  O   UNL A   1      53.524  23.416  25.001  1.00  0.00    -0.744 OA
ENDBRANCH  72  73
ENDBRANCH  51  65
BRANCH  52  77
ATOM     77  C   UNL A   1      40.424  29.419  29.073  1.00  0.00     0.058 A 
ATOM     78  C   UNL A   1      40.104  29.710  30.407  1.00  0.00     0.135 A 
ATOM     79  C   UNL A   1      39.425  29.605  28.105  1.00  0.00     0.135 A 
ATOM     80  F   UNL A   1      41.024  29.541  31.369  1.00  0.00    -0.206 F 
ATOM     81  C   UNL A   1      38.841  30.165  30.770  1.00  0.00     0.059 A 
ATOM     82  C   UNL A   1      38.160  30.078  28.440  1.00  0.00     0.059 A 
ATOM     83  F   UNL A   1      39.688  29.354  26.813  1.00  0.00    -0.206 F 
ATOM     84  C   UNL A   1      37.877  30.352  29.778  1.00  0.00     0.060 A 
BRANCH  84  85
ATOM     85  S   UNL A   1      36.263  31.009  30.255  1.00  0.00     0.124 S 
ATOM     86  O   UNL A   1      35.494  30.819  29.032  1.00  0.00    -0.237 OA
ATOM     87  O   UNL A   1      35.903  30.147  31.377  1.00  0.00    -0.237 OA
ATOM     88  O   UNL A   1      36.556  32.394  30.610  1.00  0.00    -0.744 OA
ENDBRANCH  84  85
ENDBRANCH  52  77
BRANCH  64  89
ATOM     89  C   UNL A   1      46.573  32.654  28.375  1.00  0.00     0.058 A 
ATOM     90  C   UNL A   1      47.128  33.089  29.588  1.00  0.00     0.135 A 
ATOM     91  C   UNL A   1      46.519  33.567  27.310  1.00  0.00     0.135 A 
ATOM     92  F   UNL A   1      47.194  32.256  30.639  1.00  0.00    -0.206 F 
ATOM     93  C   UNL A   1      47.613  34.384  29.739  1.00  0.00     0.059 A 
ATOM     94  C   UNL A   1      47.019  34.860  27.432  1.00  0.00     0.059 A 
ATOM     95  F   UNL A   1      46.005  33.195  26.126  1.00  0.00    -0.206 F 
ATOM     96  C   UNL A   1      47.560  35.260  28.652  1.00  0.00     0.060 A 
BRANCH  96  97
ATOM     97  S   UNL A   1      48.255  36.915  28.845  1.00  0.00     0.124 S 
ATOM     98  O   UNL A   1      47.883  37.539  27.580  1.00  0.00    -0.237 OA
ATOM     99  O   UNL A   1      47.556  37.411  30.026  1.00  0.00    -0.237 OA
ATOM    100  O   UNL A   1      49.682  36.667  29.027  1.00  0.00    -0.744 OA
ENDBRANCH  96  97
ENDBRANCH  64  89
ENDBRANCH  38  39
ENDBRANCH  30  33
ENDBRANCH   1  29
TORSDOF 14
ENDMDL
MODEL 2
REMARK VINA RESULT:     -13.5      5.960      8.309
REMARK SMILES Cc1cccc2c1[C@H]1c3c(C)cccc3[C@H](CC(=O)NCCCNC(=O)c3ccc(-c4c5nc(c(-c6c(F)cc(S(=O)(=O)[O-])cc6F)c6ccc([nH]6)c(-c6c(F)cc(S(=O)(=O)[O-])cc6F)c6nc(c(-c7c(F)cc(S(=O)(=O)[O-])cc7F)c7ccc4[nH]7)C=C6)C=C5)cc3)C[C@H]1CC2
REMARK SMILES IDX 23 1 22 2 21 3 20 4 18 5 19 6 17 8 16 9 1 10 2 11 3 12 7 13
REMARK SMILES IDX 4 14 6 15 8 16 5 17 96 18 9 19 94 20 95 21 10 22 15 23 93 24
REMARK SMILES IDX 12 25 11 26 14 27 13 28 24 29 25 30 26 32 27 33 28 34 92 35
REMARK SMILES IDX 29 36 91 37 30 38 31 39 32 40 85 41 33 42 90 43 84 44 86 45
REMARK SMILES IDX 34 46 89 47 83 48 82 49 35 51 69 52 48 53 68 54 49 55 52 56
REMARK SMILES IDX 67 57 87 58 50 59 51 60 66 62 88 63 53 64 36 65 37 66 46 67
REMARK SMILES IDX 38 68 39 69 45 70 47 71 40 72 41 73 42 74 43 75 44 76 70 77
REMARK SMILES IDX 71 78 80 79 72 80 73 81 79 82 81 83 74 84 75 85 76 86 77 87
REMARK SMILES IDX 78 88 54 89 55 90 64 91 56 92 57 93 63 94 65 95 58 96 59 97
REMARK SMILES IDX 60 98 61 99 62 100
REMARK H PARENT 20 7 24 31 86 50 52 61
REMARK Flexibility Score: inf
ROOT
ATOM      1  C   UNL A   1      41.821  23.267  27.556  1.00  0.00     0.118 C 
ENDROOT
BRANCH   1   2
ATOM      2  C   UNL A   1      40.665  22.269  27.530  1.00  0.00     0.042 C 
BRANCH   2   3
ATOM      3  C   UNL A   1      39.435  22.795  26.792  1.00  0.00     0.117 C 
BRANCH   3   4
ATOM      4  N   UNL A   1      39.041  21.873  25.744  1.00  0.00    -0.356 N 
ATOM      5  C   UNL A   1      37.815  21.373  25.431  1.00  0.00     0.220 C 
ATOM      6  O   UNL A   1      37.754  20.444  24.625  1.00  0.00    -0.275 OA
ATOM      7  H   UNL A   1      39.776  21.560  25.169  1.00  0.00     0.163 HD
BRANCH   5   8
ATOM      8  C   UNL A   1      36.563  22.028  25.967  1.00  0.00     0.108 C 
BRANCH   8   9
ATOM      9  C   UNL A   1      35.461  22.393  24.952  1.00  0.00     0.029 C 
ATOM     10  C   UNL A   1      34.085  28.061  24.938  1.00  0.00     0.044 C 
ATOM     11  C   UNL A   1      33.131  27.379  23.991  1.00  0.00    -0.047 A 
ATOM     12  C   UNL A   1      32.140  28.175  23.389  1.00  0.00     0.004 A 
ATOM     13  C   UNL A   1      33.238  26.010  23.633  1.00  0.00    -0.034 A 
ATOM     14  C   UNL A   1      31.284  27.649  22.428  1.00  0.00     0.001 A 
ATOM     15  C   UNL A   1      32.455  25.528  22.558  1.00  0.00    -0.044 A 
ATOM     16  C   UNL A   1      34.179  25.047  24.359  1.00  0.00     0.053 C 
ATOM     17  C   UNL A   1      31.462  26.343  21.992  1.00  0.00     0.004 A 
ATOM     18  C   UNL A   1      32.746  24.214  21.868  1.00  0.00     0.036 C 
ATOM     19  C   UNL A   1      33.582  24.133  25.466  1.00  0.00    -0.034 A 
ATOM     20  C   UNL A   1      34.876  24.204  23.260  1.00  0.00     0.002 C 
ATOM     21  C   UNL A   1      33.848  23.359  22.490  1.00  0.00     0.009 C 
ATOM     22  C   UNL A   1      32.476  24.468  26.301  1.00  0.00    -0.047 A 
ATOM     23  C   UNL A   1      34.209  22.871  25.697  1.00  0.00    -0.040 A 
ATOM     24  C   UNL A   1      35.987  23.379  23.905  1.00  0.00     0.013 C 
ATOM     25  C   UNL A   1      31.988  23.538  27.245  1.00  0.00     0.004 A 
ATOM     26  C   UNL A   1      31.728  25.773  26.275  1.00  0.00     0.044 C 
ATOM     27  C   UNL A   1      33.646  21.954  26.613  1.00  0.00     0.004 A 
ATOM     28  C   UNL A   1      32.552  22.285  27.389  1.00  0.00     0.001 A 
ENDBRANCH   8   9
ENDBRANCH   5   8
ENDBRANCH   3   4
ENDBRANCH   2   3
ENDBRANCH   1   2
BRANCH   1  29
ATOM     29  N   UNL A   1      41.909  24.036  26.325  1.00  0.00    -0.352 N 
ATOM     30  C   UNL A   1      41.651  25.374  26.139  1.00  0.00     0.251 C 
ATOM     31  H   UNL A   1      42.188  23.537  25.524  1.00  0.00     0.163 HD
ATOM     32  O   UNL A   1      41.600  25.843  25.012  1.00  0.00    -0.269 OA
BRANCH  30  33
ATOM     33  C   UNL A   1      41.418  26.226  27.323  1.00  0.00     0.039 A 
ATOM     34  C   UNL A   1      42.333  27.237  27.617  1.00  0.00     0.014 A 
ATOM     35  C   UNL A   1      40.287  26.028  28.122  1.00  0.00     0.014 A 
ATOM     36  C   UNL A   1      42.093  28.083  28.701  1.00  0.00     0.010 A 
ATOM     37  C   UNL A   1      40.025  26.902  29.173  1.00  0.00     0.010 A 
ATOM     38  C   UNL A   1      40.931  27.930  29.476  1.00  0.00    -0.014 A 
BRANCH  38  39
ATOM     39  C   UNL A   1      40.677  28.817  30.634  1.00  0.00     0.031 A 
ATOM     40  C   UNL A   1      41.510  28.675  31.876  1.00  0.00     0.074 A 
ATOM     41  C   UNL A   1      39.690  29.732  30.573  1.00  0.00     0.049 A 
ATOM     42  N   UNL A   1      41.458  29.363  32.986  1.00  0.00    -0.248 NA
ATOM     43  C   UNL A   1      42.525  27.609  31.876  1.00  0.00     0.031 C 
ATOM     44  C   UNL A   1      38.796  29.935  29.432  1.00  0.00     0.029 A 
ATOM     45  N   UNL A   1      39.277  30.664  31.491  1.00  0.00    -0.354 N 
ATOM     46  C   UNL A   1      42.437  28.824  33.810  1.00  0.00     0.074 A 
ATOM     47  C   UNL A   1      43.025  27.711  33.099  1.00  0.00     0.031 C 
ATOM     48  C   UNL A   1      37.956  30.946  29.707  1.00  0.00     0.029 A 
ATOM     49  C   UNL A   1      38.239  31.449  31.050  1.00  0.00     0.049 A 
ATOM     50  H   UNL A   1      39.685  30.761  32.382  1.00  0.00     0.167 HD
ATOM     51  C   UNL A   1      42.835  29.242  35.034  1.00  0.00     0.037 A 
ATOM     52  C   UNL A   1      37.595  32.465  31.658  1.00  0.00     0.037 A 
ATOM     53  C   UNL A   1      42.252  30.357  35.732  1.00  0.00     0.049 A 
ATOM     54  C   UNL A   1      38.032  32.891  33.033  1.00  0.00     0.074 A 
ATOM     55  C   UNL A   1      42.607  30.883  36.960  1.00  0.00     0.029 A 
ATOM     56  N   UNL A   1      41.191  31.116  35.261  1.00  0.00    -0.354 N 
ATOM     57  N   UNL A   1      39.000  32.409  33.775  1.00  0.00    -0.248 NA
ATOM     58  C   UNL A   1      37.295  34.002  33.653  1.00  0.00     0.031 C 
ATOM     59  C   UNL A   1      41.737  31.940  37.249  1.00  0.00     0.029 A 
ATOM     60  C   UNL A   1      40.865  32.096  36.183  1.00  0.00     0.049 A 
ATOM     61  H   UNL A   1      40.737  30.978  34.398  1.00  0.00     0.167 HD
ATOM     62  C   UNL A   1      39.003  33.169  34.939  1.00  0.00     0.074 A 
ATOM     63  C   UNL A   1      37.945  34.150  34.799  1.00  0.00     0.031 C 
ATOM     64  C   UNL A   1      39.809  33.064  36.024  1.00  0.00     0.037 A 
BRANCH  51  65
ATOM     65  C   UNL A   1      43.967  28.499  35.685  1.00  0.00     0.058 A 
ATOM     66  C   UNL A   1      45.304  28.831  35.415  1.00  0.00     0.135 A 
ATOM     67  C   UNL A   1      43.719  27.468  36.604  1.00  0.00     0.135 A 
ATOM     68  F   UNL A   1      45.596  29.797  34.529  1.00  0.00    -0.206 F 
ATOM     69  C   UNL A   1      46.357  28.150  36.015  1.00  0.00     0.059 A 
ATOM     70  C   UNL A   1      44.758  26.790  37.235  1.00  0.00     0.059 A 
ATOM     71  F   UNL A   1      42.459  27.110  36.894  1.00  0.00    -0.206 F 
ATOM     72  C   UNL A   1      46.074  27.130  36.923  1.00  0.00     0.060 A 
BRANCH  72  73
ATOM     73  S   UNL A   1      47.455  26.260  37.695  1.00  0.00     0.124 S 
ATOM     74  O   UNL A   1      48.594  27.019  37.190  1.00  0.00    -0.237 OA
ATOM     75  O   UNL A   1      47.169  26.422  39.117  1.00  0.00    -0.237 OA
ATOM     76  O   UNL A   1      47.330  24.900  37.183  1.00  0.00    -0.744 OA
ENDBRANCH  72  73
ENDBRANCH  51  65
BRANCH  52  77
ATOM     77  C   UNL A   1      36.501  33.177  30.946  1.00  0.00     0.058 A 
ATOM     78  C   UNL A   1      35.170  33.046  31.365  1.00  0.00     0.135 A 
ATOM     79  C   UNL A   1      36.766  34.025  29.860  1.00  0.00     0.135 A 
ATOM     80  F   UNL A   1      34.867  32.241  32.395  1.00  0.00    -0.206 F 
ATOM     81  C   UNL A   1      34.136  33.727  30.731  1.00  0.00     0.059 A 
ATOM     82  C   UNL A   1      35.752  34.732  29.221  1.00  0.00     0.059 A 
ATOM     83  F   UNL A   1      38.026  34.193  29.431  1.00  0.00    -0.206 F 
ATOM     84  C   UNL A   1      34.438  34.573  29.662  1.00  0.00     0.060 A 
BRANCH  84  85
ATOM     85  S   UNL A   1      33.096  35.504  28.892  1.00  0.00     0.124 S 
ATOM     86  O   UNL A   1      32.469  34.484  28.061  1.00  0.00    -0.237 OA
ATOM     87  O   UNL A   1      32.326  35.945  30.052  1.00  0.00    -0.237 OA
ATOM     88  O   UNL A   1      33.793  36.566  28.173  1.00  0.00    -0.744 OA
ENDBRANCH  84  85
ENDBRANCH  52  77
BRANCH  64  89
ATOM     89  C   UNL A   1      39.594  34.038  37.148  1.00  0.00     0.058 A 
ATOM     90  C   UNL A   1      38.814  33.701  38.265  1.00  0.00     0.135 A 
ATOM     91  C   UNL A   1      40.248  35.279  37.151  1.00  0.00     0.135 A 
ATOM     92  F   UNL A   1      38.162  32.528  38.306  1.00  0.00    -0.206 F 
ATOM     93  C   UNL A   1      38.688  34.566  39.346  1.00  0.00     0.059 A 
ATOM     94  C   UNL A   1      40.154  36.150  38.232  1.00  0.00     0.059 A 
ATOM     95  F   UNL A   1      41.013  35.643  36.108  1.00  0.00    -0.206 F 
ATOM     96  C   UNL A   1      39.368  35.786  39.324  1.00  0.00     0.060 A 
BRANCH  96  97
ATOM     97  S   UNL A   1      39.247  36.867  40.764  1.00  0.00     0.124 S 
ATOM     98  O   UNL A   1      40.652  37.127  41.056  1.00  0.00    -0.237 OA
ATOM     99  O   UNL A   1      38.488  37.999  40.242  1.00  0.00    -0.237 OA
ATOM    100  O   UNL A   1      38.543  36.048  41.747  1.00  0.00    -0.744 OA
ENDBRANCH  96  97
ENDBRANCH  64  89
ENDBRANCH  38  39
ENDBRANCH  30  33
ENDBRANCH   1  29
TORSDOF 14
ENDMDL
MODEL 3
REMARK VINA RESULT:     -13.5      0.412      8.087
REMARK SMILES Cc1cccc2c1[C@H]1c3c(C)cccc3[C@H](CC(=O)NCCCNC(=O)c3ccc(-c4c5nc(c(-c6c(F)cc(S(=O)(=O)[O-])cc6F)c6ccc([nH]6)c(-c6c(F)cc(S(=O)(=O)[O-])cc6F)c6nc(c(-c7c(F)cc(S(=O)(=O)[O-])cc7F)c7ccc4[nH]7)C=C6)C=C5)cc3)C[C@H]1CC2
REMARK SMILES IDX 23 1 22 2 21 3 20 4 18 5 19 6 17 8 16 9 1 10 2 11 3 12 7 13
REMARK SMILES IDX 4 14 6 15 8 16 5 17 96 18 9 19 94 20 95 21 10 22 15 23 93 24
REMARK SMILES IDX 12 25 11 26 14 27 13 28 24 29 25 30 26 32 27 33 28 34 92 35
REMARK SMILES IDX 29 36 91 37 30 38 31 39 32 40 85 41 33 42 90 43 84 44 86 45
REMARK SMILES IDX 34 46 89 47 83 48 82 49 35 51 69 52 48 53 68 54 49 55 52 56
REMARK SMILES IDX 67 57 87 58 50 59 51 60 66 62 88 63 53 64 36 65 37 66 46 67
REMARK SMILES IDX 38 68 39 69 45 70 47 71 40 72 41 73 42 74 43 75 44 76 70 77
REMARK SMILES IDX 71 78 80 79 72 80 73 81 79 82 81 83 74 84 75 85 76 86 77 87
REMARK SMILES IDX 78 88 54 89 55 90 64 91 56 92 57 93 63 94 65 95 58 96 59 97
REMARK SMILES IDX 60 98 61 99 62 100
REMARK H PARENT 20 7 24 31 86 50 52 61
REMARK Flexibility Score: inf
ROOT
ATOM      1  C   UNL A   1      39.474  20.278  26.128  1.00  0.00     0.118 C 
ENDROOT
BRANCH   1   2
ATOM      2  C   UNL A   1      38.402  20.060  25.062  1.00  0.00     0.042 C 
BRANCH   2   3
ATOM      3  C   UNL A   1      37.580  21.316  24.773  1.00  0.00     0.117 C 
BRANCH   3   4
ATOM      4  N   UNL A   1      36.772  21.669  25.925  1.00  0.00    -0.356 N 
ATOM      5  C   UNL A   1      35.426  21.829  26.037  1.00  0.00     0.220 C 
ATOM      6  O   UNL A   1      34.983  22.331  27.070  1.00  0.00    -0.275 OA
ATOM      7  H   UNL A   1      37.278  21.817  26.757  1.00  0.00     0.163 HD
BRANCH   5   8
ATOM      8  C   UNL A   1      34.501  21.287  24.972  1.00  0.00     0.108 C 
BRANCH   8   9
ATOM      9  C   UNL A   1      33.752  22.308  24.092  1.00  0.00     0.029 C 
ATOM     10  C   UNL A   1      34.106  27.788  26.055  1.00  0.00     0.044 C 
ATOM     11  C   UNL A   1      33.179  27.811  24.866  1.00  0.00    -0.047 A 
ATOM     12  C   UNL A   1      32.586  29.042  24.534  1.00  0.00     0.004 A 
ATOM     13  C   UNL A   1      32.946  26.679  24.042  1.00  0.00    -0.034 A 
ATOM     14  C   UNL A   1      31.799  29.174  23.394  1.00  0.00     0.001 A 
ATOM     15  C   UNL A   1      32.261  26.862  22.818  1.00  0.00    -0.044 A 
ATOM     16  C   UNL A   1      33.423  25.277  24.426  1.00  0.00     0.053 C 
ATOM     17  C   UNL A   1      31.665  28.100  22.525  1.00  0.00     0.004 A 
ATOM     18  C   UNL A   1      32.276  25.826  21.716  1.00  0.00     0.036 C 
ATOM     19  C   UNL A   1      32.398  24.310  25.084  1.00  0.00    -0.034 A 
ATOM     20  C   UNL A   1      34.028  24.654  23.142  1.00  0.00     0.002 C 
ATOM     21  C   UNL A   1      32.953  24.499  22.053  1.00  0.00     0.009 C 
ATOM     22  C   UNL A   1      31.307  24.706  25.911  1.00  0.00    -0.047 A 
ATOM     23  C   UNL A   1      32.580  22.909  24.879  1.00  0.00    -0.040 A 
ATOM     24  C   UNL A   1      34.719  23.343  23.512  1.00  0.00     0.013 C 
ATOM     25  C   UNL A   1      30.410  23.741  26.419  1.00  0.00     0.004 A 
ATOM     26  C   UNL A   1      30.988  26.120  26.314  1.00  0.00     0.044 C 
ATOM     27  C   UNL A   1      31.621  21.988  25.361  1.00  0.00     0.004 A 
ATOM     28  C   UNL A   1      30.551  22.396  26.132  1.00  0.00     0.001 A 
ENDBRANCH   8   9
ENDBRANCH   5   8
ENDBRANCH   3   4
ENDBRANCH   2   3
ENDBRANCH   1   2
BRANCH   1  29
ATOM     29  N   UNL A   1      40.482  19.230  26.113  1.00  0.00    -0.352 N 
ATOM     30  C   UNL A   1      41.850  19.367  26.111  1.00  0.00     0.251 C 
ATOM     31  H   UNL A   1      40.142  18.305  26.105  1.00  0.00     0.163 HD
ATOM     32  O   UNL A   1      42.568  18.396  25.923  1.00  0.00    -0.269 OA
BRANCH  30  33
ATOM     33  C   UNL A   1      42.432  20.708  26.320  1.00  0.00     0.039 A 
ATOM     34  C   UNL A   1      42.810  21.460  25.207  1.00  0.00     0.014 A 
ATOM     35  C   UNL A   1      42.584  21.217  27.614  1.00  0.00     0.014 A 
ATOM     36  C   UNL A   1      43.309  22.750  25.391  1.00  0.00     0.010 A 
ATOM     37  C   UNL A   1      43.037  22.521  27.792  1.00  0.00     0.010 A 
ATOM     38  C   UNL A   1      43.412  23.293  26.682  1.00  0.00    -0.014 A 
BRANCH  38  39
ATOM     39  C   UNL A   1      43.953  24.658  26.884  1.00  0.00     0.031 A 
ATOM     40  C   UNL A   1      43.035  25.764  27.318  1.00  0.00     0.074 A 
ATOM     41  C   UNL A   1      45.259  24.900  26.662  1.00  0.00     0.049 A 
ATOM     42  N   UNL A   1      43.313  27.017  27.565  1.00  0.00    -0.248 NA
ATOM     43  C   UNL A   1      41.612  25.421  27.478  1.00  0.00     0.031 C 
ATOM     44  C   UNL A   1      46.236  23.910  26.206  1.00  0.00     0.029 A 
ATOM     45  N   UNL A   1      45.989  26.054  26.793  1.00  0.00    -0.354 N 
ATOM     46  C   UNL A   1      42.108  27.608  27.922  1.00  0.00     0.074 A 
ATOM     47  C   UNL A   1      41.085  26.594  27.797  1.00  0.00     0.031 C 
ATOM     48  C   UNL A   1      47.443  24.492  26.119  1.00  0.00     0.029 A 
ATOM     49  C   UNL A   1      47.322  25.900  26.494  1.00  0.00     0.049 A 
ATOM     50  H   UNL A   1      45.596  26.912  27.073  1.00  0.00     0.167 HD
ATOM     51  C   UNL A   1      41.882  28.871  28.350  1.00  0.00     0.037 A 
ATOM     52  C   UNL A   1      48.331  26.791  26.528  1.00  0.00     0.037 A 
ATOM     53  C   UNL A   1      42.907  29.872  28.482  1.00  0.00     0.049 A 
ATOM     54  C   UNL A   1      48.050  28.200  26.975  1.00  0.00     0.074 A 
ATOM     55  C   UNL A   1      42.787  31.171  28.941  1.00  0.00     0.029 A 
ATOM     56  N   UNL A   1      44.241  29.683  28.153  1.00  0.00    -0.354 N 
ATOM     57  N   UNL A   1      46.915  28.728  27.366  1.00  0.00    -0.248 NA
ATOM     58  C   UNL A   1      49.185  29.134  26.991  1.00  0.00     0.031 C 
ATOM     59  C   UNL A   1      44.044  31.781  28.856  1.00  0.00     0.029 A 
ATOM     60  C   UNL A   1      44.953  30.849  28.381  1.00  0.00     0.049 A 
ATOM     61  H   UNL A   1      44.625  28.845  27.808  1.00  0.00     0.167 HD
ATOM     62  C   UNL A   1      47.202  30.049  27.695  1.00  0.00     0.074 A 
ATOM     63  C   UNL A   1      48.620  30.236  27.465  1.00  0.00     0.031 C 
ATOM     64  C   UNL A   1      46.366  31.015  28.146  1.00  0.00     0.037 A 
BRANCH  51  65
ATOM     65  C   UNL A   1      40.473  29.233  28.724  1.00  0.00     0.058 A 
ATOM     66  C   UNL A   1      39.497  29.463  27.741  1.00  0.00     0.135 A 
ATOM     67  C   UNL A   1      40.084  29.322  30.070  1.00  0.00     0.135 A 
ATOM     68  F   UNL A   1      39.821  29.407  26.440  1.00  0.00    -0.206 F 
ATOM     69  C   UNL A   1      38.189  29.795  28.079  1.00  0.00     0.059 A 
ATOM     70  C   UNL A   1      38.775  29.629  30.430  1.00  0.00     0.059 A 
ATOM     71  F   UNL A   1      40.979  29.116  31.047  1.00  0.00    -0.206 F 
ATOM     72  C   UNL A   1      37.838  29.877  29.427  1.00  0.00     0.060 A 
BRANCH  72  73
ATOM     73  S   UNL A   1      36.135  30.305  29.846  1.00  0.00     0.124 S 
ATOM     74  O   UNL A   1      35.406  29.731  28.719  1.00  0.00    -0.237 OA
ATOM     75  O   UNL A   1      35.951  29.631  31.127  1.00  0.00    -0.237 OA
ATOM     76  O   UNL A   1      36.155  31.763  29.903  1.00  0.00    -0.744 OA
ENDBRANCH  72  73
ENDBRANCH  51  65
BRANCH  52  77
ATOM     77  C   UNL A   1      49.709  26.361  26.172  1.00  0.00     0.058 A 
ATOM     78  C   UNL A   1      50.245  26.648  24.909  1.00  0.00     0.135 A 
ATOM     79  C   UNL A   1      50.525  25.687  27.093  1.00  0.00     0.135 A 
ATOM     80  F   UNL A   1      49.500  27.284  23.992  1.00  0.00    -0.206 F 
ATOM     81  C   UNL A   1      51.542  26.279  24.568  1.00  0.00     0.059 A 
ATOM     82  C   UNL A   1      51.833  25.325  26.783  1.00  0.00     0.059 A 
ATOM     83  F   UNL A   1      50.061  25.402  28.320  1.00  0.00    -0.206 F 
ATOM     84  C   UNL A   1      52.331  25.623  25.515  1.00  0.00     0.060 A 
BRANCH  84  85
ATOM     85  S   UNL A   1      54.036  25.212  25.082  1.00  0.00     0.124 S 
ATOM     86  O   UNL A   1      54.765  25.724  26.235  1.00  0.00    -0.237 OA
ATOM     87  O   UNL A   1      53.976  23.758  24.957  1.00  0.00    -0.237 OA
ATOM     88  O   UNL A   1      54.247  25.931  23.829  1.00  0.00    -0.744 OA
ENDBRANCH  84  85
ENDBRANCH  52  77
BRANCH  64  89
ATOM     89  C   UNL A   1      46.956  32.367  28.435  1.00  0.00     0.058 A 
ATOM     90  C   UNL A   1      46.974  33.378  27.463  1.00  0.00     0.135 A 
ATOM     91  C   UNL A   1      47.422  32.681  29.722  1.00  0.00     0.135 A 
ATOM     92  F   UNL A   1      46.546  33.124  26.216  1.00  0.00    -0.206 F 
ATOM     93  C   UNL A   1      47.437  34.656  27.756  1.00  0.00     0.059 A 
ATOM     94  C   UNL A   1      47.869  33.959  30.043  1.00  0.00     0.059 A 
ATOM     95  F   UNL A   1      47.417  31.749  30.689  1.00  0.00    -0.206 F 
ATOM     96  C   UNL A   1      47.876  34.938  29.052  1.00  0.00     0.060 A 
BRANCH  96  97
ATOM     97  S   UNL A   1      48.411  36.620  29.433  1.00  0.00     0.124 S 
ATOM     98  O   UNL A   1      48.317  37.262  28.126  1.00  0.00    -0.237 OA
ATOM     99  O   UNL A   1      47.424  37.045  30.420  1.00  0.00    -0.237 OA
ATOM    100  O   UNL A   1      49.766  36.438  29.947  1.00  0.00    -0.744 OA
ENDBRANCH  96  97
ENDBRANCH  64  89
ENDBRANCH  38  39
ENDBRANCH  30  33
ENDBRANCH   1  29
TORSDOF 14
ENDMDL
