MODEL 1
REMARK VINA RESULT:     -11.8      0.000      0.000
REMARK SMILES CC(C)[C@H](CO)Nc1ccc(C(F)(F)F)cc1C(=O)NCCCNC(=O)c1ccc(-c2c3nc(c(-c4c(F)cc(S(=O)(=O)[O-])cc4F)c4ccc([nH]4)c(-c4c(F)cc(S(=O)(=O)[O-])cc4F)c4nc(c(-c5c(F)cc(S(=O)(=O)[O-])cc5F)c5ccc2[nH]5)C=C4)C=C3)cc1
REMARK SMILES IDX 21 1 20 2 18 3 19 4 17 6 8 7 9 8 10 9 16 10 11 11 7 12 4 14
REMARK SMILES IDX 2 15 1 16 3 17 5 18 6 19 12 21 13 22 14 23 15 24 22 25 23 26
REMARK SMILES IDX 24 27 25 28 26 30 27 31 28 32 92 33 29 34 91 35 30 36 31 37
REMARK SMILES IDX 32 38 85 39 33 40 90 41 84 42 86 43 34 44 89 45 83 46 82 47
REMARK SMILES IDX 35 49 69 50 48 51 68 52 49 53 52 54 67 55 87 56 50 57 51 58
REMARK SMILES IDX 66 60 88 61 53 62 36 63 37 64 46 65 38 66 39 67 45 68 47 69
REMARK SMILES IDX 40 70 41 71 42 72 43 73 44 74 70 75 71 76 80 77 72 78 73 79
REMARK SMILES IDX 79 80 81 81 74 82 75 83 76 84 77 85 78 86 54 87 55 88 64 89
REMARK SMILES IDX 56 90 57 91 63 92 65 93 58 94 59 95 60 96 61 97 62 98
REMARK H PARENT 20 5 7 13 6 20 24 29 86 48 52 59
REMARK Flexibility Score: inf
ROOT
ATOM      1  C   UNL A   1      36.584  22.283  25.047  1.00  0.00     0.118 C 
ENDROOT
BRANCH   1   2
ATOM      2  N   UNL A   1      35.815  22.067  26.262  1.00  0.00    -0.352 N 
ATOM      3  C   UNL A   1      34.606  21.423  26.420  1.00  0.00     0.253 C 
ATOM      4  O   UNL A   1      34.034  21.456  27.511  1.00  0.00    -0.269 OA
ATOM      5  H   UNL A   1      36.212  22.431  27.086  1.00  0.00     0.163 HD
BRANCH   3   6
ATOM      6  C   UNL A   1      33.921  20.776  25.278  1.00  0.00     0.063 A 
ATOM      7  C   UNL A   1      32.920  21.392  24.508  1.00  0.00     0.047 A 
ATOM      8  C   UNL A   1      32.219  20.581  23.602  1.00  0.00     0.027 A 
ATOM      9  C   UNL A   1      32.558  19.233  23.404  1.00  0.00     0.015 A 
ATOM     10  C   UNL A   1      34.319  19.448  25.020  1.00  0.00     0.029 A 
ATOM     11  C   UNL A   1      33.646  18.664  24.077  1.00  0.00     0.056 A 
BRANCH   7  12
ATOM     12  N   UNL A   1      32.545  22.718  24.675  1.00  0.00    -0.379 N 
ATOM     13  H   UNL A   1      33.197  23.413  24.432  1.00  0.00     0.160 HD
BRANCH  12  14
ATOM     14  C   UNL A   1      31.234  23.157  25.194  1.00  0.00     0.107 C 
BRANCH  14  15
ATOM     15  C   UNL A   1      30.656  24.289  24.283  1.00  0.00     0.007 C 
ATOM     16  C   UNL A   1      30.305  25.565  25.056  1.00  0.00     0.009 C 
ATOM     17  C   UNL A   1      31.565  24.694  23.119  1.00  0.00     0.009 C 
ENDBRANCH  14  15
BRANCH  14  18
ATOM     18  C   UNL A   1      31.524  23.668  26.640  1.00  0.00     0.181 C 
BRANCH  18  19
ATOM     19  O   UNL A   1      31.286  22.606  27.582  1.00  0.00    -0.394 OA
ATOM     20  H   UNL A   1      30.577  22.867  28.191  1.00  0.00     0.210 HD
ENDBRANCH  18  19
ENDBRANCH  14  18
ENDBRANCH  12  14
ENDBRANCH   7  12
BRANCH  11  21
ATOM     21  C   UNL A   1      34.060  17.232  23.845  1.00  0.00     0.416 C 
ATOM     22  F   UNL A   1      33.076  16.345  24.161  1.00  0.00    -0.166 F 
ATOM     23  F   UNL A   1      34.395  16.969  22.550  1.00  0.00    -0.166 F 
ATOM     24  F   UNL A   1      35.145  16.866  24.584  1.00  0.00    -0.166 F 
ENDBRANCH  11  21
ENDBRANCH   3   6
ENDBRANCH   1   2
BRANCH   1  25
ATOM     25  C   UNL A   1      37.945  21.601  25.041  1.00  0.00     0.042 C 
BRANCH  25  26
ATOM     26  C   UNL A   1      38.910  21.986  26.162  1.00  0.00     0.118 C 
BRANCH  26  27
ATOM     27  N   UNL A   1      40.319  22.124  25.805  1.00  0.00    -0.352 N 
ATOM     28  C   UNL A   1      41.199  23.158  26.103  1.00  0.00     0.251 C 
ATOM     29  H   UNL A   1      40.697  21.381  25.280  1.00  0.00     0.163 HD
ATOM     30  O   UNL A   1      42.396  23.039  25.897  1.00  0.00    -0.269 OA
BRANCH  28  31
ATOM     31  C   UNL A   1      40.649  24.465  26.552  1.00  0.00     0.039 A 
ATOM     32  C   UNL A   1      39.845  24.457  27.696  1.00  0.00     0.014 A 
ATOM     33  C   UNL A   1      41.094  25.673  26.015  1.00  0.00     0.014 A 
ATOM     34  C   UNL A   1      39.693  25.631  28.433  1.00  0.00     0.010 A 
ATOM     35  C   UNL A   1      41.019  26.823  26.795  1.00  0.00     0.010 A 
ATOM     36  C   UNL A   1      40.398  26.782  28.054  1.00  0.00    -0.014 A 
BRANCH  36  37
ATOM     37  C   UNL A   1      40.685  27.855  29.042  1.00  0.00     0.031 A 
ATOM     38  C   UNL A   1      41.862  27.764  29.964  1.00  0.00     0.074 A 
ATOM     39  C   UNL A   1      39.786  28.854  29.186  1.00  0.00     0.049 A 
ATOM     40  N   UNL A   1      42.196  28.556  30.949  1.00  0.00    -0.248 NA
ATOM     41  C   UNL A   1      42.764  26.620  29.774  1.00  0.00     0.031 C 
ATOM     42  C   UNL A   1      38.560  29.012  28.394  1.00  0.00     0.029 A 
ATOM     43  N   UNL A   1      39.749  29.918  30.052  1.00  0.00    -0.354 N 
ATOM     44  C   UNL A   1      43.336  28.000  31.511  1.00  0.00     0.074 A 
ATOM     45  C   UNL A   1      43.617  26.783  30.776  1.00  0.00     0.031 C 
ATOM     46  C   UNL A   1      37.917  30.122  28.784  1.00  0.00     0.029 A 
ATOM     47  C   UNL A   1      38.650  30.731  29.887  1.00  0.00     0.049 A 
ATOM     48  H   UNL A   1      40.444  30.086  30.729  1.00  0.00     0.167 HD
ATOM     49  C   UNL A   1      44.086  28.469  32.537  1.00  0.00     0.037 A 
ATOM     50  C   UNL A   1      38.265  31.837  30.553  1.00  0.00     0.037 A 
ATOM     51  C   UNL A   1      43.811  29.691  33.247  1.00  0.00     0.049 A 
ATOM     52  C   UNL A   1      39.110  32.330  31.693  1.00  0.00     0.074 A 
ATOM     53  C   UNL A   1      44.559  30.297  34.239  1.00  0.00     0.029 A 
ATOM     54  N   UNL A   1      42.690  30.487  33.049  1.00  0.00    -0.354 N 
ATOM     55  N   UNL A   1      40.234  31.838  32.153  1.00  0.00    -0.248 NA
ATOM     56  C   UNL A   1      38.630  33.518  32.412  1.00  0.00     0.031 C 
ATOM     57  C   UNL A   1      43.873  31.439  34.669  1.00  0.00     0.029 A 
ATOM     58  C   UNL A   1      42.712  31.561  33.922  1.00  0.00     0.049 A 
ATOM     59  H   UNL A   1      41.984  30.311  32.386  1.00  0.00     0.167 HD
ATOM     60  C   UNL A   1      40.607  32.665  33.204  1.00  0.00     0.074 A 
ATOM     61  C   UNL A   1      39.593  33.695  33.307  1.00  0.00     0.031 C 
ATOM     62  C   UNL A   1      41.693  32.578  34.011  1.00  0.00     0.037 A 
BRANCH  49  63
ATOM     63  C   UNL A   1      45.273  27.649  32.951  1.00  0.00     0.058 A 
ATOM     64  C   UNL A   1      45.172  26.652  33.935  1.00  0.00     0.135 A 
ATOM     65  C   UNL A   1      46.529  27.860  32.357  1.00  0.00     0.135 A 
ATOM     66  F   UNL A   1      43.997  26.420  34.541  1.00  0.00    -0.206 F 
ATOM     67  C   UNL A   1      46.281  25.923  34.347  1.00  0.00     0.059 A 
ATOM     68  C   UNL A   1      47.648  27.124  32.738  1.00  0.00     0.059 A 
ATOM     69  F   UNL A   1      46.679  28.799  31.411  1.00  0.00    -0.206 F 
ATOM     70  C   UNL A   1      47.518  26.174  33.750  1.00  0.00     0.060 A 
BRANCH  70  71
ATOM     71  S   UNL A   1      48.957  25.244  34.317  1.00  0.00     0.124 S 
ATOM     72  O   UNL A   1      48.325  24.175  35.084  1.00  0.00    -0.237 OA
ATOM     73  O   UNL A   1      49.584  24.837  33.063  1.00  0.00    -0.237 OA
ATOM     74  O   UNL A   1      49.706  26.221  35.100  1.00  0.00    -0.744 OA
ENDBRANCH  70  71
ENDBRANCH  49  63
BRANCH  50  75
ATOM     75  C   UNL A   1      37.034  32.564  30.144  1.00  0.00     0.058 A 
ATOM     76  C   UNL A   1      35.811  32.307  30.782  1.00  0.00     0.135 A 
ATOM     77  C   UNL A   1      37.053  33.538  29.135  1.00  0.00     0.135 A 
ATOM     78  F   UNL A   1      35.742  31.380  31.749  1.00  0.00    -0.206 F 
ATOM     79  C   UNL A   1      34.649  32.986  30.431  1.00  0.00     0.059 A 
ATOM     80  C   UNL A   1      35.908  34.244  28.779  1.00  0.00     0.059 A 
ATOM     81  F   UNL A   1      38.202  33.831  28.505  1.00  0.00    -0.206 F 
ATOM     82  C   UNL A   1      34.709  33.956  29.429  1.00  0.00     0.060 A 
BRANCH  82  83
ATOM     83  S   UNL A   1      33.207  34.874  29.022  1.00  0.00     0.124 S 
ATOM     84  O   UNL A   1      32.560  33.974  28.074  1.00  0.00    -0.237 OA
ATOM     85  O   UNL A   1      32.560  35.001  30.324  1.00  0.00    -0.237 OA
ATOM     86  O   UNL A   1      33.719  36.122  28.462  1.00  0.00    -0.744 OA
ENDBRANCH  82  83
ENDBRANCH  50  75
BRANCH  62  87
ATOM     87  C   UNL A   1      41.851  33.630  35.070  1.00  0.00     0.058 A 
ATOM     88  C   UNL A   1      41.316  33.458  36.355  1.00  0.00     0.135 A 
ATOM     89  C   UNL A   1      42.607  34.785  34.819  1.00  0.00     0.135 A 
ATOM     90  F   UNL A   1      40.573  32.375  36.638  1.00  0.00    -0.206 F 
ATOM     91  C   UNL A   1      41.526  34.397  37.359  1.00  0.00     0.059 A 
ATOM     92  C   UNL A   1      42.847  35.728  35.813  1.00  0.00     0.059 A 
ATOM     93  F   UNL A   1      43.143  34.993  33.606  1.00  0.00    -0.206 F 
ATOM     94  C   UNL A   1      42.299  35.526  37.080  1.00  0.00     0.060 A 
BRANCH  94  95
ATOM     95  S   UNL A   1      42.624  36.703  38.409  1.00  0.00     0.124 S 
ATOM     96  O   UNL A   1      43.398  35.890  39.341  1.00  0.00    -0.237 OA
ATOM     97  O   UNL A   1      43.364  37.757  37.722  1.00  0.00    -0.237 OA
ATOM     98  O   UNL A   1      41.288  37.079  38.862  1.00  0.00    -0.744 OA
ENDBRANCH  94  95
ENDBRANCH  62  87
ENDBRANCH  36  37
ENDBRANCH  28  31
ENDBRANCH  26  27
ENDBRANCH  25  26
ENDBRANCH   1  25
TORSDOF 19
ENDMDL
MODEL 2
REMARK VINA RESULT:     -11.6      1.850      2.824
REMARK SMILES CC(C)[C@H](CO)Nc1ccc(C(F)(F)F)cc1C(=O)NCCCNC(=O)c1ccc(-c2c3nc(c(-c4c(F)cc(S(=O)(=O)[O-])cc4F)c4ccc([nH]4)c(-c4c(F)cc(S(=O)(=O)[O-])cc4F)c4nc(c(-c5c(F)cc(S(=O)(=O)[O-])cc5F)c5ccc2[nH]5)C=C4)C=C3)cc1
REMARK SMILES IDX 21 1 20 2 18 3 19 4 17 6 8 7 9 8 10 9 16 10 11 11 7 12 4 14
REMARK SMILES IDX 2 15 1 16 3 17 5 18 6 19 12 21 13 22 14 23 15 24 22 25 23 26
REMARK SMILES IDX 24 27 25 28 26 30 27 31 28 32 92 33 29 34 91 35 30 36 31 37
REMARK SMILES IDX 32 38 85 39 33 40 90 41 84 42 86 43 34 44 89 45 83 46 82 47
REMARK SMILES IDX 35 49 69 50 48 51 68 52 49 53 52 54 67 55 87 56 50 57 51 58
REMARK SMILES IDX 66 60 88 61 53 62 36 63 37 64 46 65 38 66 39 67 45 68 47 69
REMARK SMILES IDX 40 70 41 71 42 72 43 73 44 74 70 75 71 76 80 77 72 78 73 79
REMARK SMILES IDX 79 80 81 81 74 82 75 83 76 84 77 85 78 86 54 87 55 88 64 89
REMARK SMILES IDX 56 90 57 91 63 92 65 93 58 94 59 95 60 96 61 97 62 98
REMARK H PARENT 20 5 7 13 6 20 24 29 86 48 52 59
REMARK Flexibility Score: inf
ROOT
ATOM      1  C   UNL A   1      36.442  21.164  24.924  1.00  0.00     0.118 C 
ENDROOT
BRANCH   1   2
ATOM      2  N   UNL A   1      35.548  21.070  26.066  1.00  0.00    -0.352 N 
ATOM      3  C   UNL A   1      34.220  21.429  26.160  1.00  0.00     0.253 C 
ATOM      4  O   UNL A   1      33.656  21.405  27.254  1.00  0.00    -0.269 OA
ATOM      5  H   UNL A   1      35.945  20.700  26.887  1.00  0.00     0.163 HD
BRANCH   3   6
ATOM      6  C   UNL A   1      33.476  21.946  24.988  1.00  0.00     0.063 A 
ATOM      7  C   UNL A   1      32.652  21.156  24.167  1.00  0.00     0.047 A 
ATOM      8  C   UNL A   1      32.188  21.738  22.977  1.00  0.00     0.027 A 
ATOM      9  C   UNL A   1      32.459  23.078  22.656  1.00  0.00     0.015 A 
ATOM     10  C   UNL A   1      33.677  23.313  24.710  1.00  0.00     0.029 A 
ATOM     11  C   UNL A   1      33.166  23.896  23.546  1.00  0.00     0.056 A 
BRANCH   7  12
ATOM     12  N   UNL A   1      32.366  19.826  24.439  1.00  0.00    -0.379 N 
ATOM     13  H   UNL A   1      31.422  19.578  24.573  1.00  0.00     0.160 HD
BRANCH  12  14
ATOM     14  C   UNL A   1      33.378  18.757  24.542  1.00  0.00     0.107 C 
BRANCH  14  15
ATOM     15  C   UNL A   1      33.531  18.036  23.163  1.00  0.00     0.007 C 
ATOM     16  C   UNL A   1      34.003  16.584  23.290  1.00  0.00     0.009 C 
ATOM     17  C   UNL A   1      32.262  18.032  22.304  1.00  0.00     0.009 C 
ENDBRANCH  14  15
BRANCH  14  18
ATOM     18  C   UNL A   1      32.836  17.793  25.643  1.00  0.00     0.181 C 
BRANCH  18  19
ATOM     19  O   UNL A   1      32.747  18.494  26.896  1.00  0.00    -0.394 OA
ATOM     20  H   UNL A   1      32.237  17.964  27.528  1.00  0.00     0.210 HD
ENDBRANCH  18  19
ENDBRANCH  14  18
ENDBRANCH  12  14
ENDBRANCH   7  12
BRANCH  11  21
ATOM     21  C   UNL A   1      33.427  25.351  23.246  1.00  0.00     0.416 C 
ATOM     22  F   UNL A   1      33.859  25.554  21.970  1.00  0.00    -0.166 F 
ATOM     23  F   UNL A   1      32.325  26.140  23.395  1.00  0.00    -0.166 F 
ATOM     24  F   UNL A   1      34.379  25.897  24.054  1.00  0.00    -0.166 F 
ENDBRANCH  11  21
ENDBRANCH   3   6
ENDBRANCH   1   2
BRANCH   1  25
ATOM     25  C   UNL A   1      37.542  22.205  25.077  1.00  0.00     0.042 C 
BRANCH  25  26
ATOM     26  C   UNL A   1      38.566  21.964  26.186  1.00  0.00     0.118 C 
BRANCH  26  27
ATOM     27  N   UNL A   1      39.975  22.053  25.816  1.00  0.00    -0.352 N 
ATOM     28  C   UNL A   1      40.891  23.059  26.101  1.00  0.00     0.251 C 
ATOM     29  H   UNL A   1      40.325  21.296  25.294  1.00  0.00     0.163 HD
ATOM     30  O   UNL A   1      42.082  22.900  25.886  1.00  0.00    -0.269 OA
BRANCH  28  31
ATOM     31  C   UNL A   1      40.388  24.387  26.546  1.00  0.00     0.039 A 
ATOM     32  C   UNL A   1      39.605  24.414  27.704  1.00  0.00     0.014 A 
ATOM     33  C   UNL A   1      40.859  25.576  25.989  1.00  0.00     0.014 A 
ATOM     34  C   UNL A   1      39.501  25.599  28.432  1.00  0.00     0.010 A 
ATOM     35  C   UNL A   1      40.832  26.735  26.758  1.00  0.00     0.010 A 
ATOM     36  C   UNL A   1      40.233  26.725  28.028  1.00  0.00    -0.014 A 
BRANCH  36  37
ATOM     37  C   UNL A   1      40.569  27.799  29.000  1.00  0.00     0.031 A 
ATOM     38  C   UNL A   1      41.774  27.694  29.884  1.00  0.00     0.074 A 
ATOM     39  C   UNL A   1      39.691  28.812  29.168  1.00  0.00     0.049 A 
ATOM     40  N   UNL A   1      42.153  28.487  30.851  1.00  0.00    -0.248 NA
ATOM     41  C   UNL A   1      42.652  26.535  29.670  1.00  0.00     0.031 C 
ATOM     42  C   UNL A   1      38.442  28.986  28.415  1.00  0.00     0.029 A 
ATOM     43  N   UNL A   1      39.699  29.882  30.028  1.00  0.00    -0.354 N 
ATOM     44  C   UNL A   1      43.302  27.915  31.380  1.00  0.00     0.074 A 
ATOM     45  C   UNL A   1      43.539  26.690  30.643  1.00  0.00     0.031 C 
ATOM     46  C   UNL A   1      37.830  30.107  28.820  1.00  0.00     0.029 A 
ATOM     47  C   UNL A   1      38.608  30.711  29.894  1.00  0.00     0.049 A 
ATOM     48  H   UNL A   1      40.419  30.042  30.681  1.00  0.00     0.167 HD
ATOM     49  C   UNL A   1      44.092  28.378  32.377  1.00  0.00     0.037 A 
ATOM     50  C   UNL A   1      38.263  31.826  30.566  1.00  0.00     0.037 A 
ATOM     51  C   UNL A   1      43.860  29.608  33.088  1.00  0.00     0.049 A 
ATOM     52  C   UNL A   1      39.152  32.312  31.674  1.00  0.00     0.074 A 
ATOM     53  C   UNL A   1      44.650  30.208  34.052  1.00  0.00     0.029 A 
ATOM     54  N   UNL A   1      42.746  30.420  32.922  1.00  0.00    -0.354 N 
ATOM     55  N   UNL A   1      40.283  31.805  32.100  1.00  0.00    -0.248 NA
ATOM     56  C   UNL A   1      38.715  33.512  32.401  1.00  0.00     0.031 C 
ATOM     57  C   UNL A   1      43.996  31.362  34.497  1.00  0.00     0.029 A 
ATOM     58  C   UNL A   1      42.814  31.499  33.788  1.00  0.00     0.049 A 
ATOM     59  H   UNL A   1      42.016  30.252  32.284  1.00  0.00     0.167 HD
ATOM     60  C   UNL A   1      40.703  32.632  33.133  1.00  0.00     0.074 A 
ATOM     61  C   UNL A   1      39.709  33.678  33.263  1.00  0.00     0.031 C 
ATOM     62  C   UNL A   1      41.814  32.532  33.904  1.00  0.00     0.037 A 
BRANCH  49  63
ATOM     63  C   UNL A   1      45.280  27.541  32.756  1.00  0.00     0.058 A 
ATOM     64  C   UNL A   1      45.175  26.494  33.686  1.00  0.00     0.135 A 
ATOM     65  C   UNL A   1      46.539  27.788  32.185  1.00  0.00     0.135 A 
ATOM     66  F   UNL A   1      43.996  26.226  34.270  1.00  0.00    -0.206 F 
ATOM     67  C   UNL A   1      46.284  25.748  34.068  1.00  0.00     0.059 A 
ATOM     68  C   UNL A   1      47.658  27.037  32.535  1.00  0.00     0.059 A 
ATOM     69  F   UNL A   1      46.693  28.776  31.291  1.00  0.00    -0.206 F 
ATOM     70  C   UNL A   1      47.524  26.035  33.494  1.00  0.00     0.060 A 
BRANCH  70  71
ATOM     71  S   UNL A   1      48.963  25.081  34.023  1.00  0.00     0.124 S 
ATOM     72  O   UNL A   1      49.600  26.012  34.951  1.00  0.00    -0.237 OA
ATOM     73  O   UNL A   1      48.354  23.902  34.631  1.00  0.00    -0.237 OA
ATOM     74  O   UNL A   1      49.686  24.840  32.780  1.00  0.00    -0.744 OA
ENDBRANCH  70  71
ENDBRANCH  49  63
BRANCH  50  75
ATOM     75  C   UNL A   1      37.030  32.570  30.193  1.00  0.00     0.058 A 
ATOM     76  C   UNL A   1      35.832  32.359  30.892  1.00  0.00     0.135 A 
ATOM     77  C   UNL A   1      37.024  33.517  29.158  1.00  0.00     0.135 A 
ATOM     78  F   UNL A   1      35.787  31.459  31.886  1.00  0.00    -0.206 F 
ATOM     79  C   UNL A   1      34.670  33.054  30.576  1.00  0.00     0.059 A 
ATOM     80  C   UNL A   1      35.880  34.240  28.835  1.00  0.00     0.059 A 
ATOM     81  F   UNL A   1      38.149  33.767  28.469  1.00  0.00    -0.206 F 
ATOM     82  C   UNL A   1      34.705  33.997  29.546  1.00  0.00     0.060 A 
BRANCH  82  83
ATOM     83  S   UNL A   1      33.206  34.938  29.182  1.00  0.00     0.124 S 
ATOM     84  O   UNL A   1      32.551  34.961  30.485  1.00  0.00    -0.237 OA
ATOM     85  O   UNL A   1      33.747  36.211  28.717  1.00  0.00    -0.237 OA
ATOM     86  O   UNL A   1      32.548  34.134  28.157  1.00  0.00    -0.744 OA
ENDBRANCH  82  83
ENDBRANCH  50  75
BRANCH  62  87
ATOM     87  C   UNL A   1      42.023  33.588  34.951  1.00  0.00     0.058 A 
ATOM     88  C   UNL A   1      41.488  33.452  36.241  1.00  0.00     0.135 A 
ATOM     89  C   UNL A   1      42.827  34.706  34.685  1.00  0.00     0.135 A 
ATOM     90  F   UNL A   1      40.701  32.405  36.539  1.00  0.00    -0.206 F 
ATOM     91  C   UNL A   1      41.744  34.391  37.234  1.00  0.00     0.059 A 
ATOM     92  C   UNL A   1      43.113  35.647  35.667  1.00  0.00     0.059 A 
ATOM     93  F   UNL A   1      43.364  34.878  33.467  1.00  0.00    -0.206 F 
ATOM     94  C   UNL A   1      42.564  35.483  36.939  1.00  0.00     0.060 A 
BRANCH  94  95
ATOM     95  S   UNL A   1      42.947  36.659  38.254  1.00  0.00     0.124 S 
ATOM     96  O   UNL A   1      43.361  37.831  37.490  1.00  0.00    -0.237 OA
ATOM     97  O   UNL A   1      41.670  36.776  38.952  1.00  0.00    -0.237 OA
ATOM     98  O   UNL A   1      44.005  35.993  39.006  1.00  0.00    -0.744 OA
ENDBRANCH  94  95
ENDBRANCH  62  87
ENDBRANCH  36  37
ENDBRANCH  28  31
ENDBRANCH  26  27
ENDBRANCH  25  26
ENDBRANCH   1  25
TORSDOF 19
ENDMDL
MODEL 3
REMARK VINA RESULT:     -11.4      5.172      9.890
REMARK SMILES CC(C)[C@H](CO)Nc1ccc(C(F)(F)F)cc1C(=O)NCCCNC(=O)c1ccc(-c2c3nc(c(-c4c(F)cc(S(=O)(=O)[O-])cc4F)c4ccc([nH]4)c(-c4c(F)cc(S(=O)(=O)[O-])cc4F)c4nc(c(-c5c(F)cc(S(=O)(=O)[O-])cc5F)c5ccc2[nH]5)C=C4)C=C3)cc1
REMARK SMILES IDX 21 1 20 2 18 3 19 4 17 6 8 7 9 8 10 9 16 10 11 11 7 12 4 14
REMARK SMILES IDX 2 15 1 16 3 17 5 18 6 19 12 21 13 22 14 23 15 24 22 25 23 26
REMARK SMILES IDX 24 27 25 28 26 30 27 31 28 32 92 33 29 34 91 35 30 36 31 37
REMARK SMILES IDX 32 38 85 39 33 40 90 41 84 42 86 43 34 44 89 45 83 46 82 47
REMARK SMILES IDX 35 49 69 50 48 51 68 52 49 53 52 54 67 55 87 56 50 57 51 58
REMARK SMILES IDX 66 60 88 61 53 62 36 63 37 64 46 65 38 66 39 67 45 68 47 69
REMARK SMILES IDX 40 70 41 71 42 72 43 73 44 74 70 75 71 76 80 77 72 78 73 79
REMARK SMILES IDX 79 80 81 81 74 82 75 83 76 84 77 85 78 86 54 87 55 88 64 89
REMARK SMILES IDX 56 90 57 91 63 92 65 93 58 94 59 95 60 96 61 97 62 98
REMARK H PARENT 20 5 7 13 6 20 24 29 86 48 52 59
REMARK Flexibility Score: inf
ROOT
ATOM      1  C   UNL A   1      36.655  22.575  25.377  1.00  0.00     0.118 C 
ENDROOT
BRANCH   1   2
ATOM      2  N   UNL A   1      35.772  22.354  26.510  1.00  0.00    -0.352 N 
ATOM      3  C   UNL A   1      34.546  21.722  26.544  1.00  0.00     0.253 C 
ATOM      4  O   UNL A   1      33.874  21.748  27.576  1.00  0.00    -0.269 OA
ATOM      5  H   UNL A   1      36.092  22.703  27.373  1.00  0.00     0.163 HD
BRANCH   3   6
ATOM      6  C   UNL A   1      33.967  21.096  25.333  1.00  0.00     0.063 A 
ATOM      7  C   UNL A   1      33.168  21.779  24.400  1.00  0.00     0.047 A 
ATOM      8  C   UNL A   1      32.519  21.005  23.426  1.00  0.00     0.027 A 
ATOM      9  C   UNL A   1      32.723  19.620  23.327  1.00  0.00     0.015 A 
ATOM     10  C   UNL A   1      34.240  19.722  25.184  1.00  0.00     0.029 A 
ATOM     11  C   UNL A   1      33.627  18.970  24.176  1.00  0.00     0.056 A 
BRANCH   7  12
ATOM     12  N   UNL A   1      32.929  23.145  24.464  1.00  0.00    -0.379 N 
ATOM     13  H   UNL A   1      32.173  23.453  25.014  1.00  0.00     0.160 HD
BRANCH  12  14
ATOM     14  C   UNL A   1      33.729  24.168  23.761  1.00  0.00     0.107 C 
BRANCH  14  15
ATOM     15  C   UNL A   1      34.043  25.353  24.732  1.00  0.00     0.007 C 
ATOM     16  C   UNL A   1      33.664  26.721  24.155  1.00  0.00     0.009 C 
ATOM     17  C   UNL A   1      33.384  25.238  26.110  1.00  0.00     0.009 C 
ENDBRANCH  14  15
BRANCH  14  18
ATOM     18  C   UNL A   1      32.841  24.621  22.562  1.00  0.00     0.181 C 
BRANCH  18  19
ATOM     19  O   UNL A   1      33.234  23.909  21.374  1.00  0.00    -0.394 OA
ATOM     20  H   UNL A   1      34.198  23.802  21.366  1.00  0.00     0.210 HD
ENDBRANCH  18  19
ENDBRANCH  14  18
ENDBRANCH  12  14
ENDBRANCH   7  12
BRANCH  11  21
ATOM     21  C   UNL A   1      33.901  17.491  24.059  1.00  0.00     0.416 C 
ATOM     22  F   UNL A   1      32.929  16.730  24.635  1.00  0.00    -0.166 F 
ATOM     23  F   UNL A   1      33.993  17.060  22.768  1.00  0.00    -0.166 F 
ATOM     24  F   UNL A   1      35.069  17.117  24.652  1.00  0.00    -0.166 F 
ENDBRANCH  11  21
ENDBRANCH   3   6
ENDBRANCH   1   2
BRANCH   1  25
ATOM     25  C   UNL A   1      37.895  23.395  25.703  1.00  0.00     0.042 C 
BRANCH  25  26
ATOM     26  C   UNL A   1      39.044  22.659  26.391  1.00  0.00     0.118 C 
BRANCH  26  27
ATOM     27  N   UNL A   1      39.284  21.279  25.981  1.00  0.00    -0.352 N 
ATOM     28  C   UNL A   1      40.432  20.509  26.133  1.00  0.00     0.251 C 
ATOM     29  H   UNL A   1      38.528  20.831  25.535  1.00  0.00     0.163 HD
ATOM     30  O   UNL A   1      40.415  19.310  25.908  1.00  0.00    -0.269 OA
BRANCH  28  31
ATOM     31  C   UNL A   1      41.719  21.189  26.442  1.00  0.00     0.039 A 
ATOM     32  C   UNL A   1      42.364  21.838  25.384  1.00  0.00     0.014 A 
ATOM     33  C   UNL A   1      42.151  21.383  27.753  1.00  0.00     0.014 A 
ATOM     34  C   UNL A   1      43.274  22.858  25.661  1.00  0.00     0.010 A 
ATOM     35  C   UNL A   1      42.989  22.459  28.033  1.00  0.00     0.010 A 
ATOM     36  C   UNL A   1      43.479  23.260  26.989  1.00  0.00    -0.014 A 
BRANCH  36  37
ATOM     37  C   UNL A   1      43.999  24.619  27.297  1.00  0.00     0.031 A 
ATOM     38  C   UNL A   1      43.080  25.724  27.717  1.00  0.00     0.074 A 
ATOM     39  C   UNL A   1      45.305  24.876  27.061  1.00  0.00     0.049 A 
ATOM     40  N   UNL A   1      43.354  26.985  27.923  1.00  0.00    -0.248 NA
ATOM     41  C   UNL A   1      41.665  25.372  27.904  1.00  0.00     0.031 C 
ATOM     42  C   UNL A   1      46.288  23.897  26.580  1.00  0.00     0.029 A 
ATOM     43  N   UNL A   1      46.034  26.032  27.178  1.00  0.00    -0.354 N 
ATOM     44  C   UNL A   1      42.145  27.587  28.244  1.00  0.00     0.074 A 
ATOM     45  C   UNL A   1      41.130  26.555  28.174  1.00  0.00     0.031 C 
ATOM     46  C   UNL A   1      47.489  24.484  26.480  1.00  0.00     0.029 A 
ATOM     47  C   UNL A   1      47.361  25.890  26.838  1.00  0.00     0.049 A 
ATOM     48  H   UNL A   1      45.645  26.886  27.478  1.00  0.00     0.167 HD
ATOM     49  C   UNL A   1      41.908  28.878  28.580  1.00  0.00     0.037 A 
ATOM     50  C   UNL A   1      48.362  26.791  26.806  1.00  0.00     0.037 A 
ATOM     51  C   UNL A   1      42.927  29.890  28.667  1.00  0.00     0.049 A 
ATOM     52  C   UNL A   1      48.070  28.217  27.173  1.00  0.00     0.074 A 
ATOM     53  C   UNL A   1      42.802  31.203  29.085  1.00  0.00     0.029 A 
ATOM     54  N   UNL A   1      44.258  29.707  28.318  1.00  0.00    -0.354 N 
ATOM     55  N   UNL A   1      46.935  28.748  27.560  1.00  0.00    -0.248 NA
ATOM     56  C   UNL A   1      49.186  29.169  27.088  1.00  0.00     0.031 C 
ATOM     57  C   UNL A   1      44.049  31.825  28.951  1.00  0.00     0.029 A 
ATOM     58  C   UNL A   1      44.958  30.891  28.480  1.00  0.00     0.049 A 
ATOM     59  H   UNL A   1      44.646  28.860  27.999  1.00  0.00     0.167 HD
ATOM     60  C   UNL A   1      47.203  30.092  27.782  1.00  0.00     0.074 A 
ATOM     61  C   UNL A   1      48.609  30.293  27.494  1.00  0.00     0.031 C 
ATOM     62  C   UNL A   1      46.358  31.072  28.188  1.00  0.00     0.037 A 
BRANCH  49  63
ATOM     63  C   UNL A   1      40.486  29.261  28.871  1.00  0.00     0.058 A 
ATOM     64  C   UNL A   1      40.024  29.430  30.186  1.00  0.00     0.135 A 
ATOM     65  C   UNL A   1      39.572  29.461  27.824  1.00  0.00     0.135 A 
ATOM     66  F   UNL A   1      40.855  29.237  31.223  1.00  0.00    -0.206 F 
ATOM     67  C   UNL A   1      38.696  29.742  30.456  1.00  0.00     0.059 A 
ATOM     68  C   UNL A   1      38.244  29.798  28.070  1.00  0.00     0.059 A 
ATOM     69  F   UNL A   1      39.962  29.314  26.549  1.00  0.00    -0.206 F 
ATOM     70  C   UNL A   1      37.811  29.914  29.390  1.00  0.00     0.060 A 
BRANCH  70  71
ATOM     71  S   UNL A   1      36.083  30.286  29.754  1.00  0.00     0.124 S 
ATOM     72  O   UNL A   1      35.403  29.596  28.662  1.00  0.00    -0.237 OA
ATOM     73  O   UNL A   1      35.905  29.699  31.079  1.00  0.00    -0.237 OA
ATOM     74  O   UNL A   1      36.032  31.743  29.705  1.00  0.00    -0.744 OA
ENDBRANCH  70  71
ENDBRANCH  49  63
BRANCH  50  75
ATOM     75  C   UNL A   1      49.737  26.364  26.433  1.00  0.00     0.058 A 
ATOM     76  C   UNL A   1      50.645  25.950  27.418  1.00  0.00     0.135 A 
ATOM     77  C   UNL A   1      50.164  26.336  25.097  1.00  0.00     0.135 A 
ATOM     78  F   UNL A   1      50.284  25.964  28.711  1.00  0.00    -0.206 F 
ATOM     79  C   UNL A   1      51.930  25.528  27.095  1.00  0.00     0.059 A 
ATOM     80  C   UNL A   1      51.439  25.901  24.746  1.00  0.00     0.059 A 
ATOM     81  F   UNL A   1      49.327  26.709  24.116  1.00  0.00    -0.206 F 
ATOM     82  C   UNL A   1      52.317  25.505  25.754  1.00  0.00     0.060 A 
BRANCH  82  83
ATOM     83  S   UNL A   1      53.969  24.899  25.339  1.00  0.00     0.124 S 
ATOM     84  O   UNL A   1      54.339  25.786  24.242  1.00  0.00    -0.237 OA
ATOM     85  O   UNL A   1      54.692  25.096  26.591  1.00  0.00    -0.237 OA
ATOM     86  O   UNL A   1      53.731  23.505  24.974  1.00  0.00    -0.744 OA
ENDBRANCH  82  83
ENDBRANCH  50  75
BRANCH  62  87
ATOM     87  C   UNL A   1      46.932  32.449  28.359  1.00  0.00     0.058 A 
ATOM     88  C   UNL A   1      47.588  32.825  29.541  1.00  0.00     0.135 A 
ATOM     89  C   UNL A   1      46.891  33.374  27.305  1.00  0.00     0.135 A 
ATOM     90  F   UNL A   1      47.640  31.979  30.583  1.00  0.00    -0.206 F 
ATOM     91  C   UNL A   1      48.185  34.074  29.672  1.00  0.00     0.059 A 
ATOM     92  C   UNL A   1      47.498  34.620  27.406  1.00  0.00     0.059 A 
ATOM     93  F   UNL A   1      46.278  33.059  26.153  1.00  0.00    -0.206 F 
ATOM     94  C   UNL A   1      48.141  34.963  28.596  1.00  0.00     0.060 A 
BRANCH  94  95
ATOM     95  S   UNL A   1      48.980  36.554  28.751  1.00  0.00     0.124 S 
ATOM     96  O   UNL A   1      49.664  36.402  30.031  1.00  0.00    -0.237 OA
ATOM     97  O   UNL A   1      49.839  36.572  27.572  1.00  0.00    -0.237 OA
ATOM     98  O   UNL A   1      47.883  37.517  28.735  1.00  0.00    -0.744 OA
ENDBRANCH  94  95
ENDBRANCH  62  87
ENDBRANCH  36  37
ENDBRANCH  28  31
ENDBRANCH  26  27
ENDBRANCH  25  26
ENDBRANCH   1  25
TORSDOF 19
ENDMDL
