MODEL 1
REMARK VINA RESULT:     -11.0      0.000      0.000
REMARK SMILES CCc1cc2ccccc2c(=O)n1CC(=O)NCCCNC(=O)c1ccc(-c2c3nc(c(-c4c(F)cc(S(=O)(=O)[O-])cc4F)c4ccc([nH]4)c(-c4c(F)cc(S(=O)(=O)[O-])cc4F)c4nc(c(-c5c(F)cc(S(=O)(=O)[O-])cc5F)c5ccc2[nH]5)C=C4)C=C3)cc1
REMARK SMILES IDX 19 1 18 2 17 3 15 4 16 5 14 7 13 8 3 9 4 10 5 11 11 12 6 13
REMARK SMILES IDX 10 14 12 15 7 16 9 17 8 18 2 19 1 20 20 21 21 22 22 23 23 25
REMARK SMILES IDX 24 26 25 27 89 28 26 29 88 30 27 31 28 32 29 33 82 34 30 35
REMARK SMILES IDX 87 36 81 37 83 38 31 39 86 40 80 41 79 42 32 44 66 45 45 46
REMARK SMILES IDX 65 47 46 48 49 49 64 50 84 51 47 52 48 53 63 55 85 56 50 57
REMARK SMILES IDX 33 58 34 59 43 60 35 61 36 62 42 63 44 64 37 65 38 66 39 67
REMARK SMILES IDX 40 68 41 69 67 70 68 71 77 72 69 73 70 74 76 75 78 76 71 77
REMARK SMILES IDX 72 78 73 79 74 80 75 81 51 82 52 83 61 84 53 85 54 86 60 87
REMARK SMILES IDX 62 88 55 89 56 90 57 91 58 92 59 93
REMARK H PARENT 17 6 21 24 83 43 49 54
REMARK Flexibility Score: inf
ROOT
ATOM      1  C   UNL A   1      33.484  28.220  25.769  1.00  0.00     0.042 C 
ENDROOT
BRANCH   1   2
ATOM      2  C   UNL A   1      32.296  27.461  25.199  1.00  0.00     0.117 C 
BRANCH   2   3
ATOM      3  N   UNL A   1      31.865  26.364  26.035  1.00  0.00    -0.354 N 
ATOM      4  C   UNL A   1      32.059  25.023  25.874  1.00  0.00     0.240 C 
ATOM      5  O   UNL A   1      31.908  24.321  26.880  1.00  0.00    -0.273 OA
ATOM      6  H   UNL A   1      31.357  26.620  26.838  1.00  0.00     0.163 HD
BRANCH   4   7
ATOM      7  C   UNL A   1      32.661  24.433  24.583  1.00  0.00     0.225 C 
BRANCH   7   8
ATOM      8  N   UNL A   1      33.767  23.489  24.730  1.00  0.00    -0.303 N 
ATOM      9  C   UNL A   1      33.755  22.130  24.365  1.00  0.00     0.022 A 
ATOM     10  C   UNL A   1      34.880  21.398  24.513  1.00  0.00     0.030 A 
ATOM     11  C   UNL A   1      36.118  21.956  25.039  1.00  0.00    -0.011 A 
ATOM     12  C   UNL A   1      34.956  24.132  25.169  1.00  0.00     0.259 A 
ATOM     13  C   UNL A   1      37.250  21.157  25.242  1.00  0.00     0.009 A 
ATOM     14  C   UNL A   1      36.172  23.309  25.352  1.00  0.00     0.047 A 
ATOM     15  O   UNL A   1      35.020  25.333  25.423  1.00  0.00    -0.269 OA
ATOM     16  C   UNL A   1      38.423  21.717  25.755  1.00  0.00     0.001 A 
ATOM     17  C   UNL A   1      37.350  23.876  25.857  1.00  0.00     0.014 A 
ATOM     18  C   UNL A   1      38.475  23.077  26.058  1.00  0.00     0.001 A 
BRANCH   9  19
ATOM     19  C   UNL A   1      32.558  21.327  23.855  1.00  0.00     0.051 C 
ATOM     20  C   UNL A   1      32.047  21.343  22.423  1.00  0.00     0.010 C 
ENDBRANCH   9  19
ENDBRANCH   7   8
ENDBRANCH   4   7
ENDBRANCH   2   3
ENDBRANCH   1   2
BRANCH   1  21
ATOM     21  C   UNL A   1      33.403  28.440  27.275  1.00  0.00     0.118 C 
BRANCH  21  22
ATOM     22  N   UNL A   1      33.433  29.851  27.649  1.00  0.00    -0.352 N 
ATOM     23  C   UNL A   1      34.451  30.601  28.197  1.00  0.00     0.251 C 
ATOM     24  H   UNL A   1      32.597  30.344  27.484  1.00  0.00     0.163 HD
ATOM     25  O   UNL A   1      34.230  31.744  28.575  1.00  0.00    -0.269 OA
BRANCH  23  26
ATOM     26  C   UNL A   1      35.795  30.007  28.364  1.00  0.00     0.039 A 
ATOM     27  C   UNL A   1      36.190  29.473  29.592  1.00  0.00     0.014 A 
ATOM     28  C   UNL A   1      36.684  30.020  27.286  1.00  0.00     0.014 A 
ATOM     29  C   UNL A   1      37.524  29.136  29.797  1.00  0.00     0.010 A 
ATOM     30  C   UNL A   1      38.006  29.602  27.473  1.00  0.00     0.010 A 
ATOM     31  C   UNL A   1      38.451  29.218  28.746  1.00  0.00    -0.014 A 
BRANCH  31  32
ATOM     32  C   UNL A   1      39.889  28.955  29.019  1.00  0.00     0.031 A 
ATOM     33  C   UNL A   1      40.499  27.623  28.661  1.00  0.00     0.074 A 
ATOM     34  C   UNL A   1      40.665  29.942  29.508  1.00  0.00     0.049 A 
ATOM     35  N   UNL A   1      41.731  27.209  28.822  1.00  0.00    -0.248 NA
ATOM     36  C   UNL A   1      39.613  26.623  28.041  1.00  0.00     0.031 C 
ATOM     37  C   UNL A   1      40.200  31.286  29.860  1.00  0.00     0.029 A 
ATOM     38  N   UNL A   1      42.012  29.980  29.764  1.00  0.00    -0.354 N 
ATOM     39  C   UNL A   1      41.764  25.906  28.341  1.00  0.00     0.074 A 
ATOM     40  C   UNL A   1      40.423  25.581  27.906  1.00  0.00     0.031 C 
ATOM     41  C   UNL A   1      41.252  32.032  30.230  1.00  0.00     0.029 A 
ATOM     42  C   UNL A   1      42.455  31.207  30.199  1.00  0.00     0.049 A 
ATOM     43  H   UNL A   1      42.606  29.204  29.646  1.00  0.00     0.167 HD
ATOM     44  C   UNL A   1      42.819  25.061  28.253  1.00  0.00     0.037 A 
ATOM     45  C   UNL A   1      43.689  31.619  30.546  1.00  0.00     0.037 A 
ATOM     46  C   UNL A   1      44.160  25.394  28.658  1.00  0.00     0.049 A 
ATOM     47  C   UNL A   1      44.831  30.645  30.487  1.00  0.00     0.074 A 
ATOM     48  C   UNL A   1      45.293  24.599  28.623  1.00  0.00     0.029 A 
ATOM     49  N   UNL A   1      44.553  26.627  29.157  1.00  0.00    -0.354 N 
ATOM     50  N   UNL A   1      44.831  29.400  30.072  1.00  0.00    -0.248 NA
ATOM     51  C   UNL A   1      46.138  31.125  30.958  1.00  0.00     0.031 C 
ATOM     52  C   UNL A   1      46.366  25.343  29.123  1.00  0.00     0.029 A 
ATOM     53  C   UNL A   1      45.909  26.612  29.439  1.00  0.00     0.049 A 
ATOM     54  H   UNL A   1      43.956  27.398  29.293  1.00  0.00     0.167 HD
ATOM     55  C   UNL A   1      46.138  28.952  30.226  1.00  0.00     0.074 A 
ATOM     56  C   UNL A   1      46.904  30.063  30.752  1.00  0.00     0.031 C 
ATOM     57  C   UNL A   1      46.654  27.727  29.962  1.00  0.00     0.037 A 
BRANCH  44  58
ATOM     58  C   UNL A   1      42.576  23.688  27.693  1.00  0.00     0.058 A 
ATOM     59  C   UNL A   1      42.602  23.446  26.310  1.00  0.00     0.135 A 
ATOM     60  C   UNL A   1      42.386  22.590  28.548  1.00  0.00     0.135 A 
ATOM     61  F   UNL A   1      42.759  24.464  25.448  1.00  0.00    -0.206 F 
ATOM     62  C   UNL A   1      42.441  22.166  25.795  1.00  0.00     0.059 A 
ATOM     63  C   UNL A   1      42.241  21.297  28.054  1.00  0.00     0.059 A 
ATOM     64  F   UNL A   1      42.349  22.769  29.878  1.00  0.00    -0.206 F 
ATOM     65  C   UNL A   1      42.264  21.096  26.675  1.00  0.00     0.060 A 
BRANCH  65  66
ATOM     66  S   UNL A   1      42.078  19.438  25.984  1.00  0.00     0.124 S 
ATOM     67  O   UNL A   1      42.605  18.612  27.068  1.00  0.00    -0.237 OA
ATOM     68  O   UNL A   1      40.637  19.352  25.768  1.00  0.00    -0.237 OA
ATOM     69  O   UNL A   1      42.892  19.480  24.774  1.00  0.00    -0.744 OA
ENDBRANCH  65  66
ENDBRANCH  44  58
BRANCH  45  70
ATOM     70  C   UNL A   1      43.907  33.019  30.992  1.00  0.00     0.058 A 
ATOM     71  C   UNL A   1      43.785  33.371  32.344  1.00  0.00     0.135 A 
ATOM     72  C   UNL A   1      44.245  34.029  30.078  1.00  0.00     0.135 A 
ATOM     73  F   UNL A   1      43.455  32.440  33.253  1.00  0.00    -0.206 F 
ATOM     74  C   UNL A   1      43.980  34.679  32.775  1.00  0.00     0.059 A 
ATOM     75  C   UNL A   1      44.467  35.339  30.487  1.00  0.00     0.059 A 
ATOM     76  F   UNL A   1      44.385  33.738  28.775  1.00  0.00    -0.206 F 
ATOM     77  C   UNL A   1      44.321  35.656  31.838  1.00  0.00     0.060 A 
BRANCH  77  78
ATOM     78  S   UNL A   1      44.613  37.344  32.408  1.00  0.00     0.124 S 
ATOM     79  O   UNL A   1      46.033  37.300  32.738  1.00  0.00    -0.237 OA
ATOM     80  O   UNL A   1      44.255  38.133  31.233  1.00  0.00    -0.237 OA
ATOM     81  O   UNL A   1      43.702  37.476  33.541  1.00  0.00    -0.744 OA
ENDBRANCH  77  78
ENDBRANCH  45  70
BRANCH  57  82
ATOM     82  C   UNL A   1      48.118  27.527  30.226  1.00  0.00     0.058 A 
ATOM     83  C   UNL A   1      48.575  27.037  31.459  1.00  0.00     0.135 A 
ATOM     84  C   UNL A   1      49.066  27.777  29.222  1.00  0.00     0.135 A 
ATOM     85  F   UNL A   1      47.707  26.789  32.451  1.00  0.00    -0.206 F 
ATOM     86  C   UNL A   1      49.927  26.816  31.693  1.00  0.00     0.059 A 
ATOM     87  C   UNL A   1      50.422  27.544  29.428  1.00  0.00     0.059 A 
ATOM     88  F   UNL A   1      48.675  28.239  28.024  1.00  0.00    -0.206 F 
ATOM     89  C   UNL A   1      50.843  27.071  30.671  1.00  0.00     0.060 A 
BRANCH  89  90
ATOM     90  S   UNL A   1      52.592  26.745  30.975  1.00  0.00     0.124 S 
ATOM     91  O   UNL A   1      52.931  27.810  31.914  1.00  0.00    -0.237 OA
ATOM     92  O   UNL A   1      52.567  25.395  31.531  1.00  0.00    -0.237 OA
ATOM     93  O   UNL A   1      53.194  26.858  29.651  1.00  0.00    -0.744 OA
ENDBRANCH  89  90
ENDBRANCH  57  82
ENDBRANCH  31  32
ENDBRANCH  23  26
ENDBRANCH  21  22
ENDBRANCH   1  21
TORSDOF 15
ENDMDL
MODEL 2
REMARK VINA RESULT:     -11.0      5.081      9.861
REMARK SMILES CCc1cc2ccccc2c(=O)n1CC(=O)NCCCNC(=O)c1ccc(-c2c3nc(c(-c4c(F)cc(S(=O)(=O)[O-])cc4F)c4ccc([nH]4)c(-c4c(F)cc(S(=O)(=O)[O-])cc4F)c4nc(c(-c5c(F)cc(S(=O)(=O)[O-])cc5F)c5ccc2[nH]5)C=C4)C=C3)cc1
REMARK SMILES IDX 19 1 18 2 17 3 15 4 16 5 14 7 13 8 3 9 4 10 5 11 11 12 6 13
REMARK SMILES IDX 10 14 12 15 7 16 9 17 8 18 2 19 1 20 20 21 21 22 22 23 23 25
REMARK SMILES IDX 24 26 25 27 89 28 26 29 88 30 27 31 28 32 29 33 82 34 30 35
REMARK SMILES IDX 87 36 81 37 83 38 31 39 86 40 80 41 79 42 32 44 66 45 45 46
REMARK SMILES IDX 65 47 46 48 49 49 64 50 84 51 47 52 48 53 63 55 85 56 50 57
REMARK SMILES IDX 33 58 34 59 43 60 35 61 36 62 42 63 44 64 37 65 38 66 39 67
REMARK SMILES IDX 40 68 41 69 67 70 68 71 77 72 69 73 70 74 76 75 78 76 71 77
REMARK SMILES IDX 72 78 73 79 74 80 75 81 51 82 52 83 61 84 53 85 54 86 60 87
REMARK SMILES IDX 62 88 55 89 56 90 57 91 58 92 59 93
REMARK H PARENT 17 6 21 24 83 43 49 54
REMARK Flexibility Score: inf
ROOT
ATOM      1  C   UNL A   1      39.137  22.465  26.506  1.00  0.00     0.042 C 
ENDROOT
BRANCH   1   2
ATOM      2  C   UNL A   1      38.064  23.469  26.117  1.00  0.00     0.117 C 
BRANCH   2   3
ATOM      3  N   UNL A   1      37.647  23.355  24.738  1.00  0.00    -0.354 N 
ATOM      4  C   UNL A   1      36.401  23.146  24.223  1.00  0.00     0.240 C 
ATOM      5  O   UNL A   1      36.245  23.436  23.031  1.00  0.00    -0.273 OA
ATOM      6  H   UNL A   1      38.368  23.442  24.073  1.00  0.00     0.163 HD
BRANCH   4   7
ATOM      7  C   UNL A   1      35.195  22.797  25.116  1.00  0.00     0.225 C 
BRANCH   7   8
ATOM      8  N   UNL A   1      34.387  21.642  24.731  1.00  0.00    -0.303 N 
ATOM      9  C   UNL A   1      33.089  21.679  24.189  1.00  0.00     0.022 A 
ATOM     10  C   UNL A   1      32.492  20.521  23.831  1.00  0.00     0.030 A 
ATOM     11  C   UNL A   1      33.136  19.224  23.981  1.00  0.00    -0.011 A 
ATOM     12  C   UNL A   1      35.119  20.427  24.831  1.00  0.00     0.259 A 
ATOM     13  C   UNL A   1      32.468  18.036  23.661  1.00  0.00     0.009 A 
ATOM     14  C   UNL A   1      34.439  19.167  24.461  1.00  0.00     0.047 A 
ATOM     15  O   UNL A   1      36.281  20.370  25.228  1.00  0.00    -0.269 OA
ATOM     16  C   UNL A   1      33.107  16.804  23.823  1.00  0.00     0.001 A 
ATOM     17  C   UNL A   1      35.087  17.934  24.614  1.00  0.00     0.014 A 
ATOM     18  C   UNL A   1      34.418  16.752  24.295  1.00  0.00     0.001 A 
BRANCH   9  19
ATOM     19  C   UNL A   1      32.206  22.913  24.001  1.00  0.00     0.051 C 
ATOM     20  C   UNL A   1      32.399  23.962  22.916  1.00  0.00     0.010 C 
ENDBRANCH   9  19
ENDBRANCH   7   8
ENDBRANCH   4   7
ENDBRANCH   2   3
ENDBRANCH   1   2
BRANCH   1  21
ATOM     21  C   UNL A   1      40.451  23.110  26.934  1.00  0.00     0.118 C 
BRANCH  21  22
ATOM     22  N   UNL A   1      40.979  24.043  25.943  1.00  0.00    -0.352 N 
ATOM     23  C   UNL A   1      41.282  25.382  26.060  1.00  0.00     0.251 C 
ATOM     24  H   UNL A   1      41.146  23.655  25.054  1.00  0.00     0.163 HD
ATOM     25  O   UNL A   1      41.582  26.028  25.064  1.00  0.00    -0.269 OA
BRANCH  23  26
ATOM     26  C   UNL A   1      41.203  26.043  27.381  1.00  0.00     0.039 A 
ATOM     27  C   UNL A   1      40.043  25.953  28.153  1.00  0.00     0.014 A 
ATOM     28  C   UNL A   1      42.291  26.793  27.833  1.00  0.00     0.014 A 
ATOM     29  C   UNL A   1      39.899  26.765  29.273  1.00  0.00     0.010 A 
ATOM     30  C   UNL A   1      42.174  27.546  29.006  1.00  0.00     0.010 A 
ATOM     31  C   UNL A   1      40.955  27.587  29.699  1.00  0.00    -0.014 A 
BRANCH  31  32
ATOM     32  C   UNL A   1      40.738  28.524  30.834  1.00  0.00     0.031 A 
ATOM     33  C   UNL A   1      41.660  28.497  32.027  1.00  0.00     0.074 A 
ATOM     34  C   UNL A   1      39.768  29.455  30.753  1.00  0.00     0.049 A 
ATOM     35  N   UNL A   1      41.631  29.233  33.109  1.00  0.00    -0.248 NA
ATOM     36  C   UNL A   1      42.759  27.516  32.005  1.00  0.00     0.031 C 
ATOM     37  C   UNL A   1      38.834  29.606  29.634  1.00  0.00     0.029 A 
ATOM     38  N   UNL A   1      39.424  30.469  31.610  1.00  0.00    -0.354 N 
ATOM     39  C   UNL A   1      42.689  28.798  33.898  1.00  0.00     0.074 A 
ATOM     40  C   UNL A   1      43.328  27.714  33.187  1.00  0.00     0.031 C 
ATOM     41  C   UNL A   1      38.064  30.685  29.846  1.00  0.00     0.029 A 
ATOM     42  C   UNL A   1      38.407  31.265  31.140  1.00  0.00     0.049 A 
ATOM     43  H   UNL A   1      39.865  30.614  32.478  1.00  0.00     0.167 HD
ATOM     44  C   UNL A   1      43.102  29.272  35.098  1.00  0.00     0.037 A 
ATOM     45  C   UNL A   1      37.808  32.337  31.693  1.00  0.00     0.037 A 
ATOM     46  C   UNL A   1      42.484  30.371  35.793  1.00  0.00     0.049 A 
ATOM     47  C   UNL A   1      38.254  32.808  33.048  1.00  0.00     0.074 A 
ATOM     48  C   UNL A   1      42.821  30.912  37.022  1.00  0.00     0.029 A 
ATOM     49  N   UNL A   1      41.413  31.108  35.312  1.00  0.00    -0.354 N 
ATOM     50  N   UNL A   1      39.228  32.352  33.799  1.00  0.00    -0.248 NA
ATOM     51  C   UNL A   1      37.509  33.928  33.640  1.00  0.00     0.031 C 
ATOM     52  C   UNL A   1      41.938  31.962  37.295  1.00  0.00     0.029 A 
ATOM     53  C   UNL A   1      41.073  32.095  36.222  1.00  0.00     0.049 A 
ATOM     54  H   UNL A   1      40.960  30.953  34.452  1.00  0.00     0.167 HD
ATOM     55  C   UNL A   1      39.216  33.135  34.948  1.00  0.00     0.074 A 
ATOM     56  C   UNL A   1      38.153  34.105  34.785  1.00  0.00     0.031 C 
ATOM     57  C   UNL A   1      40.011  33.052  36.043  1.00  0.00     0.037 A 
BRANCH  44  58
ATOM     58  C   UNL A   1      44.284  28.609  35.747  1.00  0.00     0.058 A 
ATOM     59  C   UNL A   1      44.130  27.493  36.584  1.00  0.00     0.135 A 
ATOM     60  C   UNL A   1      45.590  29.049  35.473  1.00  0.00     0.135 A 
ATOM     61  F   UNL A   1      42.903  27.045  36.895  1.00  0.00    -0.206 F 
ATOM     62  C   UNL A   1      45.228  26.840  37.132  1.00  0.00     0.059 A 
ATOM     63  C   UNL A   1      46.704  28.399  35.997  1.00  0.00     0.059 A 
ATOM     64  F   UNL A   1      45.792  30.114  34.683  1.00  0.00    -0.206 F 
ATOM     65  C   UNL A   1      46.512  27.299  36.830  1.00  0.00     0.060 A 
BRANCH  65  66
ATOM     66  S   UNL A   1      47.924  26.422  37.537  1.00  0.00     0.124 S 
ATOM     67  O   UNL A   1      49.036  27.035  36.815  1.00  0.00    -0.237 OA
ATOM     68  O   UNL A   1      47.825  26.765  38.952  1.00  0.00    -0.237 OA
ATOM     69  O   UNL A   1      47.656  25.026  37.211  1.00  0.00    -0.744 OA
ENDBRANCH  65  66
ENDBRANCH  44  58
BRANCH  45  70
ATOM     70  C   UNL A   1      36.714  33.033  30.969  1.00  0.00     0.058 A 
ATOM     71  C   UNL A   1      35.371  32.807  31.306  1.00  0.00     0.135 A 
ATOM     72  C   UNL A   1      36.987  33.938  29.933  1.00  0.00     0.135 A 
ATOM     73  F   UNL A   1      35.061  31.944  32.285  1.00  0.00    -0.206 F 
ATOM     74  C   UNL A   1      34.335  33.447  30.633  1.00  0.00     0.059 A 
ATOM     75  C   UNL A   1      35.971  34.607  29.260  1.00  0.00     0.059 A 
ATOM     76  F   UNL A   1      38.257  34.196  29.582  1.00  0.00    -0.206 F 
ATOM     77  C   UNL A   1      34.646  34.346  29.611  1.00  0.00     0.060 A 
BRANCH  77  78
ATOM     78  S   UNL A   1      33.300  35.204  28.767  1.00  0.00     0.124 S 
ATOM     79  O   UNL A   1      32.652  34.106  28.060  1.00  0.00    -0.237 OA
ATOM     80  O   UNL A   1      32.551  35.774  29.883  1.00  0.00    -0.237 OA
ATOM     81  O   UNL A   1      33.996  36.175  27.929  1.00  0.00    -0.744 OA
ENDBRANCH  77  78
ENDBRANCH  45  70
BRANCH  57  82
ATOM     82  C   UNL A   1      39.769  34.042  37.145  1.00  0.00     0.058 A 
ATOM     83  C   UNL A   1      38.998  33.708  38.267  1.00  0.00     0.135 A 
ATOM     84  C   UNL A   1      40.355  35.316  37.100  1.00  0.00     0.135 A 
ATOM     85  F   UNL A   1      38.413  32.503  38.351  1.00  0.00    -0.206 F 
ATOM     86  C   UNL A   1      38.804  34.611  39.306  1.00  0.00     0.059 A 
ATOM     87  C   UNL A   1      40.190  36.229  38.138  1.00  0.00     0.059 A 
ATOM     88  F   UNL A   1      41.108  35.678  36.050  1.00  0.00    -0.206 F 
ATOM     89  C   UNL A   1      39.404  35.869  39.233  1.00  0.00     0.060 A 
BRANCH  89  90
ATOM     90  S   UNL A   1      39.175  37.018  40.605  1.00  0.00     0.124 S 
ATOM     91  O   UNL A   1      40.544  37.462  40.848  1.00  0.00    -0.237 OA
ATOM     92  O   UNL A   1      38.278  38.017  40.031  1.00  0.00    -0.237 OA
ATOM     93  O   UNL A   1      38.588  36.187  41.651  1.00  0.00    -0.744 OA
ENDBRANCH  89  90
ENDBRANCH  57  82
ENDBRANCH  31  32
ENDBRANCH  23  26
ENDBRANCH  21  22
ENDBRANCH   1  21
TORSDOF 15
ENDMDL
MODEL 3
REMARK VINA RESULT:     -10.9      3.164      9.389
REMARK SMILES CCc1cc2ccccc2c(=O)n1CC(=O)NCCCNC(=O)c1ccc(-c2c3nc(c(-c4c(F)cc(S(=O)(=O)[O-])cc4F)c4ccc([nH]4)c(-c4c(F)cc(S(=O)(=O)[O-])cc4F)c4nc(c(-c5c(F)cc(S(=O)(=O)[O-])cc5F)c5ccc2[nH]5)C=C4)C=C3)cc1
REMARK SMILES IDX 19 1 18 2 17 3 15 4 16 5 14 7 13 8 3 9 4 10 5 11 11 12 6 13
REMARK SMILES IDX 10 14 12 15 7 16 9 17 8 18 2 19 1 20 20 21 21 22 22 23 23 25
REMARK SMILES IDX 24 26 25 27 89 28 26 29 88 30 27 31 28 32 29 33 82 34 30 35
REMARK SMILES IDX 87 36 81 37 83 38 31 39 86 40 80 41 79 42 32 44 66 45 45 46
REMARK SMILES IDX 65 47 46 48 49 49 64 50 84 51 47 52 48 53 63 55 85 56 50 57
REMARK SMILES IDX 33 58 34 59 43 60 35 61 36 62 42 63 44 64 37 65 38 66 39 67
REMARK SMILES IDX 40 68 41 69 67 70 68 71 77 72 69 73 70 74 76 75 78 76 71 77
REMARK SMILES IDX 72 78 73 79 74 80 75 81 51 82 52 83 61 84 53 85 54 86 60 87
REMARK SMILES IDX 62 88 55 89 56 90 57 91 58 92 59 93
REMARK H PARENT 17 6 21 24 83 43 49 54
REMARK Flexibility Score: inf
ROOT
ATOM      1  C   UNL A   1      36.333  23.302  23.770  1.00  0.00     0.042 C 
ENDROOT
BRANCH   1   2
ATOM      2  C   UNL A   1      34.819  23.411  23.856  1.00  0.00     0.117 C 
BRANCH   2   3
ATOM      3  N   UNL A   1      34.239  24.179  22.778  1.00  0.00    -0.354 N 
ATOM      4  C   UNL A   1      33.221  25.088  22.810  1.00  0.00     0.240 C 
ATOM      5  O   UNL A   1      33.143  25.859  21.847  1.00  0.00    -0.273 OA
ATOM      6  H   UNL A   1      34.635  24.025  21.890  1.00  0.00     0.163 HD
BRANCH   4   7
ATOM      7  C   UNL A   1      32.363  25.309  24.071  1.00  0.00     0.225 C 
BRANCH   7   8
ATOM      8  N   UNL A   1      32.272  26.672  24.590  1.00  0.00    -0.303 N 
ATOM      9  C   UNL A   1      31.233  27.588  24.344  1.00  0.00     0.022 A 
ATOM     10  C   UNL A   1      31.266  28.798  24.942  1.00  0.00     0.030 A 
ATOM     11  C   UNL A   1      32.338  29.203  25.841  1.00  0.00    -0.011 A 
ATOM     12  C   UNL A   1      33.310  26.955  25.518  1.00  0.00     0.259 A 
ATOM     13  C   UNL A   1      32.379  30.487  26.396  1.00  0.00     0.009 A 
ATOM     14  C   UNL A   1      33.346  28.295  26.143  1.00  0.00     0.047 A 
ATOM     15  O   UNL A   1      34.190  26.148  25.814  1.00  0.00    -0.269 OA
ATOM     16  C   UNL A   1      33.425  30.852  27.249  1.00  0.00     0.001 A 
ATOM     17  C   UNL A   1      34.390  28.654  27.007  1.00  0.00     0.014 A 
ATOM     18  C   UNL A   1      34.428  29.935  27.558  1.00  0.00     0.001 A 
BRANCH   9  19
ATOM     19  C   UNL A   1      30.049  27.401  23.395  1.00  0.00     0.051 C 
ATOM     20  C   UNL A   1      29.045  28.486  23.033  1.00  0.00     0.010 C 
ENDBRANCH   9  19
ENDBRANCH   7   8
ENDBRANCH   4   7
ENDBRANCH   2   3
ENDBRANCH   1   2
BRANCH   1  21
ATOM     21  C   UNL A   1      37.046  23.665  25.068  1.00  0.00     0.118 C 
BRANCH  21  22
ATOM     22  N   UNL A   1      38.190  22.805  25.352  1.00  0.00    -0.352 N 
ATOM     23  C   UNL A   1      39.345  23.070  26.056  1.00  0.00     0.251 C 
ATOM     24  H   UNL A   1      38.128  21.894  24.985  1.00  0.00     0.163 HD
ATOM     25  O   UNL A   1      40.257  22.253  26.060  1.00  0.00    -0.269 OA
BRANCH  23  26
ATOM     26  C   UNL A   1      39.493  24.357  26.770  1.00  0.00     0.039 A 
ATOM     27  C   UNL A   1      40.236  25.398  26.211  1.00  0.00     0.014 A 
ATOM     28  C   UNL A   1      38.912  24.507  28.031  1.00  0.00     0.014 A 
ATOM     29  C   UNL A   1      40.560  26.505  26.990  1.00  0.00     0.010 A 
ATOM     30  C   UNL A   1      39.171  25.659  28.782  1.00  0.00     0.010 A 
ATOM     31  C   UNL A   1      40.049  26.637  28.291  1.00  0.00    -0.014 A 
BRANCH  31  32
ATOM     32  C   UNL A   1      40.496  27.773  29.139  1.00  0.00     0.031 A 
ATOM     33  C   UNL A   1      39.606  28.977  29.327  1.00  0.00     0.074 A 
ATOM     34  C   UNL A   1      41.662  27.686  29.809  1.00  0.00     0.049 A 
ATOM     35  N   UNL A   1      39.823  30.062  30.027  1.00  0.00    -0.248 NA
ATOM     36  C   UNL A   1      38.303  28.962  28.642  1.00  0.00     0.031 C 
ATOM     37  C   UNL A   1      42.594  26.558  29.738  1.00  0.00     0.029 A 
ATOM     38  N   UNL A   1      42.249  28.545  30.703  1.00  0.00    -0.354 N 
ATOM     39  C   UNL A   1      38.698  30.860  29.855  1.00  0.00     0.074 A 
ATOM     40  C   UNL A   1      37.809  30.151  28.962  1.00  0.00     0.031 C 
ATOM     41  C   UNL A   1      43.604  26.768  30.597  1.00  0.00     0.029 A 
ATOM     42  C   UNL A   1      43.424  28.068  31.234  1.00  0.00     0.049 A 
ATOM     43  H   UNL A   1      41.865  29.419  30.944  1.00  0.00     0.167 HD
ATOM     44  C   UNL A   1      38.423  32.067  30.405  1.00  0.00     0.037 A 
ATOM     45  C   UNL A   1      44.269  28.620  32.125  1.00  0.00     0.037 A 
ATOM     46  C   UNL A   1      39.295  32.760  31.317  1.00  0.00     0.049 A 
ATOM     47  C   UNL A   1      43.963  29.982  32.679  1.00  0.00     0.074 A 
ATOM     48  C   UNL A   1      39.110  33.995  31.914  1.00  0.00     0.029 A 
ATOM     49  N   UNL A   1      40.509  32.271  31.777  1.00  0.00    -0.354 N 
ATOM     50  N   UNL A   1      42.915  30.741  32.467  1.00  0.00    -0.248 NA
ATOM     51  C   UNL A   1      44.962  30.571  33.582  1.00  0.00     0.031 C 
ATOM     52  C   UNL A   1      40.223  34.264  32.718  1.00  0.00     0.029 A 
ATOM     53  C   UNL A   1      41.085  33.183  32.646  1.00  0.00     0.049 A 
ATOM     54  H   UNL A   1      40.902  31.406  31.523  1.00  0.00     0.167 HD
ATOM     55  C   UNL A   1      43.126  31.893  33.215  1.00  0.00     0.074 A 
ATOM     56  C   UNL A   1      44.390  31.724  33.901  1.00  0.00     0.031 C 
ATOM     57  C   UNL A   1      42.345  32.997  33.319  1.00  0.00     0.037 A 
BRANCH  44  58
ATOM     58  C   UNL A   1      37.122  32.725  30.042  1.00  0.00     0.058 A 
ATOM     59  C   UNL A   1      35.939  32.444  30.744  1.00  0.00     0.135 A 
ATOM     60  C   UNL A   1      37.069  33.697  29.030  1.00  0.00     0.135 A 
ATOM     61  F   UNL A   1      35.929  31.507  31.706  1.00  0.00    -0.206 F 
ATOM     62  C   UNL A   1      34.749  33.099  30.451  1.00  0.00     0.059 A 
ATOM     63  C   UNL A   1      35.893  34.379  28.733  1.00  0.00     0.059 A 
ATOM     64  F   UNL A   1      38.172  33.999  28.326  1.00  0.00    -0.206 F 
ATOM     65  C   UNL A   1      34.736  34.068  29.445  1.00  0.00     0.060 A 
BRANCH  65  66
ATOM     66  S   UNL A   1      33.183  34.921  29.096  1.00  0.00     0.124 S 
ATOM     67  O   UNL A   1      32.552  34.923  30.413  1.00  0.00    -0.237 OA
ATOM     68  O   UNL A   1      33.644  36.219  28.614  1.00  0.00    -0.237 OA
ATOM     69  O   UNL A   1      32.546  34.072  28.096  1.00  0.00    -0.744 OA
ENDBRANCH  65  66
ENDBRANCH  44  58
BRANCH  45  70
ATOM     70  C   UNL A   1      45.493  27.888  32.541  1.00  0.00     0.058 A 
ATOM     71  C   UNL A   1      45.475  27.027  33.648  1.00  0.00     0.135 A 
ATOM     72  C   UNL A   1      46.699  28.030  31.839  1.00  0.00     0.135 A 
ATOM     73  F   UNL A   1      44.345  26.865  34.354  1.00  0.00    -0.206 F 
ATOM     74  C   UNL A   1      46.615  26.339  34.052  1.00  0.00     0.059 A 
ATOM     75  C   UNL A   1      47.846  27.337  32.210  1.00  0.00     0.059 A 
ATOM     76  F   UNL A   1      46.763  28.834  30.766  1.00  0.00    -0.206 F 
ATOM     77  C   UNL A   1      47.796  26.501  33.326  1.00  0.00     0.060 A 
BRANCH  77  78
ATOM     78  S   UNL A   1      49.261  25.576  33.831  1.00  0.00     0.124 S 
ATOM     79  O   UNL A   1      49.756  26.391  34.935  1.00  0.00    -0.237 OA
ATOM     80  O   UNL A   1      48.697  24.280  34.198  1.00  0.00    -0.237 OA
ATOM     81  O   UNL A   1      50.086  25.572  32.627  1.00  0.00    -0.744 OA
ENDBRANCH  77  78
ENDBRANCH  45  70
BRANCH  57  82
ATOM     82  C   UNL A   1      42.829  34.101  34.213  1.00  0.00     0.058 A 
ATOM     83  C   UNL A   1      42.527  34.114  35.582  1.00  0.00     0.135 A 
ATOM     84  C   UNL A   1      43.644  35.124  33.705  1.00  0.00     0.135 A 
ATOM     85  F   UNL A   1      41.746  33.160  36.111  1.00  0.00    -0.206 F 
ATOM     86  C   UNL A   1      43.006  35.116  36.419  1.00  0.00     0.059 A 
ATOM     87  C   UNL A   1      44.150  36.125  34.528  1.00  0.00     0.059 A 
ATOM     88  F   UNL A   1      43.967  35.148  32.403  1.00  0.00    -0.206 F 
ATOM     89  C   UNL A   1      43.817  36.117  35.883  1.00  0.00     0.060 A 
BRANCH  89  90
ATOM     90  S   UNL A   1      44.463  37.391  36.986  1.00  0.00     0.124 S 
ATOM     91  O   UNL A   1      44.256  38.599  36.193  1.00  0.00    -0.237 OA
ATOM     92  O   UNL A   1      43.609  37.250  38.162  1.00  0.00    -0.237 OA
ATOM     93  O   UNL A   1      45.855  36.998  37.182  1.00  0.00    -0.744 OA
ENDBRANCH  89  90
ENDBRANCH  57  82
ENDBRANCH  31  32
ENDBRANCH  23  26
ENDBRANCH  21  22
ENDBRANCH   1  21
TORSDOF 15
ENDMDL
