MODEL 1
REMARK VINA RESULT:     -12.1      0.000      0.000
REMARK SMILES Cc1cc(N2N=C(C(=O)NCCCNC(=O)c3ccc(-c4c5nc(c(-c6c(F)cc(S(=O)(=O)[O-])cc6F)c6ccc([nH]6)c(-c6c(F)cc(S(=O)(=O)[O-])cc6F)c6nc(c(-c7c(F)cc(S(=O)(=O)[O-])cc7F)c7ccc4[nH]7)C=C6)C=C5)cc3)C[C@H]2c2ccccc2)c([N+](=O)[O-])cc1C
REMARK SMILES IDX 12 1 11 2 10 3 8 4 9 5 7 7 5 8 6 9 84 10 83 11 4 12 1 13
REMARK SMILES IDX 2 14 3 15 96 16 95 17 97 18 91 19 92 20 93 21 94 22 85 23
REMARK SMILES IDX 86 24 90 25 87 26 89 27 88 28 13 29 14 30 15 31 16 33 17 34
REMARK SMILES IDX 18 35 82 36 19 37 81 38 20 39 21 40 22 41 75 42 23 43 80 44
REMARK SMILES IDX 74 45 76 46 24 47 79 48 73 49 72 50 25 52 59 53 38 54 58 55
REMARK SMILES IDX 39 56 42 57 57 58 77 59 40 60 41 61 56 63 78 64 43 65 26 66
REMARK SMILES IDX 27 67 36 68 28 69 29 70 35 71 37 72 30 73 31 74 32 75 33 76
REMARK SMILES IDX 34 77 60 78 61 79 70 80 62 81 63 82 69 83 71 84 64 85 65 86
REMARK SMILES IDX 66 87 67 88 68 89 44 90 45 91 54 92 46 93 47 94 53 95 55 96
REMARK SMILES IDX 48 97 49 98 50 99 51 100 52 101
REMARK H PARENT 10 6 14 32 76 51 42 62
REMARK Flexibility Score: inf
ROOT
ATOM      1  C   UNL A   1      33.221  27.987  25.779  1.00  0.00     0.042 C 
ENDROOT
BRANCH   1   2
ATOM      2  C   UNL A   1      32.323  26.758  25.704  1.00  0.00     0.118 C 
BRANCH   2   3
ATOM      3  N   UNL A   1      31.877  26.520  24.349  1.00  0.00    -0.351 N 
ATOM      4  C   UNL A   1      32.176  25.583  23.398  1.00  0.00     0.267 C 
ATOM      5  O   UNL A   1      31.630  25.695  22.302  1.00  0.00    -0.268 OA
ATOM      6  H   UNL A   1      31.212  27.178  24.042  1.00  0.00     0.163 HD
BRANCH   4   7
ATOM      7  C   UNL A   1      33.083  24.386  23.632  1.00  0.00     0.128 C 
ATOM      8  N   UNL A   1      33.700  22.516  24.459  1.00  0.00    -0.250 N 
ATOM      9  N   UNL A   1      32.699  23.430  24.429  1.00  0.00    -0.171 NA
ATOM     10  C   UNL A   1      34.856  22.874  23.627  1.00  0.00     0.144 C 
ATOM     11  C   UNL A   1      34.371  24.139  22.909  1.00  0.00     0.096 C 
BRANCH   8  12
ATOM     12  C   UNL A   1      33.417  21.181  24.729  1.00  0.00     0.138 A 
ATOM     13  C   UNL A   1      32.211  18.299  22.543  1.00  0.00     0.045 C 
ATOM     14  C   UNL A   1      32.653  19.034  23.778  1.00  0.00    -0.046 A 
ATOM     15  C   UNL A   1      33.088  20.362  23.636  1.00  0.00     0.039 A 
ATOM     16  C   UNL A   1      32.628  18.456  25.057  1.00  0.00    -0.041 A 
ATOM     17  C   UNL A   1      33.008  19.238  26.161  1.00  0.00     0.091 A 
ATOM     18  C   UNL A   1      32.220  17.030  25.304  1.00  0.00     0.045 C 
ATOM     19  C   UNL A   1      33.382  20.586  25.995  1.00  0.00     0.294 A 
BRANCH  19  20
ATOM     20  N   UNL A   1      33.651  21.354  27.204  1.00  0.00     0.065 N 
ATOM     21  O   UNL A   1      32.679  21.890  27.760  1.00  0.00    -0.258 OA
ATOM     22  O   UNL A   1      34.835  21.524  27.534  1.00  0.00    -0.258 OA
ENDBRANCH  19  20
ENDBRANCH   8  12
BRANCH  10  23
ATOM     23  C   UNL A   1      36.107  23.015  24.494  1.00  0.00    -0.023 A 
ATOM     24  C   UNL A   1      36.341  24.090  25.367  1.00  0.00     0.006 A 
ATOM     25  C   UNL A   1      37.062  21.979  24.464  1.00  0.00     0.006 A 
ATOM     26  C   UNL A   1      37.498  24.139  26.154  1.00  0.00     0.000 A 
ATOM     27  C   UNL A   1      38.192  22.006  25.284  1.00  0.00     0.000 A 
ATOM     28  C   UNL A   1      38.416  23.093  26.121  1.00  0.00     0.000 A 
ENDBRANCH  10  23
ENDBRANCH   4   7
ENDBRANCH   2   3
ENDBRANCH   1   2
BRANCH   1  29
ATOM     29  C   UNL A   1      33.653  28.295  27.210  1.00  0.00     0.118 C 
BRANCH  29  30
ATOM     30  N   UNL A   1      33.597  29.728  27.494  1.00  0.00    -0.352 N 
ATOM     31  C   UNL A   1      34.508  30.538  28.123  1.00  0.00     0.251 C 
ATOM     32  H   UNL A   1      32.778  30.182  27.185  1.00  0.00     0.163 HD
ATOM     33  O   UNL A   1      34.165  31.653  28.512  1.00  0.00    -0.269 OA
BRANCH  31  34
ATOM     34  C   UNL A   1      35.888  30.063  28.332  1.00  0.00     0.039 A 
ATOM     35  C   UNL A   1      36.798  30.097  27.273  1.00  0.00     0.014 A 
ATOM     36  C   UNL A   1      36.277  29.577  29.582  1.00  0.00     0.014 A 
ATOM     37  C   UNL A   1      38.121  29.708  27.490  1.00  0.00     0.010 A 
ATOM     38  C   UNL A   1      37.613  29.287  29.821  1.00  0.00     0.010 A 
ATOM     39  C   UNL A   1      38.546  29.337  28.776  1.00  0.00    -0.014 A 
BRANCH  39  40
ATOM     40  C   UNL A   1      39.953  28.966  29.067  1.00  0.00     0.031 A 
ATOM     41  C   UNL A   1      40.893  30.007  29.612  1.00  0.00     0.074 A 
ATOM     42  C   UNL A   1      40.404  27.737  28.747  1.00  0.00     0.049 A 
ATOM     43  N   UNL A   1      42.187  29.945  29.783  1.00  0.00    -0.248 NA
ATOM     44  C   UNL A   1      40.302  31.307  29.977  1.00  0.00     0.031 C 
ATOM     45  C   UNL A   1      39.595  26.658  28.175  1.00  0.00     0.029 A 
ATOM     46  N   UNL A   1      41.661  27.196  28.835  1.00  0.00    -0.354 N 
ATOM     47  C   UNL A   1      42.568  31.198  30.248  1.00  0.00     0.074 A 
ATOM     48  C   UNL A   1      41.378  32.019  30.277  1.00  0.00     0.031 C 
ATOM     49  C   UNL A   1      40.371  25.582  27.978  1.00  0.00     0.029 A 
ATOM     50  C   UNL A   1      41.742  25.907  28.361  1.00  0.00     0.049 A 
ATOM     51  H   UNL A   1      42.433  27.683  29.203  1.00  0.00     0.167 HD
ATOM     52  C   UNL A   1      43.794  31.619  30.637  1.00  0.00     0.037 A 
ATOM     53  C   UNL A   1      42.806  25.089  28.232  1.00  0.00     0.037 A 
ATOM     54  C   UNL A   1      44.963  30.781  30.633  1.00  0.00     0.049 A 
ATOM     55  C   UNL A   1      44.161  25.580  28.665  1.00  0.00     0.074 A 
ATOM     56  C   UNL A   1      46.242  31.089  31.061  1.00  0.00     0.029 A 
ATOM     57  N   UNL A   1      44.996  29.469  30.182  1.00  0.00    -0.354 N 
ATOM     58  N   UNL A   1      44.495  26.752  29.152  1.00  0.00    -0.248 NA
ATOM     59  C   UNL A   1      45.283  24.641  28.537  1.00  0.00     0.031 C 
ATOM     60  C   UNL A   1      47.060  29.981  30.822  1.00  0.00     0.029 A 
ATOM     61  C   UNL A   1      46.277  28.961  30.303  1.00  0.00     0.049 A 
ATOM     62  H   UNL A   1      44.222  28.974  29.826  1.00  0.00     0.167 HD
ATOM     63  C   UNL A   1      45.857  26.676  29.425  1.00  0.00     0.074 A 
ATOM     64  C   UNL A   1      46.283  25.344  29.049  1.00  0.00     0.031 C 
ATOM     65  C   UNL A   1      46.677  27.621  29.947  1.00  0.00     0.037 A 
BRANCH  52  66
ATOM     66  C   UNL A   1      43.931  33.043  31.102  1.00  0.00     0.058 A 
ATOM     67  C   UNL A   1      43.802  33.395  32.455  1.00  0.00     0.135 A 
ATOM     68  C   UNL A   1      44.226  34.067  30.186  1.00  0.00     0.135 A 
ATOM     69  F   UNL A   1      43.503  32.461  33.372  1.00  0.00    -0.206 F 
ATOM     70  C   UNL A   1      43.928  34.713  32.880  1.00  0.00     0.059 A 
ATOM     71  C   UNL A   1      44.389  35.387  30.594  1.00  0.00     0.059 A 
ATOM     72  F   UNL A   1      44.359  33.788  28.880  1.00  0.00    -0.206 F 
ATOM     73  C   UNL A   1      44.222  35.703  31.941  1.00  0.00     0.060 A 
BRANCH  73  74
ATOM     74  S   UNL A   1      44.390  37.407  32.513  1.00  0.00     0.124 S 
ATOM     75  O   UNL A   1      43.842  38.148  31.382  1.00  0.00    -0.237 OA
ATOM     76  O   UNL A   1      43.577  37.410  33.725  1.00  0.00    -0.237 OA
ATOM     77  O   UNL A   1      45.826  37.555  32.724  1.00  0.00    -0.744 OA
ENDBRANCH  73  74
ENDBRANCH  52  66
BRANCH  53  78
ATOM     78  C   UNL A   1      42.625  23.716  27.686  1.00  0.00     0.058 A 
ATOM     79  C   UNL A   1      42.459  22.617  28.542  1.00  0.00     0.135 A 
ATOM     80  C   UNL A   1      42.601  23.475  26.303  1.00  0.00     0.135 A 
ATOM     81  F   UNL A   1      42.480  22.795  29.872  1.00  0.00    -0.206 F 
ATOM     82  C   UNL A   1      42.294  21.327  28.051  1.00  0.00     0.059 A 
ATOM     83  C   UNL A   1      42.409  22.196  25.786  1.00  0.00     0.059 A 
ATOM     84  F   UNL A   1      42.735  24.493  25.440  1.00  0.00    -0.206 F 
ATOM     85  C   UNL A   1      42.267  21.127  26.669  1.00  0.00     0.060 A 
BRANCH  85  86
ATOM     86  S   UNL A   1      42.005  19.454  26.043  1.00  0.00     0.124 S 
ATOM     87  O   UNL A   1      40.569  19.456  25.789  1.00  0.00    -0.237 OA
ATOM     88  O   UNL A   1      42.864  19.432  24.862  1.00  0.00    -0.237 OA
ATOM     89  O   UNL A   1      42.451  18.609  27.147  1.00  0.00    -0.744 OA
ENDBRANCH  85  86
ENDBRANCH  53  78
BRANCH  65  90
ATOM     90  C   UNL A   1      48.109  27.242  30.204  1.00  0.00     0.058 A 
ATOM     91  C   UNL A   1      49.130  27.529  29.286  1.00  0.00     0.135 A 
ATOM     92  C   UNL A   1      48.472  26.663  31.431  1.00  0.00     0.135 A 
ATOM     93  F   UNL A   1      48.836  28.075  28.095  1.00  0.00    -0.206 F 
ATOM     94  C   UNL A   1      50.462  27.247  29.573  1.00  0.00     0.059 A 
ATOM     95  C   UNL A   1      49.799  26.399  31.751  1.00  0.00     0.059 A 
ATOM     96  F   UNL A   1      47.533  26.377  32.348  1.00  0.00    -0.206 F 
ATOM     97  C   UNL A   1      50.787  26.690  30.812  1.00  0.00     0.060 A 
BRANCH  97  98
ATOM     98  S   UNL A   1      52.525  26.391  31.196  1.00  0.00     0.124 S 
ATOM     99  O   UNL A   1      52.445  25.164  31.982  1.00  0.00    -0.237 OA
ATOM    100  O   UNL A   1      53.119  26.257  29.870  1.00  0.00    -0.237 OA
ATOM    101  O   UNL A   1      52.921  27.585  31.936  1.00  0.00    -0.744 OA
ENDBRANCH  97  98
ENDBRANCH  65  90
ENDBRANCH  39  40
ENDBRANCH  31  34
ENDBRANCH  29  30
ENDBRANCH   1  29
TORSDOF 16
ENDMDL
MODEL 2
REMARK VINA RESULT:     -11.8      2.487      3.505
REMARK SMILES Cc1cc(N2N=C(C(=O)NCCCNC(=O)c3ccc(-c4c5nc(c(-c6c(F)cc(S(=O)(=O)[O-])cc6F)c6ccc([nH]6)c(-c6c(F)cc(S(=O)(=O)[O-])cc6F)c6nc(c(-c7c(F)cc(S(=O)(=O)[O-])cc7F)c7ccc4[nH]7)C=C6)C=C5)cc3)C[C@H]2c2ccccc2)c([N+](=O)[O-])cc1C
REMARK SMILES IDX 12 1 11 2 10 3 8 4 9 5 7 7 5 8 6 9 84 10 83 11 4 12 1 13
REMARK SMILES IDX 2 14 3 15 96 16 95 17 97 18 91 19 92 20 93 21 94 22 85 23
REMARK SMILES IDX 86 24 90 25 87 26 89 27 88 28 13 29 14 30 15 31 16 33 17 34
REMARK SMILES IDX 18 35 82 36 19 37 81 38 20 39 21 40 22 41 75 42 23 43 80 44
REMARK SMILES IDX 74 45 76 46 24 47 79 48 73 49 72 50 25 52 59 53 38 54 58 55
REMARK SMILES IDX 39 56 42 57 57 58 77 59 40 60 41 61 56 63 78 64 43 65 26 66
REMARK SMILES IDX 27 67 36 68 28 69 29 70 35 71 37 72 30 73 31 74 32 75 33 76
REMARK SMILES IDX 34 77 60 78 61 79 70 80 62 81 63 82 69 83 71 84 64 85 65 86
REMARK SMILES IDX 66 87 67 88 68 89 44 90 45 91 54 92 46 93 47 94 53 95 55 96
REMARK SMILES IDX 48 97 49 98 50 99 51 100 52 101
REMARK H PARENT 10 6 14 32 76 51 42 62
REMARK Flexibility Score: inf
ROOT
ATOM      1  C   UNL A   1      34.023  29.352  27.198  1.00  0.00     0.042 C 
ENDROOT
BRANCH   1   2
ATOM      2  C   UNL A   1      33.955  28.020  26.463  1.00  0.00     0.118 C 
BRANCH   2   3
ATOM      3  N   UNL A   1      32.750  27.296  26.805  1.00  0.00    -0.351 N 
ATOM      4  C   UNL A   1      32.268  26.051  26.504  1.00  0.00     0.267 C 
ATOM      5  O   UNL A   1      31.156  25.756  26.938  1.00  0.00    -0.268 OA
ATOM      6  H   UNL A   1      32.141  27.814  27.380  1.00  0.00     0.163 HD
BRANCH   4   7
ATOM      7  C   UNL A   1      33.043  24.998  25.731  1.00  0.00     0.128 C 
ATOM      8  N   UNL A   1      33.507  23.057  24.973  1.00  0.00    -0.250 N 
ATOM      9  N   UNL A   1      32.623  23.766  25.717  1.00  0.00    -0.171 NA
ATOM     10  C   UNL A   1      34.616  23.860  24.442  1.00  0.00     0.144 C 
ATOM     11  C   UNL A   1      34.221  25.284  24.850  1.00  0.00     0.096 C 
BRANCH   8  12
ATOM     12  C   UNL A   1      33.094  21.906  24.308  1.00  0.00     0.138 A 
ATOM     13  C   UNL A   1      33.369  18.197  25.143  1.00  0.00     0.045 C 
ATOM     14  C   UNL A   1      33.023  19.439  24.370  1.00  0.00    -0.046 A 
ATOM     15  C   UNL A   1      33.271  20.682  24.974  1.00  0.00     0.039 A 
ATOM     16  C   UNL A   1      32.487  19.404  23.073  1.00  0.00    -0.041 A 
ATOM     17  C   UNL A   1      32.248  20.617  22.406  1.00  0.00     0.091 A 
ATOM     18  C   UNL A   1      32.148  18.123  22.362  1.00  0.00     0.045 C 
ATOM     19  C   UNL A   1      32.562  21.848  23.015  1.00  0.00     0.294 A 
BRANCH  19  20
ATOM     20  N   UNL A   1      32.387  23.051  22.209  1.00  0.00     0.065 N 
ATOM     21  O   UNL A   1      33.225  23.259  21.317  1.00  0.00    -0.258 OA
ATOM     22  O   UNL A   1      31.492  23.845  22.537  1.00  0.00    -0.258 OA
ENDBRANCH  19  20
ENDBRANCH   8  12
BRANCH  10  23
ATOM     23  C   UNL A   1      35.949  23.338  24.978  1.00  0.00    -0.023 A 
ATOM     24  C   UNL A   1      36.555  22.144  24.552  1.00  0.00     0.006 A 
ATOM     25  C   UNL A   1      36.648  24.126  25.915  1.00  0.00     0.006 A 
ATOM     26  C   UNL A   1      37.794  21.743  25.066  1.00  0.00     0.000 A 
ATOM     27  C   UNL A   1      37.905  23.748  26.391  1.00  0.00     0.000 A 
ATOM     28  C   UNL A   1      38.472  22.549  25.975  1.00  0.00     0.000 A 
ENDBRANCH  10  23
ENDBRANCH   4   7
ENDBRANCH   2   3
ENDBRANCH   1   2
BRANCH   1  29
ATOM     29  C   UNL A   1      35.402  29.604  27.803  1.00  0.00     0.118 C 
BRANCH  29  30
ATOM     30  N   UNL A   1      35.319  30.410  29.019  1.00  0.00    -0.352 N 
ATOM     31  C   UNL A   1      36.261  30.640  29.990  1.00  0.00     0.251 C 
ATOM     32  H   UNL A   1      34.453  30.858  29.164  1.00  0.00     0.163 HD
ATOM     33  O   UNL A   1      35.918  31.117  31.070  1.00  0.00    -0.269 OA
BRANCH  31  34
ATOM     34  C   UNL A   1      37.675  30.308  29.731  1.00  0.00     0.039 A 
ATOM     35  C   UNL A   1      38.501  29.933  30.793  1.00  0.00     0.014 A 
ATOM     36  C   UNL A   1      38.181  30.377  28.432  1.00  0.00     0.014 A 
ATOM     37  C   UNL A   1      39.821  29.557  30.537  1.00  0.00     0.010 A 
ATOM     38  C   UNL A   1      39.460  29.908  28.167  1.00  0.00     0.010 A 
ATOM     39  C   UNL A   1      40.297  29.505  29.217  1.00  0.00    -0.014 A 
BRANCH  39  40
ATOM     40  C   UNL A   1      41.676  29.062  28.891  1.00  0.00     0.031 A 
ATOM     41  C   UNL A   1      42.787  30.076  28.854  1.00  0.00     0.074 A 
ATOM     42  C   UNL A   1      41.903  27.783  28.532  1.00  0.00     0.049 A 
ATOM     43  N   UNL A   1      44.019  29.938  28.441  1.00  0.00    -0.248 NA
ATOM     44  C   UNL A   1      42.455  31.438  29.308  1.00  0.00     0.031 C 
ATOM     45  C   UNL A   1      40.896  26.721  28.491  1.00  0.00     0.029 A 
ATOM     46  N   UNL A   1      43.053  27.165  28.110  1.00  0.00    -0.354 N 
ATOM     47  C   UNL A   1      44.599  31.196  28.559  1.00  0.00     0.074 A 
ATOM     48  C   UNL A   1      43.570  32.097  29.027  1.00  0.00     0.031 C 
ATOM     49  C   UNL A   1      41.475  25.581  28.082  1.00  0.00     0.029 A 
ATOM     50  C   UNL A   1      42.880  25.841  27.783  1.00  0.00     0.049 A 
ATOM     51  H   UNL A   1      43.921  27.626  28.046  1.00  0.00     0.167 HD
ATOM     52  C   UNL A   1      45.881  31.561  28.320  1.00  0.00     0.037 A 
ATOM     53  C   UNL A   1      43.752  24.943  27.281  1.00  0.00     0.037 A 
ATOM     54  C   UNL A   1      46.903  30.647  27.885  1.00  0.00     0.049 A 
ATOM     55  C   UNL A   1      45.170  25.373  27.018  1.00  0.00     0.074 A 
ATOM     56  C   UNL A   1      48.246  30.899  27.669  1.00  0.00     0.029 A 
ATOM     57  N   UNL A   1      46.697  29.304  27.603  1.00  0.00    -0.354 N 
ATOM     58  N   UNL A   1      45.717  26.554  27.185  1.00  0.00    -0.248 NA
ATOM     59  C   UNL A   1      46.092  24.351  26.503  1.00  0.00     0.031 C 
ATOM     60  C   UNL A   1      48.841  29.722  27.208  1.00  0.00     0.029 A 
ATOM     61  C   UNL A   1      47.883  28.720  27.196  1.00  0.00     0.049 A 
ATOM     62  H   UNL A   1      45.833  28.836  27.679  1.00  0.00     0.167 HD
ATOM     63  C   UNL A   1      47.055  26.406  26.834  1.00  0.00     0.074 A 
ATOM     64  C   UNL A   1      47.234  25.023  26.446  1.00  0.00     0.031 C 
ATOM     65  C   UNL A   1      48.046  27.331  26.839  1.00  0.00     0.037 A 
BRANCH  52  66
ATOM     66  C   UNL A   1      46.248  33.005  28.528  1.00  0.00     0.058 A 
ATOM     67  C   UNL A   1      46.629  33.497  29.787  1.00  0.00     0.135 A 
ATOM     68  C   UNL A   1      46.250  33.904  27.448  1.00  0.00     0.135 A 
ATOM     69  F   UNL A   1      46.630  32.688  30.859  1.00  0.00    -0.206 F 
ATOM     70  C   UNL A   1      46.967  34.833  29.975  1.00  0.00     0.059 A 
ATOM     71  C   UNL A   1      46.615  35.236  27.607  1.00  0.00     0.059 A 
ATOM     72  F   UNL A   1      45.893  33.488  26.223  1.00  0.00    -0.206 F 
ATOM     73  C   UNL A   1      46.957  35.695  28.878  1.00  0.00     0.060 A 
BRANCH  73  74
ATOM     74  S   UNL A   1      47.405  37.424  29.140  1.00  0.00     0.124 S 
ATOM     75  O   UNL A   1      48.814  37.420  28.757  1.00  0.00    -0.237 OA
ATOM     76  O   UNL A   1      46.504  38.121  28.230  1.00  0.00    -0.237 OA
ATOM     77  O   UNL A   1      47.142  37.632  30.561  1.00  0.00    -0.744 OA
ENDBRANCH  73  74
ENDBRANCH  52  66
BRANCH  53  78
ATOM     78  C   UNL A   1      43.311  23.547  27.015  1.00  0.00     0.058 A 
ATOM     79  C   UNL A   1      43.032  23.117  25.709  1.00  0.00     0.135 A 
ATOM     80  C   UNL A   1      43.171  22.612  28.053  1.00  0.00     0.135 A 
ATOM     81  F   UNL A   1      43.146  23.975  24.683  1.00  0.00    -0.206 F 
ATOM     82  C   UNL A   1      42.614  21.818  25.441  1.00  0.00     0.059 A 
ATOM     83  C   UNL A   1      42.782  21.298  27.808  1.00  0.00     0.059 A 
ATOM     84  F   UNL A   1      43.444  22.966  29.318  1.00  0.00    -0.206 F 
ATOM     85  C   UNL A   1      42.495  20.914  26.498  1.00  0.00     0.060 A 
BRANCH  85  86
ATOM     86  S   UNL A   1      41.996  19.218  26.133  1.00  0.00     0.124 S 
ATOM     87  O   UNL A   1      42.320  18.540  27.383  1.00  0.00    -0.237 OA
ATOM     88  O   UNL A   1      40.574  19.374  25.840  1.00  0.00    -0.237 OA
ATOM     89  O   UNL A   1      42.828  18.863  24.987  1.00  0.00    -0.744 OA
ENDBRANCH  85  86
ENDBRANCH  53  78
BRANCH  65  90
ATOM     90  C   UNL A   1      49.432  26.876  26.473  1.00  0.00     0.058 A 
ATOM     91  C   UNL A   1      50.261  26.211  27.389  1.00  0.00     0.135 A 
ATOM     92  C   UNL A   1      49.897  27.032  25.157  1.00  0.00     0.135 A 
ATOM     93  F   UNL A   1      49.867  26.044  28.661  1.00  0.00    -0.206 F 
ATOM     94  C   UNL A   1      51.509  25.723  27.013  1.00  0.00     0.059 A 
ATOM     95  C   UNL A   1      51.128  26.526  24.752  1.00  0.00     0.059 A 
ATOM     96  F   UNL A   1      49.138  27.654  24.240  1.00  0.00    -0.206 F 
ATOM     97  C   UNL A   1      51.929  25.878  25.690  1.00  0.00     0.060 A 
BRANCH  97  98
ATOM     98  S   UNL A   1      53.521  25.181  25.201  1.00  0.00     0.124 S 
ATOM     99  O   UNL A   1      54.423  25.804  26.165  1.00  0.00    -0.237 OA
ATOM    100  O   UNL A   1      53.300  23.748  25.374  1.00  0.00    -0.237 OA
ATOM    101  O   UNL A   1      53.677  25.623  23.819  1.00  0.00    -0.744 OA
ENDBRANCH  97  98
ENDBRANCH  65  90
ENDBRANCH  39  40
ENDBRANCH  31  34
ENDBRANCH  29  30
ENDBRANCH   1  29
TORSDOF 16
ENDMDL
MODEL 3
REMARK VINA RESULT:     -11.7      4.886      6.958
REMARK SMILES Cc1cc(N2N=C(C(=O)NCCCNC(=O)c3ccc(-c4c5nc(c(-c6c(F)cc(S(=O)(=O)[O-])cc6F)c6ccc([nH]6)c(-c6c(F)cc(S(=O)(=O)[O-])cc6F)c6nc(c(-c7c(F)cc(S(=O)(=O)[O-])cc7F)c7ccc4[nH]7)C=C6)C=C5)cc3)C[C@H]2c2ccccc2)c([N+](=O)[O-])cc1C
REMARK SMILES IDX 12 1 11 2 10 3 8 4 9 5 7 7 5 8 6 9 84 10 83 11 4 12 1 13
REMARK SMILES IDX 2 14 3 15 96 16 95 17 97 18 91 19 92 20 93 21 94 22 85 23
REMARK SMILES IDX 86 24 90 25 87 26 89 27 88 28 13 29 14 30 15 31 16 33 17 34
REMARK SMILES IDX 18 35 82 36 19 37 81 38 20 39 21 40 22 41 75 42 23 43 80 44
REMARK SMILES IDX 74 45 76 46 24 47 79 48 73 49 72 50 25 52 59 53 38 54 58 55
REMARK SMILES IDX 39 56 42 57 57 58 77 59 40 60 41 61 56 63 78 64 43 65 26 66
REMARK SMILES IDX 27 67 36 68 28 69 29 70 35 71 37 72 30 73 31 74 32 75 33 76
REMARK SMILES IDX 34 77 60 78 61 79 70 80 62 81 63 82 69 83 71 84 64 85 65 86
REMARK SMILES IDX 66 87 67 88 68 89 44 90 45 91 54 92 46 93 47 94 53 95 55 96
REMARK SMILES IDX 48 97 49 98 50 99 51 100 52 101
REMARK H PARENT 10 6 14 32 76 51 42 62
REMARK Flexibility Score: inf
ROOT
ATOM      1  C   UNL A   1      31.868  33.192  27.033  1.00  0.00     0.042 C 
ENDROOT
BRANCH   1   2
ATOM      2  C   UNL A   1      31.960  31.674  26.941  1.00  0.00     0.118 C 
BRANCH   2   3
ATOM      3  N   UNL A   1      33.277  31.208  27.314  1.00  0.00    -0.351 N 
ATOM      4  C   UNL A   1      33.912  29.997  27.253  1.00  0.00     0.267 C 
ATOM      5  O   UNL A   1      35.053  29.935  27.706  1.00  0.00    -0.268 OA
ATOM      6  H   UNL A   1      33.841  31.918  27.697  1.00  0.00     0.163 HD
BRANCH   4   7
ATOM      7  C   UNL A   1      33.323  28.755  26.607  1.00  0.00     0.128 C 
ATOM      8  N   UNL A   1      33.225  27.085  25.279  1.00  0.00    -0.250 N 
ATOM      9  N   UNL A   1      33.989  28.131  25.677  1.00  0.00    -0.171 NA
ATOM     10  C   UNL A   1      31.940  26.986  25.983  1.00  0.00     0.144 C 
ATOM     11  C   UNL A   1      32.056  28.086  27.045  1.00  0.00     0.096 C 
BRANCH   8  12
ATOM     12  C   UNL A   1      33.824  25.946  24.749  1.00  0.00     0.138 A 
ATOM     13  C   UNL A   1      36.129  23.303  26.245  1.00  0.00     0.045 C 
ATOM     14  C   UNL A   1      35.304  24.026  25.216  1.00  0.00    -0.046 A 
ATOM     15  C   UNL A   1      34.543  25.128  25.637  1.00  0.00     0.039 A 
ATOM     16  C   UNL A   1      35.283  23.658  23.862  1.00  0.00    -0.041 A 
ATOM     17  C   UNL A   1      34.525  24.427  22.963  1.00  0.00     0.091 A 
ATOM     18  C   UNL A   1      36.029  22.468  23.325  1.00  0.00     0.045 C 
ATOM     19  C   UNL A   1      33.819  25.563  23.404  1.00  0.00     0.294 A 
BRANCH  19  20
ATOM     20  N   UNL A   1      33.152  26.367  22.386  1.00  0.00     0.065 N 
ATOM     21  O   UNL A   1      32.061  25.952  21.966  1.00  0.00    -0.258 OA
ATOM     22  O   UNL A   1      33.764  27.342  21.922  1.00  0.00    -0.258 OA
ENDBRANCH  19  20
ENDBRANCH   8  12
BRANCH  10  23
ATOM     23  C   UNL A   1      30.783  27.109  24.992  1.00  0.00    -0.023 A 
ATOM     24  C   UNL A   1      29.763  26.154  24.851  1.00  0.00     0.006 A 
ATOM     25  C   UNL A   1      30.696  28.277  24.207  1.00  0.00     0.006 A 
ATOM     26  C   UNL A   1      28.717  26.347  23.941  1.00  0.00     0.000 A 
ATOM     27  C   UNL A   1      29.627  28.490  23.334  1.00  0.00     0.000 A 
ATOM     28  C   UNL A   1      28.644  27.518  23.193  1.00  0.00     0.000 A 
ENDBRANCH  10  23
ENDBRANCH   4   7
ENDBRANCH   2   3
ENDBRANCH   1   2
BRANCH   1  29
ATOM     29  C   UNL A   1      33.080  33.799  27.733  1.00  0.00     0.118 C 
BRANCH  29  30
ATOM     30  N   UNL A   1      32.736  35.033  28.437  1.00  0.00    -0.352 N 
ATOM     31  C   UNL A   1      33.083  35.455  29.696  1.00  0.00     0.251 C 
ATOM     32  H   UNL A   1      32.167  35.657  27.930  1.00  0.00     0.163 HD
ATOM     33  O   UNL A   1      32.475  36.390  30.213  1.00  0.00    -0.269 OA
BRANCH  31  34
ATOM     34  C   UNL A   1      34.179  34.783  30.417  1.00  0.00     0.039 A 
ATOM     35  C   UNL A   1      33.941  34.235  31.680  1.00  0.00     0.014 A 
ATOM     36  C   UNL A   1      35.449  34.703  29.841  1.00  0.00     0.014 A 
ATOM     37  C   UNL A   1      34.962  33.542  32.333  1.00  0.00     0.010 A 
ATOM     38  C   UNL A   1      36.431  33.931  30.445  1.00  0.00     0.010 A 
ATOM     39  C   UNL A   1      36.203  33.353  31.702  1.00  0.00    -0.014 A 
BRANCH  39  40
ATOM     40  C   UNL A   1      37.301  32.580  32.334  1.00  0.00     0.031 A 
ATOM     41  C   UNL A   1      37.862  33.040  33.653  1.00  0.00     0.074 A 
ATOM     42  C   UNL A   1      37.853  31.540  31.679  1.00  0.00     0.049 A 
ATOM     43  N   UNL A   1      38.916  32.613  34.296  1.00  0.00    -0.248 NA
ATOM     44  C   UNL A   1      37.164  34.154  34.316  1.00  0.00     0.031 C 
ATOM     45  C   UNL A   1      37.420  31.029  30.377  1.00  0.00     0.029 A 
ATOM     46  N   UNL A   1      38.917  30.739  32.011  1.00  0.00    -0.354 N 
ATOM     47  C   UNL A   1      39.024  33.422  35.422  1.00  0.00     0.074 A 
ATOM     48  C   UNL A   1      37.962  34.401  35.345  1.00  0.00     0.031 C 
ATOM     49  C   UNL A   1      38.200  29.994  30.028  1.00  0.00     0.029 A 
ATOM     50  C   UNL A   1      39.220  29.798  31.055  1.00  0.00     0.049 A 
ATOM     51  H   UNL A   1      39.418  30.830  32.854  1.00  0.00     0.167 HD
ATOM     52  C   UNL A   1      39.913  33.340  36.439  1.00  0.00     0.037 A 
ATOM     53  C   UNL A   1      40.218  28.894  31.004  1.00  0.00     0.037 A 
ATOM     54  C   UNL A   1      40.945  32.341  36.519  1.00  0.00     0.049 A 
ATOM     55  C   UNL A   1      41.199  28.825  32.143  1.00  0.00     0.074 A 
ATOM     56  C   UNL A   1      41.862  32.132  37.533  1.00  0.00     0.029 A 
ATOM     57  N   UNL A   1      41.194  31.380  35.548  1.00  0.00    -0.354 N 
ATOM     58  N   UNL A   1      41.255  29.563  33.227  1.00  0.00    -0.248 NA
ATOM     59  C   UNL A   1      42.249  27.801  32.059  1.00  0.00     0.031 C 
ATOM     60  C   UNL A   1      42.698  31.078  37.153  1.00  0.00     0.029 A 
ATOM     61  C   UNL A   1      42.263  30.589  35.931  1.00  0.00     0.049 A 
ATOM     62  H   UNL A   1      40.686  31.278  34.710  1.00  0.00     0.167 HD
ATOM     63  C   UNL A   1      42.321  29.066  33.970  1.00  0.00     0.074 A 
ATOM     64  C   UNL A   1      42.880  27.966  33.213  1.00  0.00     0.031 C 
ATOM     65  C   UNL A   1      42.788  29.480  35.174  1.00  0.00     0.037 A 
BRANCH  52  66
ATOM     66  C   UNL A   1      39.807  34.354  37.545  1.00  0.00     0.058 A 
ATOM     67  C   UNL A   1      39.133  34.071  38.745  1.00  0.00     0.135 A 
ATOM     68  C   UNL A   1      40.411  35.616  37.418  1.00  0.00     0.135 A 
ATOM     69  F   UNL A   1      38.522  32.887  38.916  1.00  0.00    -0.206 F 
ATOM     70  C   UNL A   1      39.037  35.011  39.765  1.00  0.00     0.059 A 
ATOM     71  C   UNL A   1      40.355  36.560  38.439  1.00  0.00     0.059 A 
ATOM     72  F   UNL A   1      41.066  35.941  36.293  1.00  0.00    -0.206 F 
ATOM     73  C   UNL A   1      39.651  36.253  39.602  1.00  0.00     0.060 A 
BRANCH  73  74
ATOM     74  S   UNL A   1      39.520  37.458  40.940  1.00  0.00     0.124 S 
ATOM     75  O   UNL A   1      38.575  38.417  40.376  1.00  0.00    -0.237 OA
ATOM     76  O   UNL A   1      39.015  36.646  42.042  1.00  0.00    -0.237 OA
ATOM     77  O   UNL A   1      40.888  37.943  41.097  1.00  0.00    -0.744 OA
ENDBRANCH  73  74
ENDBRANCH  52  66
BRANCH  53  78
ATOM     78  C   UNL A   1      40.325  27.970  29.842  1.00  0.00     0.058 A 
ATOM     79  C   UNL A   1      41.271  28.193  28.830  1.00  0.00     0.135 A 
ATOM     80  C   UNL A   1      39.498  26.843  29.723  1.00  0.00     0.135 A 
ATOM     81  F   UNL A   1      42.083  29.260  28.895  1.00  0.00    -0.206 F 
ATOM     82  C   UNL A   1      41.383  27.344  27.734  1.00  0.00     0.059 A 
ATOM     83  C   UNL A   1      39.609  25.962  28.651  1.00  0.00     0.059 A 
ATOM     84  F   UNL A   1      38.589  26.572  30.673  1.00  0.00    -0.206 F 
ATOM     85  C   UNL A   1      40.548  26.228  27.656  1.00  0.00     0.060 A 
BRANCH  85  86
ATOM     86  S   UNL A   1      40.734  25.107  26.252  1.00  0.00     0.124 S 
ATOM     87  O   UNL A   1      41.197  26.015  25.209  1.00  0.00    -0.237 OA
ATOM     88  O   UNL A   1      41.720  24.152  26.752  1.00  0.00    -0.237 OA
ATOM     89  O   UNL A   1      39.389  24.569  26.072  1.00  0.00    -0.744 OA
ENDBRANCH  85  86
ENDBRANCH  53  78
BRANCH  65  90
ATOM     90  C   UNL A   1      43.924  28.708  35.787  1.00  0.00     0.058 A 
ATOM     91  C   UNL A   1      45.263  29.081  35.598  1.00  0.00     0.135 A 
ATOM     92  C   UNL A   1      43.656  27.633  36.651  1.00  0.00     0.135 A 
ATOM     93  F   UNL A   1      45.573  30.096  34.776  1.00  0.00    -0.206 F 
ATOM     94  C   UNL A   1      46.299  28.408  36.238  1.00  0.00     0.059 A 
ATOM     95  C   UNL A   1      44.674  26.965  37.324  1.00  0.00     0.059 A 
ATOM     96  F   UNL A   1      42.391  27.243  36.873  1.00  0.00    -0.206 F 
ATOM     97  C   UNL A   1      45.994  27.357  37.106  1.00  0.00     0.060 A 
BRANCH  97  98
ATOM     98  S   UNL A   1      47.343  26.537  37.980  1.00  0.00     0.124 S 
ATOM     99  O   UNL A   1      48.390  26.529  36.963  1.00  0.00    -0.237 OA
ATOM    100  O   UNL A   1      47.567  27.428  39.114  1.00  0.00    -0.237 OA
ATOM    101  O   UNL A   1      46.786  25.230  38.318  1.00  0.00    -0.744 OA
ENDBRANCH  97  98
ENDBRANCH  65  90
ENDBRANCH  39  40
ENDBRANCH  31  34
ENDBRANCH  29  30
ENDBRANCH   1  29
TORSDOF 16
ENDMDL
