MODEL 1
REMARK VINA RESULT:     -13.6      0.000      0.000
REMARK SMILES Cc1ccc(NC(=O)N2CCCC[C@@H]2C(=O)NCCCNC(=O)c2ccc(-c3c4nc(c(-c5c(F)cc(S(=O)(=O)[O-])cc5F)c5ccc([nH]5)c(-c5c(F)cc(S(=O)(=O)[O-])cc5F)c5nc(c(-c6c(F)cc(S(=O)(=O)[O-])cc6F)c6ccc3[nH]6)C=C5)C=C4)cc2)cc1
REMARK SMILES IDX 19 1 18 2 17 3 15 4 16 5 14 7 9 8 10 9 11 10 13 11 12 12
REMARK SMILES IDX 7 13 6 14 8 16 5 17 1 18 2 19 3 20 91 21 4 22 90 23 20 24
REMARK SMILES IDX 21 25 22 26 23 28 24 29 25 30 89 31 26 32 88 33 27 34 28 35
REMARK SMILES IDX 29 36 82 37 30 38 87 39 81 40 83 41 31 42 86 43 80 44 79 45
REMARK SMILES IDX 32 47 66 48 45 49 65 50 46 51 49 52 64 53 84 54 47 55 48 56
REMARK SMILES IDX 63 58 85 59 50 60 33 61 34 62 43 63 35 64 36 65 42 66 44 67
REMARK SMILES IDX 37 68 38 69 39 70 40 71 41 72 67 73 68 74 77 75 69 76 70 77
REMARK SMILES IDX 76 78 78 79 71 80 72 81 73 82 74 83 75 84 51 85 52 86 61 87
REMARK SMILES IDX 53 88 54 89 60 90 62 91 55 92 56 93 57 94 58 95 59 96
REMARK H PARENT 17 6 6 15 21 27 83 46 49 57
REMARK Flexibility Score: inf
ROOT
ATOM      1  C   UNL A   1      34.390  28.976  26.196  1.00  0.00     0.042 C 
ENDROOT
BRANCH   1   2
ATOM      2  C   UNL A   1      33.918  27.555  25.903  1.00  0.00     0.117 C 
BRANCH   2   3
ATOM      3  N   UNL A   1      32.509  27.506  25.541  1.00  0.00    -0.354 N 
ATOM      4  C   UNL A   1      31.637  26.465  25.428  1.00  0.00     0.242 C 
ATOM      5  O   UNL A   1      30.540  26.711  24.909  1.00  0.00    -0.273 OA
ATOM      6  H   UNL A   1      32.114  28.386  25.342  1.00  0.00     0.163 HD
BRANCH   4   7
ATOM      7  C   UNL A   1      32.030  24.993  25.728  1.00  0.00     0.176 C 
ATOM      8  N   UNL A   1      32.256  24.134  24.536  1.00  0.00    -0.313 N 
ATOM      9  C   UNL A   1      31.977  22.704  24.615  1.00  0.00     0.122 C 
ATOM     10  C   UNL A   1      30.826  22.317  25.526  1.00  0.00     0.022 C 
ATOM     11  C   UNL A   1      30.975  24.464  26.721  1.00  0.00     0.035 C 
ATOM     12  C   UNL A   1      31.002  22.958  26.889  1.00  0.00     0.004 C 
BRANCH   8  13
ATOM     13  C   UNL A   1      33.026  24.515  23.439  1.00  0.00     0.322 C 
ATOM     14  N   UNL A   1      34.342  24.810  23.620  1.00  0.00    -0.308 N 
ATOM     15  H   UNL A   1      34.637  25.689  23.289  1.00  0.00     0.171 HD
ATOM     16  O   UNL A   1      32.530  24.675  22.321  1.00  0.00    -0.248 OA
BRANCH  14  17
ATOM     17  C   UNL A   1      35.333  24.015  24.223  1.00  0.00     0.042 A 
ATOM     18  C   UNL A   1      38.680  21.807  25.778  1.00  0.00     0.044 C 
ATOM     19  C   UNL A   1      37.448  22.501  25.278  1.00  0.00    -0.051 A 
ATOM     20  C   UNL A   1      36.823  23.478  26.056  1.00  0.00     0.005 A 
ATOM     21  C   UNL A   1      36.967  22.247  23.988  1.00  0.00     0.005 A 
ATOM     22  C   UNL A   1      35.755  24.214  25.539  1.00  0.00     0.026 A 
ATOM     23  C   UNL A   1      35.902  22.989  23.469  1.00  0.00     0.026 A 
ENDBRANCH  14  17
ENDBRANCH   8  13
ENDBRANCH   4   7
ENDBRANCH   2   3
ENDBRANCH   1   2
BRANCH   1  24
ATOM     24  C   UNL A   1      34.201  29.368  27.656  1.00  0.00     0.118 C 
BRANCH  24  25
ATOM     25  N   UNL A   1      34.834  30.635  27.989  1.00  0.00    -0.352 N 
ATOM     26  C   UNL A   1      36.032  30.826  28.654  1.00  0.00     0.251 C 
ATOM     27  H   UNL A   1      34.354  31.448  27.710  1.00  0.00     0.163 HD
ATOM     28  O   UNL A   1      36.345  31.895  29.144  1.00  0.00    -0.269 OA
BRANCH  26  29
ATOM     29  C   UNL A   1      36.990  29.703  28.606  1.00  0.00     0.039 A 
ATOM     30  C   UNL A   1      37.160  28.965  29.783  1.00  0.00     0.014 A 
ATOM     31  C   UNL A   1      37.881  29.583  27.544  1.00  0.00     0.014 A 
ATOM     32  C   UNL A   1      38.317  28.210  29.957  1.00  0.00     0.010 A 
ATOM     33  C   UNL A   1      39.069  28.910  27.758  1.00  0.00     0.010 A 
ATOM     34  C   UNL A   1      39.306  28.249  28.975  1.00  0.00    -0.014 A 
BRANCH  34  35
ATOM     35  C   UNL A   1      40.646  27.694  29.150  1.00  0.00     0.031 A 
ATOM     36  C   UNL A   1      40.962  26.327  28.663  1.00  0.00     0.074 A 
ATOM     37  C   UNL A   1      41.639  28.442  29.681  1.00  0.00     0.049 A 
ATOM     38  N   UNL A   1      41.974  25.627  29.059  1.00  0.00    -0.248 NA
ATOM     39  C   UNL A   1      40.123  25.615  27.705  1.00  0.00     0.031 C 
ATOM     40  C   UNL A   1      43.074  28.186  29.574  1.00  0.00     0.029 A 
ATOM     41  N   UNL A   1      41.549  29.492  30.590  1.00  0.00    -0.354 N 
ATOM     42  C   UNL A   1      42.081  24.528  28.237  1.00  0.00     0.074 A 
ATOM     43  C   UNL A   1      40.875  24.543  27.439  1.00  0.00     0.031 C 
ATOM     44  C   UNL A   1      43.716  28.876  30.527  1.00  0.00     0.029 A 
ATOM     45  C   UNL A   1      42.712  29.484  31.379  1.00  0.00     0.049 A 
ATOM     46  H   UNL A   1      40.802  30.128  30.667  1.00  0.00     0.167 HD
ATOM     47  C   UNL A   1      43.232  23.795  28.229  1.00  0.00     0.037 A 
ATOM     48  C   UNL A   1      42.663  29.338  32.737  1.00  0.00     0.037 A 
ATOM     49  C   UNL A   1      44.193  24.296  29.207  1.00  0.00     0.049 A 
ATOM     50  C   UNL A   1      43.379  28.114  33.261  1.00  0.00     0.074 A 
ATOM     51  C   UNL A   1      45.282  25.146  29.101  1.00  0.00     0.029 A 
ATOM     52  N   UNL A   1      43.932  24.159  30.565  1.00  0.00    -0.354 N 
ATOM     53  N   UNL A   1      43.766  27.118  32.512  1.00  0.00    -0.248 NA
ATOM     54  C   UNL A   1      43.700  27.899  34.669  1.00  0.00     0.031 C 
ATOM     55  C   UNL A   1      45.662  25.545  30.405  1.00  0.00     0.029 A 
ATOM     56  C   UNL A   1      44.807  24.932  31.304  1.00  0.00     0.049 A 
ATOM     57  H   UNL A   1      43.225  23.590  30.947  1.00  0.00     0.167 HD
ATOM     58  C   UNL A   1      44.323  26.136  33.292  1.00  0.00     0.074 A 
ATOM     59  C   UNL A   1      44.293  26.691  34.631  1.00  0.00     0.031 C 
ATOM     60  C   UNL A   1      44.742  24.949  32.758  1.00  0.00     0.037 A 
BRANCH  47  61
ATOM     61  C   UNL A   1      43.587  22.814  27.129  1.00  0.00     0.058 A 
ATOM     62  C   UNL A   1      42.876  21.603  26.977  1.00  0.00     0.135 A 
ATOM     63  C   UNL A   1      44.655  22.984  26.228  1.00  0.00     0.135 A 
ATOM     64  F   UNL A   1      41.770  21.343  27.685  1.00  0.00    -0.206 F 
ATOM     65  C   UNL A   1      43.275  20.591  26.103  1.00  0.00     0.059 A 
ATOM     66  C   UNL A   1      45.110  21.964  25.385  1.00  0.00     0.059 A 
ATOM     67  F   UNL A   1      45.277  24.166  26.106  1.00  0.00    -0.206 F 
ATOM     68  C   UNL A   1      44.421  20.760  25.341  1.00  0.00     0.060 A 
BRANCH  68  69
ATOM     69  S   UNL A   1      44.991  19.392  24.316  1.00  0.00     0.124 S 
ATOM     70  O   UNL A   1      44.490  19.763  22.996  1.00  0.00    -0.237 OA
ATOM     71  O   UNL A   1      46.437  19.463  24.490  1.00  0.00    -0.237 OA
ATOM     72  O   UNL A   1      44.343  18.227  24.915  1.00  0.00    -0.744 OA
ENDBRANCH  68  69
ENDBRANCH  47  61
BRANCH  48  73
ATOM     73  C   UNL A   1      41.468  29.977  33.348  1.00  0.00     0.058 A 
ATOM     74  C   UNL A   1      41.492  31.378  33.488  1.00  0.00     0.135 A 
ATOM     75  C   UNL A   1      40.215  29.347  33.311  1.00  0.00     0.135 A 
ATOM     76  F   UNL A   1      42.668  32.023  33.557  1.00  0.00    -0.206 F 
ATOM     77  C   UNL A   1      40.334  32.139  33.387  1.00  0.00     0.059 A 
ATOM     78  C   UNL A   1      39.039  30.093  33.219  1.00  0.00     0.059 A 
ATOM     79  F   UNL A   1      40.133  28.014  33.193  1.00  0.00    -0.206 F 
ATOM     80  C   UNL A   1      39.123  31.485  33.169  1.00  0.00     0.060 A 
BRANCH  80  81
ATOM     81  S   UNL A   1      37.715  32.481  32.622  1.00  0.00     0.124 S 
ATOM     82  O   UNL A   1      38.248  33.148  31.440  1.00  0.00    -0.237 OA
ATOM     83  O   UNL A   1      36.710  31.448  32.366  1.00  0.00    -0.237 OA
ATOM     84  O   UNL A   1      37.450  33.343  33.768  1.00  0.00    -0.744 OA
ENDBRANCH  80  81
ENDBRANCH  48  73
BRANCH  60  85
ATOM     85  C   UNL A   1      45.203  23.719  33.515  1.00  0.00     0.058 A 
ATOM     86  C   UNL A   1      46.512  23.515  33.982  1.00  0.00     0.135 A 
ATOM     87  C   UNL A   1      44.260  22.738  33.920  1.00  0.00     0.135 A 
ATOM     88  F   UNL A   1      47.479  24.416  33.766  1.00  0.00    -0.206 F 
ATOM     89  C   UNL A   1      46.874  22.398  34.743  1.00  0.00     0.059 A 
ATOM     90  C   UNL A   1      44.588  21.648  34.725  1.00  0.00     0.059 A 
ATOM     91  F   UNL A   1      42.970  22.813  33.559  1.00  0.00    -0.206 F 
ATOM     92  C   UNL A   1      45.905  21.471  35.113  1.00  0.00     0.060 A 
BRANCH  92  93
ATOM     93  S   UNL A   1      46.341  20.073  36.164  1.00  0.00     0.124 S 
ATOM     94  O   UNL A   1      45.688  18.969  35.466  1.00  0.00    -0.237 OA
ATOM     95  O   UNL A   1      47.800  20.070  36.117  1.00  0.00    -0.237 OA
ATOM     96  O   UNL A   1      45.765  20.437  37.454  1.00  0.00    -0.744 OA
ENDBRANCH  92  93
ENDBRANCH  60  85
ENDBRANCH  34  35
ENDBRANCH  26  29
ENDBRANCH  24  25
ENDBRANCH   1  24
TORSDOF 15
ENDMDL
MODEL 2
REMARK VINA RESULT:     -13.4      1.301      2.142
REMARK SMILES Cc1ccc(NC(=O)N2CCCC[C@@H]2C(=O)NCCCNC(=O)c2ccc(-c3c4nc(c(-c5c(F)cc(S(=O)(=O)[O-])cc5F)c5ccc([nH]5)c(-c5c(F)cc(S(=O)(=O)[O-])cc5F)c5nc(c(-c6c(F)cc(S(=O)(=O)[O-])cc6F)c6ccc3[nH]6)C=C5)C=C4)cc2)cc1
REMARK SMILES IDX 19 1 18 2 17 3 15 4 16 5 14 7 9 8 10 9 11 10 13 11 12 12
REMARK SMILES IDX 7 13 6 14 8 16 5 17 1 18 2 19 3 20 91 21 4 22 90 23 20 24
REMARK SMILES IDX 21 25 22 26 23 28 24 29 25 30 89 31 26 32 88 33 27 34 28 35
REMARK SMILES IDX 29 36 82 37 30 38 87 39 81 40 83 41 31 42 86 43 80 44 79 45
REMARK SMILES IDX 32 47 66 48 45 49 65 50 46 51 49 52 64 53 84 54 47 55 48 56
REMARK SMILES IDX 63 58 85 59 50 60 33 61 34 62 43 63 35 64 36 65 42 66 44 67
REMARK SMILES IDX 37 68 38 69 39 70 40 71 41 72 67 73 68 74 77 75 69 76 70 77
REMARK SMILES IDX 76 78 78 79 71 80 72 81 73 82 74 83 75 84 51 85 52 86 61 87
REMARK SMILES IDX 53 88 54 89 60 90 62 91 55 92 56 93 57 94 58 95 59 96
REMARK H PARENT 17 6 6 15 21 27 83 46 49 57
REMARK Flexibility Score: inf
ROOT
ATOM      1  C   UNL A   1      32.741  29.695  27.031  1.00  0.00     0.042 C 
ENDROOT
BRANCH   1   2
ATOM      2  C   UNL A   1      31.905  28.427  27.173  1.00  0.00     0.117 C 
BRANCH   2   3
ATOM      3  N   UNL A   1      32.679  27.223  26.903  1.00  0.00    -0.354 N 
ATOM      4  C   UNL A   1      33.001  26.594  25.737  1.00  0.00     0.242 C 
ATOM      5  O   UNL A   1      33.513  25.472  25.834  1.00  0.00    -0.273 OA
ATOM      6  H   UNL A   1      33.034  26.784  27.709  1.00  0.00     0.163 HD
BRANCH   4   7
ATOM      7  C   UNL A   1      32.580  27.128  24.342  1.00  0.00     0.176 C 
ATOM      8  N   UNL A   1      31.653  26.253  23.575  1.00  0.00    -0.313 N 
ATOM      9  C   UNL A   1      31.701  26.258  22.116  1.00  0.00     0.122 C 
ATOM     10  C   UNL A   1      33.073  26.495  21.513  1.00  0.00     0.022 C 
ATOM     11  C   UNL A   1      33.888  27.491  23.611  1.00  0.00     0.035 C 
ATOM     12  C   UNL A   1      33.706  27.729  22.125  1.00  0.00     0.004 C 
BRANCH   8  13
ATOM     13  C   UNL A   1      30.512  25.666  24.116  1.00  0.00     0.322 C 
ATOM     14  N   UNL A   1      30.282  24.341  23.906  1.00  0.00    -0.308 N 
ATOM     15  H   UNL A   1      29.406  24.111  23.519  1.00  0.00     0.171 HD
ATOM     16  O   UNL A   1      29.659  26.330  24.710  1.00  0.00    -0.248 OA
BRANCH  14  17
ATOM     17  C   UNL A   1      31.141  23.260  24.172  1.00  0.00     0.042 A 
ATOM     18  C   UNL A   1      34.132  20.257  24.903  1.00  0.00     0.044 C 
ATOM     19  C   UNL A   1      33.017  21.224  24.635  1.00  0.00    -0.051 A 
ATOM     20  C   UNL A   1      32.262  21.742  25.691  1.00  0.00     0.005 A 
ATOM     21  C   UNL A   1      32.782  21.692  23.336  1.00  0.00     0.005 A 
ATOM     22  C   UNL A   1      31.312  22.737  25.456  1.00  0.00     0.026 A 
ATOM     23  C   UNL A   1      31.835  22.692  23.103  1.00  0.00     0.026 A 
ENDBRANCH  14  17
ENDBRANCH   8  13
ENDBRANCH   4   7
ENDBRANCH   2   3
ENDBRANCH   1   2
BRANCH   1  24
ATOM     24  C   UNL A   1      34.174  29.512  27.516  1.00  0.00     0.118 C 
BRANCH  24  25
ATOM     25  N   UNL A   1      34.786  30.755  27.957  1.00  0.00    -0.352 N 
ATOM     26  C   UNL A   1      35.937  30.904  28.710  1.00  0.00     0.251 C 
ATOM     27  H   UNL A   1      34.328  31.585  27.689  1.00  0.00     0.163 HD
ATOM     28  O   UNL A   1      36.219  31.944  29.276  1.00  0.00    -0.269 OA
BRANCH  26  29
ATOM     29  C   UNL A   1      36.893  29.778  28.668  1.00  0.00     0.039 A 
ATOM     30  C   UNL A   1      37.076  29.059  29.855  1.00  0.00     0.014 A 
ATOM     31  C   UNL A   1      37.770  29.640  27.598  1.00  0.00     0.014 A 
ATOM     32  C   UNL A   1      38.234  28.305  30.027  1.00  0.00     0.010 A 
ATOM     33  C   UNL A   1      38.960  28.968  27.808  1.00  0.00     0.010 A 
ATOM     34  C   UNL A   1      39.211  28.326  29.032  1.00  0.00    -0.014 A 
BRANCH  34  35
ATOM     35  C   UNL A   1      40.553  27.772  29.200  1.00  0.00     0.031 A 
ATOM     36  C   UNL A   1      40.866  26.405  28.711  1.00  0.00     0.074 A 
ATOM     37  C   UNL A   1      41.548  28.520  29.725  1.00  0.00     0.049 A 
ATOM     38  N   UNL A   1      41.881  25.706  29.102  1.00  0.00    -0.248 NA
ATOM     39  C   UNL A   1      40.022  25.693  27.758  1.00  0.00     0.031 C 
ATOM     40  C   UNL A   1      42.982  28.266  29.610  1.00  0.00     0.029 A 
ATOM     41  N   UNL A   1      41.463  29.570  30.635  1.00  0.00    -0.354 N 
ATOM     42  C   UNL A   1      41.983  24.607  28.279  1.00  0.00     0.074 A 
ATOM     43  C   UNL A   1      40.773  24.621  27.488  1.00  0.00     0.031 C 
ATOM     44  C   UNL A   1      43.630  28.956  30.559  1.00  0.00     0.029 A 
ATOM     45  C   UNL A   1      42.630  29.563  31.417  1.00  0.00     0.049 A 
ATOM     46  H   UNL A   1      40.716  30.207  30.716  1.00  0.00     0.167 HD
ATOM     47  C   UNL A   1      43.134  23.875  28.265  1.00  0.00     0.037 A 
ATOM     48  C   UNL A   1      42.588  29.418  32.775  1.00  0.00     0.037 A 
ATOM     49  C   UNL A   1      44.101  24.376  29.237  1.00  0.00     0.049 A 
ATOM     50  C   UNL A   1      43.308  28.194  33.295  1.00  0.00     0.074 A 
ATOM     51  C   UNL A   1      45.189  25.226  29.125  1.00  0.00     0.029 A 
ATOM     52  N   UNL A   1      43.848  24.239  30.597  1.00  0.00    -0.354 N 
ATOM     53  N   UNL A   1      43.691  27.198  32.544  1.00  0.00    -0.248 NA
ATOM     54  C   UNL A   1      43.637  27.979  34.702  1.00  0.00     0.031 C 
ATOM     55  C   UNL A   1      45.576  25.626  30.426  1.00  0.00     0.029 A 
ATOM     56  C   UNL A   1      44.727  25.013  31.331  1.00  0.00     0.049 A 
ATOM     57  H   UNL A   1      43.144  23.670  30.982  1.00  0.00     0.167 HD
ATOM     58  C   UNL A   1      44.253  26.216  33.321  1.00  0.00     0.074 A 
ATOM     59  C   UNL A   1      44.231  26.771  34.660  1.00  0.00     0.031 C 
ATOM     60  C   UNL A   1      44.670  25.029  32.785  1.00  0.00     0.037 A 
BRANCH  47  61
ATOM     61  C   UNL A   1      43.484  22.894  27.163  1.00  0.00     0.058 A 
ATOM     62  C   UNL A   1      42.805  21.660  27.045  1.00  0.00     0.135 A 
ATOM     63  C   UNL A   1      44.517  23.086  26.226  1.00  0.00     0.135 A 
ATOM     64  F   UNL A   1      41.731  21.374  27.791  1.00  0.00    -0.206 F 
ATOM     65  C   UNL A   1      43.207  20.652  26.168  1.00  0.00     0.059 A 
ATOM     66  C   UNL A   1      44.975  22.072  25.378  1.00  0.00     0.059 A 
ATOM     67  F   UNL A   1      45.097  24.286  26.073  1.00  0.00    -0.206 F 
ATOM     68  C   UNL A   1      44.322  20.847  25.368  1.00  0.00     0.060 A 
BRANCH  68  69
ATOM     69  S   UNL A   1      44.900  19.487  24.337  1.00  0.00     0.124 S 
ATOM     70  O   UNL A   1      44.187  18.345  24.903  1.00  0.00    -0.237 OA
ATOM     71  O   UNL A   1      44.472  19.908  23.009  1.00  0.00    -0.237 OA
ATOM     72  O   UNL A   1      46.344  19.483  24.560  1.00  0.00    -0.744 OA
ENDBRANCH  68  69
ENDBRANCH  47  61
BRANCH  48  73
ATOM     73  C   UNL A   1      41.397  30.056  33.393  1.00  0.00     0.058 A 
ATOM     74  C   UNL A   1      41.428  31.455  33.547  1.00  0.00     0.135 A 
ATOM     75  C   UNL A   1      40.141  29.433  33.349  1.00  0.00     0.135 A 
ATOM     76  F   UNL A   1      42.607  32.094  33.623  1.00  0.00    -0.206 F 
ATOM     77  C   UNL A   1      40.274  32.223  33.455  1.00  0.00     0.059 A 
ATOM     78  C   UNL A   1      38.968  30.185  33.265  1.00  0.00     0.059 A 
ATOM     79  F   UNL A   1      40.052  28.101  33.217  1.00  0.00    -0.206 F 
ATOM     80  C   UNL A   1      39.060  31.578  33.230  1.00  0.00     0.060 A 
BRANCH  80  81
ATOM     81  S   UNL A   1      37.656  32.586  32.694  1.00  0.00     0.124 S 
ATOM     82  O   UNL A   1      36.626  31.581  32.459  1.00  0.00    -0.237 OA
ATOM     83  O   UNL A   1      37.449  33.442  33.862  1.00  0.00    -0.237 OA
ATOM     84  O   UNL A   1      38.164  33.261  31.505  1.00  0.00    -0.744 OA
ENDBRANCH  80  81
ENDBRANCH  48  73
BRANCH  60  85
ATOM     85  C   UNL A   1      45.136  23.799  33.539  1.00  0.00     0.058 A 
ATOM     86  C   UNL A   1      46.455  23.581  33.970  1.00  0.00     0.135 A 
ATOM     87  C   UNL A   1      44.191  22.836  33.981  1.00  0.00     0.135 A 
ATOM     88  F   UNL A   1      47.427  24.467  33.717  1.00  0.00    -0.206 F 
ATOM     89  C   UNL A   1      46.823  22.466  34.730  1.00  0.00     0.059 A 
ATOM     90  C   UNL A   1      44.528  21.749  34.786  1.00  0.00     0.059 A 
ATOM     91  F   UNL A   1      42.893  22.926  33.657  1.00  0.00    -0.206 F 
ATOM     92  C   UNL A   1      45.853  21.556  35.137  1.00  0.00     0.060 A 
BRANCH  92  93
ATOM     93  S   UNL A   1      46.300  20.161  36.187  1.00  0.00     0.124 S 
ATOM     94  O   UNL A   1      45.742  20.572  37.472  1.00  0.00    -0.237 OA
ATOM     95  O   UNL A   1      45.629  19.037  35.542  1.00  0.00    -0.237 OA
ATOM     96  O   UNL A   1      47.757  20.140  36.106  1.00  0.00    -0.744 OA
ENDBRANCH  92  93
ENDBRANCH  60  85
ENDBRANCH  34  35
ENDBRANCH  26  29
ENDBRANCH  24  25
ENDBRANCH   1  24
TORSDOF 15
ENDMDL
MODEL 3
REMARK VINA RESULT:     -13.2      4.753     11.249
REMARK SMILES Cc1ccc(NC(=O)N2CCCC[C@@H]2C(=O)NCCCNC(=O)c2ccc(-c3c4nc(c(-c5c(F)cc(S(=O)(=O)[O-])cc5F)c5ccc([nH]5)c(-c5c(F)cc(S(=O)(=O)[O-])cc5F)c5nc(c(-c6c(F)cc(S(=O)(=O)[O-])cc6F)c6ccc3[nH]6)C=C5)C=C4)cc2)cc1
REMARK SMILES IDX 19 1 18 2 17 3 15 4 16 5 14 7 9 8 10 9 11 10 13 11 12 12
REMARK SMILES IDX 7 13 6 14 8 16 5 17 1 18 2 19 3 20 91 21 4 22 90 23 20 24
REMARK SMILES IDX 21 25 22 26 23 28 24 29 25 30 89 31 26 32 88 33 27 34 28 35
REMARK SMILES IDX 29 36 82 37 30 38 87 39 81 40 83 41 31 42 86 43 80 44 79 45
REMARK SMILES IDX 32 47 66 48 45 49 65 50 46 51 49 52 64 53 84 54 47 55 48 56
REMARK SMILES IDX 63 58 85 59 50 60 33 61 34 62 43 63 35 64 36 65 42 66 44 67
REMARK SMILES IDX 37 68 38 69 39 70 40 71 41 72 67 73 68 74 77 75 69 76 70 77
REMARK SMILES IDX 76 78 78 79 71 80 72 81 73 82 74 83 75 84 51 85 52 86 61 87
REMARK SMILES IDX 53 88 54 89 60 90 62 91 55 92 56 93 57 94 58 95 59 96
REMARK H PARENT 17 6 6 15 21 27 83 46 49 57
REMARK Flexibility Score: inf
ROOT
ATOM      1  C   UNL A   1      36.720  23.230  26.196  1.00  0.00     0.042 C 
ENDROOT
BRANCH   1   2
ATOM      2  C   UNL A   1      35.683  24.030  25.414  1.00  0.00     0.117 C 
BRANCH   2   3
ATOM      3  N   UNL A   1      34.721  23.171  24.737  1.00  0.00    -0.354 N 
ATOM      4  C   UNL A   1      33.650  23.458  23.944  1.00  0.00     0.242 C 
ATOM      5  O   UNL A   1      32.895  22.517  23.666  1.00  0.00    -0.273 OA
ATOM      6  H   UNL A   1      34.872  22.209  24.877  1.00  0.00     0.163 HD
BRANCH   4   7
ATOM      7  C   UNL A   1      33.244  24.906  23.558  1.00  0.00     0.176 C 
ATOM      8  N   UNL A   1      31.910  25.348  24.045  1.00  0.00    -0.313 N 
ATOM      9  C   UNL A   1      31.147  26.322  23.270  1.00  0.00     0.122 C 
ATOM     10  C   UNL A   1      31.333  26.243  21.766  1.00  0.00     0.022 C 
ATOM     11  C   UNL A   1      33.449  25.015  22.034  1.00  0.00     0.035 C 
ATOM     12  C   UNL A   1      32.809  26.245  21.422  1.00  0.00     0.004 C 
BRANCH   8  13
ATOM     13  C   UNL A   1      31.459  25.164  25.350  1.00  0.00     0.322 C 
ATOM     14  N   UNL A   1      32.154  25.720  26.379  1.00  0.00    -0.308 N 
ATOM     15  H   UNL A   1      32.430  25.105  27.096  1.00  0.00     0.171 HD
ATOM     16  O   UNL A   1      30.495  24.439  25.608  1.00  0.00    -0.248 OA
BRANCH  14  17
ATOM     17  C   UNL A   1      32.528  27.066  26.545  1.00  0.00     0.042 A 
ATOM     18  C   UNL A   1      33.659  31.098  27.525  1.00  0.00     0.044 C 
ATOM     19  C   UNL A   1      33.238  29.728  27.085  1.00  0.00    -0.051 A 
ATOM     20  C   UNL A   1      34.170  28.847  26.529  1.00  0.00     0.005 A 
ATOM     21  C   UNL A   1      31.930  29.280  27.311  1.00  0.00     0.005 A 
ATOM     22  C   UNL A   1      33.810  27.530  26.239  1.00  0.00     0.026 A 
ATOM     23  C   UNL A   1      31.572  27.960  27.026  1.00  0.00     0.026 A 
ENDBRANCH  14  17
ENDBRANCH   8  13
ENDBRANCH   4   7
ENDBRANCH   2   3
ENDBRANCH   1   2
BRANCH   1  24
ATOM     24  C   UNL A   1      38.050  23.116  25.463  1.00  0.00     0.118 C 
BRANCH  24  25
ATOM     25  N   UNL A   1      39.126  22.633  26.312  1.00  0.00    -0.352 N 
ATOM     26  C   UNL A   1      40.059  23.390  27.000  1.00  0.00     0.251 C 
ATOM     27  H   UNL A   1      39.200  21.655  26.409  1.00  0.00     0.163 HD
ATOM     28  O   UNL A   1      41.086  22.915  27.446  1.00  0.00    -0.269 OA
BRANCH  26  29
ATOM     29  C   UNL A   1      39.670  24.782  27.305  1.00  0.00     0.039 A 
ATOM     30  C   UNL A   1      40.252  25.787  26.524  1.00  0.00     0.014 A 
ATOM     31  C   UNL A   1      39.001  25.083  28.486  1.00  0.00     0.014 A 
ATOM     32  C   UNL A   1      40.294  27.093  27.006  1.00  0.00     0.010 A 
ATOM     33  C   UNL A   1      39.128  26.359  29.004  1.00  0.00     0.010 A 
ATOM     34  C   UNL A   1      39.801  27.358  28.283  1.00  0.00    -0.014 A 
BRANCH  34  35
ATOM     35  C   UNL A   1      40.002  28.625  28.983  1.00  0.00     0.031 A 
ATOM     36  C   UNL A   1      38.979  29.699  28.900  1.00  0.00     0.074 A 
ATOM     37  C   UNL A   1      41.077  28.811  29.781  1.00  0.00     0.049 A 
ATOM     38  N   UNL A   1      39.201  30.941  29.179  1.00  0.00    -0.248 NA
ATOM     39  C   UNL A   1      37.613  29.457  28.447  1.00  0.00     0.031 C 
ATOM     40  C   UNL A   1      41.225  29.829  30.818  1.00  0.00     0.029 A 
ATOM     41  N   UNL A   1      42.339  28.230  29.693  1.00  0.00    -0.354 N 
ATOM     42  C   UNL A   1      37.990  31.593  29.216  1.00  0.00     0.074 A 
ATOM     43  C   UNL A   1      37.036  30.634  28.707  1.00  0.00     0.031 C 
ATOM     44  C   UNL A   1      42.525  29.968  31.115  1.00  0.00     0.029 A 
ATOM     45  C   UNL A   1      43.277  29.156  30.177  1.00  0.00     0.049 A 
ATOM     46  H   UNL A   1      42.538  27.328  29.352  1.00  0.00     0.167 HD
ATOM     47  C   UNL A   1      37.900  32.828  29.790  1.00  0.00     0.037 A 
ATOM     48  C   UNL A   1      44.299  29.624  29.399  1.00  0.00     0.037 A 
ATOM     49  C   UNL A   1      39.204  33.307  30.237  1.00  0.00     0.049 A 
ATOM     50  C   UNL A   1      44.278  31.119  29.173  1.00  0.00     0.074 A 
ATOM     51  C   UNL A   1      39.836  33.292  31.470  1.00  0.00     0.029 A 
ATOM     52  N   UNL A   1      40.176  33.642  29.302  1.00  0.00    -0.354 N 
ATOM     53  N   UNL A   1      43.252  31.882  29.428  1.00  0.00    -0.248 NA
ATOM     54  C   UNL A   1      45.401  31.874  28.621  1.00  0.00     0.031 C 
ATOM     55  C   UNL A   1      41.205  33.592  31.271  1.00  0.00     0.029 A 
ATOM     56  C   UNL A   1      41.404  33.797  29.917  1.00  0.00     0.049 A 
ATOM     57  H   UNL A   1      40.012  33.754  28.338  1.00  0.00     0.167 HD
ATOM     58  C   UNL A   1      43.525  33.173  29.052  1.00  0.00     0.074 A 
ATOM     59  C   UNL A   1      44.898  33.122  28.589  1.00  0.00     0.031 C 
ATOM     60  C   UNL A   1      42.583  34.161  29.145  1.00  0.00     0.037 A 
BRANCH  47  61
ATOM     61  C   UNL A   1      36.586  33.461  30.203  1.00  0.00     0.058 A 
ATOM     62  C   UNL A   1      35.666  33.924  29.237  1.00  0.00     0.135 A 
ATOM     63  C   UNL A   1      36.201  33.692  31.538  1.00  0.00     0.135 A 
ATOM     64  F   UNL A   1      35.836  33.684  27.931  1.00  0.00    -0.206 F 
ATOM     65  C   UNL A   1      34.533  34.672  29.562  1.00  0.00     0.059 A 
ATOM     66  C   UNL A   1      35.104  34.487  31.888  1.00  0.00     0.059 A 
ATOM     67  F   UNL A   1      36.858  33.119  32.557  1.00  0.00    -0.206 F 
ATOM     68  C   UNL A   1      34.282  34.989  30.888  1.00  0.00     0.060 A 
BRANCH  68  69
ATOM     69  S   UNL A   1      32.887  36.063  31.274  1.00  0.00     0.124 S 
ATOM     70  O   UNL A   1      32.286  36.275  29.961  1.00  0.00    -0.237 OA
ATOM     71  O   UNL A   1      32.117  35.240  32.200  1.00  0.00    -0.237 OA
ATOM     72  O   UNL A   1      33.519  37.243  31.860  1.00  0.00    -0.744 OA
ENDBRANCH  68  69
ENDBRANCH  47  61
BRANCH  48  73
ATOM     73  C   UNL A   1      44.821  28.606  28.451  1.00  0.00     0.058 A 
ATOM     74  C   UNL A   1      44.251  28.578  27.163  1.00  0.00     0.135 A 
ATOM     75  C   UNL A   1      46.107  28.068  28.606  1.00  0.00     0.135 A 
ATOM     76  F   UNL A   1      43.010  29.055  26.971  1.00  0.00    -0.206 F 
ATOM     77  C   UNL A   1      44.997  28.226  26.046  1.00  0.00     0.059 A 
ATOM     78  C   UNL A   1      46.871  27.700  27.496  1.00  0.00     0.059 A 
ATOM     79  F   UNL A   1      46.693  28.056  29.812  1.00  0.00    -0.206 F 
ATOM     80  C   UNL A   1      46.332  27.869  26.219  1.00  0.00     0.060 A 
BRANCH  80  81
ATOM     81  S   UNL A   1      47.392  27.829  24.754  1.00  0.00     0.124 S 
ATOM     82  O   UNL A   1      47.238  26.452  24.299  1.00  0.00    -0.237 OA
ATOM     83  O   UNL A   1      46.763  28.846  23.911  1.00  0.00    -0.237 OA
ATOM     84  O   UNL A   1      48.706  28.176  25.281  1.00  0.00    -0.744 OA
ENDBRANCH  80  81
ENDBRANCH  48  73
BRANCH  60  85
ATOM     85  C   UNL A   1      42.684  35.574  28.606  1.00  0.00     0.058 A 
ATOM     86  C   UNL A   1      42.309  35.961  27.310  1.00  0.00     0.135 A 
ATOM     87  C   UNL A   1      43.050  36.641  29.471  1.00  0.00     0.135 A 
ATOM     88  F   UNL A   1      41.840  35.072  26.424  1.00  0.00    -0.206 F 
ATOM     89  C   UNL A   1      42.348  37.292  26.881  1.00  0.00     0.059 A 
ATOM     90  C   UNL A   1      43.040  37.978  29.080  1.00  0.00     0.059 A 
ATOM     91  F   UNL A   1      43.417  36.419  30.742  1.00  0.00    -0.206 F 
ATOM     92  C   UNL A   1      42.711  38.295  27.773  1.00  0.00     0.060 A 
BRANCH  92  93
ATOM     93  S   UNL A   1      42.684  40.022  27.258  1.00  0.00     0.124 S 
ATOM     94  O   UNL A   1      43.697  40.030  26.207  1.00  0.00    -0.237 OA
ATOM     95  O   UNL A   1      41.308  40.208  26.806  1.00  0.00    -0.237 OA
ATOM     96  O   UNL A   1      43.034  40.737  28.482  1.00  0.00    -0.744 OA
ENDBRANCH  92  93
ENDBRANCH  60  85
ENDBRANCH  34  35
ENDBRANCH  26  29
ENDBRANCH  24  25
ENDBRANCH   1  24
TORSDOF 15
ENDMDL
