MODEL 1
REMARK VINA RESULT:     -10.8      0.000      0.000
REMARK SMILES CCCC[C@H](C(=O)NCCCNC(=O)c1ccc(-c2c3nc(c(-c4c(F)cc(S(=O)(=O)[O-])cc4F)c4ccc([nH]4)c(-c4c(F)cc(S(=O)(=O)[O-])cc4F)c4nc(c(-c5c(F)cc(S(=O)(=O)[O-])cc5F)c5ccc2[nH]5)C=C4)C=C3)cc1)N1C(=O)/C(=C/c2cccc(Br)c2)SC1=S
REMARK SMILES IDX 10 1 9 2 8 3 6 4 7 5 5 7 4 8 3 9 2 10 1 11 81 12 82 13 94 14
REMARK SMILES IDX 83 15 84 16 93 17 95 18 85 19 86 20 87 21 92 22 88 23 90 24
REMARK SMILES IDX 89 25 91 26 11 27 12 28 13 29 14 31 15 32 16 33 80 34 17 35
REMARK SMILES IDX 79 36 18 37 19 38 20 39 73 40 21 41 78 42 72 43 74 44 22 45
REMARK SMILES IDX 77 46 71 47 70 48 23 50 57 51 36 52 56 53 37 54 40 55 55 56
REMARK SMILES IDX 75 57 38 58 39 59 54 61 76 62 41 63 24 64 25 65 34 66 26 67
REMARK SMILES IDX 27 68 33 69 35 70 28 71 29 72 30 73 31 74 32 75 58 76 59 77
REMARK SMILES IDX 68 78 60 79 61 80 67 81 69 82 62 83 63 84 64 85 65 86 66 87
REMARK SMILES IDX 42 88 43 89 52 90 44 91 45 92 51 93 53 94 46 95 47 96 48 97
REMARK SMILES IDX 49 98 50 99
REMARK H PARENT 8 6 12 30 74 49 40 60
REMARK Flexibility Score: inf
ROOT
ATOM      1  C   UNL A   1      37.509  21.711  24.601  1.00  0.00     0.042 C 
ENDROOT
BRANCH   1   2
ATOM      2  C   UNL A   1      36.117  21.103  24.623  1.00  0.00     0.117 C 
BRANCH   2   3
ATOM      3  N   UNL A   1      35.445  21.257  25.905  1.00  0.00    -0.354 N 
ATOM      4  C   UNL A   1      34.155  21.591  26.198  1.00  0.00     0.243 C 
ATOM      5  O   UNL A   1      33.842  21.669  27.389  1.00  0.00    -0.273 OA
ATOM      6  H   UNL A   1      36.015  21.094  26.691  1.00  0.00     0.163 HD
BRANCH   4   7
ATOM      7  C   UNL A   1      33.137  21.877  25.081  1.00  0.00     0.181 C 
BRANCH   7   8
ATOM      8  C   UNL A   1      32.048  20.790  25.004  1.00  0.00     0.036 C 
BRANCH   8   9
ATOM      9  C   UNL A   1      32.508  19.327  24.927  1.00  0.00     0.002 C 
BRANCH   9  10
ATOM     10  C   UNL A   1      32.510  18.637  23.561  1.00  0.00    -0.003 C 
ATOM     11  C   UNL A   1      33.414  17.424  23.426  1.00  0.00     0.004 C 
ENDBRANCH   9  10
ENDBRANCH   8   9
ENDBRANCH   7   8
BRANCH   7  12
ATOM     12  N   UNL A   1      32.659  23.271  25.333  1.00  0.00    -0.280 N 
ATOM     13  C   UNL A   1      33.521  24.284  24.912  1.00  0.00     0.266 C 
ATOM     14  C   UNL A   1      31.565  23.693  26.066  1.00  0.00     0.149 C 
ATOM     15  O   UNL A   1      34.578  24.119  24.316  1.00  0.00    -0.268 OA
ATOM     16  C   UNL A   1      33.012  25.621  25.317  1.00  0.00     0.081 C 
ATOM     17  S   UNL A   1      31.471  25.453  26.043  1.00  0.00    -0.054 SA
ATOM     18  S   UNL A   1      30.383  22.844  26.881  1.00  0.00    -0.052 S 
ATOM     19  C   UNL A   1      33.702  26.756  25.127  1.00  0.00     0.029 C 
BRANCH  19  20
ATOM     20  C   UNL A   1      33.240  28.103  25.501  1.00  0.00    -0.023 A 
ATOM     21  C   UNL A   1      32.018  28.569  25.002  1.00  0.00     0.008 A 
ATOM     22  C   UNL A   1      33.988  28.928  26.354  1.00  0.00     0.023 A 
ATOM     23  C   UNL A   1      31.525  29.819  25.387  1.00  0.00     0.002 A 
ATOM     24  C   UNL A   1      33.484  30.169  26.744  1.00  0.00     0.018 A 
ATOM     25  C   UNL A   1      32.254  30.617  26.269  1.00  0.00     0.016 A 
ATOM     26  Br  UNL A   1      34.470  31.243  27.950  1.00  0.00    -0.051 Br
ENDBRANCH  19  20
ENDBRANCH   7  12
ENDBRANCH   4   7
ENDBRANCH   2   3
ENDBRANCH   1   2
BRANCH   1  27
ATOM     27  C   UNL A   1      38.055  22.058  25.982  1.00  0.00     0.118 C 
BRANCH  27  28
ATOM     28  N   UNL A   1      39.100  21.147  26.440  1.00  0.00    -0.352 N 
ATOM     29  C   UNL A   1      40.332  21.408  26.991  1.00  0.00     0.251 C 
ATOM     30  H   UNL A   1      38.887  20.191  26.338  1.00  0.00     0.163 HD
ATOM     31  O   UNL A   1      41.123  20.484  27.168  1.00  0.00    -0.269 OA
BRANCH  29  32
ATOM     32  C   UNL A   1      40.716  22.791  27.345  1.00  0.00     0.039 A 
ATOM     33  C   UNL A   1      41.473  23.011  28.499  1.00  0.00     0.014 A 
ATOM     34  C   UNL A   1      40.334  23.869  26.544  1.00  0.00     0.014 A 
ATOM     35  C   UNL A   1      41.923  24.300  28.796  1.00  0.00     0.010 A 
ATOM     36  C   UNL A   1      40.857  25.134  26.791  1.00  0.00     0.010 A 
ATOM     37  C   UNL A   1      41.660  25.365  27.918  1.00  0.00    -0.014 A 
BRANCH  37  38
ATOM     38  C   UNL A   1      42.220  26.722  28.146  1.00  0.00     0.031 A 
ATOM     39  C   UNL A   1      43.670  26.998  27.855  1.00  0.00     0.074 A 
ATOM     40  C   UNL A   1      41.446  27.678  28.698  1.00  0.00     0.049 A 
ATOM     41  N   UNL A   1      44.367  28.080  28.088  1.00  0.00    -0.248 NA
ATOM     42  C   UNL A   1      44.448  25.902  27.254  1.00  0.00     0.031 C 
ATOM     43  C   UNL A   1      40.041  27.515  29.080  1.00  0.00     0.029 A 
ATOM     44  N   UNL A   1      41.734  28.972  29.049  1.00  0.00    -0.354 N 
ATOM     45  C   UNL A   1      45.665  27.788  27.687  1.00  0.00     0.074 A 
ATOM     46  C   UNL A   1      45.670  26.412  27.241  1.00  0.00     0.031 C 
ATOM     47  C   UNL A   1      39.587  28.669  29.594  1.00  0.00     0.029 A 
ATOM     48  C   UNL A   1      40.674  29.642  29.615  1.00  0.00     0.049 A 
ATOM     49  H   UNL A   1      42.618  29.383  28.910  1.00  0.00     0.167 HD
ATOM     50  C   UNL A   1      46.750  28.601  27.668  1.00  0.00     0.037 A 
ATOM     51  C   UNL A   1      40.590  30.893  30.106  1.00  0.00     0.037 A 
ATOM     52  C   UNL A   1      46.728  29.981  28.077  1.00  0.00     0.049 A 
ATOM     53  C   UNL A   1      41.800  31.783  30.054  1.00  0.00     0.074 A 
ATOM     54  C   UNL A   1      47.754  30.907  28.030  1.00  0.00     0.029 A 
ATOM     55  N   UNL A   1      45.625  30.633  28.606  1.00  0.00    -0.354 N 
ATOM     56  N   UNL A   1      43.005  31.511  29.610  1.00  0.00    -0.248 NA
ATOM     57  C   UNL A   1      41.642  33.153  30.563  1.00  0.00     0.031 C 
ATOM     58  C   UNL A   1      47.282  32.110  28.565  1.00  0.00     0.029 A 
ATOM     59  C   UNL A   1      45.949  31.946  28.904  1.00  0.00     0.049 A 
ATOM     60  H   UNL A   1      44.741  30.224  28.748  1.00  0.00     0.167 HD
ATOM     61  C   UNL A   1      43.740  32.681  29.763  1.00  0.00     0.074 A 
ATOM     62  C   UNL A   1      42.842  33.667  30.330  1.00  0.00     0.031 C 
ATOM     63  C   UNL A   1      45.041  32.917  29.461  1.00  0.00     0.037 A 
BRANCH  50  64
ATOM     64  C   UNL A   1      48.048  28.019  27.181  1.00  0.00     0.058 A 
ATOM     65  C   UNL A   1      48.346  27.927  25.811  1.00  0.00     0.135 A 
ATOM     66  C   UNL A   1      49.020  27.576  28.092  1.00  0.00     0.135 A 
ATOM     67  F   UNL A   1      47.446  28.320  24.896  1.00  0.00    -0.206 F 
ATOM     68  C   UNL A   1      49.547  27.388  25.363  1.00  0.00     0.059 A 
ATOM     69  C   UNL A   1      50.240  27.059  27.667  1.00  0.00     0.059 A 
ATOM     70  F   UNL A   1      48.787  27.640  29.413  1.00  0.00    -0.206 F 
ATOM     71  C   UNL A   1      50.488  26.955  26.298  1.00  0.00     0.060 A 
BRANCH  71  72
ATOM     72  S   UNL A   1      52.043  26.263  25.699  1.00  0.00     0.124 S 
ATOM     73  O   UNL A   1      53.019  27.083  26.409  1.00  0.00    -0.237 OA
ATOM     74  O   UNL A   1      51.953  24.871  26.129  1.00  0.00    -0.237 OA
ATOM     75  O   UNL A   1      51.975  26.475  24.256  1.00  0.00    -0.744 OA
ENDBRANCH  71  72
ENDBRANCH  50  64
BRANCH  51  76
ATOM     76  C   UNL A   1      39.303  31.386  30.666  1.00  0.00     0.058 A 
ATOM     77  C   UNL A   1      39.099  31.452  32.051  1.00  0.00     0.135 A 
ATOM     78  C   UNL A   1      38.261  31.818  29.830  1.00  0.00     0.135 A 
ATOM     79  F   UNL A   1      40.063  31.045  32.891  1.00  0.00    -0.206 F 
ATOM     80  C   UNL A   1      37.904  31.915  32.591  1.00  0.00     0.059 A 
ATOM     81  C   UNL A   1      37.066  32.308  30.345  1.00  0.00     0.059 A 
ATOM     82  F   UNL A   1      38.415  31.792  28.496  1.00  0.00    -0.206 F 
ATOM     83  C   UNL A   1      36.893  32.344  31.728  1.00  0.00     0.060 A 
BRANCH  83  84
ATOM     84  S   UNL A   1      35.365  32.994  32.440  1.00  0.00     0.124 S 
ATOM     85  O   UNL A   1      35.491  34.418  32.153  1.00  0.00    -0.237 OA
ATOM     86  O   UNL A   1      34.344  32.278  31.682  1.00  0.00    -0.237 OA
ATOM     87  O   UNL A   1      35.466  32.621  33.848  1.00  0.00    -0.744 OA
ENDBRANCH  83  84
ENDBRANCH  51  76
BRANCH  63  88
ATOM     88  C   UNL A   1      45.566  34.303  29.707  1.00  0.00     0.058 A 
ATOM     89  C   UNL A   1      46.166  34.659  30.924  1.00  0.00     0.135 A 
ATOM     90  C   UNL A   1      45.516  35.272  28.691  1.00  0.00     0.135 A 
ATOM     91  F   UNL A   1      46.233  33.773  31.929  1.00  0.00    -0.206 F 
ATOM     92  C   UNL A   1      46.680  35.935  31.134  1.00  0.00     0.059 A 
ATOM     93  C   UNL A   1      46.046  36.545  28.869  1.00  0.00     0.059 A 
ATOM     94  F   UNL A   1      44.960  34.978  27.504  1.00  0.00    -0.206 F 
ATOM     95  C   UNL A   1      46.617  36.871  30.100  1.00  0.00     0.060 A 
BRANCH  95  96
ATOM     96  S   UNL A   1      47.320  38.511  30.370  1.00  0.00     0.124 S 
ATOM     97  O   UNL A   1      46.264  39.373  29.848  1.00  0.00    -0.237 OA
ATOM     98  O   UNL A   1      47.504  38.539  31.817  1.00  0.00    -0.237 OA
ATOM     99  O   UNL A   1      48.554  38.485  29.588  1.00  0.00    -0.744 OA
ENDBRANCH  95  96
ENDBRANCH  63  88
ENDBRANCH  37  38
ENDBRANCH  29  32
ENDBRANCH  27  28
ENDBRANCH   1  27
TORSDOF 18
ENDMDL
MODEL 2
REMARK VINA RESULT:     -10.8      2.055      8.566
REMARK SMILES CCCC[C@H](C(=O)NCCCNC(=O)c1ccc(-c2c3nc(c(-c4c(F)cc(S(=O)(=O)[O-])cc4F)c4ccc([nH]4)c(-c4c(F)cc(S(=O)(=O)[O-])cc4F)c4nc(c(-c5c(F)cc(S(=O)(=O)[O-])cc5F)c5ccc2[nH]5)C=C4)C=C3)cc1)N1C(=O)/C(=C/c2cccc(Br)c2)SC1=S
REMARK SMILES IDX 10 1 9 2 8 3 6 4 7 5 5 7 4 8 3 9 2 10 1 11 81 12 82 13 94 14
REMARK SMILES IDX 83 15 84 16 93 17 95 18 85 19 86 20 87 21 92 22 88 23 90 24
REMARK SMILES IDX 89 25 91 26 11 27 12 28 13 29 14 31 15 32 16 33 80 34 17 35
REMARK SMILES IDX 79 36 18 37 19 38 20 39 73 40 21 41 78 42 72 43 74 44 22 45
REMARK SMILES IDX 77 46 71 47 70 48 23 50 57 51 36 52 56 53 37 54 40 55 55 56
REMARK SMILES IDX 75 57 38 58 39 59 54 61 76 62 41 63 24 64 25 65 34 66 26 67
REMARK SMILES IDX 27 68 33 69 35 70 28 71 29 72 30 73 31 74 32 75 58 76 59 77
REMARK SMILES IDX 68 78 60 79 61 80 67 81 69 82 62 83 63 84 64 85 65 86 66 87
REMARK SMILES IDX 42 88 43 89 52 90 44 91 45 92 51 93 53 94 46 95 47 96 48 97
REMARK SMILES IDX 49 98 50 99
REMARK H PARENT 8 6 12 30 74 49 40 60
REMARK Flexibility Score: inf
ROOT
ATOM      1  C   UNL A   1      38.139  21.189  24.927  1.00  0.00     0.042 C 
ENDROOT
BRANCH   1   2
ATOM      2  C   UNL A   1      36.840  20.408  24.818  1.00  0.00     0.117 C 
BRANCH   2   3
ATOM      3  N   UNL A   1      35.915  20.679  25.910  1.00  0.00    -0.354 N 
ATOM      4  C   UNL A   1      34.595  21.019  25.892  1.00  0.00     0.243 C 
ATOM      5  O   UNL A   1      34.040  21.210  26.978  1.00  0.00    -0.273 OA
ATOM      6  H   UNL A   1      36.309  20.604  26.809  1.00  0.00     0.163 HD
BRANCH   4   7
ATOM      7  C   UNL A   1      33.833  21.174  24.564  1.00  0.00     0.181 C 
BRANCH   7   8
ATOM      8  C   UNL A   1      32.560  20.308  24.527  1.00  0.00     0.036 C 
BRANCH   8   9
ATOM      9  C   UNL A   1      32.404  19.323  23.361  1.00  0.00     0.002 C 
BRANCH   9  10
ATOM     10  C   UNL A   1      32.830  17.868  23.576  1.00  0.00    -0.003 C 
ATOM     11  C   UNL A   1      34.112  17.656  24.363  1.00  0.00     0.004 C 
ENDBRANCH   9  10
ENDBRANCH   8   9
ENDBRANCH   7   8
BRANCH   7  12
ATOM     12  N   UNL A   1      33.634  22.646  24.397  1.00  0.00    -0.280 N 
ATOM     13  C   UNL A   1      32.402  23.136  24.827  1.00  0.00     0.266 C 
ATOM     14  C   UNL A   1      34.433  23.558  23.731  1.00  0.00     0.149 C 
ATOM     15  O   UNL A   1      31.523  22.479  25.369  1.00  0.00    -0.268 OA
ATOM     16  C   UNL A   1      32.259  24.582  24.506  1.00  0.00     0.081 C 
ATOM     17  S   UNL A   1      33.722  25.168  23.839  1.00  0.00    -0.054 SA
ATOM     18  S   UNL A   1      35.885  23.382  22.928  1.00  0.00    -0.052 S 
ATOM     19  C   UNL A   1      31.128  25.271  24.719  1.00  0.00     0.029 C 
BRANCH  19  20
ATOM     20  C   UNL A   1      30.939  26.702  24.427  1.00  0.00    -0.023 A 
ATOM     21  C   UNL A   1      30.161  27.077  23.325  1.00  0.00     0.008 A 
ATOM     22  C   UNL A   1      31.509  27.700  25.230  1.00  0.00     0.023 A 
ATOM     23  C   UNL A   1      29.915  28.427  23.057  1.00  0.00     0.002 A 
ATOM     24  C   UNL A   1      31.248  29.044  24.965  1.00  0.00     0.018 A 
ATOM     25  C   UNL A   1      30.449  29.413  23.885  1.00  0.00     0.016 A 
ATOM     26  Br  UNL A   1      31.967  30.378  26.098  1.00  0.00    -0.051 Br
ENDBRANCH  19  20
ENDBRANCH   7  12
ENDBRANCH   4   7
ENDBRANCH   2   3
ENDBRANCH   1   2
BRANCH   1  27
ATOM     27  C   UNL A   1      38.928  20.904  26.201  1.00  0.00     0.118 C 
BRANCH  27  28
ATOM     28  N   UNL A   1      39.853  19.783  26.074  1.00  0.00    -0.352 N 
ATOM     29  C   UNL A   1      41.227  19.756  26.068  1.00  0.00     0.251 C 
ATOM     30  H   UNL A   1      39.422  18.902  25.976  1.00  0.00     0.163 HD
ATOM     31  O   UNL A   1      41.811  18.710  25.795  1.00  0.00    -0.269 OA
BRANCH  29  32
ATOM     32  C   UNL A   1      42.000  20.982  26.362  1.00  0.00     0.039 A 
ATOM     33  C   UNL A   1      42.382  21.813  25.305  1.00  0.00     0.014 A 
ATOM     34  C   UNL A   1      42.347  21.315  27.672  1.00  0.00     0.014 A 
ATOM     35  C   UNL A   1      43.030  23.021  25.573  1.00  0.00     0.010 A 
ATOM     36  C   UNL A   1      42.910  22.557  27.944  1.00  0.00     0.010 A 
ATOM     37  C   UNL A   1      43.256  23.426  26.899  1.00  0.00    -0.014 A 
BRANCH  37  38
ATOM     38  C   UNL A   1      43.838  24.755  27.220  1.00  0.00     0.031 A 
ATOM     39  C   UNL A   1      42.950  25.873  27.694  1.00  0.00     0.074 A 
ATOM     40  C   UNL A   1      45.150  24.978  27.001  1.00  0.00     0.049 A 
ATOM     41  N   UNL A   1      43.250  27.125  27.921  1.00  0.00    -0.248 NA
ATOM     42  C   UNL A   1      41.530  25.549  27.909  1.00  0.00     0.031 C 
ATOM     43  C   UNL A   1      46.103  23.991  26.487  1.00  0.00     0.029 A 
ATOM     44  N   UNL A   1      45.906  26.110  27.166  1.00  0.00    -0.354 N 
ATOM     45  C   UNL A   1      42.058  27.742  28.280  1.00  0.00     0.074 A 
ATOM     46  C   UNL A   1      41.021  26.738  28.193  1.00  0.00     0.031 C 
ATOM     47  C   UNL A   1      47.318  24.556  26.397  1.00  0.00     0.029 A 
ATOM     48  C   UNL A   1      47.225  25.953  26.809  1.00  0.00     0.049 A 
ATOM     49  H   UNL A   1      45.539  26.958  27.507  1.00  0.00     0.167 HD
ATOM     50  C   UNL A   1      41.849  29.023  28.670  1.00  0.00     0.037 A 
ATOM     51  C   UNL A   1      48.242  26.836  26.802  1.00  0.00     0.037 A 
ATOM     52  C   UNL A   1      42.893  30.007  28.790  1.00  0.00     0.049 A 
ATOM     53  C   UNL A   1      47.991  28.246  27.260  1.00  0.00     0.074 A 
ATOM     54  C   UNL A   1      42.797  31.311  29.244  1.00  0.00     0.029 A 
ATOM     55  N   UNL A   1      44.222  29.797  28.458  1.00  0.00    -0.354 N 
ATOM     56  N   UNL A   1      46.869  28.795  27.659  1.00  0.00    -0.248 NA
ATOM     57  C   UNL A   1      49.145  29.156  27.274  1.00  0.00     0.031 C 
ATOM     58  C   UNL A   1      44.062  31.901  29.151  1.00  0.00     0.029 A 
ATOM     59  C   UNL A   1      44.955  30.951  28.681  1.00  0.00     0.049 A 
ATOM     60  H   UNL A   1      44.592  28.952  28.114  1.00  0.00     0.167 HD
ATOM     61  C   UNL A   1      47.185  30.107  27.994  1.00  0.00     0.074 A 
ATOM     62  C   UNL A   1      48.606  30.265  27.763  1.00  0.00     0.031 C 
ATOM     63  C   UNL A   1      46.371  31.090  28.453  1.00  0.00     0.037 A 
BRANCH  50  64
ATOM     64  C   UNL A   1      40.440  29.430  29.003  1.00  0.00     0.058 A 
ATOM     65  C   UNL A   1      40.024  29.624  30.330  1.00  0.00     0.135 A 
ATOM     66  C   UNL A   1      39.502  29.658  27.983  1.00  0.00     0.135 A 
ATOM     67  F   UNL A   1      40.875  29.404  31.344  1.00  0.00    -0.206 F 
ATOM     68  C   UNL A   1      38.721  30.000  30.635  1.00  0.00     0.059 A 
ATOM     69  C   UNL A   1      38.200  30.061  28.265  1.00  0.00     0.059 A 
ATOM     70  F   UNL A   1      39.846  29.486  26.697  1.00  0.00    -0.206 F 
ATOM     71  C   UNL A   1      37.814  30.215  29.596  1.00  0.00     0.060 A 
BRANCH  71  72
ATOM     72  S   UNL A   1      36.128  30.706  30.011  1.00  0.00     0.124 S 
ATOM     73  O   UNL A   1      35.982  30.141  31.349  1.00  0.00    -0.237 OA
ATOM     74  O   UNL A   1      36.199  32.162  29.942  1.00  0.00    -0.237 OA
ATOM     75  O   UNL A   1      35.324  30.070  28.970  1.00  0.00    -0.744 OA
ENDBRANCH  71  72
ENDBRANCH  50  64
BRANCH  51  76
ATOM     76  C   UNL A   1      49.598  26.403  26.370  1.00  0.00     0.058 A 
ATOM     77  C   UNL A   1      50.038  26.619  25.057  1.00  0.00     0.135 A 
ATOM     78  C   UNL A   1      50.486  25.784  27.264  1.00  0.00     0.135 A 
ATOM     79  F   UNL A   1      49.224  27.202  24.164  1.00  0.00    -0.206 F 
ATOM     80  C   UNL A   1      51.305  26.226  24.638  1.00  0.00     0.059 A 
ATOM     81  C   UNL A   1      51.766  25.403  26.876  1.00  0.00     0.059 A 
ATOM     82  F   UNL A   1      50.118  25.571  28.537  1.00  0.00    -0.206 F 
ATOM     83  C   UNL A   1      52.163  25.619  25.557  1.00  0.00     0.060 A 
BRANCH  83  84
ATOM     84  S   UNL A   1      53.825  25.160  25.018  1.00  0.00     0.124 S 
ATOM     85  O   UNL A   1      53.946  25.907  23.772  1.00  0.00    -0.237 OA
ATOM     86  O   UNL A   1      54.649  25.631  26.127  1.00  0.00    -0.237 OA
ATOM     87  O   UNL A   1      53.743  23.709  24.881  1.00  0.00    -0.744 OA
ENDBRANCH  83  84
ENDBRANCH  51  76
BRANCH  63  88
ATOM     88  C   UNL A   1      47.001  32.418  28.766  1.00  0.00     0.058 A 
ATOM     89  C   UNL A   1      47.107  33.430  27.800  1.00  0.00     0.135 A 
ATOM     90  C   UNL A   1      47.457  32.698  30.065  1.00  0.00     0.135 A 
ATOM     91  F   UNL A   1      46.693  33.210  26.543  1.00  0.00    -0.206 F 
ATOM     92  C   UNL A   1      47.662  34.668  28.106  1.00  0.00     0.059 A 
ATOM     93  C   UNL A   1      47.992  33.938  30.399  1.00  0.00     0.059 A 
ATOM     94  F   UNL A   1      47.370  31.766  31.028  1.00  0.00    -0.206 F 
ATOM     95  C   UNL A   1      48.100  34.914  29.408  1.00  0.00     0.060 A 
BRANCH  95  96
ATOM     96  S   UNL A   1      48.784  36.537  29.802  1.00  0.00     0.124 S 
ATOM     97  O   UNL A   1      47.930  36.955  30.910  1.00  0.00    -0.237 OA
ATOM     98  O   UNL A   1      50.165  36.220  30.150  1.00  0.00    -0.237 OA
ATOM     99  O   UNL A   1      48.614  37.287  28.560  1.00  0.00    -0.744 OA
ENDBRANCH  95  96
ENDBRANCH  63  88
ENDBRANCH  37  38
ENDBRANCH  29  32
ENDBRANCH  27  28
ENDBRANCH   1  27
TORSDOF 18
ENDMDL
MODEL 3
REMARK VINA RESULT:     -10.8      1.858      8.413
REMARK SMILES CCCC[C@H](C(=O)NCCCNC(=O)c1ccc(-c2c3nc(c(-c4c(F)cc(S(=O)(=O)[O-])cc4F)c4ccc([nH]4)c(-c4c(F)cc(S(=O)(=O)[O-])cc4F)c4nc(c(-c5c(F)cc(S(=O)(=O)[O-])cc5F)c5ccc2[nH]5)C=C4)C=C3)cc1)N1C(=O)/C(=C/c2cccc(Br)c2)SC1=S
REMARK SMILES IDX 10 1 9 2 8 3 6 4 7 5 5 7 4 8 3 9 2 10 1 11 81 12 82 13 94 14
REMARK SMILES IDX 83 15 84 16 93 17 95 18 85 19 86 20 87 21 92 22 88 23 90 24
REMARK SMILES IDX 89 25 91 26 11 27 12 28 13 29 14 31 15 32 16 33 80 34 17 35
REMARK SMILES IDX 79 36 18 37 19 38 20 39 73 40 21 41 78 42 72 43 74 44 22 45
REMARK SMILES IDX 77 46 71 47 70 48 23 50 57 51 36 52 56 53 37 54 40 55 55 56
REMARK SMILES IDX 75 57 38 58 39 59 54 61 76 62 41 63 24 64 25 65 34 66 26 67
REMARK SMILES IDX 27 68 33 69 35 70 28 71 29 72 30 73 31 74 32 75 58 76 59 77
REMARK SMILES IDX 68 78 60 79 61 80 67 81 69 82 62 83 63 84 64 85 65 86 66 87
REMARK SMILES IDX 42 88 43 89 52 90 44 91 45 92 51 93 53 94 46 95 47 96 48 97
REMARK SMILES IDX 49 98 50 99
REMARK H PARENT 8 6 12 30 74 49 40 60
REMARK Flexibility Score: inf
ROOT
ATOM      1  C   UNL A   1      37.868  21.750  24.968  1.00  0.00     0.042 C 
ENDROOT
BRANCH   1   2
ATOM      2  C   UNL A   1      36.697  20.782  25.012  1.00  0.00     0.117 C 
BRANCH   2   3
ATOM      3  N   UNL A   1      35.785  21.036  26.117  1.00  0.00    -0.354 N 
ATOM      4  C   UNL A   1      34.498  21.488  26.121  1.00  0.00     0.243 C 
ATOM      5  O   UNL A   1      33.947  21.632  27.215  1.00  0.00    -0.273 OA
ATOM      6  H   UNL A   1      36.158  20.852  27.009  1.00  0.00     0.163 HD
BRANCH   4   7
ATOM      7  C   UNL A   1      33.770  21.820  24.806  1.00  0.00     0.181 C 
BRANCH   7   8
ATOM      8  C   UNL A   1      32.859  20.666  24.346  1.00  0.00     0.036 C 
BRANCH   8   9
ATOM      9  C   UNL A   1      33.375  19.234  24.540  1.00  0.00     0.002 C 
BRANCH   9  10
ATOM     10  C   UNL A   1      32.858  18.141  23.601  1.00  0.00    -0.003 C 
ATOM     11  C   UNL A   1      33.646  16.843  23.587  1.00  0.00     0.004 C 
ENDBRANCH   9  10
ENDBRANCH   8   9
ENDBRANCH   7   8
BRANCH   7  12
ATOM     12  N   UNL A   1      33.098  23.132  25.052  1.00  0.00    -0.280 N 
ATOM     13  C   UNL A   1      33.895  24.260  24.856  1.00  0.00     0.266 C 
ATOM     14  C   UNL A   1      31.851  23.379  25.599  1.00  0.00     0.149 C 
ATOM     15  O   UNL A   1      35.051  24.254  24.453  1.00  0.00    -0.268 OA
ATOM     16  C   UNL A   1      33.172  25.501  25.243  1.00  0.00     0.081 C 
ATOM     17  S   UNL A   1      31.559  25.116  25.666  1.00  0.00    -0.054 SA
ATOM     18  S   UNL A   1      30.652  22.349  26.133  1.00  0.00    -0.052 S 
ATOM     19  C   UNL A   1      33.748  26.712  25.250  1.00  0.00     0.029 C 
BRANCH  19  20
ATOM     20  C   UNL A   1      33.075  27.970  25.616  1.00  0.00    -0.023 A 
ATOM     21  C   UNL A   1      33.481  28.651  26.769  1.00  0.00     0.008 A 
ATOM     22  C   UNL A   1      32.044  28.508  24.833  1.00  0.00     0.023 A 
ATOM     23  C   UNL A   1      32.902  29.878  27.109  1.00  0.00     0.002 A 
ATOM     24  C   UNL A   1      31.480  29.738  25.171  1.00  0.00     0.018 A 
ATOM     25  C   UNL A   1      31.907  30.428  26.302  1.00  0.00     0.016 A 
ATOM     26  Br  UNL A   1      30.137  30.487  24.068  1.00  0.00    -0.051 Br
ENDBRANCH  19  20
ENDBRANCH   7  12
ENDBRANCH   4   7
ENDBRANCH   2   3
ENDBRANCH   1   2
BRANCH   1  27
ATOM     27  C   UNL A   1      38.832  21.610  26.141  1.00  0.00     0.118 C 
BRANCH  27  28
ATOM     28  N   UNL A   1      39.673  20.420  26.063  1.00  0.00    -0.352 N 
ATOM     29  C   UNL A   1      41.038  20.283  26.162  1.00  0.00     0.251 C 
ATOM     30  H   UNL A   1      39.184  19.578  25.915  1.00  0.00     0.163 HD
ATOM     31  O   UNL A   1      41.556  19.198  25.914  1.00  0.00    -0.269 OA
BRANCH  29  32
ATOM     32  C   UNL A   1      41.879  21.440  26.538  1.00  0.00     0.039 A 
ATOM     33  C   UNL A   1      42.229  22.372  25.556  1.00  0.00     0.014 A 
ATOM     34  C   UNL A   1      42.322  21.609  27.851  1.00  0.00     0.014 A 
ATOM     35  C   UNL A   1      42.944  23.518  25.914  1.00  0.00     0.010 A 
ATOM     36  C   UNL A   1      42.954  22.791  28.221  1.00  0.00     0.010 A 
ATOM     37  C   UNL A   1      43.270  23.761  27.258  1.00  0.00    -0.014 A 
BRANCH  37  38
ATOM     38  C   UNL A   1      43.928  25.022  27.686  1.00  0.00     0.031 A 
ATOM     39  C   UNL A   1      43.115  26.121  28.315  1.00  0.00     0.074 A 
ATOM     40  C   UNL A   1      45.237  25.212  27.426  1.00  0.00     0.049 A 
ATOM     41  N   UNL A   1      43.484  27.329  28.655  1.00  0.00    -0.248 NA
ATOM     42  C   UNL A   1      41.693  25.836  28.565  1.00  0.00     0.031 C 
ATOM     43  C   UNL A   1      46.119  24.246  26.767  1.00  0.00     0.029 A 
ATOM     44  N   UNL A   1      46.053  26.288  27.669  1.00  0.00    -0.354 N 
ATOM     45  C   UNL A   1      42.339  27.954  29.133  1.00  0.00     0.074 A 
ATOM     46  C   UNL A   1      41.253  27.009  28.995  1.00  0.00     0.031 C 
ATOM     47  C   UNL A   1      47.354  24.766  26.676  1.00  0.00     0.029 A 
ATOM     48  C   UNL A   1      47.345  26.114  27.234  1.00  0.00     0.049 A 
ATOM     49  H   UNL A   1      45.741  27.110  28.114  1.00  0.00     0.167 HD
ATOM     50  C   UNL A   1      42.208  29.195  29.663  1.00  0.00     0.037 A 
ATOM     51  C   UNL A   1      48.402  26.949  27.268  1.00  0.00     0.037 A 
ATOM     52  C   UNL A   1      43.301  30.116  29.833  1.00  0.00     0.049 A 
ATOM     53  C   UNL A   1      48.238  28.313  27.880  1.00  0.00     0.074 A 
ATOM     54  C   UNL A   1      43.287  31.368  30.423  1.00  0.00     0.029 A 
ATOM     55  N   UNL A   1      44.603  29.886  29.415  1.00  0.00    -0.354 N 
ATOM     56  N   UNL A   1      47.161  28.863  28.388  1.00  0.00    -0.248 NA
ATOM     57  C   UNL A   1      49.432  29.167  27.931  1.00  0.00     0.031 C 
ATOM     58  C   UNL A   1      44.572  31.910  30.329  1.00  0.00     0.029 A 
ATOM     59  C   UNL A   1      45.398  30.979  29.721  1.00  0.00     0.049 A 
ATOM     60  H   UNL A   1      44.917  29.067  28.969  1.00  0.00     0.167 HD
ATOM     61  C   UNL A   1      47.553  30.118  28.841  1.00  0.00     0.074 A 
ATOM     62  C   UNL A   1      48.969  30.240  28.558  1.00  0.00     0.031 C 
ATOM     63  C   UNL A   1      46.808  31.081  29.438  1.00  0.00     0.037 A 
BRANCH  50  64
ATOM     64  C   UNL A   1      40.836  29.623  30.105  1.00  0.00     0.058 A 
ATOM     65  C   UNL A   1      40.496  29.716  31.464  1.00  0.00     0.135 A 
ATOM     66  C   UNL A   1      39.858  29.975  29.161  1.00  0.00     0.135 A 
ATOM     67  F   UNL A   1      41.386  29.376  32.409  1.00  0.00    -0.206 F 
ATOM     68  C   UNL A   1      39.226  30.112  31.871  1.00  0.00     0.059 A 
ATOM     69  C   UNL A   1      38.590  30.400  29.546  1.00  0.00     0.059 A 
ATOM     70  F   UNL A   1      40.129  29.903  27.848  1.00  0.00    -0.206 F 
ATOM     71  C   UNL A   1      38.278  30.451  30.904  1.00  0.00     0.060 A 
BRANCH  71  72
ATOM     72  S   UNL A   1      36.637  30.966  31.449  1.00  0.00     0.124 S 
ATOM     73  O   UNL A   1      36.194  31.772  30.315  1.00  0.00    -0.237 OA
ATOM     74  O   UNL A   1      35.950  29.691  31.626  1.00  0.00    -0.237 OA
ATOM     75  O   UNL A   1      36.905  31.706  32.680  1.00  0.00    -0.744 OA
ENDBRANCH  71  72
ENDBRANCH  50  64
BRANCH  51  76
ATOM     76  C   UNL A   1      49.715  26.507  26.727  1.00  0.00     0.058 A 
ATOM     77  C   UNL A   1      50.613  25.782  27.522  1.00  0.00     0.135 A 
ATOM     78  C   UNL A   1      50.089  26.783  25.402  1.00  0.00     0.135 A 
ATOM     79  F   UNL A   1      50.303  25.498  28.796  1.00  0.00    -0.206 F 
ATOM     80  C   UNL A   1      51.842  25.356  27.030  1.00  0.00     0.059 A 
ATOM     81  C   UNL A   1      51.302  26.348  24.880  1.00  0.00     0.059 A 
ATOM     82  F   UNL A   1      49.256  27.459  24.595  1.00  0.00    -0.206 F 
ATOM     83  C   UNL A   1      52.177  25.643  25.705  1.00  0.00     0.060 A 
BRANCH  83  84
ATOM     84  S   UNL A   1      53.753  25.039  25.060  1.00  0.00     0.124 S 
ATOM     85  O   UNL A   1      53.687  25.474  23.670  1.00  0.00    -0.237 OA
ATOM     86  O   UNL A   1      54.718  25.737  25.903  1.00  0.00    -0.237 OA
ATOM     87  O   UNL A   1      53.672  23.597  25.276  1.00  0.00    -0.744 OA
ENDBRANCH  83  84
ENDBRANCH  51  76
BRANCH  63  88
ATOM     88  C   UNL A   1      47.513  32.341  29.855  1.00  0.00     0.058 A 
ATOM     89  C   UNL A   1      48.135  32.457  31.107  1.00  0.00     0.135 A 
ATOM     90  C   UNL A   1      47.610  33.426  28.969  1.00  0.00     0.135 A 
ATOM     91  F   UNL A   1      48.065  31.452  31.993  1.00  0.00    -0.206 F 
ATOM     92  C   UNL A   1      48.814  33.615  31.475  1.00  0.00     0.059 A 
ATOM     93  C   UNL A   1      48.306  34.583  29.305  1.00  0.00     0.059 A 
ATOM     94  F   UNL A   1      47.040  33.361  27.755  1.00  0.00    -0.206 F 
ATOM     95  C   UNL A   1      48.895  34.672  30.566  1.00  0.00     0.060 A 
BRANCH  95  96
ATOM     96  S   UNL A   1      49.810  36.154  31.040  1.00  0.00     0.124 S 
ATOM     97  O   UNL A   1      49.135  36.532  32.279  1.00  0.00    -0.237 OA
ATOM     98  O   UNL A   1      51.171  35.650  31.187  1.00  0.00    -0.237 OA
ATOM     99  O   UNL A   1      49.601  37.057  29.911  1.00  0.00    -0.744 OA
ENDBRANCH  95  96
ENDBRANCH  63  88
ENDBRANCH  37  38
ENDBRANCH  29  32
ENDBRANCH  27  28
ENDBRANCH   1  27
TORSDOF 18
ENDMDL
