MODEL 1
REMARK VINA RESULT:     -12.4      0.000      0.000
REMARK SMILES CC[C@H]1CO[C@@H](C)CN1c1cccc(F)c1C(=O)NCCCNC(=O)c1ccc(-c2c3nc(c(-c4c(F)cc(S(=O)(=O)[O-])cc4F)c4ccc([nH]4)c(-c4c(F)cc(S(=O)(=O)[O-])cc4F)c4nc(c(-c5c(F)cc(S(=O)(=O)[O-])cc5F)c5ccc2[nH]5)C=C4)C=C3)cc1
REMARK SMILES IDX 21 1 20 2 19 3 17 4 18 5 16 7 10 8 11 9 12 10 14 11 13 12
REMARK SMILES IDX 15 13 9 14 3 15 4 16 5 17 8 18 6 19 7 20 2 21 1 22 22 23
REMARK SMILES IDX 23 24 24 25 25 27 26 28 27 29 91 30 28 31 90 32 29 33 30 34
REMARK SMILES IDX 31 35 84 36 32 37 89 38 83 39 85 40 33 41 88 42 82 43 81 44
REMARK SMILES IDX 34 46 68 47 47 48 67 49 48 50 51 51 66 52 86 53 49 54 50 55
REMARK SMILES IDX 65 57 87 58 52 59 35 60 36 61 45 62 37 63 38 64 44 65 46 66
REMARK SMILES IDX 39 67 40 68 41 69 42 70 43 71 69 72 70 73 79 74 71 75 72 76
REMARK SMILES IDX 78 77 80 78 73 79 74 80 75 81 76 82 77 83 53 84 54 85 63 86
REMARK SMILES IDX 55 87 56 88 62 89 64 90 57 91 58 92 59 93 60 94 61 95
REMARK H PARENT 19 6 23 26 85 45 51 56
REMARK Flexibility Score: inf
ROOT
ATOM      1  C   UNL A   1      37.569  23.006  25.814  1.00  0.00     0.042 C 
ENDROOT
BRANCH   1   2
ATOM      2  C   UNL A   1      37.081  23.344  24.412  1.00  0.00     0.118 C 
BRANCH   2   3
ATOM      3  N   UNL A   1      35.636  23.497  24.364  1.00  0.00    -0.352 N 
ATOM      4  C   UNL A   1      34.872  22.810  25.284  1.00  0.00     0.256 C 
ATOM      5  O   UNL A   1      34.710  23.276  26.407  1.00  0.00    -0.269 OA
ATOM      6  H   UNL A   1      35.213  24.077  23.689  1.00  0.00     0.163 HD
BRANCH   4   7
ATOM      7  C   UNL A   1      34.185  21.578  24.814  1.00  0.00     0.098 A 
ATOM      8  C   UNL A   1      32.852  21.648  24.342  1.00  0.00     0.053 A 
ATOM      9  C   UNL A   1      32.211  20.452  23.972  1.00  0.00     0.027 A 
ATOM     10  C   UNL A   1      32.856  19.218  24.076  1.00  0.00     0.005 A 
ATOM     11  C   UNL A   1      34.820  20.336  24.904  1.00  0.00     0.138 A 
ATOM     12  C   UNL A   1      34.165  19.163  24.539  1.00  0.00     0.040 A 
ATOM     13  F   UNL A   1      36.068  20.213  25.373  1.00  0.00    -0.206 F 
BRANCH   8  14
ATOM     14  N   UNL A   1      32.204  22.868  24.180  1.00  0.00    -0.363 N 
ATOM     15  C   UNL A   1      31.011  23.263  24.959  1.00  0.00     0.108 C 
ATOM     16  C   UNL A   1      30.912  24.807  24.907  1.00  0.00     0.185 C 
ATOM     17  O   UNL A   1      30.800  25.281  23.551  1.00  0.00    -0.375 OA
ATOM     18  C   UNL A   1      32.188  23.365  22.789  1.00  0.00     0.148 C 
ATOM     19  C   UNL A   1      31.917  24.884  22.733  1.00  0.00     0.134 C 
ATOM     20  C   UNL A   1      33.160  25.718  23.037  1.00  0.00     0.040 C 
BRANCH  15  21
ATOM     21  C   UNL A   1      30.952  22.744  26.408  1.00  0.00     0.024 C 
ATOM     22  C   UNL A   1      29.613  22.840  27.124  1.00  0.00     0.006 C 
ENDBRANCH  15  21
ENDBRANCH   8  14
ENDBRANCH   4   7
ENDBRANCH   2   3
ENDBRANCH   1   2
BRANCH   1  23
ATOM     23  C   UNL A   1      38.397  24.122  26.444  1.00  0.00     0.118 C 
BRANCH  23  24
ATOM     24  N   UNL A   1      39.812  23.996  26.120  1.00  0.00    -0.352 N 
ATOM     25  C   UNL A   1      40.881  24.777  26.478  1.00  0.00     0.251 C 
ATOM     26  H   UNL A   1      40.037  23.225  25.551  1.00  0.00     0.163 HD
ATOM     27  O   UNL A   1      41.946  24.645  25.879  1.00  0.00    -0.269 OA
BRANCH  25  28
ATOM     28  C   UNL A   1      40.772  25.770  27.571  1.00  0.00     0.039 A 
ATOM     29  C   UNL A   1      39.752  25.618  28.516  1.00  0.00     0.014 A 
ATOM     30  C   UNL A   1      41.611  26.886  27.629  1.00  0.00     0.014 A 
ATOM     31  C   UNL A   1      39.605  26.556  29.540  1.00  0.00     0.010 A 
ATOM     32  C   UNL A   1      41.505  27.788  28.688  1.00  0.00     0.010 A 
ATOM     33  C   UNL A   1      40.494  27.637  29.647  1.00  0.00    -0.014 A 
BRANCH  33  34
ATOM     34  C   UNL A   1      40.366  28.617  30.756  1.00  0.00     0.031 A 
ATOM     35  C   UNL A   1      41.271  28.536  31.955  1.00  0.00     0.074 A 
ATOM     36  C   UNL A   1      39.411  29.566  30.692  1.00  0.00     0.049 A 
ATOM     37  N   UNL A   1      41.293  29.290  33.024  1.00  0.00    -0.248 NA
ATOM     38  C   UNL A   1      42.266  27.451  31.966  1.00  0.00     0.031 C 
ATOM     39  C   UNL A   1      38.442  29.717  29.605  1.00  0.00     0.029 A 
ATOM     40  N   UNL A   1      39.100  30.583  31.558  1.00  0.00    -0.354 N 
ATOM     41  C   UNL A   1      42.290  28.767  33.838  1.00  0.00     0.074 A 
ATOM     42  C   UNL A   1      42.822  27.605  33.160  1.00  0.00     0.031 C 
ATOM     43  C   UNL A   1      37.671  30.788  29.850  1.00  0.00     0.029 A 
ATOM     44  C   UNL A   1      38.071  31.383  31.122  1.00  0.00     0.049 A 
ATOM     45  H   UNL A   1      39.570  30.727  32.411  1.00  0.00     0.167 HD
ATOM     46  C   UNL A   1      42.737  29.227  35.031  1.00  0.00     0.037 A 
ATOM     47  C   UNL A   1      37.520  32.478  31.678  1.00  0.00     0.037 A 
ATOM     48  C   UNL A   1      42.231  30.405  35.686  1.00  0.00     0.049 A 
ATOM     49  C   UNL A   1      38.056  32.990  32.983  1.00  0.00     0.074 A 
ATOM     50  C   UNL A   1      42.654  30.981  36.872  1.00  0.00     0.029 A 
ATOM     51  N   UNL A   1      41.197  31.194  35.205  1.00  0.00    -0.354 N 
ATOM     52  N   UNL A   1      39.023  32.502  33.722  1.00  0.00    -0.248 NA
ATOM     53  C   UNL A   1      37.431  34.203  33.529  1.00  0.00     0.031 C 
ATOM     54  C   UNL A   1      41.860  32.107  37.119  1.00  0.00     0.029 A 
ATOM     55  C   UNL A   1      40.963  32.248  36.073  1.00  0.00     0.049 A 
ATOM     56  H   UNL A   1      40.703  31.031  34.370  1.00  0.00     0.167 HD
ATOM     57  C   UNL A   1      39.128  33.350  34.818  1.00  0.00     0.074 A 
ATOM     58  C   UNL A   1      38.139  34.394  34.634  1.00  0.00     0.031 C 
ATOM     59  C   UNL A   1      39.966  33.270  35.880  1.00  0.00     0.037 A 
BRANCH  46  60
ATOM     60  C   UNL A   1      43.844  28.462  35.700  1.00  0.00     0.058 A 
ATOM     61  C   UNL A   1      43.557  27.455  36.633  1.00  0.00     0.135 A 
ATOM     62  C   UNL A   1      45.194  28.753  35.442  1.00  0.00     0.135 A 
ATOM     63  F   UNL A   1      42.285  27.131  36.911  1.00  0.00    -0.206 F 
ATOM     64  C   UNL A   1      44.571  26.765  37.292  1.00  0.00     0.059 A 
ATOM     65  C   UNL A   1      46.223  28.063  36.074  1.00  0.00     0.059 A 
ATOM     66  F   UNL A   1      45.521  29.693  34.540  1.00  0.00    -0.206 F 
ATOM     67  C   UNL A   1      45.901  27.077  37.008  1.00  0.00     0.060 A 
BRANCH  67  68
ATOM     68  S   UNL A   1      47.208  26.140  37.830  1.00  0.00     0.124 S 
ATOM     69  O   UNL A   1      47.463  26.955  39.011  1.00  0.00    -0.237 OA
ATOM     70  O   UNL A   1      46.562  24.852  38.069  1.00  0.00    -0.237 OA
ATOM     71  O   UNL A   1      48.278  26.116  36.836  1.00  0.00    -0.744 OA
ENDBRANCH  67  68
ENDBRANCH  46  60
BRANCH  47  72
ATOM     72  C   UNL A   1      36.426  33.186  30.966  1.00  0.00     0.058 A 
ATOM     73  C   UNL A   1      36.680  33.962  29.825  1.00  0.00     0.135 A 
ATOM     74  C   UNL A   1      35.111  33.137  31.448  1.00  0.00     0.135 A 
ATOM     75  F   UNL A   1      37.925  34.047  29.331  1.00  0.00    -0.206 F 
ATOM     76  C   UNL A   1      35.670  34.688  29.202  1.00  0.00     0.059 A 
ATOM     77  C   UNL A   1      34.080  33.840  30.832  1.00  0.00     0.059 A 
ATOM     78  F   UNL A   1      34.821  32.397  32.530  1.00  0.00    -0.206 F 
ATOM     79  C   UNL A   1      34.375  34.629  29.721  1.00  0.00     0.060 A 
BRANCH  79  80
ATOM     80  S   UNL A   1      33.081  35.599  28.919  1.00  0.00     0.124 S 
ATOM     81  O   UNL A   1      33.866  36.630  28.248  1.00  0.00    -0.237 OA
ATOM     82  O   UNL A   1      32.451  34.614  28.046  1.00  0.00    -0.237 OA
ATOM     83  O   UNL A   1      32.262  36.057  30.036  1.00  0.00    -0.744 OA
ENDBRANCH  79  80
ENDBRANCH  47  72
BRANCH  59  84
ATOM     84  C   UNL A   1      39.844  34.337  36.929  1.00  0.00     0.058 A 
ATOM     85  C   UNL A   1      38.987  34.166  38.026  1.00  0.00     0.135 A 
ATOM     86  C   UNL A   1      40.548  35.546  36.822  1.00  0.00     0.135 A 
ATOM     87  F   UNL A   1      38.290  33.028  38.171  1.00  0.00    -0.206 F 
ATOM     88  C   UNL A   1      38.826  35.164  38.982  1.00  0.00     0.059 A 
ATOM     89  C   UNL A   1      40.417  36.550  37.777  1.00  0.00     0.059 A 
ATOM     90  F   UNL A   1      41.389  35.749  35.797  1.00  0.00    -0.206 F 
ATOM     91  C   UNL A   1      39.543  36.354  38.847  1.00  0.00     0.060 A 
BRANCH  91  92
ATOM     92  S   UNL A   1      39.358  37.628  40.113  1.00  0.00     0.124 S 
ATOM     93  O   UNL A   1      39.043  36.831  41.293  1.00  0.00    -0.237 OA
ATOM     94  O   UNL A   1      40.672  38.266  40.111  1.00  0.00    -0.237 OA
ATOM     95  O   UNL A   1      38.269  38.455  39.600  1.00  0.00    -0.744 OA
ENDBRANCH  91  92
ENDBRANCH  59  84
ENDBRANCH  33  34
ENDBRANCH  25  28
ENDBRANCH  23  24
ENDBRANCH   1  23
TORSDOF 15
ENDMDL
MODEL 2
REMARK VINA RESULT:     -12.3      1.488      2.300
REMARK SMILES CC[C@H]1CO[C@@H](C)CN1c1cccc(F)c1C(=O)NCCCNC(=O)c1ccc(-c2c3nc(c(-c4c(F)cc(S(=O)(=O)[O-])cc4F)c4ccc([nH]4)c(-c4c(F)cc(S(=O)(=O)[O-])cc4F)c4nc(c(-c5c(F)cc(S(=O)(=O)[O-])cc5F)c5ccc2[nH]5)C=C4)C=C3)cc1
REMARK SMILES IDX 21 1 20 2 19 3 17 4 18 5 16 7 10 8 11 9 12 10 14 11 13 12
REMARK SMILES IDX 15 13 9 14 3 15 4 16 5 17 8 18 6 19 7 20 2 21 1 22 22 23
REMARK SMILES IDX 23 24 24 25 25 27 26 28 27 29 91 30 28 31 90 32 29 33 30 34
REMARK SMILES IDX 31 35 84 36 32 37 89 38 83 39 85 40 33 41 88 42 82 43 81 44
REMARK SMILES IDX 34 46 68 47 47 48 67 49 48 50 51 51 66 52 86 53 49 54 50 55
REMARK SMILES IDX 65 57 87 58 52 59 35 60 36 61 45 62 37 63 38 64 44 65 46 66
REMARK SMILES IDX 39 67 40 68 41 69 42 70 43 71 69 72 70 73 79 74 71 75 72 76
REMARK SMILES IDX 78 77 80 78 73 79 74 80 75 81 76 82 77 83 53 84 54 85 63 86
REMARK SMILES IDX 55 87 56 88 62 89 64 90 57 91 58 92 59 93 60 94 61 95
REMARK H PARENT 19 6 23 26 85 45 51 56
REMARK Flexibility Score: inf
ROOT
ATOM      1  C   UNL A   1      37.400  23.866  25.387  1.00  0.00     0.042 C 
ENDROOT
BRANCH   1   2
ATOM      2  C   UNL A   1      35.957  23.609  25.795  1.00  0.00     0.118 C 
BRANCH   2   3
ATOM      3  N   UNL A   1      35.131  24.797  25.648  1.00  0.00    -0.352 N 
ATOM      4  C   UNL A   1      33.805  24.636  25.304  1.00  0.00     0.256 C 
ATOM      5  O   UNL A   1      32.979  24.380  26.174  1.00  0.00    -0.269 OA
ATOM      6  H   UNL A   1      35.510  25.695  25.790  1.00  0.00     0.163 HD
BRANCH   4   7
ATOM      7  C   UNL A   1      33.432  24.898  23.889  1.00  0.00     0.098 A 
ATOM      8  C   UNL A   1      32.784  26.108  23.542  1.00  0.00     0.053 A 
ATOM      9  C   UNL A   1      32.383  26.290  22.205  1.00  0.00     0.027 A 
ATOM     10  C   UNL A   1      32.601  25.307  21.239  1.00  0.00     0.005 A 
ATOM     11  C   UNL A   1      33.651  23.927  22.908  1.00  0.00     0.138 A 
ATOM     12  C   UNL A   1      33.240  24.125  21.593  1.00  0.00     0.040 A 
ATOM     13  F   UNL A   1      34.232  22.754  23.193  1.00  0.00    -0.206 F 
BRANCH   8  14
ATOM     14  N   UNL A   1      32.600  27.125  24.472  1.00  0.00    -0.363 N 
ATOM     15  C   UNL A   1      31.269  27.558  24.950  1.00  0.00     0.108 C 
ATOM     16  C   UNL A   1      31.474  28.278  26.305  1.00  0.00     0.185 C 
ATOM     17  O   UNL A   1      32.347  29.415  26.169  1.00  0.00    -0.375 OA
ATOM     18  C   UNL A   1      33.572  28.232  24.358  1.00  0.00     0.148 C 
ATOM     19  C   UNL A   1      33.647  29.056  25.662  1.00  0.00     0.134 C 
ATOM     20  C   UNL A   1      34.503  28.389  26.736  1.00  0.00     0.040 C 
BRANCH  15  21
ATOM     21  C   UNL A   1      30.201  26.454  25.055  1.00  0.00     0.024 C 
ATOM     22  C   UNL A   1      29.060  26.496  24.049  1.00  0.00     0.006 C 
ENDBRANCH  15  21
ENDBRANCH   8  14
ENDBRANCH   4   7
ENDBRANCH   2   3
ENDBRANCH   1   2
BRANCH   1  23
ATOM     23  C   UNL A   1      38.367  23.847  26.567  1.00  0.00     0.118 C 
BRANCH  23  24
ATOM     24  N   UNL A   1      39.757  23.899  26.128  1.00  0.00    -0.352 N 
ATOM     25  C   UNL A   1      40.748  24.803  26.416  1.00  0.00     0.251 C 
ATOM     26  H   UNL A   1      40.027  23.167  25.528  1.00  0.00     0.163 HD
ATOM     27  O   UNL A   1      41.768  24.808  25.731  1.00  0.00    -0.269 OA
BRANCH  25  28
ATOM     28  C   UNL A   1      40.608  25.763  27.534  1.00  0.00     0.039 A 
ATOM     29  C   UNL A   1      41.547  26.792  27.654  1.00  0.00     0.014 A 
ATOM     30  C   UNL A   1      39.613  25.614  28.503  1.00  0.00     0.014 A 
ATOM     31  C   UNL A   1      41.460  27.695  28.717  1.00  0.00     0.010 A 
ATOM     32  C   UNL A   1      39.487  26.553  29.527  1.00  0.00     0.010 A 
ATOM     33  C   UNL A   1      40.416  27.595  29.650  1.00  0.00    -0.014 A 
BRANCH  33  34
ATOM     34  C   UNL A   1      40.296  28.574  30.760  1.00  0.00     0.031 A 
ATOM     35  C   UNL A   1      41.197  28.482  31.961  1.00  0.00     0.074 A 
ATOM     36  C   UNL A   1      39.349  29.531  30.697  1.00  0.00     0.049 A 
ATOM     37  N   UNL A   1      41.224  29.234  33.031  1.00  0.00    -0.248 NA
ATOM     38  C   UNL A   1      42.183  27.389  31.972  1.00  0.00     0.031 C 
ATOM     39  C   UNL A   1      38.383  29.693  29.609  1.00  0.00     0.029 A 
ATOM     40  N   UNL A   1      39.045  30.549  31.565  1.00  0.00    -0.354 N 
ATOM     41  C   UNL A   1      42.215  28.700  33.846  1.00  0.00     0.074 A 
ATOM     42  C   UNL A   1      42.738  27.536  33.167  1.00  0.00     0.031 C 
ATOM     43  C   UNL A   1      37.620  30.771  29.855  1.00  0.00     0.029 A 
ATOM     44  C   UNL A   1      38.024  31.359  31.128  1.00  0.00     0.049 A 
ATOM     45  H   UNL A   1      39.514  30.687  32.419  1.00  0.00     0.167 HD
ATOM     46  C   UNL A   1      42.664  29.154  35.040  1.00  0.00     0.037 A 
ATOM     47  C   UNL A   1      37.481  32.458  31.686  1.00  0.00     0.037 A 
ATOM     48  C   UNL A   1      42.167  30.335  35.697  1.00  0.00     0.049 A 
ATOM     49  C   UNL A   1      38.019  32.962  32.993  1.00  0.00     0.074 A 
ATOM     50  C   UNL A   1      42.593  30.905  36.885  1.00  0.00     0.029 A 
ATOM     51  N   UNL A   1      41.141  31.134  35.216  1.00  0.00    -0.354 N 
ATOM     52  N   UNL A   1      38.981  32.464  33.733  1.00  0.00    -0.248 NA
ATOM     53  C   UNL A   1      37.404  34.179  33.540  1.00  0.00     0.031 C 
ATOM     54  C   UNL A   1      41.808  32.037  37.134  1.00  0.00     0.029 A 
ATOM     55  C   UNL A   1      40.914  32.188  36.087  1.00  0.00     0.049 A 
ATOM     56  H   UNL A   1      40.647  30.977  34.381  1.00  0.00     0.167 HD
ATOM     57  C   UNL A   1      39.091  33.309  34.830  1.00  0.00     0.074 A 
ATOM     58  C   UNL A   1      38.111  34.361  34.648  1.00  0.00     0.031 C 
ATOM     59  C   UNL A   1      39.926  33.219  35.894  1.00  0.00     0.037 A 
BRANCH  46  60
ATOM     60  C   UNL A   1      43.763  28.379  35.710  1.00  0.00     0.058 A 
ATOM     61  C   UNL A   1      43.467  27.390  36.660  1.00  0.00     0.135 A 
ATOM     62  C   UNL A   1      45.115  28.640  35.435  1.00  0.00     0.135 A 
ATOM     63  F   UNL A   1      42.192  27.093  36.955  1.00  0.00    -0.206 F 
ATOM     64  C   UNL A   1      44.474  26.691  37.319  1.00  0.00     0.059 A 
ATOM     65  C   UNL A   1      46.138  27.940  36.067  1.00  0.00     0.059 A 
ATOM     66  F   UNL A   1      45.451  29.561  34.517  1.00  0.00    -0.206 F 
ATOM     67  C   UNL A   1      45.807  26.974  37.017  1.00  0.00     0.060 A 
BRANCH  67  68
ATOM     68  S   UNL A   1      47.105  26.024  37.840  1.00  0.00     0.124 S 
ATOM     69  O   UNL A   1      47.397  24.995  36.850  1.00  0.00    -0.237 OA
ATOM     70  O   UNL A   1      48.144  27.031  38.041  1.00  0.00    -0.237 OA
ATOM     71  O   UNL A   1      46.455  25.559  39.063  1.00  0.00    -0.744 OA
ENDBRANCH  67  68
ENDBRANCH  46  60
BRANCH  47  72
ATOM     72  C   UNL A   1      36.395  33.176  30.973  1.00  0.00     0.058 A 
ATOM     73  C   UNL A   1      36.658  33.955  29.837  1.00  0.00     0.135 A 
ATOM     74  C   UNL A   1      35.077  33.136  31.452  1.00  0.00     0.135 A 
ATOM     75  F   UNL A   1      37.904  34.032  29.347  1.00  0.00    -0.206 F 
ATOM     76  C   UNL A   1      35.655  34.691  29.214  1.00  0.00     0.059 A 
ATOM     77  C   UNL A   1      34.054  33.849  30.836  1.00  0.00     0.059 A 
ATOM     78  F   UNL A   1      34.779  32.394  32.531  1.00  0.00    -0.206 F 
ATOM     79  C   UNL A   1      34.358  34.640  29.728  1.00  0.00     0.060 A 
BRANCH  79  80
ATOM     80  S   UNL A   1      33.073  35.623  28.927  1.00  0.00     0.124 S 
ATOM     81  O   UNL A   1      32.468  34.638  28.036  1.00  0.00    -0.237 OA
ATOM     82  O   UNL A   1      32.254  36.043  30.058  1.00  0.00    -0.237 OA
ATOM     83  O   UNL A   1      33.824  36.688  28.271  1.00  0.00    -0.744 OA
ENDBRANCH  79  80
ENDBRANCH  47  72
BRANCH  59  84
ATOM     84  C   UNL A   1      39.813  34.285  36.946  1.00  0.00     0.058 A 
ATOM     85  C   UNL A   1      39.032  34.077  38.092  1.00  0.00     0.135 A 
ATOM     86  C   UNL A   1      40.445  35.528  36.792  1.00  0.00     0.135 A 
ATOM     87  F   UNL A   1      38.406  32.904  38.282  1.00  0.00    -0.206 F 
ATOM     88  C   UNL A   1      38.877  35.070  39.053  1.00  0.00     0.059 A 
ATOM     89  C   UNL A   1      40.318  36.529  37.750  1.00  0.00     0.059 A 
ATOM     90  F   UNL A   1      41.211  35.768  35.718  1.00  0.00    -0.206 F 
ATOM     91  C   UNL A   1      39.522  36.295  38.871  1.00  0.00     0.060 A 
BRANCH  91  92
ATOM     92  S   UNL A   1      39.346  37.566  40.143  1.00  0.00     0.124 S 
ATOM     93  O   UNL A   1      38.367  38.460  39.536  1.00  0.00    -0.237 OA
ATOM     94  O   UNL A   1      38.876  36.797  41.292  1.00  0.00    -0.237 OA
ATOM     95  O   UNL A   1      40.698  38.102  40.270  1.00  0.00    -0.744 OA
ENDBRANCH  91  92
ENDBRANCH  59  84
ENDBRANCH  33  34
ENDBRANCH  25  28
ENDBRANCH  23  24
ENDBRANCH   1  23
TORSDOF 15
ENDMDL
MODEL 3
REMARK VINA RESULT:     -12.2      6.679     12.199
REMARK SMILES CC[C@H]1CO[C@@H](C)CN1c1cccc(F)c1C(=O)NCCCNC(=O)c1ccc(-c2c3nc(c(-c4c(F)cc(S(=O)(=O)[O-])cc4F)c4ccc([nH]4)c(-c4c(F)cc(S(=O)(=O)[O-])cc4F)c4nc(c(-c5c(F)cc(S(=O)(=O)[O-])cc5F)c5ccc2[nH]5)C=C4)C=C3)cc1
REMARK SMILES IDX 21 1 20 2 19 3 17 4 18 5 16 7 10 8 11 9 12 10 14 11 13 12
REMARK SMILES IDX 15 13 9 14 3 15 4 16 5 17 8 18 6 19 7 20 2 21 1 22 22 23
REMARK SMILES IDX 23 24 24 25 25 27 26 28 27 29 91 30 28 31 90 32 29 33 30 34
REMARK SMILES IDX 31 35 84 36 32 37 89 38 83 39 85 40 33 41 88 42 82 43 81 44
REMARK SMILES IDX 34 46 68 47 47 48 67 49 48 50 51 51 66 52 86 53 49 54 50 55
REMARK SMILES IDX 65 57 87 58 52 59 35 60 36 61 45 62 37 63 38 64 44 65 46 66
REMARK SMILES IDX 39 67 40 68 41 69 42 70 43 71 69 72 70 73 79 74 71 75 72 76
REMARK SMILES IDX 78 77 80 78 73 79 74 80 75 81 76 82 77 83 53 84 54 85 63 86
REMARK SMILES IDX 55 87 56 88 62 89 64 90 57 91 58 92 59 93 60 94 61 95
REMARK H PARENT 19 6 23 26 85 45 51 56
REMARK Flexibility Score: inf
ROOT
ATOM      1  C   UNL A   1      34.846  29.214  27.515  1.00  0.00     0.042 C 
ENDROOT
BRANCH   1   2
ATOM      2  C   UNL A   1      33.350  29.138  27.249  1.00  0.00     0.118 C 
BRANCH   2   3
ATOM      3  N   UNL A   1      32.994  27.950  26.489  1.00  0.00    -0.352 N 
ATOM      4  C   UNL A   1      32.987  28.030  25.112  1.00  0.00     0.256 C 
ATOM      5  O   UNL A   1      34.038  27.900  24.492  1.00  0.00    -0.269 OA
ATOM      6  H   UNL A   1      32.761  27.110  26.947  1.00  0.00     0.163 HD
BRANCH   4   7
ATOM      7  C   UNL A   1      31.666  28.158  24.443  1.00  0.00     0.098 A 
ATOM      8  C   UNL A   1      31.084  27.035  23.806  1.00  0.00     0.053 A 
ATOM      9  C   UNL A   1      29.867  27.212  23.123  1.00  0.00     0.027 A 
ATOM     10  C   UNL A   1      29.243  28.460  23.057  1.00  0.00     0.005 A 
ATOM     11  C   UNL A   1      31.025  29.399  24.375  1.00  0.00     0.138 A 
ATOM     12  C   UNL A   1      29.824  29.553  23.688  1.00  0.00     0.040 A 
ATOM     13  F   UNL A   1      31.549  30.496  24.935  1.00  0.00    -0.206 F 
BRANCH   8  14
ATOM     14  N   UNL A   1      31.657  25.772  23.900  1.00  0.00    -0.363 N 
ATOM     15  C   UNL A   1      32.236  25.055  22.743  1.00  0.00     0.108 C 
ATOM     16  C   UNL A   1      33.216  23.992  23.298  1.00  0.00     0.185 C 
ATOM     17  O   UNL A   1      32.545  23.065  24.172  1.00  0.00    -0.375 OA
ATOM     18  C   UNL A   1      30.996  24.879  24.873  1.00  0.00     0.148 C 
ATOM     19  C   UNL A   1      31.922  23.717  25.296  1.00  0.00     0.134 C 
ATOM     20  C   UNL A   1      32.950  24.132  26.345  1.00  0.00     0.040 C 
BRANCH  15  21
ATOM     21  C   UNL A   1      32.908  25.936  21.673  1.00  0.00     0.024 C 
ATOM     22  C   UNL A   1      32.539  25.667  20.222  1.00  0.00     0.006 C 
ENDBRANCH  15  21
ENDBRANCH   8  14
ENDBRANCH   4   7
ENDBRANCH   2   3
ENDBRANCH   1   2
BRANCH   1  23
ATOM     23  C   UNL A   1      35.299  30.589  27.997  1.00  0.00     0.118 C 
BRANCH  23  24
ATOM     24  N   UNL A   1      35.344  30.665  29.453  1.00  0.00    -0.352 N 
ATOM     25  C   UNL A   1      36.299  30.236  30.338  1.00  0.00     0.251 C 
ATOM     26  H   UNL A   1      34.560  31.094  29.866  1.00  0.00     0.163 HD
ATOM     27  O   UNL A   1      36.016  30.159  31.531  1.00  0.00    -0.269 OA
BRANCH  25  28
ATOM     28  C   UNL A   1      37.658  29.868  29.880  1.00  0.00     0.039 A 
ATOM     29  C   UNL A   1      38.578  29.396  30.822  1.00  0.00     0.014 A 
ATOM     30  C   UNL A   1      38.057  30.057  28.554  1.00  0.00     0.014 A 
ATOM     31  C   UNL A   1      39.877  29.072  30.426  1.00  0.00     0.010 A 
ATOM     32  C   UNL A   1      39.334  29.672  28.146  1.00  0.00     0.010 A 
ATOM     33  C   UNL A   1      40.259  29.187  29.080  1.00  0.00    -0.014 A 
BRANCH  33  34
ATOM     34  C   UNL A   1      41.628  28.807  28.645  1.00  0.00     0.031 A 
ATOM     35  C   UNL A   1      42.735  29.825  28.635  1.00  0.00     0.074 A 
ATOM     36  C   UNL A   1      41.864  27.547  28.230  1.00  0.00     0.049 A 
ATOM     37  N   UNL A   1      43.983  29.682  28.269  1.00  0.00    -0.248 NA
ATOM     38  C   UNL A   1      42.391  31.188  29.069  1.00  0.00     0.031 C 
ATOM     39  C   UNL A   1      40.861  26.483  28.148  1.00  0.00     0.029 A 
ATOM     40  N   UNL A   1      43.021  26.946  27.803  1.00  0.00    -0.354 N 
ATOM     41  C   UNL A   1      44.570  30.933  28.417  1.00  0.00     0.074 A 
ATOM     42  C   UNL A   1      43.531  31.835  28.864  1.00  0.00     0.031 C 
ATOM     43  C   UNL A   1      41.454  25.352  27.735  1.00  0.00     0.029 A 
ATOM     44  C   UNL A   1      42.869  25.615  27.498  1.00  0.00     0.049 A 
ATOM     45  H   UNL A   1      43.878  27.424  27.722  1.00  0.00     0.167 HD
ATOM     46  C   UNL A   1      45.860  31.292  28.221  1.00  0.00     0.037 A 
ATOM     47  C   UNL A   1      43.773  24.705  27.085  1.00  0.00     0.037 A 
ATOM     48  C   UNL A   1      46.900  30.384  27.811  1.00  0.00     0.049 A 
ATOM     49  C   UNL A   1      45.205  25.118  26.909  1.00  0.00     0.074 A 
ATOM     50  C   UNL A   1      48.249  30.642  27.634  1.00  0.00     0.029 A 
ATOM     51  N   UNL A   1      46.709  29.041  27.525  1.00  0.00    -0.354 N 
ATOM     52  N   UNL A   1      45.748  26.299  27.086  1.00  0.00    -0.248 NA
ATOM     53  C   UNL A   1      46.149  24.077  26.480  1.00  0.00     0.031 C 
ATOM     54  C   UNL A   1      48.870  29.457  27.220  1.00  0.00     0.029 A 
ATOM     55  C   UNL A   1      47.913  28.457  27.166  1.00  0.00     0.049 A 
ATOM     56  H   UNL A   1      45.846  28.570  27.571  1.00  0.00     0.167 HD
ATOM     57  C   UNL A   1      47.098  26.142  26.798  1.00  0.00     0.074 A 
ATOM     58  C   UNL A   1      47.293  24.748  26.453  1.00  0.00     0.031 C 
ATOM     59  C   UNL A   1      48.085  27.071  26.815  1.00  0.00     0.037 A 
BRANCH  46  60
ATOM     60  C   UNL A   1      46.227  32.729  28.464  1.00  0.00     0.058 A 
ATOM     61  C   UNL A   1      46.617  33.164  29.739  1.00  0.00     0.135 A 
ATOM     62  C   UNL A   1      46.157  33.685  27.438  1.00  0.00     0.135 A 
ATOM     63  F   UNL A   1      46.709  32.290  30.754  1.00  0.00    -0.206 F 
ATOM     64  C   UNL A   1      46.921  34.498  29.991  1.00  0.00     0.059 A 
ATOM     65  C   UNL A   1      46.475  35.021  27.662  1.00  0.00     0.059 A 
ATOM     66  F   UNL A   1      45.811  33.316  26.194  1.00  0.00    -0.206 F 
ATOM     67  C   UNL A   1      46.846  35.421  28.946  1.00  0.00     0.060 A 
BRANCH  67  68
ATOM     68  S   UNL A   1      47.292  37.140  29.271  1.00  0.00     0.124 S 
ATOM     69  O   UNL A   1      48.379  37.352  28.323  1.00  0.00    -0.237 OA
ATOM     70  O   UNL A   1      46.045  37.844  28.981  1.00  0.00    -0.237 OA
ATOM     71  O   UNL A   1      47.676  37.126  30.680  1.00  0.00    -0.744 OA
ENDBRANCH  67  68
ENDBRANCH  46  60
BRANCH  47  72
ATOM     72  C   UNL A   1      43.344  23.302  26.860  1.00  0.00     0.058 A 
ATOM     73  C   UNL A   1      43.041  22.450  27.933  1.00  0.00     0.135 A 
ATOM     74  C   UNL A   1      43.281  22.773  25.563  1.00  0.00     0.135 A 
ATOM     75  F   UNL A   1      43.096  22.908  29.193  1.00  0.00    -0.206 F 
ATOM     76  C   UNL A   1      42.714  21.114  27.728  1.00  0.00     0.059 A 
ATOM     77  C   UNL A   1      42.939  21.445  25.332  1.00  0.00     0.059 A 
ATOM     78  F   UNL A   1      43.552  23.557  24.507  1.00  0.00    -0.206 F 
ATOM     79  C   UNL A   1      42.677  20.618  26.424  1.00  0.00     0.060 A 
BRANCH  79  80
ATOM     80  S   UNL A   1      42.280  18.874  26.175  1.00  0.00     0.124 S 
ATOM     81  O   UNL A   1      42.615  18.313  27.480  1.00  0.00    -0.237 OA
ATOM     82  O   UNL A   1      40.858  18.923  25.852  1.00  0.00    -0.237 OA
ATOM     83  O   UNL A   1      43.157  18.482  25.077  1.00  0.00    -0.744 OA
ENDBRANCH  79  80
ENDBRANCH  47  72
BRANCH  59  84
ATOM     84  C   UNL A   1      49.465  26.609  26.444  1.00  0.00     0.058 A 
ATOM     85  C   UNL A   1      49.936  26.748  25.130  1.00  0.00     0.135 A 
ATOM     86  C   UNL A   1      50.302  25.989  27.384  1.00  0.00     0.135 A 
ATOM     87  F   UNL A   1      49.171  27.332  24.194  1.00  0.00    -0.206 F 
ATOM     88  C   UNL A   1      51.193  26.283  24.757  1.00  0.00     0.059 A 
ATOM     89  C   UNL A   1      51.570  25.533  27.038  1.00  0.00     0.059 A 
ATOM     90  F   UNL A   1      49.898  25.845  28.655  1.00  0.00    -0.206 F 
ATOM     91  C   UNL A   1      52.002  25.674  25.718  1.00  0.00     0.060 A 
BRANCH  91  92
ATOM     92  S   UNL A   1      53.647  25.107  25.236  1.00  0.00     0.124 S 
ATOM     93  O   UNL A   1      53.749  25.615  23.872  1.00  0.00    -0.237 OA
ATOM     94  O   UNL A   1      54.505  25.759  26.221  1.00  0.00    -0.237 OA
ATOM     95  O   UNL A   1      53.553  23.656  25.363  1.00  0.00    -0.744 OA
ENDBRANCH  91  92
ENDBRANCH  59  84
ENDBRANCH  33  34
ENDBRANCH  25  28
ENDBRANCH  23  24
ENDBRANCH   1  23
TORSDOF 15
ENDMDL
