MODEL 1
REMARK VINA RESULT:     -11.5      0.000      0.000
REMARK SMILES CCC[C@@H](Oc1ccc(-c2ccccc2)cc1)C(=O)NCCCNC(=O)c1ccc(-c2c3nc(c(-c4c(F)cc(S(=O)(=O)[O-])cc4F)c4ccc([nH]4)c(-c4c(F)cc(S(=O)(=O)[O-])cc4F)c4nc(c(-c5c(F)cc(S(=O)(=O)[O-])cc5F)c5ccc2[nH]5)C=C4)C=C3)cc1
REMARK SMILES IDX 22 1 21 2 20 3 18 4 19 5 4 7 3 8 2 9 1 10 5 11 6 12 7 13
REMARK SMILES IDX 17 14 8 15 16 16 9 17 10 18 11 19 15 20 12 21 14 22 13 23
REMARK SMILES IDX 23 24 24 25 25 26 26 28 27 29 28 30 92 31 29 32 91 33 30 34
REMARK SMILES IDX 31 35 32 36 85 37 33 38 90 39 84 40 86 41 34 42 89 43 83 44
REMARK SMILES IDX 82 45 35 47 69 48 48 49 68 50 49 51 52 52 67 53 87 54 50 55
REMARK SMILES IDX 51 56 66 58 88 59 53 60 36 61 37 62 46 63 38 64 39 65 45 66
REMARK SMILES IDX 47 67 40 68 41 69 42 70 43 71 44 72 70 73 71 74 80 75 72 76
REMARK SMILES IDX 73 77 79 78 81 79 74 80 75 81 76 82 77 83 78 84 54 85 55 86
REMARK SMILES IDX 64 87 56 88 57 89 63 90 65 91 58 92 59 93 60 94 61 95 62 96
REMARK H PARENT 20 6 24 27 86 46 52 57
REMARK Flexibility Score: inf
ROOT
ATOM      1  C   UNL A   1      37.999  22.810  25.961  1.00  0.00     0.042 C 
ENDROOT
BRANCH   1   2
ATOM      2  C   UNL A   1      36.538  23.120  25.671  1.00  0.00     0.118 C 
BRANCH   2   3
ATOM      3  N   UNL A   1      35.619  22.209  26.342  1.00  0.00    -0.353 N 
ATOM      4  C   UNL A   1      34.319  21.896  26.037  1.00  0.00     0.261 C 
ATOM      5  O   UNL A   1      33.760  21.027  26.714  1.00  0.00    -0.271 OA
ATOM      6  H   UNL A   1      35.987  21.750  27.131  1.00  0.00     0.163 HD
BRANCH   4   7
ATOM      7  C   UNL A   1      33.558  22.660  24.935  1.00  0.00     0.261 C 
BRANCH   7   8
ATOM      8  C   UNL A   1      33.205  21.626  23.841  1.00  0.00     0.055 C 
BRANCH   8   9
ATOM      9  C   UNL A   1      32.388  22.079  22.622  1.00  0.00     0.001 C 
ATOM     10  C   UNL A   1      33.094  23.020  21.664  1.00  0.00     0.004 C 
ENDBRANCH   8   9
ENDBRANCH   7   8
BRANCH   7  11
ATOM     11  O   UNL A   1      32.490  23.301  25.648  1.00  0.00    -0.481 OA
BRANCH  11  12
ATOM     12  C   UNL A   1      32.667  24.615  25.931  1.00  0.00     0.120 A 
ATOM     13  C   UNL A   1      31.634  25.340  26.504  1.00  0.00     0.047 A 
ATOM     14  C   UNL A   1      33.817  25.256  25.498  1.00  0.00     0.047 A 
ATOM     15  C   UNL A   1      31.805  26.709  26.742  1.00  0.00     0.012 A 
ATOM     16  C   UNL A   1      34.007  26.603  25.787  1.00  0.00     0.012 A 
ATOM     17  C   UNL A   1      33.012  27.363  26.428  1.00  0.00    -0.018 A 
BRANCH  17  18
ATOM     18  C   UNL A   1      33.250  28.782  26.772  1.00  0.00    -0.018 A 
ATOM     19  C   UNL A   1      32.223  29.739  26.684  1.00  0.00     0.009 A 
ATOM     20  C   UNL A   1      34.498  29.223  27.251  1.00  0.00     0.009 A 
ATOM     21  C   UNL A   1      32.430  31.068  27.066  1.00  0.00     0.001 A 
ATOM     22  C   UNL A   1      34.704  30.546  27.650  1.00  0.00     0.001 A 
ATOM     23  C   UNL A   1      33.668  31.468  27.557  1.00  0.00     0.000 A 
ENDBRANCH  17  18
ENDBRANCH  11  12
ENDBRANCH   7  11
ENDBRANCH   4   7
ENDBRANCH   2   3
ENDBRANCH   1   2
BRANCH   1  24
ATOM     24  C   UNL A   1      38.757  23.955  26.615  1.00  0.00     0.118 C 
BRANCH  24  25
ATOM     25  N   UNL A   1      40.116  24.086  26.109  1.00  0.00    -0.352 N 
ATOM     26  C   UNL A   1      41.070  25.037  26.360  1.00  0.00     0.251 C 
ATOM     27  H   UNL A   1      40.395  23.377  25.484  1.00  0.00     0.163 HD
ATOM     28  O   UNL A   1      42.090  25.059  25.666  1.00  0.00    -0.269 OA
BRANCH  26  29
ATOM     29  C   UNL A   1      40.888  26.040  27.431  1.00  0.00     0.039 A 
ATOM     30  C   UNL A   1      39.931  25.800  28.423  1.00  0.00     0.014 A 
ATOM     31  C   UNL A   1      41.621  27.230  27.448  1.00  0.00     0.014 A 
ATOM     32  C   UNL A   1      39.755  26.721  29.458  1.00  0.00     0.010 A 
ATOM     33  C   UNL A   1      41.505  28.106  28.526  1.00  0.00     0.010 A 
ATOM     34  C   UNL A   1      40.565  27.866  29.538  1.00  0.00    -0.014 A 
BRANCH  34  35
ATOM     35  C   UNL A   1      40.438  28.819  30.670  1.00  0.00     0.031 A 
ATOM     36  C   UNL A   1      41.309  28.676  31.889  1.00  0.00     0.074 A 
ATOM     37  C   UNL A   1      39.499  29.786  30.620  1.00  0.00     0.049 A 
ATOM     38  N   UNL A   1      41.311  29.383  32.990  1.00  0.00    -0.248 NA
ATOM     39  C   UNL A   1      42.291  27.579  31.881  1.00  0.00     0.031 C 
ATOM     40  C   UNL A   1      38.559  29.996  29.516  1.00  0.00     0.029 A 
ATOM     41  N   UNL A   1      39.175  30.770  31.521  1.00  0.00    -0.354 N 
ATOM     42  C   UNL A   1      42.280  28.813  33.807  1.00  0.00     0.074 A 
ATOM     43  C   UNL A   1      42.808  27.667  33.098  1.00  0.00     0.031 C 
ATOM     44  C   UNL A   1      37.786  31.058  29.792  1.00  0.00     0.029 A 
ATOM     45  C   UNL A   1      38.146  31.581  31.106  1.00  0.00     0.049 A 
ATOM     46  H   UNL A   1      39.637  30.882  32.382  1.00  0.00     0.167 HD
ATOM     47  C   UNL A   1      42.710  29.220  35.026  1.00  0.00     0.037 A 
ATOM     48  C   UNL A   1      37.556  32.627  31.715  1.00  0.00     0.037 A 
ATOM     49  C   UNL A   1      42.198  30.375  35.717  1.00  0.00     0.049 A 
ATOM     50  C   UNL A   1      38.054  33.063  33.067  1.00  0.00     0.074 A 
ATOM     51  C   UNL A   1      42.604  30.902  36.930  1.00  0.00     0.029 A 
ATOM     52  N   UNL A   1      41.167  31.183  35.256  1.00  0.00    -0.354 N 
ATOM     53  N   UNL A   1      39.013  32.548  33.799  1.00  0.00    -0.248 NA
ATOM     54  C   UNL A   1      37.395  34.228  33.672  1.00  0.00     0.031 C 
ATOM     55  C   UNL A   1      41.791  32.004  37.223  1.00  0.00     0.029 A 
ATOM     56  C   UNL A   1      40.913  32.193  36.170  1.00  0.00     0.049 A 
ATOM     57  H   UNL A   1      40.689  31.057  34.405  1.00  0.00     0.167 HD
ATOM     58  C   UNL A   1      39.090  33.341  34.938  1.00  0.00     0.074 A 
ATOM     59  C   UNL A   1      38.090  34.379  34.791  1.00  0.00     0.031 C 
ATOM     60  C   UNL A   1      39.914  33.221  36.008  1.00  0.00     0.037 A 
BRANCH  47  61
ATOM     61  C   UNL A   1      43.796  28.414  35.688  1.00  0.00     0.058 A 
ATOM     62  C   UNL A   1      45.155  28.680  35.457  1.00  0.00     0.135 A 
ATOM     63  C   UNL A   1      43.474  27.387  36.591  1.00  0.00     0.135 A 
ATOM     64  F   UNL A   1      45.519  29.639  34.592  1.00  0.00    -0.206 F 
ATOM     65  C   UNL A   1      46.157  27.937  36.074  1.00  0.00     0.059 A 
ATOM     66  C   UNL A   1      44.461  26.652  37.241  1.00  0.00     0.059 A 
ATOM     67  F   UNL A   1      42.192  27.091  36.849  1.00  0.00    -0.206 F 
ATOM     68  C   UNL A   1      45.800  26.924  36.965  1.00  0.00     0.060 A 
BRANCH  68  69
ATOM     69  S   UNL A   1      47.113  25.973  37.759  1.00  0.00     0.124 S 
ATOM     70  O   UNL A   1      46.587  25.824  39.112  1.00  0.00    -0.237 OA
ATOM     71  O   UNL A   1      47.148  24.756  36.955  1.00  0.00    -0.237 OA
ATOM     72  O   UNL A   1      48.283  26.838  37.633  1.00  0.00    -0.744 OA
ENDBRANCH  68  69
ENDBRANCH  47  61
BRANCH  48  73
ATOM     73  C   UNL A   1      36.448  33.353  31.039  1.00  0.00     0.058 A 
ATOM     74  C   UNL A   1      36.695  34.167  29.924  1.00  0.00     0.135 A 
ATOM     75  C   UNL A   1      35.122  33.235  31.482  1.00  0.00     0.135 A 
ATOM     76  F   UNL A   1      37.947  34.316  29.466  1.00  0.00    -0.206 F 
ATOM     77  C   UNL A   1      35.670  34.855  29.282  1.00  0.00     0.059 A 
ATOM     78  C   UNL A   1      34.076  33.892  30.841  1.00  0.00     0.059 A 
ATOM     79  F   UNL A   1      34.830  32.453  32.533  1.00  0.00    -0.206 F 
ATOM     80  C   UNL A   1      34.363  34.708  29.747  1.00  0.00     0.060 A 
BRANCH  80  81
ATOM     81  S   UNL A   1      33.033  35.565  28.877  1.00  0.00     0.124 S 
ATOM     82  O   UNL A   1      32.283  36.146  29.985  1.00  0.00    -0.237 OA
ATOM     83  O   UNL A   1      33.770  36.506  28.040  1.00  0.00    -0.237 OA
ATOM     84  O   UNL A   1      32.359  34.490  28.153  1.00  0.00    -0.744 OA
ENDBRANCH  80  81
ENDBRANCH  48  73
BRANCH  60  85
ATOM     85  C   UNL A   1      39.791  34.257  37.091  1.00  0.00     0.058 A 
ATOM     86  C   UNL A   1      39.011  34.039  38.238  1.00  0.00     0.135 A 
ATOM     87  C   UNL A   1      40.490  35.471  36.995  1.00  0.00     0.135 A 
ATOM     88  F   UNL A   1      38.318  32.897  38.376  1.00  0.00    -0.206 F 
ATOM     89  C   UNL A   1      38.904  35.000  39.237  1.00  0.00     0.059 A 
ATOM     90  C   UNL A   1      40.419  36.436  37.996  1.00  0.00     0.059 A 
ATOM     91  F   UNL A   1      41.259  35.726  35.926  1.00  0.00    -0.206 F 
ATOM     92  C   UNL A   1      39.611  36.198  39.106  1.00  0.00     0.060 A 
BRANCH  92  93
ATOM     93  S   UNL A   1      39.477  37.430  40.417  1.00  0.00     0.124 S 
ATOM     94  O   UNL A   1      38.611  38.427  39.796  1.00  0.00    -0.237 OA
ATOM     95  O   UNL A   1      38.883  36.664  41.508  1.00  0.00    -0.237 OA
ATOM     96  O   UNL A   1      40.859  37.848  40.633  1.00  0.00    -0.744 OA
ENDBRANCH  92  93
ENDBRANCH  60  85
ENDBRANCH  34  35
ENDBRANCH  26  29
ENDBRANCH  24  25
ENDBRANCH   1  24
TORSDOF 18
ENDMDL
MODEL 2
REMARK VINA RESULT:     -11.4      3.809      6.568
REMARK SMILES CCC[C@@H](Oc1ccc(-c2ccccc2)cc1)C(=O)NCCCNC(=O)c1ccc(-c2c3nc(c(-c4c(F)cc(S(=O)(=O)[O-])cc4F)c4ccc([nH]4)c(-c4c(F)cc(S(=O)(=O)[O-])cc4F)c4nc(c(-c5c(F)cc(S(=O)(=O)[O-])cc5F)c5ccc2[nH]5)C=C4)C=C3)cc1
REMARK SMILES IDX 22 1 21 2 20 3 18 4 19 5 4 7 3 8 2 9 1 10 5 11 6 12 7 13
REMARK SMILES IDX 17 14 8 15 16 16 9 17 10 18 11 19 15 20 12 21 14 22 13 23
REMARK SMILES IDX 23 24 24 25 25 26 26 28 27 29 28 30 92 31 29 32 91 33 30 34
REMARK SMILES IDX 31 35 32 36 85 37 33 38 90 39 84 40 86 41 34 42 89 43 83 44
REMARK SMILES IDX 82 45 35 47 69 48 48 49 68 50 49 51 52 52 67 53 87 54 50 55
REMARK SMILES IDX 51 56 66 58 88 59 53 60 36 61 37 62 46 63 38 64 39 65 45 66
REMARK SMILES IDX 47 67 40 68 41 69 42 70 43 71 44 72 70 73 71 74 80 75 72 76
REMARK SMILES IDX 73 77 79 78 81 79 74 80 75 81 76 82 77 83 78 84 54 85 55 86
REMARK SMILES IDX 64 87 56 88 57 89 63 90 65 91 58 92 59 93 60 94 61 95 62 96
REMARK H PARENT 20 6 24 27 86 46 52 57
REMARK Flexibility Score: inf
ROOT
ATOM      1  C   UNL A   1      41.911  22.534  25.901  1.00  0.00     0.042 C 
ENDROOT
BRANCH   1   2
ATOM      2  C   UNL A   1      43.092  21.599  25.684  1.00  0.00     0.118 C 
BRANCH   2   3
ATOM      3  N   UNL A   1      43.987  22.051  24.626  1.00  0.00    -0.353 N 
ATOM      4  C   UNL A   1      44.887  23.086  24.623  1.00  0.00     0.261 C 
ATOM      5  O   UNL A   1      45.598  23.231  23.624  1.00  0.00    -0.271 OA
ATOM      6  H   UNL A   1      43.938  21.535  23.788  1.00  0.00     0.163 HD
BRANCH   4   7
ATOM      7  C   UNL A   1      44.951  24.082  25.799  1.00  0.00     0.261 C 
BRANCH   7   8
ATOM      8  C   UNL A   1      45.711  23.370  26.942  1.00  0.00     0.055 C 
BRANCH   8   9
ATOM      9  C   UNL A   1      45.075  23.314  28.339  1.00  0.00     0.001 C 
ATOM     10  C   UNL A   1      43.673  23.881  28.451  1.00  0.00     0.004 C 
ENDBRANCH   8   9
ENDBRANCH   7   8
BRANCH   7  11
ATOM     11  O   UNL A   1      45.530  25.256  25.212  1.00  0.00    -0.481 OA
BRANCH  11  12
ATOM     12  C   UNL A   1      45.309  26.421  25.868  1.00  0.00     0.120 A 
ATOM     13  C   UNL A   1      46.289  26.938  26.701  1.00  0.00     0.047 A 
ATOM     14  C   UNL A   1      44.049  26.997  25.828  1.00  0.00     0.047 A 
ATOM     15  C   UNL A   1      46.032  28.112  27.419  1.00  0.00     0.012 A 
ATOM     16  C   UNL A   1      43.815  28.195  26.496  1.00  0.00     0.012 A 
ATOM     17  C   UNL A   1      44.804  28.791  27.299  1.00  0.00    -0.018 A 
BRANCH  17  18
ATOM     18  C   UNL A   1      44.555  30.089  27.964  1.00  0.00    -0.018 A 
ATOM     19  C   UNL A   1      43.250  30.589  28.130  1.00  0.00     0.009 A 
ATOM     20  C   UNL A   1      45.607  30.851  28.505  1.00  0.00     0.009 A 
ATOM     21  C   UNL A   1      43.009  31.785  28.812  1.00  0.00     0.001 A 
ATOM     22  C   UNL A   1      45.369  32.038  29.202  1.00  0.00     0.001 A 
ATOM     23  C   UNL A   1      44.069  32.504  29.355  1.00  0.00     0.000 A 
ENDBRANCH  17  18
ENDBRANCH  11  12
ENDBRANCH   7  11
ENDBRANCH   4   7
ENDBRANCH   2   3
ENDBRANCH   1   2
BRANCH   1  24
ATOM     24  C   UNL A   1      40.683  21.854  26.486  1.00  0.00     0.118 C 
BRANCH  24  25
ATOM     25  N   UNL A   1      39.446  22.302  25.862  1.00  0.00    -0.352 N 
ATOM     26  C   UNL A   1      38.699  23.431  26.078  1.00  0.00     0.251 C 
ATOM     27  H   UNL A   1      39.087  21.696  25.172  1.00  0.00     0.163 HD
ATOM     28  O   UNL A   1      37.576  23.510  25.571  1.00  0.00    -0.269 OA
BRANCH  26  29
ATOM     29  C   UNL A   1      39.207  24.536  26.916  1.00  0.00     0.039 A 
ATOM     30  C   UNL A   1      40.025  25.506  26.328  1.00  0.00     0.014 A 
ATOM     31  C   UNL A   1      38.919  24.609  28.282  1.00  0.00     0.014 A 
ATOM     32  C   UNL A   1      40.501  26.574  27.093  1.00  0.00     0.010 A 
ATOM     33  C   UNL A   1      39.322  25.718  29.023  1.00  0.00     0.010 A 
ATOM     34  C   UNL A   1      40.124  26.708  28.439  1.00  0.00    -0.014 A 
BRANCH  34  35
ATOM     35  C   UNL A   1      40.565  27.874  29.247  1.00  0.00     0.031 A 
ATOM     36  C   UNL A   1      41.908  27.868  29.925  1.00  0.00     0.074 A 
ATOM     37  C   UNL A   1      39.729  28.920  29.412  1.00  0.00     0.049 A 
ATOM     38  N   UNL A   1      42.444  28.772  30.705  1.00  0.00    -0.248 NA
ATOM     39  C   UNL A   1      42.751  26.678  29.722  1.00  0.00     0.031 C 
ATOM     40  C   UNL A   1      38.381  29.023  28.847  1.00  0.00     0.029 A 
ATOM     41  N   UNL A   1      39.888  30.094  30.105  1.00  0.00    -0.354 N 
ATOM     42  C   UNL A   1      43.676  28.259  31.093  1.00  0.00     0.074 A 
ATOM     43  C   UNL A   1      43.786  26.940  30.508  1.00  0.00     0.031 C 
ATOM     44  C   UNL A   1      37.848  30.205  29.193  1.00  0.00     0.029 A 
ATOM     45  C   UNL A   1      38.797  30.929  30.033  1.00  0.00     0.049 A 
ATOM     46  H   UNL A   1      40.705  30.317  30.605  1.00  0.00     0.167 HD
ATOM     47  C   UNL A   1      44.639  28.843  31.846  1.00  0.00     0.037 A 
ATOM     48  C   UNL A   1      38.584  32.139  30.584  1.00  0.00     0.037 A 
ATOM     49  C   UNL A   1      44.534  30.165  32.406  1.00  0.00     0.049 A 
ATOM     50  C   UNL A   1      39.670  32.768  31.414  1.00  0.00     0.074 A 
ATOM     51  C   UNL A   1      45.476  30.867  33.139  1.00  0.00     0.029 A 
ATOM     52  N   UNL A   1      43.421  30.987  32.297  1.00  0.00    -0.354 N 
ATOM     53  N   UNL A   1      40.854  32.293  31.720  1.00  0.00    -0.248 NA
ATOM     54  C   UNL A   1      39.396  34.101  31.965  1.00  0.00     0.031 C 
ATOM     55  C   UNL A   1      44.917  32.096  33.507  1.00  0.00     0.029 A 
ATOM     56  C   UNL A   1      43.646  32.180  32.964  1.00  0.00     0.049 A 
ATOM     57  H   UNL A   1      42.594  30.755  31.816  1.00  0.00     0.167 HD
ATOM     58  C   UNL A   1      41.475  33.279  32.478  1.00  0.00     0.074 A 
ATOM     59  C   UNL A   1      40.541  34.382  32.571  1.00  0.00     0.031 C 
ATOM     60  C   UNL A   1      42.706  33.272  33.046  1.00  0.00     0.037 A 
BRANCH  47  61
ATOM     61  C   UNL A   1      45.897  28.055  32.103  1.00  0.00     0.058 A 
ATOM     62  C   UNL A   1      47.051  28.237  31.323  1.00  0.00     0.135 A 
ATOM     63  C   UNL A   1      45.961  27.135  33.162  1.00  0.00     0.135 A 
ATOM     64  F   UNL A   1      47.041  29.092  30.289  1.00  0.00    -0.206 F 
ATOM     65  C   UNL A   1      48.213  27.512  31.564  1.00  0.00     0.059 A 
ATOM     66  C   UNL A   1      47.124  26.421  33.439  1.00  0.00     0.059 A 
ATOM     67  F   UNL A   1      44.889  26.923  33.939  1.00  0.00    -0.206 F 
ATOM     68  C   UNL A   1      48.241  26.605  32.625  1.00  0.00     0.060 A 
BRANCH  68  69
ATOM     69  S   UNL A   1      49.759  25.677  32.927  1.00  0.00     0.124 S 
ATOM     70  O   UNL A   1      50.151  25.310  31.570  1.00  0.00    -0.237 OA
ATOM     71  O   UNL A   1      50.606  26.667  33.584  1.00  0.00    -0.237 OA
ATOM     72  O   UNL A   1      49.319  24.572  33.773  1.00  0.00    -0.744 OA
ENDBRANCH  68  69
ENDBRANCH  47  61
BRANCH  48  73
ATOM     73  C   UNL A   1      37.298  32.847  30.345  1.00  0.00     0.058 A 
ATOM     74  C   UNL A   1      37.115  33.640  29.203  1.00  0.00     0.135 A 
ATOM     75  C   UNL A   1      36.226  32.735  31.242  1.00  0.00     0.135 A 
ATOM     76  F   UNL A   1      38.113  33.783  28.317  1.00  0.00    -0.206 F 
ATOM     77  C   UNL A   1      35.920  34.312  28.966  1.00  0.00     0.059 A 
ATOM     78  C   UNL A   1      35.012  33.376  31.014  1.00  0.00     0.059 A 
ATOM     79  F   UNL A   1      36.344  31.974  32.341  1.00  0.00    -0.206 F 
ATOM     80  C   UNL A   1      34.873  34.171  29.877  1.00  0.00     0.060 A 
BRANCH  80  81
ATOM     81  S   UNL A   1      33.309  35.007  29.536  1.00  0.00     0.124 S 
ATOM     82  O   UNL A   1      33.764  36.230  28.888  1.00  0.00    -0.237 OA
ATOM     83  O   UNL A   1      32.627  34.043  28.677  1.00  0.00    -0.237 OA
ATOM     84  O   UNL A   1      32.722  35.175  30.863  1.00  0.00    -0.744 OA
ENDBRANCH  80  81
ENDBRANCH  48  73
BRANCH  60  85
ATOM     85  C   UNL A   1      43.129  34.508  33.790  1.00  0.00     0.058 A 
ATOM     86  C   UNL A   1      42.915  34.648  35.171  1.00  0.00     0.135 A 
ATOM     87  C   UNL A   1      43.786  35.552  33.119  1.00  0.00     0.135 A 
ATOM     88  F   UNL A   1      42.286  33.682  35.859  1.00  0.00    -0.206 F 
ATOM     89  C   UNL A   1      43.310  35.793  35.854  1.00  0.00     0.059 A 
ATOM     90  C   UNL A   1      44.215  36.695  33.789  1.00  0.00     0.059 A 
ATOM     91  F   UNL A   1      44.025  35.464  31.802  1.00  0.00    -0.206 F 
ATOM     92  C   UNL A   1      43.958  36.813  35.153  1.00  0.00     0.060 A 
BRANCH  92  93
ATOM     93  S   UNL A   1      44.482  38.286  36.055  1.00  0.00     0.124 S 
ATOM     94  O   UNL A   1      45.927  38.093  36.119  1.00  0.00    -0.237 OA
ATOM     95  O   UNL A   1      44.024  39.365  35.185  1.00  0.00    -0.237 OA
ATOM     96  O   UNL A   1      43.776  38.174  37.328  1.00  0.00    -0.744 OA
ENDBRANCH  92  93
ENDBRANCH  60  85
ENDBRANCH  34  35
ENDBRANCH  26  29
ENDBRANCH  24  25
ENDBRANCH   1  24
TORSDOF 18
ENDMDL
MODEL 3
REMARK VINA RESULT:     -11.3      1.546      2.149
REMARK SMILES CCC[C@@H](Oc1ccc(-c2ccccc2)cc1)C(=O)NCCCNC(=O)c1ccc(-c2c3nc(c(-c4c(F)cc(S(=O)(=O)[O-])cc4F)c4ccc([nH]4)c(-c4c(F)cc(S(=O)(=O)[O-])cc4F)c4nc(c(-c5c(F)cc(S(=O)(=O)[O-])cc5F)c5ccc2[nH]5)C=C4)C=C3)cc1
REMARK SMILES IDX 22 1 21 2 20 3 18 4 19 5 4 7 3 8 2 9 1 10 5 11 6 12 7 13
REMARK SMILES IDX 17 14 8 15 16 16 9 17 10 18 11 19 15 20 12 21 14 22 13 23
REMARK SMILES IDX 23 24 24 25 25 26 26 28 27 29 28 30 92 31 29 32 91 33 30 34
REMARK SMILES IDX 31 35 32 36 85 37 33 38 90 39 84 40 86 41 34 42 89 43 83 44
REMARK SMILES IDX 82 45 35 47 69 48 48 49 68 50 49 51 52 52 67 53 87 54 50 55
REMARK SMILES IDX 51 56 66 58 88 59 53 60 36 61 37 62 46 63 38 64 39 65 45 66
REMARK SMILES IDX 47 67 40 68 41 69 42 70 43 71 44 72 70 73 71 74 80 75 72 76
REMARK SMILES IDX 73 77 79 78 81 79 74 80 75 81 76 82 77 83 78 84 54 85 55 86
REMARK SMILES IDX 64 87 56 88 57 89 63 90 65 91 58 92 59 93 60 94 61 95 62 96
REMARK H PARENT 20 6 24 27 86 46 52 57
REMARK Flexibility Score: inf
ROOT
ATOM      1  C   UNL A   1      38.020  22.893  25.817  1.00  0.00     0.042 C 
ENDROOT
BRANCH   1   2
ATOM      2  C   UNL A   1      36.595  23.394  25.635  1.00  0.00     0.118 C 
BRANCH   2   3
ATOM      3  N   UNL A   1      35.702  22.971  26.707  1.00  0.00    -0.353 N 
ATOM      4  C   UNL A   1      34.331  22.967  26.753  1.00  0.00     0.261 C 
ATOM      5  O   UNL A   1      33.788  22.486  27.752  1.00  0.00    -0.271 OA
ATOM      6  H   UNL A   1      36.149  22.639  27.518  1.00  0.00     0.163 HD
BRANCH   4   7
ATOM      7  C   UNL A   1      33.499  23.614  25.627  1.00  0.00     0.261 C 
BRANCH   7   8
ATOM      8  C   UNL A   1      33.044  22.466  24.696  1.00  0.00     0.055 C 
BRANCH   8   9
ATOM      9  C   UNL A   1      33.400  22.531  23.203  1.00  0.00     0.001 C 
ATOM     10  C   UNL A   1      33.356  23.910  22.572  1.00  0.00     0.004 C 
ENDBRANCH   8   9
ENDBRANCH   7   8
BRANCH   7  11
ATOM     11  O   UNL A   1      32.501  24.363  26.336  1.00  0.00    -0.481 OA
BRANCH  11  12
ATOM     12  C   UNL A   1      31.826  25.289  25.613  1.00  0.00     0.120 A 
ATOM     13  C   UNL A   1      32.232  26.614  25.644  1.00  0.00     0.047 A 
ATOM     14  C   UNL A   1      30.645  24.933  24.982  1.00  0.00     0.047 A 
ATOM     15  C   UNL A   1      31.498  27.575  24.938  1.00  0.00     0.012 A 
ATOM     16  C   UNL A   1      29.949  25.878  24.234  1.00  0.00     0.012 A 
ATOM     17  C   UNL A   1      30.364  27.221  24.182  1.00  0.00    -0.018 A 
BRANCH  17  18
ATOM     18  C   UNL A   1      29.639  28.202  23.344  1.00  0.00    -0.018 A 
ATOM     19  C   UNL A   1      28.236  28.289  23.365  1.00  0.00     0.009 A 
ATOM     20  C   UNL A   1      30.327  29.124  22.532  1.00  0.00     0.009 A 
ATOM     21  C   UNL A   1      27.553  29.256  22.620  1.00  0.00     0.001 A 
ATOM     22  C   UNL A   1      29.650  30.103  21.800  1.00  0.00     0.001 A 
ATOM     23  C   UNL A   1      28.263  30.168  21.845  1.00  0.00     0.000 A 
ENDBRANCH  17  18
ENDBRANCH  11  12
ENDBRANCH   7  11
ENDBRANCH   4   7
ENDBRANCH   2   3
ENDBRANCH   1   2
BRANCH   1  24
ATOM     24  C   UNL A   1      38.884  23.791  26.689  1.00  0.00     0.118 C 
BRANCH  24  25
ATOM     25  N   UNL A   1      40.251  23.897  26.198  1.00  0.00    -0.352 N 
ATOM     26  C   UNL A   1      41.213  24.841  26.445  1.00  0.00     0.251 C 
ATOM     27  H   UNL A   1      40.530  23.173  25.591  1.00  0.00     0.163 HD
ATOM     28  O   UNL A   1      42.243  24.837  25.764  1.00  0.00    -0.269 OA
BRANCH  26  29
ATOM     29  C   UNL A   1      41.030  25.865  27.495  1.00  0.00     0.039 A 
ATOM     30  C   UNL A   1      40.003  25.696  28.429  1.00  0.00     0.014 A 
ATOM     31  C   UNL A   1      41.832  27.009  27.547  1.00  0.00     0.014 A 
ATOM     32  C   UNL A   1      39.822  26.638  29.444  1.00  0.00     0.010 A 
ATOM     33  C   UNL A   1      41.706  27.903  28.608  1.00  0.00     0.010 A 
ATOM     34  C   UNL A   1      40.695  27.732  29.563  1.00  0.00    -0.014 A 
BRANCH  34  35
ATOM     35  C   UNL A   1      40.559  28.705  30.678  1.00  0.00     0.031 A 
ATOM     36  C   UNL A   1      41.425  28.587  31.903  1.00  0.00     0.074 A 
ATOM     37  C   UNL A   1      39.616  29.667  30.607  1.00  0.00     0.049 A 
ATOM     38  N   UNL A   1      41.420  29.313  32.991  1.00  0.00    -0.248 NA
ATOM     39  C   UNL A   1      42.411  27.493  31.919  1.00  0.00     0.031 C 
ATOM     40  C   UNL A   1      38.681  29.854  29.495  1.00  0.00     0.029 A 
ATOM     41  N   UNL A   1      39.285  30.665  31.489  1.00  0.00    -0.354 N 
ATOM     42  C   UNL A   1      42.388  28.761  33.823  1.00  0.00     0.074 A 
ATOM     43  C   UNL A   1      42.923  27.605  33.136  1.00  0.00     0.031 C 
ATOM     44  C   UNL A   1      37.903  30.918  29.749  1.00  0.00     0.029 A 
ATOM     45  C   UNL A   1      38.255  31.466  31.054  1.00  0.00     0.049 A 
ATOM     46  H   UNL A   1      39.743  30.795  32.350  1.00  0.00     0.167 HD
ATOM     47  C   UNL A   1      42.810  29.192  35.036  1.00  0.00     0.037 A 
ATOM     48  C   UNL A   1      37.659  32.520  31.643  1.00  0.00     0.037 A 
ATOM     49  C   UNL A   1      42.291  30.357  35.704  1.00  0.00     0.049 A 
ATOM     50  C   UNL A   1      38.148  32.982  32.989  1.00  0.00     0.074 A 
ATOM     51  C   UNL A   1      42.689  30.907  36.910  1.00  0.00     0.029 A 
ATOM     52  N   UNL A   1      41.259  31.152  35.225  1.00  0.00    -0.354 N 
ATOM     53  N   UNL A   1      39.106  32.483  33.734  1.00  0.00    -0.248 NA
ATOM     54  C   UNL A   1      37.483  34.155  33.571  1.00  0.00     0.031 C 
ATOM     55  C   UNL A   1      41.871  32.010  37.179  1.00  0.00     0.029 A 
ATOM     56  C   UNL A   1      40.997  32.177  36.119  1.00  0.00     0.049 A 
ATOM     57  H   UNL A   1      40.785  31.009  34.374  1.00  0.00     0.167 HD
ATOM     58  C   UNL A   1      39.176  33.296  34.859  1.00  0.00     0.074 A 
ATOM     59  C   UNL A   1      38.172  34.327  34.690  1.00  0.00     0.031 C 
ATOM     60  C   UNL A   1      39.995  33.198  35.935  1.00  0.00     0.037 A 
BRANCH  47  61
ATOM     61  C   UNL A   1      43.896  28.401  35.717  1.00  0.00     0.058 A 
ATOM     62  C   UNL A   1      45.255  28.673  35.494  1.00  0.00     0.135 A 
ATOM     63  C   UNL A   1      43.574  27.384  36.630  1.00  0.00     0.135 A 
ATOM     64  F   UNL A   1      45.620  29.624  34.620  1.00  0.00    -0.206 F 
ATOM     65  C   UNL A   1      46.257  27.946  36.128  1.00  0.00     0.059 A 
ATOM     66  C   UNL A   1      44.561  26.663  37.297  1.00  0.00     0.059 A 
ATOM     67  F   UNL A   1      42.292  27.082  36.882  1.00  0.00    -0.206 F 
ATOM     68  C   UNL A   1      45.900  26.941  37.028  1.00  0.00     0.060 A 
BRANCH  68  69
ATOM     69  S   UNL A   1      47.213  26.010  37.845  1.00  0.00     0.124 S 
ATOM     70  O   UNL A   1      47.781  27.021  38.730  1.00  0.00    -0.237 OA
ATOM     71  O   UNL A   1      46.472  24.937  38.503  1.00  0.00    -0.237 OA
ATOM     72  O   UNL A   1      48.070  25.590  36.740  1.00  0.00    -0.744 OA
ENDBRANCH  68  69
ENDBRANCH  47  61
BRANCH  48  73
ATOM     73  C   UNL A   1      36.551  33.229  30.949  1.00  0.00     0.058 A 
ATOM     74  C   UNL A   1      36.809  34.083  29.867  1.00  0.00     0.135 A 
ATOM     75  C   UNL A   1      35.215  33.057  31.343  1.00  0.00     0.135 A 
ATOM     76  F   UNL A   1      38.070  34.284  29.456  1.00  0.00    -0.206 F 
ATOM     77  C   UNL A   1      35.784  34.756  29.209  1.00  0.00     0.059 A 
ATOM     78  C   UNL A   1      34.171  33.699  30.684  1.00  0.00     0.059 A 
ATOM     79  F   UNL A   1      34.914  32.236  32.361  1.00  0.00    -0.206 F 
ATOM     80  C   UNL A   1      34.467  34.554  29.624  1.00  0.00     0.060 A 
BRANCH  80  81
ATOM     81  S   UNL A   1      33.140  35.393  28.733  1.00  0.00     0.124 S 
ATOM     82  O   UNL A   1      33.889  36.310  27.882  1.00  0.00    -0.237 OA
ATOM     83  O   UNL A   1      32.479  34.284  28.052  1.00  0.00    -0.237 OA
ATOM     84  O   UNL A   1      32.360  36.016  29.800  1.00  0.00    -0.744 OA
ENDBRANCH  80  81
ENDBRANCH  48  73
BRANCH  60  85
ATOM     85  C   UNL A   1      39.864  34.253  36.999  1.00  0.00     0.058 A 
ATOM     86  C   UNL A   1      40.505  35.497  36.889  1.00  0.00     0.135 A 
ATOM     87  C   UNL A   1      39.060  34.028  38.128  1.00  0.00     0.135 A 
ATOM     88  F   UNL A   1      41.290  35.761  35.832  1.00  0.00    -0.206 F 
ATOM     89  C   UNL A   1      40.379  36.469  37.876  1.00  0.00     0.059 A 
ATOM     90  C   UNL A   1      38.897  34.997  39.114  1.00  0.00     0.059 A 
ATOM     91  F   UNL A   1      38.416  32.860  38.277  1.00  0.00    -0.206 F 
ATOM     92  C   UNL A   1      39.573  36.208  38.986  1.00  0.00     0.060 A 
BRANCH  92  93
ATOM     93  S   UNL A   1      39.403  37.484  40.251  1.00  0.00     0.124 S 
ATOM     94  O   UNL A   1      38.499  38.426  39.598  1.00  0.00    -0.237 OA
ATOM     95  O   UNL A   1      38.841  36.740  41.374  1.00  0.00    -0.237 OA
ATOM     96  O   UNL A   1      40.770  37.957  40.443  1.00  0.00    -0.744 OA
ENDBRANCH  92  93
ENDBRANCH  60  85
ENDBRANCH  34  35
ENDBRANCH  26  29
ENDBRANCH  24  25
ENDBRANCH   1  24
TORSDOF 18
ENDMDL
