MODEL 1
REMARK VINA RESULT:     -11.6      0.000      0.000
REMARK SMILES COc1ccc(CNC(=O)[C@H]2CC(C)=C(C)C[C@@H]2C(=O)NCCCNC(=O)c2ccc(-c3c4nc(c(-c5c(F)cc(S(=O)(=O)[O-])cc5F)c5ccc([nH]5)c(-c5c(F)cc(S(=O)(=O)[O-])cc5F)c5nc(c(-c6c(F)cc(S(=O)(=O)[O-])cc6F)c6ccc3[nH]6)C=C5)C=C4)cc2)cc1OC
REMARK SMILES IDX 22 1 21 2 19 3 20 4 18 6 11 7 12 8 13 9 17 10 14 11 15 12
REMARK SMILES IDX 16 13 9 14 8 15 10 17 7 18 6 19 3 20 4 21 95 22 5 23 94 24
REMARK SMILES IDX 2 25 1 26 96 27 97 28 23 29 24 30 25 31 26 32 27 34 28 35
REMARK SMILES IDX 29 36 93 37 30 38 92 39 31 40 32 41 33 42 86 43 34 44 91 45
REMARK SMILES IDX 85 46 87 47 35 48 90 49 84 50 83 51 36 53 70 54 49 55 69 56
REMARK SMILES IDX 50 57 53 58 68 59 88 60 51 61 52 62 67 64 89 65 54 66 37 67
REMARK SMILES IDX 38 68 47 69 39 70 40 71 46 72 48 73 41 74 42 75 43 76 44 77
REMARK SMILES IDX 45 78 71 79 72 80 81 81 73 82 74 83 80 84 82 85 75 86 76 87
REMARK SMILES IDX 77 88 78 89 79 90 55 91 56 92 65 93 57 94 58 95 64 96 66 97
REMARK SMILES IDX 59 98 60 99 61 100 62 101 63 102
REMARK H PARENT 21 5 8 16 25 33 87 52 53 63
REMARK Flexibility Score: inf
ROOT
ATOM      1  C   UNL A   1      32.103  26.379  26.240  1.00  0.00     0.117 C 
ENDROOT
BRANCH   1   2
ATOM      2  N   UNL A   1      32.257  25.053  26.821  1.00  0.00    -0.356 N 
ATOM      3  C   UNL A   1      33.039  24.000  26.436  1.00  0.00     0.224 C 
ATOM      4  O   UNL A   1      32.968  22.967  27.103  1.00  0.00    -0.275 OA
ATOM      5  H   UNL A   1      31.707  24.887  27.622  1.00  0.00     0.163 HD
BRANCH   3   6
ATOM      6  C   UNL A   1      33.956  24.134  25.213  1.00  0.00     0.095 C 
ATOM      7  C   UNL A   1      33.786  22.917  24.294  1.00  0.00     0.095 C 
ATOM      8  C   UNL A   1      34.780  21.775  24.480  1.00  0.00     0.045 C 
ATOM      9  C   UNL A   1      36.150  22.124  24.990  1.00  0.00    -0.074 C 
ATOM     10  C   UNL A   1      35.406  24.431  25.643  1.00  0.00     0.045 C 
ATOM     11  C   UNL A   1      37.163  21.026  24.775  1.00  0.00     0.039 C 
ATOM     12  C   UNL A   1      36.426  23.321  25.546  1.00  0.00    -0.074 C 
ATOM     13  C   UNL A   1      37.787  23.674  26.091  1.00  0.00     0.039 C 
BRANCH   7  14
ATOM     14  C   UNL A   1      33.463  23.333  22.859  1.00  0.00     0.224 C 
ATOM     15  N   UNL A   1      32.240  23.651  22.395  1.00  0.00    -0.352 N 
ATOM     16  H   UNL A   1      32.192  23.700  21.412  1.00  0.00     0.163 HD
ATOM     17  O   UNL A   1      34.360  23.317  22.008  1.00  0.00    -0.275 OA
BRANCH  15  18
ATOM     18  C   UNL A   1      30.988  23.935  23.049  1.00  0.00     0.151 C 
BRANCH  18  19
ATOM     19  C   UNL A   1      30.740  25.420  23.157  1.00  0.00    -0.025 A 
ATOM     20  C   UNL A   1      30.317  28.206  23.253  1.00  0.00     0.160 A 
ATOM     21  C   UNL A   1      29.324  27.325  23.690  1.00  0.00     0.051 A 
ATOM     22  C   UNL A   1      31.543  27.710  22.797  1.00  0.00     0.161 A 
ATOM     23  C   UNL A   1      29.535  25.946  23.643  1.00  0.00     0.009 A 
ATOM     24  C   UNL A   1      31.729  26.320  22.734  1.00  0.00     0.056 A 
BRANCH  20  25
ATOM     25  O   UNL A   1      30.069  29.547  23.358  1.00  0.00    -0.493 OA
ATOM     26  C   UNL A   1      29.349  30.031  22.225  1.00  0.00     0.278 C 
ENDBRANCH  20  25
BRANCH  22  27
ATOM     27  O   UNL A   1      32.644  28.407  22.376  1.00  0.00    -0.493 OA
ATOM     28  C   UNL A   1      33.602  28.803  23.344  1.00  0.00     0.278 C 
ENDBRANCH  22  27
ENDBRANCH  18  19
ENDBRANCH  15  18
ENDBRANCH   7  14
ENDBRANCH   3   6
ENDBRANCH   1   2
BRANCH   1  29
ATOM     29  C   UNL A   1      32.265  27.492  27.274  1.00  0.00     0.042 C 
BRANCH  29  30
ATOM     30  C   UNL A   1      33.586  28.240  27.179  1.00  0.00     0.118 C 
BRANCH  30  31
ATOM     31  N   UNL A   1      33.427  29.663  27.440  1.00  0.00    -0.352 N 
ATOM     32  C   UNL A   1      34.289  30.541  28.043  1.00  0.00     0.251 C 
ATOM     33  H   UNL A   1      32.576  30.052  27.137  1.00  0.00     0.163 HD
ATOM     34  O   UNL A   1      33.876  31.654  28.375  1.00  0.00    -0.269 OA
BRANCH  32  35
ATOM     35  C   UNL A   1      35.697  30.168  28.304  1.00  0.00     0.039 A 
ATOM     36  C   UNL A   1      36.622  30.253  27.259  1.00  0.00     0.014 A 
ATOM     37  C   UNL A   1      36.104  29.692  29.554  1.00  0.00     0.014 A 
ATOM     38  C   UNL A   1      37.957  29.903  27.478  1.00  0.00     0.010 A 
ATOM     39  C   UNL A   1      37.449  29.415  29.792  1.00  0.00     0.010 A 
ATOM     40  C   UNL A   1      38.388  29.505  28.754  1.00  0.00    -0.014 A 
BRANCH  40  41
ATOM     41  C   UNL A   1      39.810  29.163  29.015  1.00  0.00     0.031 A 
ATOM     42  C   UNL A   1      40.747  30.200  29.577  1.00  0.00     0.074 A 
ATOM     43  C   UNL A   1      40.270  27.939  28.695  1.00  0.00     0.049 A 
ATOM     44  N   UNL A   1      42.030  30.114  29.813  1.00  0.00    -0.248 NA
ATOM     45  C   UNL A   1      40.168  31.518  29.889  1.00  0.00     0.031 C 
ATOM     46  C   UNL A   1      39.471  26.863  28.102  1.00  0.00     0.029 A 
ATOM     47  N   UNL A   1      41.523  27.392  28.814  1.00  0.00    -0.354 N 
ATOM     48  C   UNL A   1      42.415  31.363  30.286  1.00  0.00     0.074 A 
ATOM     49  C   UNL A   1      41.240  32.206  30.255  1.00  0.00     0.031 C 
ATOM     50  C   UNL A   1      40.249  25.782  27.928  1.00  0.00     0.029 A 
ATOM     51  C   UNL A   1      41.606  26.095  28.362  1.00  0.00     0.049 A 
ATOM     52  H   UNL A   1      42.292  27.882  29.187  1.00  0.00     0.167 HD
ATOM     53  C   UNL A   1      43.632  31.764  30.727  1.00  0.00     0.037 A 
ATOM     54  C   UNL A   1      42.659  25.257  28.296  1.00  0.00     0.037 A 
ATOM     55  C   UNL A   1      44.790  30.911  30.780  1.00  0.00     0.049 A 
ATOM     56  C   UNL A   1      43.999  25.724  28.797  1.00  0.00     0.074 A 
ATOM     57  C   UNL A   1      46.054  31.203  31.264  1.00  0.00     0.029 A 
ATOM     58  N   UNL A   1      44.829  29.597  30.335  1.00  0.00    -0.354 N 
ATOM     59  N   UNL A   1      44.331  26.890  29.297  1.00  0.00    -0.248 NA
ATOM     60  C   UNL A   1      45.106  24.760  28.731  1.00  0.00     0.031 C 
ATOM     61  C   UNL A   1      46.867  30.081  31.073  1.00  0.00     0.029 A 
ATOM     62  C   UNL A   1      46.098  29.072  30.515  1.00  0.00     0.049 A 
ATOM     63  H   UNL A   1      44.066  29.110  29.948  1.00  0.00     0.167 HD
ATOM     64  C   UNL A   1      45.678  26.791  29.630  1.00  0.00     0.074 A 
ATOM     65  C   UNL A   1      46.094  25.447  29.286  1.00  0.00     0.031 C 
ATOM     66  C   UNL A   1      46.494  27.729  30.173  1.00  0.00     0.037 A 
BRANCH  53  67
ATOM     67  C   UNL A   1      43.771  33.189  31.192  1.00  0.00     0.058 A 
ATOM     68  C   UNL A   1      44.207  34.207  30.329  1.00  0.00     0.135 A 
ATOM     69  C   UNL A   1      43.431  33.548  32.506  1.00  0.00     0.135 A 
ATOM     70  F   UNL A   1      44.560  33.919  29.066  1.00  0.00    -0.206 F 
ATOM     71  C   UNL A   1      44.332  35.524  30.761  1.00  0.00     0.059 A 
ATOM     72  C   UNL A   1      43.521  34.864  32.952  1.00  0.00     0.059 A 
ATOM     73  F   UNL A   1      43.007  32.616  33.374  1.00  0.00    -0.206 F 
ATOM     74  C   UNL A   1      43.987  35.843  32.075  1.00  0.00     0.060 A 
BRANCH  74  75
ATOM     75  S   UNL A   1      44.152  37.557  32.619  1.00  0.00     0.124 S 
ATOM     76  O   UNL A   1      45.521  37.570  33.126  1.00  0.00    -0.237 OA
ATOM     77  O   UNL A   1      43.928  38.299  31.382  1.00  0.00    -0.237 OA
ATOM     78  O   UNL A   1      43.107  37.695  33.629  1.00  0.00    -0.744 OA
ENDBRANCH  74  75
ENDBRANCH  53  67
BRANCH  54  79
ATOM     79  C   UNL A   1      42.481  23.884  27.755  1.00  0.00     0.058 A 
ATOM     80  C   UNL A   1      42.397  22.776  28.613  1.00  0.00     0.135 A 
ATOM     81  C   UNL A   1      42.374  23.651  26.375  1.00  0.00     0.135 A 
ATOM     82  F   UNL A   1      42.499  22.947  29.940  1.00  0.00    -0.206 F 
ATOM     83  C   UNL A   1      42.230  21.485  28.123  1.00  0.00     0.059 A 
ATOM     84  C   UNL A   1      42.180  22.372  25.862  1.00  0.00     0.059 A 
ATOM     85  F   UNL A   1      42.430  24.678  25.514  1.00  0.00    -0.206 F 
ATOM     86  C   UNL A   1      42.121  21.293  26.744  1.00  0.00     0.060 A 
BRANCH  86  87
ATOM     87  S   UNL A   1      41.859  19.619  26.120  1.00  0.00     0.124 S 
ATOM     88  O   UNL A   1      40.439  19.648  25.788  1.00  0.00    -0.237 OA
ATOM     89  O   UNL A   1      42.780  19.565  24.989  1.00  0.00    -0.237 OA
ATOM     90  O   UNL A   1      42.224  18.777  27.256  1.00  0.00    -0.744 OA
ENDBRANCH  86  87
ENDBRANCH  54  79
BRANCH  66  91
ATOM     91  C   UNL A   1      47.914  27.325  30.461  1.00  0.00     0.058 A 
ATOM     92  C   UNL A   1      48.965  27.657  29.594  1.00  0.00     0.135 A 
ATOM     93  C   UNL A   1      48.230  26.641  31.645  1.00  0.00     0.135 A 
ATOM     94  F   UNL A   1      48.716  28.305  28.444  1.00  0.00    -0.206 F 
ATOM     95  C   UNL A   1      50.281  27.305  29.880  1.00  0.00     0.059 A 
ATOM     96  C   UNL A   1      49.542  26.301  31.965  1.00  0.00     0.059 A 
ATOM     97  F   UNL A   1      47.263  26.308  32.514  1.00  0.00    -0.206 F 
ATOM     98  C   UNL A   1      50.559  26.628  31.069  1.00  0.00     0.060 A 
BRANCH  98  99
ATOM     99  S   UNL A   1      52.273  26.206  31.445  1.00  0.00     0.124 S 
ATOM    100  O   UNL A   1      52.810  25.944  30.113  1.00  0.00    -0.237 OA
ATOM    101  O   UNL A   1      52.759  27.418  32.098  1.00  0.00    -0.237 OA
ATOM    102  O   UNL A   1      52.153  25.039  32.314  1.00  0.00    -0.744 OA
ENDBRANCH  98  99
ENDBRANCH  66  91
ENDBRANCH  40  41
ENDBRANCH  32  35
ENDBRANCH  30  31
ENDBRANCH  29  30
ENDBRANCH   1  29
TORSDOF 18
ENDMDL
MODEL 2
REMARK VINA RESULT:     -11.2      4.577      9.865
REMARK SMILES COc1ccc(CNC(=O)[C@H]2CC(C)=C(C)C[C@@H]2C(=O)NCCCNC(=O)c2ccc(-c3c4nc(c(-c5c(F)cc(S(=O)(=O)[O-])cc5F)c5ccc([nH]5)c(-c5c(F)cc(S(=O)(=O)[O-])cc5F)c5nc(c(-c6c(F)cc(S(=O)(=O)[O-])cc6F)c6ccc3[nH]6)C=C5)C=C4)cc2)cc1OC
REMARK SMILES IDX 22 1 21 2 19 3 20 4 18 6 11 7 12 8 13 9 17 10 14 11 15 12
REMARK SMILES IDX 16 13 9 14 8 15 10 17 7 18 6 19 3 20 4 21 95 22 5 23 94 24
REMARK SMILES IDX 2 25 1 26 96 27 97 28 23 29 24 30 25 31 26 32 27 34 28 35
REMARK SMILES IDX 29 36 93 37 30 38 92 39 31 40 32 41 33 42 86 43 34 44 91 45
REMARK SMILES IDX 85 46 87 47 35 48 90 49 84 50 83 51 36 53 70 54 49 55 69 56
REMARK SMILES IDX 50 57 53 58 68 59 88 60 51 61 52 62 67 64 89 65 54 66 37 67
REMARK SMILES IDX 38 68 47 69 39 70 40 71 46 72 48 73 41 74 42 75 43 76 44 77
REMARK SMILES IDX 45 78 71 79 72 80 81 81 73 82 74 83 80 84 82 85 75 86 76 87
REMARK SMILES IDX 77 88 78 89 79 90 55 91 56 92 65 93 57 94 58 95 64 96 66 97
REMARK SMILES IDX 59 98 60 99 61 100 62 101 63 102
REMARK H PARENT 21 5 8 16 25 33 87 52 53 63
REMARK Flexibility Score: inf
ROOT
ATOM      1  C   UNL A   1      37.729  22.630  25.943  1.00  0.00     0.117 C 
ENDROOT
BRANCH   1   2
ATOM      2  N   UNL A   1      37.608  22.638  24.493  1.00  0.00    -0.356 N 
ATOM      3  C   UNL A   1      36.555  22.985  23.691  1.00  0.00     0.224 C 
ATOM      4  O   UNL A   1      36.712  22.883  22.474  1.00  0.00    -0.275 OA
ATOM      5  H   UNL A   1      38.414  22.344  24.010  1.00  0.00     0.163 HD
BRANCH   3   6
ATOM      6  C   UNL A   1      35.244  23.477  24.319  1.00  0.00     0.095 C 
ATOM      7  C   UNL A   1      34.429  22.283  24.834  1.00  0.00     0.095 C 
ATOM      8  C   UNL A   1      33.365  21.726  23.895  1.00  0.00     0.045 C 
ATOM      9  C   UNL A   1      32.735  22.678  22.917  1.00  0.00    -0.074 C 
ATOM     10  C   UNL A   1      34.492  24.416  23.357  1.00  0.00     0.045 C 
ATOM     11  C   UNL A   1      31.453  22.154  22.317  1.00  0.00     0.039 C 
ATOM     12  C   UNL A   1      33.265  23.889  22.651  1.00  0.00    -0.074 C 
ATOM     13  C   UNL A   1      32.662  24.841  21.649  1.00  0.00     0.039 C 
BRANCH   7  14
ATOM     14  C   UNL A   1      34.042  22.455  26.303  1.00  0.00     0.224 C 
ATOM     15  N   UNL A   1      32.998  23.176  26.756  1.00  0.00    -0.352 N 
ATOM     16  H   UNL A   1      33.021  23.333  27.728  1.00  0.00     0.163 HD
ATOM     17  O   UNL A   1      34.764  21.967  27.180  1.00  0.00    -0.275 OA
BRANCH  15  18
ATOM     18  C   UNL A   1      31.855  23.760  26.103  1.00  0.00     0.151 C 
BRANCH  18  19
ATOM     19  C   UNL A   1      32.074  25.223  25.798  1.00  0.00    -0.025 A 
ATOM     20  C   UNL A   1      32.370  27.973  25.254  1.00  0.00     0.160 A 
ATOM     21  C   UNL A   1      33.315  27.300  26.035  1.00  0.00     0.051 A 
ATOM     22  C   UNL A   1      31.288  27.275  24.706  1.00  0.00     0.161 A 
ATOM     23  C   UNL A   1      33.167  25.939  26.303  1.00  0.00     0.009 A 
ATOM     24  C   UNL A   1      31.142  25.911  25.006  1.00  0.00     0.056 A 
BRANCH  20  25
ATOM     25  O   UNL A   1      32.587  29.298  24.992  1.00  0.00    -0.493 OA
ATOM     26  C   UNL A   1      33.001  29.996  26.165  1.00  0.00     0.278 C 
ENDBRANCH  20  25
BRANCH  22  27
ATOM     27  O   UNL A   1      30.296  27.741  23.887  1.00  0.00    -0.493 OA
ATOM     28  C   UNL A   1      30.555  27.825  22.494  1.00  0.00     0.278 C 
ENDBRANCH  22  27
ENDBRANCH  18  19
ENDBRANCH  15  18
ENDBRANCH   7  14
ENDBRANCH   3   6
ENDBRANCH   1   2
BRANCH   1  29
ATOM     29  C   UNL A   1      38.544  23.811  26.467  1.00  0.00     0.042 C 
BRANCH  29  30
ATOM     30  C   UNL A   1      39.862  23.417  27.117  1.00  0.00     0.118 C 
BRANCH  30  31
ATOM     31  N   UNL A   1      41.008  23.817  26.313  1.00  0.00    -0.352 N 
ATOM     32  C   UNL A   1      41.709  24.995  26.318  1.00  0.00     0.251 C 
ATOM     33  H   UNL A   1      41.326  23.141  25.673  1.00  0.00     0.163 HD
ATOM     34  O   UNL A   1      42.501  25.224  25.402  1.00  0.00    -0.269 OA
BRANCH  32  35
ATOM     35  C   UNL A   1      41.520  25.988  27.398  1.00  0.00     0.039 A 
ATOM     36  C   UNL A   1      40.555  25.743  28.379  1.00  0.00     0.014 A 
ATOM     37  C   UNL A   1      42.252  27.179  27.427  1.00  0.00     0.014 A 
ATOM     38  C   UNL A   1      40.354  26.668  29.407  1.00  0.00     0.010 A 
ATOM     39  C   UNL A   1      42.104  28.065  28.493  1.00  0.00     0.010 A 
ATOM     40  C   UNL A   1      41.145  27.825  29.488  1.00  0.00    -0.014 A 
BRANCH  40  41
ATOM     41  C   UNL A   1      40.971  28.802  30.594  1.00  0.00     0.031 A 
ATOM     42  C   UNL A   1      41.838  28.716  31.822  1.00  0.00     0.074 A 
ATOM     43  C   UNL A   1      39.998  29.730  30.516  1.00  0.00     0.049 A 
ATOM     44  N   UNL A   1      41.796  29.434  32.915  1.00  0.00    -0.248 NA
ATOM     45  C   UNL A   1      42.871  27.667  31.834  1.00  0.00     0.031 C 
ATOM     46  C   UNL A   1      39.063  29.884  29.398  1.00  0.00     0.029 A 
ATOM     47  N   UNL A   1      39.624  30.713  31.397  1.00  0.00    -0.354 N 
ATOM     48  C   UNL A   1      42.782  28.917  33.748  1.00  0.00     0.074 A 
ATOM     49  C   UNL A   1      43.372  27.792  33.055  1.00  0.00     0.031 C 
ATOM     50  C   UNL A   1      38.239  30.913  29.652  1.00  0.00     0.029 A 
ATOM     51  C   UNL A   1      38.559  31.469  30.963  1.00  0.00     0.049 A 
ATOM     52  H   UNL A   1      40.074  30.864  32.259  1.00  0.00     0.167 HD
ATOM     53  C   UNL A   1      43.175  29.354  34.969  1.00  0.00     0.037 A 
ATOM     54  C   UNL A   1      37.910  32.488  31.557  1.00  0.00     0.037 A 
ATOM     55  C   UNL A   1      42.602  30.491  35.640  1.00  0.00     0.049 A 
ATOM     56  C   UNL A   1      38.368  32.960  32.911  1.00  0.00     0.074 A 
ATOM     57  C   UNL A   1      42.968  31.051  36.852  1.00  0.00     0.029 A 
ATOM     58  N   UNL A   1      41.541  31.245  35.157  1.00  0.00    -0.354 N 
ATOM     59  N   UNL A   1      39.342  32.496  33.658  1.00  0.00    -0.248 NA
ATOM     60  C   UNL A   1      37.645  34.094  33.500  1.00  0.00     0.031 C 
ATOM     61  C   UNL A   1      42.103  32.116  37.122  1.00  0.00     0.029 A 
ATOM     62  C   UNL A   1      41.228  32.251  36.056  1.00  0.00     0.049 A 
ATOM     63  H   UNL A   1      41.080  31.087  34.302  1.00  0.00     0.167 HD
ATOM     64  C   UNL A   1      39.366  33.300  34.792  1.00  0.00     0.074 A 
ATOM     65  C   UNL A   1      38.317  34.286  34.627  1.00  0.00     0.031 C 
ATOM     66  C   UNL A   1      40.184  33.229  35.872  1.00  0.00     0.037 A 
BRANCH  53  67
ATOM     67  C   UNL A   1      44.283  28.601  35.656  1.00  0.00     0.058 A 
ATOM     68  C   UNL A   1      45.634  28.916  35.438  1.00  0.00     0.135 A 
ATOM     69  C   UNL A   1      43.991  27.575  36.569  1.00  0.00     0.135 A 
ATOM     70  F   UNL A   1      45.972  29.877  34.564  1.00  0.00    -0.206 F 
ATOM     71  C   UNL A   1      46.656  28.220  36.076  1.00  0.00     0.059 A 
ATOM     72  C   UNL A   1      44.997  26.886  37.241  1.00  0.00     0.059 A 
ATOM     73  F   UNL A   1      42.717  27.233  36.818  1.00  0.00    -0.206 F 
ATOM     74  C   UNL A   1      46.328  27.205  36.975  1.00  0.00     0.060 A 
BRANCH  74  75
ATOM     75  S   UNL A   1      47.666  26.315  37.798  1.00  0.00     0.124 S 
ATOM     76  O   UNL A   1      47.249  24.928  37.610  1.00  0.00    -0.237 OA
ATOM     77  O   UNL A   1      48.836  26.733  37.033  1.00  0.00    -0.237 OA
ATOM     78  O   UNL A   1      47.609  26.806  39.171  1.00  0.00    -0.744 OA
ENDBRANCH  74  75
ENDBRANCH  53  67
BRANCH  54  79
ATOM     79  C   UNL A   1      36.770  33.146  30.864  1.00  0.00     0.058 A 
ATOM     80  C   UNL A   1      35.446  32.886  31.248  1.00  0.00     0.135 A 
ATOM     81  C   UNL A   1      36.980  34.059  29.818  1.00  0.00     0.135 A 
ATOM     82  F   UNL A   1      35.194  32.017  32.239  1.00  0.00    -0.206 F 
ATOM     83  C   UNL A   1      34.369  33.493  30.610  1.00  0.00     0.059 A 
ATOM     84  C   UNL A   1      35.921  34.699  29.183  1.00  0.00     0.059 A 
ATOM     85  F   UNL A   1      38.228  34.355  29.425  1.00  0.00    -0.206 F 
ATOM     86  C   UNL A   1      34.617  34.401  29.578  1.00  0.00     0.060 A 
BRANCH  86  87
ATOM     87  S   UNL A   1      33.215  35.218  28.787  1.00  0.00     0.124 S 
ATOM     88  O   UNL A   1      32.458  35.687  29.943  1.00  0.00    -0.237 OA
ATOM     89  O   UNL A   1      33.871  36.250  27.990  1.00  0.00    -0.237 OA
ATOM     90  O   UNL A   1      32.591  34.145  28.018  1.00  0.00    -0.744 OA
ENDBRANCH  86  87
ENDBRANCH  54  79
BRANCH  66  91
ATOM     91  C   UNL A   1      40.001  34.265  36.947  1.00  0.00     0.058 A 
ATOM     92  C   UNL A   1      40.668  35.498  36.904  1.00  0.00     0.135 A 
ATOM     93  C   UNL A   1      39.108  34.037  38.006  1.00  0.00     0.135 A 
ATOM     94  F   UNL A   1      41.538  35.763  35.916  1.00  0.00    -0.206 F 
ATOM     95  C   UNL A   1      40.474  36.464  37.887  1.00  0.00     0.059 A 
ATOM     96  C   UNL A   1      38.878  34.999  38.986  1.00  0.00     0.059 A 
ATOM     97  F   UNL A   1      38.437  32.878  38.089  1.00  0.00    -0.206 F 
ATOM     98  C   UNL A   1      39.574  36.205  38.924  1.00  0.00     0.060 A 
BRANCH  98  99
ATOM     99  S   UNL A   1      39.306  37.477  40.175  1.00  0.00     0.124 S 
ATOM    100  O   UNL A   1      40.616  38.119  40.228  1.00  0.00    -0.237 OA
ATOM    101  O   UNL A   1      38.233  38.273  39.587  1.00  0.00    -0.237 OA
ATOM    102  O   UNL A   1      38.931  36.714  41.362  1.00  0.00    -0.744 OA
ENDBRANCH  98  99
ENDBRANCH  66  91
ENDBRANCH  40  41
ENDBRANCH  32  35
ENDBRANCH  30  31
ENDBRANCH  29  30
ENDBRANCH   1  29
TORSDOF 18
ENDMDL
MODEL 3
REMARK VINA RESULT:     -11.1      2.787      9.114
REMARK SMILES COc1ccc(CNC(=O)[C@H]2CC(C)=C(C)C[C@@H]2C(=O)NCCCNC(=O)c2ccc(-c3c4nc(c(-c5c(F)cc(S(=O)(=O)[O-])cc5F)c5ccc([nH]5)c(-c5c(F)cc(S(=O)(=O)[O-])cc5F)c5nc(c(-c6c(F)cc(S(=O)(=O)[O-])cc6F)c6ccc3[nH]6)C=C5)C=C4)cc2)cc1OC
REMARK SMILES IDX 22 1 21 2 19 3 20 4 18 6 11 7 12 8 13 9 17 10 14 11 15 12
REMARK SMILES IDX 16 13 9 14 8 15 10 17 7 18 6 19 3 20 4 21 95 22 5 23 94 24
REMARK SMILES IDX 2 25 1 26 96 27 97 28 23 29 24 30 25 31 26 32 27 34 28 35
REMARK SMILES IDX 29 36 93 37 30 38 92 39 31 40 32 41 33 42 86 43 34 44 91 45
REMARK SMILES IDX 85 46 87 47 35 48 90 49 84 50 83 51 36 53 70 54 49 55 69 56
REMARK SMILES IDX 50 57 53 58 68 59 88 60 51 61 52 62 67 64 89 65 54 66 37 67
REMARK SMILES IDX 38 68 47 69 39 70 40 71 46 72 48 73 41 74 42 75 43 76 44 77
REMARK SMILES IDX 45 78 71 79 72 80 81 81 73 82 74 83 80 84 82 85 75 86 76 87
REMARK SMILES IDX 77 88 78 89 79 90 55 91 56 92 65 93 57 94 58 95 64 96 66 97
REMARK SMILES IDX 59 98 60 99 61 100 62 101 63 102
REMARK H PARENT 21 5 8 16 25 33 87 52 53 63
REMARK Flexibility Score: inf
ROOT
ATOM      1  C   UNL A   1      34.537  24.236  23.760  1.00  0.00     0.117 C 
ENDROOT
BRANCH   1   2
ATOM      2  N   UNL A   1      34.297  25.521  23.120  1.00  0.00    -0.356 N 
ATOM      3  C   UNL A   1      33.651  26.636  23.579  1.00  0.00     0.224 C 
ATOM      4  O   UNL A   1      33.573  27.600  22.817  1.00  0.00    -0.275 OA
ATOM      5  H   UNL A   1      34.658  25.601  22.207  1.00  0.00     0.163 HD
BRANCH   3   6
ATOM      6  C   UNL A   1      33.058  26.649  24.994  1.00  0.00     0.095 C 
ATOM      7  C   UNL A   1      31.596  27.114  24.945  1.00  0.00     0.095 C 
ATOM      8  C   UNL A   1      31.341  28.596  25.199  1.00  0.00     0.045 C 
ATOM      9  C   UNL A   1      32.315  29.326  26.082  1.00  0.00    -0.074 C 
ATOM     10  C   UNL A   1      33.962  27.436  25.962  1.00  0.00     0.045 C 
ATOM     11  C   UNL A   1      31.786  30.647  26.586  1.00  0.00     0.039 C 
ATOM     12  C   UNL A   1      33.518  28.811  26.403  1.00  0.00    -0.074 C 
ATOM     13  C   UNL A   1      34.518  29.545  27.261  1.00  0.00     0.039 C 
BRANCH   7  14
ATOM     14  C   UNL A   1      30.663  26.118  25.633  1.00  0.00     0.224 C 
ATOM     15  N   UNL A   1      30.141  25.015  25.063  1.00  0.00    -0.352 N 
ATOM     16  H   UNL A   1      29.414  24.606  25.587  1.00  0.00     0.163 HD
ATOM     17  O   UNL A   1      30.274  26.348  26.784  1.00  0.00    -0.275 OA
BRANCH  15  18
ATOM     18  C   UNL A   1      30.435  24.312  23.840  1.00  0.00     0.151 C 
BRANCH  18  19
ATOM     19  C   UNL A   1      31.294  23.096  24.087  1.00  0.00    -0.025 A 
ATOM     20  C   UNL A   1      32.831  20.799  24.641  1.00  0.00     0.160 A 
ATOM     21  C   UNL A   1      32.414  21.073  23.336  1.00  0.00     0.051 A 
ATOM     22  C   UNL A   1      32.518  21.684  25.678  1.00  0.00     0.161 A 
ATOM     23  C   UNL A   1      31.654  22.210  23.063  1.00  0.00     0.009 A 
ATOM     24  C   UNL A   1      31.732  22.811  25.389  1.00  0.00     0.056 A 
BRANCH  20  25
ATOM     25  O   UNL A   1      33.606  19.689  24.843  1.00  0.00    -0.493 OA
ATOM     26  C   UNL A   1      32.811  18.559  25.197  1.00  0.00     0.278 C 
ENDBRANCH  20  25
BRANCH  22  27
ATOM     27  O   UNL A   1      32.872  21.615  26.999  1.00  0.00    -0.493 OA
ATOM     28  C   UNL A   1      34.029  22.318  27.424  1.00  0.00     0.278 C 
ENDBRANCH  22  27
ENDBRANCH  18  19
ENDBRANCH  15  18
ENDBRANCH   7  14
ENDBRANCH   3   6
ENDBRANCH   1   2
BRANCH   1  29
ATOM     29  C   UNL A   1      36.014  23.848  23.754  1.00  0.00     0.042 C 
BRANCH  29  30
ATOM     30  C   UNL A   1      36.680  23.915  25.121  1.00  0.00     0.118 C 
BRANCH  30  31
ATOM     31  N   UNL A   1      37.635  22.835  25.316  1.00  0.00    -0.352 N 
ATOM     32  C   UNL A   1      38.872  22.859  25.908  1.00  0.00     0.251 C 
ATOM     33  H   UNL A   1      37.351  21.957  24.974  1.00  0.00     0.163 HD
ATOM     34  O   UNL A   1      39.621  21.891  25.769  1.00  0.00    -0.269 OA
BRANCH  32  35
ATOM     35  C   UNL A   1      39.315  24.029  26.697  1.00  0.00     0.039 A 
ATOM     36  C   UNL A   1      40.177  24.956  26.103  1.00  0.00     0.014 A 
ATOM     37  C   UNL A   1      38.927  24.197  28.030  1.00  0.00     0.014 A 
ATOM     38  C   UNL A   1      40.613  26.068  26.829  1.00  0.00     0.010 A 
ATOM     39  C   UNL A   1      39.302  25.344  28.728  1.00  0.00     0.010 A 
ATOM     40  C   UNL A   1      40.159  26.285  28.140  1.00  0.00    -0.014 A 
BRANCH  40  41
ATOM     41  C   UNL A   1      40.584  27.480  28.914  1.00  0.00     0.031 A 
ATOM     42  C   UNL A   1      41.914  27.491  29.620  1.00  0.00     0.074 A 
ATOM     43  C   UNL A   1      39.751  28.532  29.026  1.00  0.00     0.049 A 
ATOM     44  N   UNL A   1      42.433  28.410  30.393  1.00  0.00    -0.248 NA
ATOM     45  C   UNL A   1      42.762  26.298  29.457  1.00  0.00     0.031 C 
ATOM     46  C   UNL A   1      38.417  28.622  28.426  1.00  0.00     0.029 A 
ATOM     47  N   UNL A   1      39.894  29.724  29.690  1.00  0.00    -0.354 N 
ATOM     48  C   UNL A   1      43.655  27.903  30.819  1.00  0.00     0.074 A 
ATOM     49  C   UNL A   1      43.779  26.575  30.261  1.00  0.00     0.031 C 
ATOM     50  C   UNL A   1      37.876  29.811  28.733  1.00  0.00     0.029 A 
ATOM     51  C   UNL A   1      38.803  30.554  29.579  1.00  0.00     0.049 A 
ATOM     52  H   UNL A   1      40.703  29.963  30.199  1.00  0.00     0.167 HD
ATOM     53  C   UNL A   1      44.598  28.501  31.588  1.00  0.00     0.037 A 
ATOM     54  C   UNL A   1      38.574  31.772  30.106  1.00  0.00     0.037 A 
ATOM     55  C   UNL A   1      44.479  29.833  32.117  1.00  0.00     0.049 A 
ATOM     56  C   UNL A   1      39.639  32.418  30.952  1.00  0.00     0.074 A 
ATOM     57  C   UNL A   1      45.402  30.552  32.859  1.00  0.00     0.029 A 
ATOM     58  N   UNL A   1      43.369  30.652  31.964  1.00  0.00    -0.354 N 
ATOM     59  N   UNL A   1      40.814  31.948  31.296  1.00  0.00    -0.248 NA
ATOM     60  C   UNL A   1      39.349  33.759  31.476  1.00  0.00     0.031 C 
ATOM     61  C   UNL A   1      44.834  31.787  33.187  1.00  0.00     0.029 A 
ATOM     62  C   UNL A   1      43.576  31.859  32.611  1.00  0.00     0.049 A 
ATOM     63  H   UNL A   1      42.554  30.410  31.467  1.00  0.00     0.167 HD
ATOM     64  C   UNL A   1      41.415  32.947  32.054  1.00  0.00     0.074 A 
ATOM     65  C   UNL A   1      40.478  34.050  32.107  1.00  0.00     0.031 C 
ATOM     66  C   UNL A   1      42.634  32.950  32.649  1.00  0.00     0.037 A 
BRANCH  53  67
ATOM     67  C   UNL A   1      45.845  27.716  31.897  1.00  0.00     0.058 A 
ATOM     68  C   UNL A   1      46.978  27.777  31.071  1.00  0.00     0.135 A 
ATOM     69  C   UNL A   1      45.921  26.921  33.052  1.00  0.00     0.135 A 
ATOM     70  F   UNL A   1      46.957  28.509  29.946  1.00  0.00    -0.206 F 
ATOM     71  C   UNL A   1      48.131  27.053  31.360  1.00  0.00     0.059 A 
ATOM     72  C   UNL A   1      47.074  26.211  33.377  1.00  0.00     0.059 A 
ATOM     73  F   UNL A   1      44.868  26.827  33.880  1.00  0.00    -0.206 F 
ATOM     74  C   UNL A   1      48.169  26.271  32.516  1.00  0.00     0.060 A 
BRANCH  74  75
ATOM     75  S   UNL A   1      49.673  25.340  32.879  1.00  0.00     0.124 S 
ATOM     76  O   UNL A   1      49.158  24.284  33.746  1.00  0.00    -0.237 OA
ATOM     77  O   UNL A   1      50.105  24.915  31.552  1.00  0.00    -0.237 OA
ATOM     78  O   UNL A   1      50.532  26.323  33.531  1.00  0.00    -0.744 OA
ENDBRANCH  74  75
ENDBRANCH  53  67
BRANCH  54  79
ATOM     79  C   UNL A   1      37.290  32.470  29.830  1.00  0.00     0.058 A 
ATOM     80  C   UNL A   1      37.228  33.530  28.912  1.00  0.00     0.135 A 
ATOM     81  C   UNL A   1      36.098  32.083  30.462  1.00  0.00     0.135 A 
ATOM     82  F   UNL A   1      38.342  33.941  28.287  1.00  0.00    -0.206 F 
ATOM     83  C   UNL A   1      36.036  34.193  28.643  1.00  0.00     0.059 A 
ATOM     84  C   UNL A   1      34.888  32.713  30.189  1.00  0.00     0.059 A 
ATOM     85  F   UNL A   1      36.100  31.064  31.333  1.00  0.00    -0.206 F 
ATOM     86  C   UNL A   1      34.869  33.775  29.286  1.00  0.00     0.060 A 
BRANCH  86  87
ATOM     87  S   UNL A   1      33.317  34.612  28.895  1.00  0.00     0.124 S 
ATOM     88  O   UNL A   1      32.686  34.689  30.207  1.00  0.00    -0.237 OA
ATOM     89  O   UNL A   1      33.783  35.876  28.333  1.00  0.00    -0.237 OA
ATOM     90  O   UNL A   1      32.680  33.708  27.940  1.00  0.00    -0.744 OA
ENDBRANCH  86  87
ENDBRANCH  54  79
BRANCH  66  91
ATOM     91  C   UNL A   1      43.041  34.197  33.384  1.00  0.00     0.058 A 
ATOM     92  C   UNL A   1      42.911  34.308  34.777  1.00  0.00     0.135 A 
ATOM     93  C   UNL A   1      43.612  35.275  32.690  1.00  0.00     0.135 A 
ATOM     94  F   UNL A   1      42.364  33.308  35.487  1.00  0.00    -0.206 F 
ATOM     95  C   UNL A   1      43.315  35.455  35.455  1.00  0.00     0.059 A 
ATOM     96  C   UNL A   1      44.047  36.421  33.350  1.00  0.00     0.059 A 
ATOM     97  F   UNL A   1      43.768  35.217  31.358  1.00  0.00    -0.206 F 
ATOM     98  C   UNL A   1      43.884  36.505  34.732  1.00  0.00     0.060 A 
BRANCH  98  99
ATOM     99  S   UNL A   1      44.433  37.974  35.626  1.00  0.00     0.124 S 
ATOM    100  O   UNL A   1      44.095  39.036  34.685  1.00  0.00    -0.237 OA
ATOM    101  O   UNL A   1      43.624  37.921  36.841  1.00  0.00    -0.237 OA
ATOM    102  O   UNL A   1      45.861  37.738  35.822  1.00  0.00    -0.744 OA
ENDBRANCH  98  99
ENDBRANCH  66  91
ENDBRANCH  40  41
ENDBRANCH  32  35
ENDBRANCH  30  31
ENDBRANCH  29  30
ENDBRANCH   1  29
TORSDOF 18
ENDMDL
