MODEL 1
REMARK VINA RESULT:     -12.1      0.000      0.000
REMARK SMILES Cc1ccc(Cl)c(Nc2ccccc2C(=O)NCC(=O)NCCCNC(=O)c2ccc(-c3c4nc(c(-c5c(F)cc(S(=O)(=O)[O-])cc5F)c5ccc([nH]5)c(-c5c(F)cc(S(=O)(=O)[O-])cc5F)c5nc(c(-c6c(F)cc(S(=O)(=O)[O-])cc6F)c6ccc3[nH]6)C=C5)C=C4)cc2)c1Cl
REMARK SMILES IDX 22 1 21 2 19 3 20 4 18 6 17 7 15 8 16 9 14 11 9 12 10 13
REMARK SMILES IDX 11 14 13 15 12 16 8 17 7 19 1 20 2 21 3 22 94 23 4 24 95 25
REMARK SMILES IDX 5 26 6 27 23 28 24 29 25 30 26 31 27 33 28 34 29 35 93 36
REMARK SMILES IDX 30 37 92 38 31 39 32 40 33 41 86 42 34 43 91 44 85 45 87 46
REMARK SMILES IDX 35 47 90 48 84 49 83 50 36 52 70 53 49 54 69 55 50 56 53 57
REMARK SMILES IDX 68 58 88 59 51 60 52 61 67 63 89 64 54 65 37 66 38 67 47 68
REMARK SMILES IDX 39 69 40 70 46 71 48 72 41 73 42 74 43 75 44 76 45 77 71 78
REMARK SMILES IDX 72 79 81 80 73 81 74 82 80 83 82 84 75 85 76 86 77 87 78 88
REMARK SMILES IDX 79 89 55 90 56 91 65 92 57 93 58 94 64 95 66 96 59 97 60 98
REMARK SMILES IDX 61 99 62 100 63 101
REMARK H PARENT 21 5 17 10 8 18 25 32 87 51 53 62
REMARK Flexibility Score: inf
ROOT
ATOM      1  C   UNL A   1      31.492  31.033  26.728  1.00  0.00     0.117 C 
ENDROOT
BRANCH   1   2
ATOM      2  N   UNL A   1      32.535  30.329  26.020  1.00  0.00    -0.355 N 
ATOM      3  C   UNL A   1      33.080  29.124  26.350  1.00  0.00     0.239 C 
ATOM      4  O   UNL A   1      34.049  28.723  25.704  1.00  0.00    -0.273 OA
ATOM      5  H   UNL A   1      32.891  30.765  25.213  1.00  0.00     0.163 HD
BRANCH   3   6
ATOM      6  C   UNL A   1      32.310  28.197  27.286  1.00  0.00     0.216 C 
BRANCH   6   7
ATOM      7  N   UNL A   1      31.328  27.222  26.870  1.00  0.00    -0.343 N 
ATOM      8  C   UNL A   1      31.481  25.938  26.391  1.00  0.00     0.253 C 
ATOM      9  O   UNL A   1      30.580  25.153  26.706  1.00  0.00    -0.269 OA
ATOM     10  H   UNL A   1      30.394  27.524  26.940  1.00  0.00     0.164 HD
BRANCH   8  11
ATOM     11  C   UNL A   1      32.479  25.484  25.355  1.00  0.00     0.063 A 
ATOM     12  C   UNL A   1      32.427  25.464  23.940  1.00  0.00     0.051 A 
ATOM     13  C   UNL A   1      33.509  24.864  23.241  1.00  0.00     0.027 A 
ATOM     14  C   UNL A   1      34.643  24.371  23.884  1.00  0.00     0.002 A 
ATOM     15  C   UNL A   1      33.655  24.982  25.979  1.00  0.00     0.016 A 
ATOM     16  C   UNL A   1      34.727  24.451  25.260  1.00  0.00     0.001 A 
BRANCH  12  17
ATOM     17  N   UNL A   1      31.495  26.088  23.083  1.00  0.00    -0.352 N 
ATOM     18  H   UNL A   1      31.250  25.537  22.304  1.00  0.00     0.167 HD
BRANCH  17  19
ATOM     19  C   UNL A   1      30.837  27.344  23.109  1.00  0.00     0.077 A 
ATOM     20  C   UNL A   1      27.297  28.789  23.043  1.00  0.00     0.046 C 
ATOM     21  C   UNL A   1      28.794  28.678  22.956  1.00  0.00    -0.030 A 
ATOM     22  C   UNL A   1      29.533  29.742  22.416  1.00  0.00     0.006 A 
ATOM     23  C   UNL A   1      29.460  27.499  23.345  1.00  0.00     0.069 A 
ATOM     24  C   UNL A   1      30.918  29.659  22.307  1.00  0.00     0.023 A 
ATOM     25  Cl  UNL A   1      28.573  26.285  24.219  1.00  0.00    -0.082 Cl
ATOM     26  C   UNL A   1      31.564  28.478  22.663  1.00  0.00     0.066 A 
ATOM     27  Cl  UNL A   1      33.278  28.383  22.400  1.00  0.00    -0.082 Cl
ENDBRANCH  17  19
ENDBRANCH  12  17
ENDBRANCH   8  11
ENDBRANCH   6   7
ENDBRANCH   3   6
ENDBRANCH   1   2
BRANCH   1  28
ATOM     28  C   UNL A   1      31.698  32.533  26.620  1.00  0.00     0.042 C 
BRANCH  28  29
ATOM     29  C   UNL A   1      32.739  33.028  27.610  1.00  0.00     0.118 C 
BRANCH  29  30
ATOM     30  N   UNL A   1      32.560  34.439  27.922  1.00  0.00    -0.352 N 
ATOM     31  C   UNL A   1      33.139  35.171  28.925  1.00  0.00     0.251 C 
ATOM     32  H   UNL A   1      31.942  34.932  27.334  1.00  0.00     0.163 HD
ATOM     33  O   UNL A   1      32.715  36.285  29.200  1.00  0.00    -0.269 OA
BRANCH  31  34
ATOM     34  C   UNL A   1      34.267  34.580  29.671  1.00  0.00     0.039 A 
ATOM     35  C   UNL A   1      34.025  34.005  30.918  1.00  0.00     0.014 A 
ATOM     36  C   UNL A   1      35.551  34.570  29.117  1.00  0.00     0.014 A 
ATOM     37  C   UNL A   1      35.072  33.381  31.595  1.00  0.00     0.010 A 
ATOM     38  C   UNL A   1      36.567  33.865  29.747  1.00  0.00     0.010 A 
ATOM     39  C   UNL A   1      36.342  33.281  31.001  1.00  0.00    -0.014 A 
BRANCH  39  40
ATOM     40  C   UNL A   1      37.457  32.591  31.692  1.00  0.00     0.031 A 
ATOM     41  C   UNL A   1      37.954  33.113  33.013  1.00  0.00     0.074 A 
ATOM     42  C   UNL A   1      38.047  31.532  31.107  1.00  0.00     0.049 A 
ATOM     43  N   UNL A   1      38.942  32.677  33.751  1.00  0.00    -0.248 NA
ATOM     44  C   UNL A   1      37.274  34.297  33.562  1.00  0.00     0.031 C 
ATOM     45  C   UNL A   1      37.684  30.976  29.799  1.00  0.00     0.029 A 
ATOM     46  N   UNL A   1      39.081  30.736  31.529  1.00  0.00    -0.354 N 
ATOM     47  C   UNL A   1      39.007  33.538  34.841  1.00  0.00     0.074 A 
ATOM     48  C   UNL A   1      38.005  34.559  34.635  1.00  0.00     0.031 C 
ATOM     49  C   UNL A   1      38.461  29.912  29.544  1.00  0.00     0.029 A 
ATOM     50  C   UNL A   1      39.403  29.734  30.644  1.00  0.00     0.049 A 
ATOM     51  H   UNL A   1      39.549  30.870  32.384  1.00  0.00     0.167 HD
ATOM     52  C   UNL A   1      39.811  33.467  35.928  1.00  0.00     0.037 A 
ATOM     53  C   UNL A   1      40.353  28.782  30.713  1.00  0.00     0.037 A 
ATOM     54  C   UNL A   1      40.788  32.431  36.131  1.00  0.00     0.049 A 
ATOM     55  C   UNL A   1      41.234  28.722  31.931  1.00  0.00     0.074 A 
ATOM     56  C   UNL A   1      41.614  32.231  37.223  1.00  0.00     0.029 A 
ATOM     57  N   UNL A   1      41.074  31.421  35.222  1.00  0.00    -0.354 N 
ATOM     58  N   UNL A   1      41.235  29.503  32.987  1.00  0.00    -0.248 NA
ATOM     59  C   UNL A   1      42.236  27.650  31.974  1.00  0.00     0.031 C 
ATOM     60  C   UNL A   1      42.434  31.130  36.952  1.00  0.00     0.029 A 
ATOM     61  C   UNL A   1      42.079  30.609  35.718  1.00  0.00     0.049 A 
ATOM     62  H   UNL A   1      40.626  31.301  34.353  1.00  0.00     0.167 HD
ATOM     63  C   UNL A   1      42.218  28.998  33.832  1.00  0.00     0.074 A 
ATOM     64  C   UNL A   1      42.779  27.838  33.170  1.00  0.00     0.031 C 
ATOM     65  C   UNL A   1      42.619  29.452  35.045  1.00  0.00     0.037 A 
BRANCH  52  66
ATOM     66  C   UNL A   1      39.663  34.534  36.978  1.00  0.00     0.058 A 
ATOM     67  C   UNL A   1      38.892  34.331  38.134  1.00  0.00     0.135 A 
ATOM     68  C   UNL A   1      40.324  35.766  36.844  1.00  0.00     0.135 A 
ATOM     69  F   UNL A   1      38.223  33.179  38.309  1.00  0.00    -0.206 F 
ATOM     70  C   UNL A   1      38.758  35.318  39.105  1.00  0.00     0.059 A 
ATOM     71  C   UNL A   1      40.229  36.757  37.817  1.00  0.00     0.059 A 
ATOM     72  F   UNL A   1      41.072  36.018  35.758  1.00  0.00    -0.206 F 
ATOM     73  C   UNL A   1      39.432  36.528  38.937  1.00  0.00     0.060 A 
BRANCH  73  74
ATOM     74  S   UNL A   1      39.255  37.795  40.211  1.00  0.00     0.124 S 
ATOM     75  O   UNL A   1      38.182  38.615  39.659  1.00  0.00    -0.237 OA
ATOM     76  O   UNL A   1      38.907  37.006  41.389  1.00  0.00    -0.237 OA
ATOM     77  O   UNL A   1      40.570  38.427  40.249  1.00  0.00    -0.744 OA
ENDBRANCH  73  74
ENDBRANCH  52  66
BRANCH  53  78
ATOM     78  C   UNL A   1      40.501  27.797  29.608  1.00  0.00     0.058 A 
ATOM     79  C   UNL A   1      39.641  26.693  29.505  1.00  0.00     0.135 A 
ATOM     80  C   UNL A   1      41.493  27.945  28.626  1.00  0.00     0.135 A 
ATOM     81  F   UNL A   1      38.679  26.504  30.420  1.00  0.00    -0.206 F 
ATOM     82  C   UNL A   1      39.771  25.760  28.481  1.00  0.00     0.059 A 
ATOM     83  C   UNL A   1      41.625  27.042  27.577  1.00  0.00     0.059 A 
ATOM     84  F   UNL A   1      42.328  28.994  28.669  1.00  0.00    -0.206 F 
ATOM     85  C   UNL A   1      40.767  25.944  27.520  1.00  0.00     0.060 A 
BRANCH  85  86
ATOM     86  S   UNL A   1      40.900  24.750  26.173  1.00  0.00     0.124 S 
ATOM     87  O   UNL A   1      41.277  25.607  25.056  1.00  0.00    -0.237 OA
ATOM     88  O   UNL A   1      41.937  23.848  26.666  1.00  0.00    -0.237 OA
ATOM     89  O   UNL A   1      39.560  24.173  26.102  1.00  0.00    -0.744 OA
ENDBRANCH  85  86
ENDBRANCH  53  78
BRANCH  65  90
ATOM     90  C   UNL A   1      43.691  28.673  35.755  1.00  0.00     0.058 A 
ATOM     91  C   UNL A   1      45.052  28.992  35.619  1.00  0.00     0.135 A 
ATOM     92  C   UNL A   1      43.347  27.625  36.625  1.00  0.00     0.135 A 
ATOM     93  F   UNL A   1      45.436  29.980  34.797  1.00  0.00    -0.206 F 
ATOM     94  C   UNL A   1      46.035  28.281  36.300  1.00  0.00     0.059 A 
ATOM     95  C   UNL A   1      44.311  26.922  37.340  1.00  0.00     0.059 A 
ATOM     96  F   UNL A   1      42.060  27.288  36.801  1.00  0.00    -0.206 F 
ATOM     97  C   UNL A   1      45.654  27.250  37.161  1.00  0.00     0.060 A 
BRANCH  97  98
ATOM     98  S   UNL A   1      46.938  26.357  38.062  1.00  0.00     0.124 S 
ATOM     99  O   UNL A   1      47.838  27.442  38.442  1.00  0.00    -0.237 OA
ATOM    100  O   UNL A   1      46.186  25.745  39.153  1.00  0.00    -0.237 OA
ATOM    101  O   UNL A   1      47.464  25.424  37.071  1.00  0.00    -0.744 OA
ENDBRANCH  97  98
ENDBRANCH  65  90
ENDBRANCH  39  40
ENDBRANCH  31  34
ENDBRANCH  29  30
ENDBRANCH  28  29
ENDBRANCH   1  28
TORSDOF 17
ENDMDL
MODEL 2
REMARK VINA RESULT:     -11.7      6.151      8.686
REMARK SMILES Cc1ccc(Cl)c(Nc2ccccc2C(=O)NCC(=O)NCCCNC(=O)c2ccc(-c3c4nc(c(-c5c(F)cc(S(=O)(=O)[O-])cc5F)c5ccc([nH]5)c(-c5c(F)cc(S(=O)(=O)[O-])cc5F)c5nc(c(-c6c(F)cc(S(=O)(=O)[O-])cc6F)c6ccc3[nH]6)C=C5)C=C4)cc2)c1Cl
REMARK SMILES IDX 22 1 21 2 19 3 20 4 18 6 17 7 15 8 16 9 14 11 9 12 10 13
REMARK SMILES IDX 11 14 13 15 12 16 8 17 7 19 1 20 2 21 3 22 94 23 4 24 95 25
REMARK SMILES IDX 5 26 6 27 23 28 24 29 25 30 26 31 27 33 28 34 29 35 93 36
REMARK SMILES IDX 30 37 92 38 31 39 32 40 33 41 86 42 34 43 91 44 85 45 87 46
REMARK SMILES IDX 35 47 90 48 84 49 83 50 36 52 70 53 49 54 69 55 50 56 53 57
REMARK SMILES IDX 68 58 88 59 51 60 52 61 67 63 89 64 54 65 37 66 38 67 47 68
REMARK SMILES IDX 39 69 40 70 46 71 48 72 41 73 42 74 43 75 44 76 45 77 71 78
REMARK SMILES IDX 72 79 81 80 73 81 74 82 80 83 82 84 75 85 76 86 77 87 78 88
REMARK SMILES IDX 79 89 55 90 56 91 65 92 57 93 58 94 64 95 66 96 59 97 60 98
REMARK SMILES IDX 61 99 62 100 63 101
REMARK H PARENT 21 5 17 10 8 18 25 32 87 51 53 62
REMARK Flexibility Score: inf
ROOT
ATOM      1  C   UNL A   1      35.177  31.665  27.629  1.00  0.00     0.117 C 
ENDROOT
BRANCH   1   2
ATOM      2  N   UNL A   1      33.737  31.565  27.585  1.00  0.00    -0.355 N 
ATOM      3  C   UNL A   1      33.001  30.634  26.915  1.00  0.00     0.239 C 
ATOM      4  O   UNL A   1      31.776  30.767  26.885  1.00  0.00    -0.273 OA
ATOM      5  H   UNL A   1      33.233  32.240  28.093  1.00  0.00     0.163 HD
BRANCH   3   6
ATOM      6  C   UNL A   1      33.669  29.330  26.490  1.00  0.00     0.216 C 
BRANCH   6   7
ATOM      7  N   UNL A   1      33.987  28.964  25.128  1.00  0.00    -0.343 N 
ATOM      8  C   UNL A   1      33.198  28.925  23.998  1.00  0.00     0.253 C 
ATOM      9  O   UNL A   1      33.781  29.201  22.944  1.00  0.00    -0.269 OA
ATOM     10  H   UNL A   1      34.924  28.698  24.982  1.00  0.00     0.164 HD
BRANCH   8  11
ATOM     11  C   UNL A   1      31.803  28.359  23.903  1.00  0.00     0.063 A 
ATOM     12  C   UNL A   1      31.314  27.034  24.003  1.00  0.00     0.051 A 
ATOM     13  C   UNL A   1      29.932  26.812  23.756  1.00  0.00     0.027 A 
ATOM     14  C   UNL A   1      29.035  27.848  23.499  1.00  0.00     0.002 A 
ATOM     15  C   UNL A   1      30.859  29.393  23.650  1.00  0.00     0.016 A 
ATOM     16  C   UNL A   1      29.497  29.149  23.468  1.00  0.00     0.001 A 
BRANCH  12  17
ATOM     17  N   UNL A   1      31.986  25.877  24.456  1.00  0.00    -0.352 N 
ATOM     18  H   UNL A   1      32.467  26.012  25.304  1.00  0.00     0.167 HD
BRANCH  17  19
ATOM     19  C   UNL A   1      32.112  24.562  23.942  1.00  0.00     0.077 A 
ATOM     20  C   UNL A   1      32.145  20.939  25.167  1.00  0.00     0.046 C 
ATOM     21  C   UNL A   1      32.324  22.152  24.297  1.00  0.00    -0.030 A 
ATOM     22  C   UNL A   1      33.080  22.049  23.119  1.00  0.00     0.006 A 
ATOM     23  C   UNL A   1      31.802  23.404  24.677  1.00  0.00     0.069 A 
ATOM     24  C   UNL A   1      33.277  23.160  22.304  1.00  0.00     0.023 A 
ATOM     25  Cl  UNL A   1      30.682  23.476  26.006  1.00  0.00    -0.082 Cl
ATOM     26  C   UNL A   1      32.786  24.399  22.704  1.00  0.00     0.066 A 
ATOM     27  Cl  UNL A   1      33.156  25.775  21.711  1.00  0.00    -0.082 Cl
ENDBRANCH  17  19
ENDBRANCH  12  17
ENDBRANCH   8  11
ENDBRANCH   6   7
ENDBRANCH   3   6
ENDBRANCH   1   2
BRANCH   1  28
ATOM     28  C   UNL A   1      35.598  32.962  28.298  1.00  0.00     0.042 C 
BRANCH  28  29
ATOM     29  C   UNL A   1      36.669  32.726  29.351  1.00  0.00     0.118 C 
BRANCH  29  30
ATOM     30  N   UNL A   1      36.168  31.933  30.463  1.00  0.00    -0.352 N 
ATOM     31  C   UNL A   1      36.620  30.721  30.918  1.00  0.00     0.251 C 
ATOM     32  H   UNL A   1      35.404  32.316  30.952  1.00  0.00     0.163 HD
ATOM     33  O   UNL A   1      35.952  30.073  31.713  1.00  0.00    -0.269 OA
BRANCH  31  34
ATOM     34  C   UNL A   1      37.912  30.216  30.418  1.00  0.00     0.039 A 
ATOM     35  C   UNL A   1      38.091  30.065  29.043  1.00  0.00     0.014 A 
ATOM     36  C   UNL A   1      38.949  29.923  31.309  1.00  0.00     0.014 A 
ATOM     37  C   UNL A   1      39.333  29.656  28.559  1.00  0.00     0.010 A 
ATOM     38  C   UNL A   1      40.209  29.611  30.821  1.00  0.00     0.010 A 
ATOM     39  C   UNL A   1      40.408  29.455  29.442  1.00  0.00    -0.014 A 
BRANCH  39  40
ATOM     40  C   UNL A   1      41.745  29.054  28.941  1.00  0.00     0.031 A 
ATOM     41  C   UNL A   1      42.845  30.076  28.848  1.00  0.00     0.074 A 
ATOM     42  C   UNL A   1      41.947  27.788  28.529  1.00  0.00     0.049 A 
ATOM     43  N   UNL A   1      44.065  29.934  28.399  1.00  0.00    -0.248 NA
ATOM     44  C   UNL A   1      42.525  31.444  29.287  1.00  0.00     0.031 C 
ATOM     45  C   UNL A   1      40.934  26.728  28.521  1.00  0.00     0.029 A 
ATOM     46  N   UNL A   1      43.068  27.178  28.030  1.00  0.00    -0.354 N 
ATOM     47  C   UNL A   1      44.650  31.192  28.491  1.00  0.00     0.074 A 
ATOM     48  C   UNL A   1      43.633  32.098  28.975  1.00  0.00     0.031 C 
ATOM     49  C   UNL A   1      41.490  25.593  28.072  1.00  0.00     0.029 A 
ATOM     50  C   UNL A   1      42.883  25.851  27.721  1.00  0.00     0.049 A 
ATOM     51  H   UNL A   1      43.925  27.645  27.904  1.00  0.00     0.167 HD
ATOM     52  C   UNL A   1      45.927  31.552  28.222  1.00  0.00     0.037 A 
ATOM     53  C   UNL A   1      43.740  24.947  27.209  1.00  0.00     0.037 A 
ATOM     54  C   UNL A   1      46.935  30.634  27.764  1.00  0.00     0.049 A 
ATOM     55  C   UNL A   1      45.155  25.370  26.919  1.00  0.00     0.074 A 
ATOM     56  C   UNL A   1      48.274  30.881  27.517  1.00  0.00     0.029 A 
ATOM     57  N   UNL A   1      46.716  29.293  27.479  1.00  0.00    -0.354 N 
ATOM     58  N   UNL A   1      45.712  26.549  27.079  1.00  0.00    -0.248 NA
ATOM     59  C   UNL A   1      46.060  24.343  26.389  1.00  0.00     0.031 C 
ATOM     60  C   UNL A   1      48.852  29.701  27.036  1.00  0.00     0.029 A 
ATOM     61  C   UNL A   1      47.888  28.705  27.038  1.00  0.00     0.049 A 
ATOM     62  H   UNL A   1      45.853  28.829  27.578  1.00  0.00     0.167 HD
ATOM     63  C   UNL A   1      47.040  26.396  26.695  1.00  0.00     0.074 A 
ATOM     64  C   UNL A   1      47.204  25.009  26.311  1.00  0.00     0.031 C 
ATOM     65  C   UNL A   1      48.033  27.318  26.666  1.00  0.00     0.037 A 
BRANCH  52  66
ATOM     66  C   UNL A   1      46.303  32.995  28.423  1.00  0.00     0.058 A 
ATOM     67  C   UNL A   1      46.196  33.938  27.388  1.00  0.00     0.135 A 
ATOM     68  C   UNL A   1      46.748  33.449  29.676  1.00  0.00     0.135 A 
ATOM     69  F   UNL A   1      45.793  33.557  26.164  1.00  0.00    -0.206 F 
ATOM     70  C   UNL A   1      46.544  35.271  27.577  1.00  0.00     0.059 A 
ATOM     71  C   UNL A   1      47.071  34.786  29.896  1.00  0.00     0.059 A 
ATOM     72  F   UNL A   1      46.873  32.593  30.701  1.00  0.00    -0.206 F 
ATOM     73  C   UNL A   1      46.979  35.686  28.836  1.00  0.00     0.060 A 
BRANCH  73  74
ATOM     74  S   UNL A   1      47.415  37.422  29.067  1.00  0.00     0.124 S 
ATOM     75  O   UNL A   1      48.834  37.413  28.724  1.00  0.00    -0.237 OA
ATOM     76  O   UNL A   1      46.537  38.093  28.113  1.00  0.00    -0.237 OA
ATOM     77  O   UNL A   1      47.112  37.667  30.473  1.00  0.00    -0.744 OA
ENDBRANCH  73  74
ENDBRANCH  52  66
BRANCH  53  78
ATOM     78  C   UNL A   1      43.290  23.550  26.963  1.00  0.00     0.058 A 
ATOM     79  C   UNL A   1      43.031  23.093  25.662  1.00  0.00     0.135 A 
ATOM     80  C   UNL A   1      43.124  22.641  28.020  1.00  0.00     0.135 A 
ATOM     81  F   UNL A   1      43.170  23.925  24.619  1.00  0.00    -0.206 F 
ATOM     82  C   UNL A   1      42.603  21.792  25.418  1.00  0.00     0.059 A 
ATOM     83  C   UNL A   1      42.726  21.327  27.798  1.00  0.00     0.059 A 
ATOM     84  F   UNL A   1      43.378  23.022  29.281  1.00  0.00    -0.206 F 
ATOM     85  C   UNL A   1      42.455  20.915  26.494  1.00  0.00     0.060 A 
BRANCH  85  86
ATOM     86  S   UNL A   1      41.940  19.217  26.160  1.00  0.00     0.124 S 
ATOM     87  O   UNL A   1      40.516  19.387  25.902  1.00  0.00    -0.237 OA
ATOM     88  O   UNL A   1      42.762  18.870  25.004  1.00  0.00    -0.237 OA
ATOM     89  O   UNL A   1      42.280  18.514  27.394  1.00  0.00    -0.744 OA
ENDBRANCH  85  86
ENDBRANCH  53  78
BRANCH  65  90
ATOM     90  C   UNL A   1      49.398  26.853  26.238  1.00  0.00     0.058 A 
ATOM     91  C   UNL A   1      50.270  26.204  27.126  1.00  0.00     0.135 A 
ATOM     92  C   UNL A   1      49.815  27.012  24.906  1.00  0.00     0.135 A 
ATOM     93  F   UNL A   1      49.923  26.031  28.410  1.00  0.00    -0.206 F 
ATOM     94  C   UNL A   1      51.521  25.754  26.714  1.00  0.00     0.059 A 
ATOM     95  C   UNL A   1      51.047  26.541  24.466  1.00  0.00     0.059 A 
ATOM     96  F   UNL A   1      49.014  27.614  24.014  1.00  0.00    -0.206 F 
ATOM     97  C   UNL A   1      51.899  25.925  25.381  1.00  0.00     0.060 A 
BRANCH  97  98
ATOM     98  S   UNL A   1      53.511  25.307  24.854  1.00  0.00     0.124 S 
ATOM     99  O   UNL A   1      54.415  26.125  25.655  1.00  0.00    -0.237 OA
ATOM    100  O   UNL A   1      53.439  23.895  25.220  1.00  0.00    -0.237 OA
ATOM    101  O   UNL A   1      53.527  25.576  23.419  1.00  0.00    -0.744 OA
ENDBRANCH  97  98
ENDBRANCH  65  90
ENDBRANCH  39  40
ENDBRANCH  31  34
ENDBRANCH  29  30
ENDBRANCH  28  29
ENDBRANCH   1  28
TORSDOF 17
ENDMDL
MODEL 3
REMARK VINA RESULT:     -11.6      3.234      5.282
REMARK SMILES Cc1ccc(Cl)c(Nc2ccccc2C(=O)NCC(=O)NCCCNC(=O)c2ccc(-c3c4nc(c(-c5c(F)cc(S(=O)(=O)[O-])cc5F)c5ccc([nH]5)c(-c5c(F)cc(S(=O)(=O)[O-])cc5F)c5nc(c(-c6c(F)cc(S(=O)(=O)[O-])cc6F)c6ccc3[nH]6)C=C5)C=C4)cc2)c1Cl
REMARK SMILES IDX 22 1 21 2 19 3 20 4 18 6 17 7 15 8 16 9 14 11 9 12 10 13
REMARK SMILES IDX 11 14 13 15 12 16 8 17 7 19 1 20 2 21 3 22 94 23 4 24 95 25
REMARK SMILES IDX 5 26 6 27 23 28 24 29 25 30 26 31 27 33 28 34 29 35 93 36
REMARK SMILES IDX 30 37 92 38 31 39 32 40 33 41 86 42 34 43 91 44 85 45 87 46
REMARK SMILES IDX 35 47 90 48 84 49 83 50 36 52 70 53 49 54 69 55 50 56 53 57
REMARK SMILES IDX 68 58 88 59 51 60 52 61 67 63 89 64 54 65 37 66 38 67 47 68
REMARK SMILES IDX 39 69 40 70 46 71 48 72 41 73 42 74 43 75 44 76 45 77 71 78
REMARK SMILES IDX 72 79 81 80 73 81 74 82 80 83 82 84 75 85 76 86 77 87 78 88
REMARK SMILES IDX 79 89 55 90 56 91 65 92 57 93 58 94 64 95 66 96 59 97 60 98
REMARK SMILES IDX 61 99 62 100 63 101
REMARK H PARENT 21 5 17 10 8 18 25 32 87 51 53 62
REMARK Flexibility Score: inf
ROOT
ATOM      1  C   UNL A   1      33.667  27.816  23.797  1.00  0.00     0.117 C 
ENDROOT
BRANCH   1   2
ATOM      2  N   UNL A   1      32.602  27.598  22.847  1.00  0.00    -0.355 N 
ATOM      3  C   UNL A   1      32.224  26.408  22.301  1.00  0.00     0.239 C 
ATOM      4  O   UNL A   1      31.372  26.417  21.410  1.00  0.00    -0.273 OA
ATOM      5  H   UNL A   1      32.096  28.392  22.563  1.00  0.00     0.163 HD
BRANCH   3   6
ATOM      6  C   UNL A   1      32.634  25.113  22.994  1.00  0.00     0.216 C 
BRANCH   6   7
ATOM      7  N   UNL A   1      33.988  24.617  23.099  1.00  0.00    -0.343 N 
ATOM      8  C   UNL A   1      34.490  23.338  22.986  1.00  0.00     0.253 C 
ATOM      9  O   UNL A   1      35.622  23.262  22.497  1.00  0.00    -0.269 OA
ATOM     10  H   UNL A   1      34.666  25.308  23.279  1.00  0.00     0.164 HD
BRANCH   8  11
ATOM     11  C   UNL A   1      33.908  22.092  23.607  1.00  0.00     0.063 A 
ATOM     12  C   UNL A   1      34.294  21.334  24.738  1.00  0.00     0.051 A 
ATOM     13  C   UNL A   1      33.591  20.128  25.006  1.00  0.00     0.027 A 
ATOM     14  C   UNL A   1      32.495  19.710  24.251  1.00  0.00     0.002 A 
ATOM     15  C   UNL A   1      32.780  21.643  22.866  1.00  0.00     0.016 A 
ATOM     16  C   UNL A   1      32.073  20.484  23.188  1.00  0.00     0.001 A 
BRANCH  12  17
ATOM     17  N   UNL A   1      35.218  21.669  25.753  1.00  0.00    -0.352 N 
ATOM     18  H   UNL A   1      34.876  21.506  26.662  1.00  0.00     0.167 HD
BRANCH  17  19
ATOM     19  C   UNL A   1      36.535  22.192  25.734  1.00  0.00     0.077 A 
ATOM     20  C   UNL A   1      40.151  21.012  26.135  1.00  0.00     0.046 C 
ATOM     21  C   UNL A   1      38.942  21.902  26.052  1.00  0.00    -0.030 A 
ATOM     22  C   UNL A   1      39.050  23.246  26.442  1.00  0.00     0.006 A 
ATOM     23  C   UNL A   1      37.691  21.394  25.653  1.00  0.00     0.069 A 
ATOM     24  C   UNL A   1      37.942  24.088  26.392  1.00  0.00     0.023 A 
ATOM     25  Cl  UNL A   1      37.616  19.802  24.958  1.00  0.00    -0.082 Cl
ATOM     26  C   UNL A   1      36.703  23.570  26.029  1.00  0.00     0.066 A 
ATOM     27  Cl  UNL A   1      35.331  24.633  26.093  1.00  0.00    -0.082 Cl
ENDBRANCH  17  19
ENDBRANCH  12  17
ENDBRANCH   8  11
ENDBRANCH   6   7
ENDBRANCH   3   6
ENDBRANCH   1   2
BRANCH   1  28
ATOM     28  C   UNL A   1      33.098  28.140  25.167  1.00  0.00     0.042 C 
BRANCH  28  29
ATOM     29  C   UNL A   1      34.156  28.721  26.090  1.00  0.00     0.118 C 
BRANCH  29  30
ATOM     30  N   UNL A   1      33.850  30.093  26.467  1.00  0.00    -0.352 N 
ATOM     31  C   UNL A   1      34.435  30.862  27.439  1.00  0.00     0.251 C 
ATOM     32  H   UNL A   1      33.129  30.526  25.955  1.00  0.00     0.163 HD
ATOM     33  O   UNL A   1      33.916  31.912  27.791  1.00  0.00    -0.269 OA
BRANCH  31  34
ATOM     34  C   UNL A   1      35.686  30.385  28.059  1.00  0.00     0.039 A 
ATOM     35  C   UNL A   1      36.905  30.843  27.558  1.00  0.00     0.014 A 
ATOM     36  C   UNL A   1      35.646  29.512  29.151  1.00  0.00     0.014 A 
ATOM     37  C   UNL A   1      38.088  30.454  28.185  1.00  0.00     0.010 A 
ATOM     38  C   UNL A   1      36.816  29.205  29.830  1.00  0.00     0.010 A 
ATOM     39  C   UNL A   1      38.050  29.656  29.342  1.00  0.00    -0.014 A 
BRANCH  39  40
ATOM     40  C   UNL A   1      39.296  29.262  30.041  1.00  0.00     0.031 A 
ATOM     41  C   UNL A   1      39.703  29.974  31.302  1.00  0.00     0.074 A 
ATOM     42  C   UNL A   1      40.078  28.301  29.512  1.00  0.00     0.049 A 
ATOM     43  N   UNL A   1      40.774  29.806  32.034  1.00  0.00    -0.248 NA
ATOM     44  C   UNL A   1      38.807  31.036  31.788  1.00  0.00     0.031 C 
ATOM     45  C   UNL A   1      39.809  27.583  28.263  1.00  0.00     0.029 A 
ATOM     46  N   UNL A   1      41.261  27.766  29.953  1.00  0.00    -0.354 N 
ATOM     47  C   UNL A   1      40.684  30.745  33.055  1.00  0.00     0.074 A 
ATOM     48  C   UNL A   1      39.491  31.523  32.812  1.00  0.00     0.031 C 
ATOM     49  C   UNL A   1      40.781  26.681  28.057  1.00  0.00     0.029 A 
ATOM     50  C   UNL A   1      41.762  26.783  29.133  1.00  0.00     0.049 A 
ATOM     51  H   UNL A   1      41.708  28.058  30.779  1.00  0.00     0.167 HD
ATOM     52  C   UNL A   1      41.508  30.922  34.115  1.00  0.00     0.037 A 
ATOM     53  C   UNL A   1      42.887  26.051  29.236  1.00  0.00     0.037 A 
ATOM     54  C   UNL A   1      42.680  30.124  34.357  1.00  0.00     0.049 A 
ATOM     55  C   UNL A   1      43.787  26.266  30.423  1.00  0.00     0.074 A 
ATOM     56  C   UNL A   1      43.551  30.180  35.430  1.00  0.00     0.029 A 
ATOM     57  N   UNL A   1      43.146  29.125  33.514  1.00  0.00    -0.354 N 
ATOM     58  N   UNL A   1      43.650  27.110  31.419  1.00  0.00    -0.248 NA
ATOM     59  C   UNL A   1      44.987  25.425  30.507  1.00  0.00     0.031 C 
ATOM     60  C   UNL A   1      44.572  29.250  35.210  1.00  0.00     0.029 A 
ATOM     61  C   UNL A   1      44.306  28.573  34.031  1.00  0.00     0.049 A 
ATOM     62  H   UNL A   1      42.715  28.849  32.673  1.00  0.00     0.167 HD
ATOM     63  C   UNL A   1      44.733  26.882  32.262  1.00  0.00     0.074 A 
ATOM     64  C   UNL A   1      45.504  25.811  31.666  1.00  0.00     0.031 C 
ATOM     65  C   UNL A   1      45.057  27.501  33.424  1.00  0.00     0.037 A 
BRANCH  52  66
ATOM     66  C   UNL A   1      41.166  32.016  35.090  1.00  0.00     0.058 A 
ATOM     67  C   UNL A   1      40.250  31.814  36.136  1.00  0.00     0.135 A 
ATOM     68  C   UNL A   1      41.785  33.274  34.998  1.00  0.00     0.135 A 
ATOM     69  F   UNL A   1      39.615  30.637  36.263  1.00  0.00    -0.206 F 
ATOM     70  C   UNL A   1      39.938  32.827  37.037  1.00  0.00     0.059 A 
ATOM     71  C   UNL A   1      41.510  34.291  35.908  1.00  0.00     0.059 A 
ATOM     72  F   UNL A   1      42.665  33.525  34.017  1.00  0.00    -0.206 F 
ATOM     73  C   UNL A   1      40.575  34.062  36.915  1.00  0.00     0.060 A 
BRANCH  73  74
ATOM     74  S   UNL A   1      40.165  35.362  38.099  1.00  0.00     0.124 S 
ATOM     75  O   UNL A   1      38.967  34.815  38.728  1.00  0.00    -0.237 OA
ATOM     76  O   UNL A   1      41.358  35.404  38.939  1.00  0.00    -0.237 OA
ATOM     77  O   UNL A   1      39.952  36.535  37.258  1.00  0.00    -0.744 OA
ENDBRANCH  73  74
ENDBRANCH  52  66
BRANCH  53  78
ATOM     78  C   UNL A   1      43.210  25.032  28.201  1.00  0.00     0.058 A 
ATOM     79  C   UNL A   1      43.889  25.387  27.025  1.00  0.00     0.135 A 
ATOM     80  C   UNL A   1      42.861  23.683  28.370  1.00  0.00     0.135 A 
ATOM     81  F   UNL A   1      44.241  26.664  26.814  1.00  0.00    -0.206 F 
ATOM     82  C   UNL A   1      44.193  24.447  26.046  1.00  0.00     0.059 A 
ATOM     83  C   UNL A   1      43.179  22.720  27.420  1.00  0.00     0.059 A 
ATOM     84  F   UNL A   1      42.228  23.288  29.486  1.00  0.00    -0.206 F 
ATOM     85  C   UNL A   1      43.834  23.114  26.253  1.00  0.00     0.060 A 
BRANCH  85  86
ATOM     86  S   UNL A   1      44.270  21.896  24.994  1.00  0.00     0.124 S 
ATOM     87  O   UNL A   1      45.686  21.684  25.268  1.00  0.00    -0.237 OA
ATOM     88  O   UNL A   1      43.382  20.785  25.324  1.00  0.00    -0.237 OA
ATOM     89  O   UNL A   1      43.964  22.582  23.743  1.00  0.00    -0.744 OA
ENDBRANCH  85  86
ENDBRANCH  53  78
BRANCH  65  90
ATOM     90  C   UNL A   1      46.280  27.011  34.150  1.00  0.00     0.058 A 
ATOM     91  C   UNL A   1      47.543  27.588  33.944  1.00  0.00     0.135 A 
ATOM     92  C   UNL A   1      46.175  25.986  35.104  1.00  0.00     0.135 A 
ATOM     93  F   UNL A   1      47.701  28.568  33.041  1.00  0.00    -0.206 F 
ATOM     94  C   UNL A   1      48.665  27.146  34.639  1.00  0.00     0.059 A 
ATOM     95  C   UNL A   1      47.276  25.550  35.833  1.00  0.00     0.059 A 
ATOM     96  F   UNL A   1      44.987  25.409  35.348  1.00  0.00    -0.206 F 
ATOM     97  C   UNL A   1      48.520  26.128  35.584  1.00  0.00     0.060 A 
BRANCH  97  98
ATOM     98  S   UNL A   1      49.977  25.586  36.501  1.00  0.00     0.124 S 
ATOM     99  O   UNL A   1      50.417  26.834  37.116  1.00  0.00    -0.237 OA
ATOM    100  O   UNL A   1      49.420  24.591  37.412  1.00  0.00    -0.237 OA
ATOM    101  O   UNL A   1      50.855  25.055  35.463  1.00  0.00    -0.744 OA
ENDBRANCH  97  98
ENDBRANCH  65  90
ENDBRANCH  39  40
ENDBRANCH  31  34
ENDBRANCH  29  30
ENDBRANCH  28  29
ENDBRANCH   1  28
TORSDOF 17
ENDMDL
