MODEL 1
REMARK VINA RESULT:     -12.4      0.000      0.000
REMARK SMILES C[C@@H](Cc1cnn(-c2ccccc2)n1)C(=O)NCCCNC(=O)c1ccc(-c2c3nc(c(-c4c(F)cc(S(=O)(=O)[O-])cc4F)c4ccc([nH]4)c(-c4c(F)cc(S(=O)(=O)[O-])cc4F)c4nc(c(-c5c(F)cc(S(=O)(=O)[O-])cc5F)c5ccc2[nH]5)C=C4)C=C3)cc1
REMARK SMILES IDX 19 1 18 2 17 3 15 4 16 5 2 7 1 8 3 9 4 10 5 11 14 12 6 13
REMARK SMILES IDX 7 14 8 15 9 16 13 17 10 18 12 19 11 20 20 21 21 22 22 23
REMARK SMILES IDX 23 25 24 26 25 27 89 28 26 29 88 30 27 31 28 32 29 33 82 34
REMARK SMILES IDX 30 35 87 36 81 37 83 38 31 39 86 40 80 41 79 42 32 44 66 45
REMARK SMILES IDX 45 46 65 47 46 48 49 49 64 50 84 51 47 52 48 53 63 55 85 56
REMARK SMILES IDX 50 57 33 58 34 59 43 60 35 61 36 62 42 63 44 64 37 65 38 66
REMARK SMILES IDX 39 67 40 68 41 69 67 70 68 71 77 72 69 73 70 74 76 75 78 76
REMARK SMILES IDX 71 77 72 78 73 79 74 80 75 81 51 82 52 83 61 84 53 85 54 86
REMARK SMILES IDX 60 87 62 88 55 89 56 90 57 91 58 92 59 93
REMARK H PARENT 17 6 21 24 83 43 49 54
REMARK Flexibility Score: inf
ROOT
ATOM      1  C   UNL A   1      32.650  30.241  27.225  1.00  0.00     0.042 C 
ENDROOT
BRANCH   1   2
ATOM      2  C   UNL A   1      32.870  28.744  27.380  1.00  0.00     0.117 C 
BRANCH   2   3
ATOM      3  N   UNL A   1      31.839  27.847  26.931  1.00  0.00    -0.356 N 
ATOM      4  C   UNL A   1      32.016  26.589  26.423  1.00  0.00     0.223 C 
ATOM      5  O   UNL A   1      31.061  25.810  26.471  1.00  0.00    -0.275 OA
ATOM      6  H   UNL A   1      30.912  28.172  26.994  1.00  0.00     0.163 HD
BRANCH   4   7
ATOM      7  C   UNL A   1      33.321  26.155  25.728  1.00  0.00     0.081 C 
ATOM      8  C   UNL A   1      33.600  24.670  25.955  1.00  0.00     0.018 C 
BRANCH   7   9
ATOM      9  C   UNL A   1      33.626  26.721  24.315  1.00  0.00     0.073 C 
BRANCH   9  10
ATOM     10  C   UNL A   1      32.507  27.265  23.475  1.00  0.00     0.084 A 
ATOM     11  C   UNL A   1      31.813  26.675  22.398  1.00  0.00     0.161 A 
ATOM     12  N   UNL A   1      31.931  28.448  23.751  1.00  0.00    -0.153 NA
ATOM     13  N   UNL A   1      30.673  27.334  22.171  1.00  0.00    -0.157 NA
ATOM     14  N   UNL A   1      30.793  28.409  22.996  1.00  0.00    -0.151 N 
BRANCH  14  15
ATOM     15  C   UNL A   1      29.746  29.347  23.168  1.00  0.00     0.086 A 
ATOM     16  C   UNL A   1      28.461  29.063  22.685  1.00  0.00     0.030 A 
ATOM     17  C   UNL A   1      29.988  30.549  23.841  1.00  0.00     0.030 A 
ATOM     18  C   UNL A   1      27.408  29.945  22.946  1.00  0.00     0.002 A 
ATOM     19  C   UNL A   1      28.952  31.472  24.004  1.00  0.00     0.002 A 
ATOM     20  C   UNL A   1      27.658  31.159  23.583  1.00  0.00     0.000 A 
ENDBRANCH  14  15
ENDBRANCH   9  10
ENDBRANCH   7   9
ENDBRANCH   4   7
ENDBRANCH   2   3
ENDBRANCH   1   2
BRANCH   1  21
ATOM     21  C   UNL A   1      33.938  31.016  27.376  1.00  0.00     0.118 C 
BRANCH  21  22
ATOM     22  N   UNL A   1      34.002  31.802  28.625  1.00  0.00    -0.352 N 
ATOM     23  C   UNL A   1      34.979  31.785  29.610  1.00  0.00     0.251 C 
ATOM     24  H   UNL A   1      33.252  32.421  28.779  1.00  0.00     0.163 HD
ATOM     25  O   UNL A   1      34.768  32.205  30.742  1.00  0.00    -0.269 OA
BRANCH  23  26
ATOM     26  C   UNL A   1      36.294  31.270  29.217  1.00  0.00     0.039 A 
ATOM     27  C   UNL A   1      37.434  32.065  29.096  1.00  0.00     0.014 A 
ATOM     28  C   UNL A   1      36.370  29.888  29.197  1.00  0.00     0.014 A 
ATOM     29  C   UNL A   1      38.673  31.427  29.099  1.00  0.00     0.010 A 
ATOM     30  C   UNL A   1      37.557  29.329  29.547  1.00  0.00     0.010 A 
ATOM     31  C   UNL A   1      38.725  30.051  29.380  1.00  0.00    -0.014 A 
BRANCH  31  32
ATOM     32  C   UNL A   1      39.963  29.323  29.621  1.00  0.00     0.031 A 
ATOM     33  C   UNL A   1      40.274  29.119  31.053  1.00  0.00     0.074 A 
ATOM     34  C   UNL A   1      40.640  28.685  28.637  1.00  0.00     0.049 A 
ATOM     35  N   UNL A   1      41.054  29.840  31.787  1.00  0.00    -0.248 NA
ATOM     36  C   UNL A   1      39.485  28.139  31.818  1.00  0.00     0.031 C 
ATOM     37  C   UNL A   1      40.260  28.532  27.220  1.00  0.00     0.029 A 
ATOM     38  N   UNL A   1      41.783  27.950  28.711  1.00  0.00    -0.354 N 
ATOM     39  C   UNL A   1      41.100  29.189  33.013  1.00  0.00     0.074 A 
ATOM     40  C   UNL A   1      39.927  28.357  33.061  1.00  0.00     0.031 C 
ATOM     41  C   UNL A   1      41.018  27.581  26.635  1.00  0.00     0.029 A 
ATOM     42  C   UNL A   1      42.078  27.232  27.556  1.00  0.00     0.049 A 
ATOM     43  H   UNL A   1      42.352  27.928  29.513  1.00  0.00     0.167 HD
ATOM     44  C   UNL A   1      42.274  29.114  33.703  1.00  0.00     0.037 A 
ATOM     45  C   UNL A   1      43.160  26.456  27.325  1.00  0.00     0.037 A 
ATOM     46  C   UNL A   1      43.273  29.950  33.077  1.00  0.00     0.049 A 
ATOM     47  C   UNL A   1      44.228  26.941  28.229  1.00  0.00     0.074 A 
ATOM     48  C   UNL A   1      43.516  31.301  32.960  1.00  0.00     0.029 A 
ATOM     49  N   UNL A   1      43.982  29.319  32.085  1.00  0.00    -0.354 N 
ATOM     50  N   UNL A   1      44.753  28.134  28.137  1.00  0.00    -0.248 NA
ATOM     51  C   UNL A   1      44.457  26.255  29.494  1.00  0.00     0.031 C 
ATOM     52  C   UNL A   1      44.242  31.471  31.742  1.00  0.00     0.029 A 
ATOM     53  C   UNL A   1      44.465  30.219  31.171  1.00  0.00     0.049 A 
ATOM     54  H   UNL A   1      44.125  28.346  32.035  1.00  0.00     0.167 HD
ATOM     55  C   UNL A   1      44.986  28.507  29.446  1.00  0.00     0.074 A 
ATOM     56  C   UNL A   1      44.957  27.267  30.211  1.00  0.00     0.031 C 
ATOM     57  C   UNL A   1      44.856  29.807  29.838  1.00  0.00     0.037 A 
BRANCH  44  58
ATOM     58  C   UNL A   1      42.700  27.972  34.603  1.00  0.00     0.058 A 
ATOM     59  C   UNL A   1      42.912  28.236  35.974  1.00  0.00     0.135 A 
ATOM     60  C   UNL A   1      43.184  26.728  34.146  1.00  0.00     0.135 A 
ATOM     61  F   UNL A   1      42.493  29.389  36.521  1.00  0.00    -0.206 F 
ATOM     62  C   UNL A   1      43.616  27.363  36.806  1.00  0.00     0.059 A 
ATOM     63  C   UNL A   1      43.841  25.820  34.970  1.00  0.00     0.059 A 
ATOM     64  F   UNL A   1      43.139  26.366  32.859  1.00  0.00    -0.206 F 
ATOM     65  C   UNL A   1      44.090  26.162  36.287  1.00  0.00     0.060 A 
BRANCH  65  66
ATOM     66  S   UNL A   1      45.081  25.074  37.325  1.00  0.00     0.124 S 
ATOM     67  O   UNL A   1      44.854  23.781  36.690  1.00  0.00    -0.237 OA
ATOM     68  O   UNL A   1      46.416  25.641  37.170  1.00  0.00    -0.237 OA
ATOM     69  O   UNL A   1      44.486  25.241  38.648  1.00  0.00    -0.744 OA
ENDBRANCH  65  66
ENDBRANCH  44  58
BRANCH  45  70
ATOM     70  C   UNL A   1      43.277  25.223  26.516  1.00  0.00     0.058 A 
ATOM     71  C   UNL A   1      44.162  25.145  25.430  1.00  0.00     0.135 A 
ATOM     72  C   UNL A   1      42.749  24.004  26.987  1.00  0.00     0.135 A 
ATOM     73  F   UNL A   1      44.711  26.260  24.926  1.00  0.00    -0.206 F 
ATOM     74  C   UNL A   1      44.563  23.921  24.886  1.00  0.00     0.059 A 
ATOM     75  C   UNL A   1      43.131  22.771  26.459  1.00  0.00     0.059 A 
ATOM     76  F   UNL A   1      41.920  23.979  28.043  1.00  0.00    -0.206 F 
ATOM     77  C   UNL A   1      44.065  22.737  25.429  1.00  0.00     0.060 A 
BRANCH  77  78
ATOM     78  S   UNL A   1      44.744  21.158  24.866  1.00  0.00     0.124 S 
ATOM     79  O   UNL A   1      43.844  20.199  25.496  1.00  0.00    -0.237 OA
ATOM     80  O   UNL A   1      44.635  21.276  23.415  1.00  0.00    -0.237 OA
ATOM     81  O   UNL A   1      46.109  21.171  25.387  1.00  0.00    -0.744 OA
ENDBRANCH  77  78
ENDBRANCH  45  70
BRANCH  57  82
ATOM     82  C   UNL A   1      45.008  30.863  28.780  1.00  0.00     0.058 A 
ATOM     83  C   UNL A   1      46.223  31.257  28.197  1.00  0.00     0.135 A 
ATOM     84  C   UNL A   1      43.837  31.453  28.284  1.00  0.00     0.135 A 
ATOM     85  F   UNL A   1      47.380  30.688  28.563  1.00  0.00    -0.206 F 
ATOM     86  C   UNL A   1      46.274  32.220  27.186  1.00  0.00     0.059 A 
ATOM     87  C   UNL A   1      43.859  32.395  27.261  1.00  0.00     0.059 A 
ATOM     88  F   UNL A   1      42.641  31.084  28.772  1.00  0.00    -0.206 F 
ATOM     89  C   UNL A   1      45.083  32.784  26.725  1.00  0.00     0.060 A 
BRANCH  89  90
ATOM     90  S   UNL A   1      45.138  33.984  25.376  1.00  0.00     0.124 S 
ATOM     91  O   UNL A   1      46.566  34.264  25.271  1.00  0.00    -0.237 OA
ATOM     92  O   UNL A   1      44.555  33.239  24.264  1.00  0.00    -0.237 OA
ATOM     93  O   UNL A   1      44.318  35.088  25.870  1.00  0.00    -0.744 OA
ENDBRANCH  89  90
ENDBRANCH  57  82
ENDBRANCH  31  32
ENDBRANCH  23  26
ENDBRANCH  21  22
ENDBRANCH   1  21
TORSDOF 16
ENDMDL
MODEL 2
REMARK VINA RESULT:     -12.2      3.889     10.182
REMARK SMILES C[C@@H](Cc1cnn(-c2ccccc2)n1)C(=O)NCCCNC(=O)c1ccc(-c2c3nc(c(-c4c(F)cc(S(=O)(=O)[O-])cc4F)c4ccc([nH]4)c(-c4c(F)cc(S(=O)(=O)[O-])cc4F)c4nc(c(-c5c(F)cc(S(=O)(=O)[O-])cc5F)c5ccc2[nH]5)C=C4)C=C3)cc1
REMARK SMILES IDX 19 1 18 2 17 3 15 4 16 5 2 7 1 8 3 9 4 10 5 11 14 12 6 13
REMARK SMILES IDX 7 14 8 15 9 16 13 17 10 18 12 19 11 20 20 21 21 22 22 23
REMARK SMILES IDX 23 25 24 26 25 27 89 28 26 29 88 30 27 31 28 32 29 33 82 34
REMARK SMILES IDX 30 35 87 36 81 37 83 38 31 39 86 40 80 41 79 42 32 44 66 45
REMARK SMILES IDX 45 46 65 47 46 48 49 49 64 50 84 51 47 52 48 53 63 55 85 56
REMARK SMILES IDX 50 57 33 58 34 59 43 60 35 61 36 62 42 63 44 64 37 65 38 66
REMARK SMILES IDX 39 67 40 68 41 69 67 70 68 71 77 72 69 73 70 74 76 75 78 76
REMARK SMILES IDX 71 77 72 78 73 79 74 80 75 81 51 82 52 83 61 84 53 85 54 86
REMARK SMILES IDX 60 87 62 88 55 89 56 90 57 91 58 92 59 93
REMARK H PARENT 17 6 21 24 83 43 49 54
REMARK Flexibility Score: inf
ROOT
ATOM      1  C   UNL A   1      38.196  21.804  25.362  1.00  0.00     0.042 C 
ENDROOT
BRANCH   1   2
ATOM      2  C   UNL A   1      37.133  22.892  25.400  1.00  0.00     0.117 C 
BRANCH   2   3
ATOM      3  N   UNL A   1      36.284  22.983  26.559  1.00  0.00    -0.356 N 
ATOM      4  C   UNL A   1      34.929  23.176  26.564  1.00  0.00     0.223 C 
ATOM      5  O   UNL A   1      34.303  22.827  27.568  1.00  0.00    -0.275 OA
ATOM      6  H   UNL A   1      36.722  22.900  27.436  1.00  0.00     0.163 HD
BRANCH   4   7
ATOM      7  C   UNL A   1      34.191  23.880  25.410  1.00  0.00     0.081 C 
ATOM      8  C   UNL A   1      34.483  25.380  25.401  1.00  0.00     0.018 C 
BRANCH   7   9
ATOM      9  C   UNL A   1      34.128  23.167  24.031  1.00  0.00     0.073 C 
BRANCH   9  10
ATOM     10  C   UNL A   1      33.323  21.909  23.882  1.00  0.00     0.084 A 
ATOM     11  C   UNL A   1      32.309  21.587  22.955  1.00  0.00     0.161 A 
ATOM     12  N   UNL A   1      33.576  20.818  24.626  1.00  0.00    -0.153 NA
ATOM     13  N   UNL A   1      32.111  20.266  22.932  1.00  0.00    -0.157 NA
ATOM     14  N   UNL A   1      32.881  19.842  23.971  1.00  0.00    -0.151 N 
BRANCH  14  15
ATOM     15  C   UNL A   1      33.064  18.467  24.261  1.00  0.00     0.086 A 
ATOM     16  C   UNL A   1      33.722  17.637  23.342  1.00  0.00     0.030 A 
ATOM     17  C   UNL A   1      32.608  17.942  25.473  1.00  0.00     0.030 A 
ATOM     18  C   UNL A   1      33.991  16.306  23.675  1.00  0.00     0.002 A 
ATOM     19  C   UNL A   1      32.789  16.585  25.751  1.00  0.00     0.002 A 
ATOM     20  C   UNL A   1      33.503  15.774  24.868  1.00  0.00     0.000 A 
ENDBRANCH  14  15
ENDBRANCH   9  10
ENDBRANCH   7   9
ENDBRANCH   4   7
ENDBRANCH   2   3
ENDBRANCH   1   2
BRANCH   1  21
ATOM     21  C   UNL A   1      39.203  21.967  26.476  1.00  0.00     0.118 C 
BRANCH  21  22
ATOM     22  N   UNL A   1      40.601  21.985  25.999  1.00  0.00    -0.352 N 
ATOM     23  C   UNL A   1      41.532  23.010  26.085  1.00  0.00     0.251 C 
ATOM     24  H   UNL A   1      40.915  21.159  25.563  1.00  0.00     0.163 HD
ATOM     25  O   UNL A   1      42.525  23.049  25.366  1.00  0.00    -0.269 OA
BRANCH  23  26
ATOM     26  C   UNL A   1      41.288  24.032  27.107  1.00  0.00     0.039 A 
ATOM     27  C   UNL A   1      42.041  24.158  28.274  1.00  0.00     0.014 A 
ATOM     28  C   UNL A   1      40.391  25.011  26.715  1.00  0.00     0.014 A 
ATOM     29  C   UNL A   1      41.973  25.368  28.963  1.00  0.00     0.010 A 
ATOM     30  C   UNL A   1      40.604  26.268  27.184  1.00  0.00     0.010 A 
ATOM     31  C   UNL A   1      41.286  26.443  28.375  1.00  0.00    -0.014 A 
BRANCH  31  32
ATOM     32  C   UNL A   1      41.325  27.805  28.891  1.00  0.00     0.031 A 
ATOM     33  C   UNL A   1      42.414  28.632  28.325  1.00  0.00     0.074 A 
ATOM     34  C   UNL A   1      40.324  28.336  29.630  1.00  0.00     0.049 A 
ATOM     35  N   UNL A   1      43.572  28.853  28.850  1.00  0.00    -0.248 NA
ATOM     36  C   UNL A   1      42.297  29.104  26.935  1.00  0.00     0.031 C 
ATOM     37  C   UNL A   1      39.030  27.725  29.988  1.00  0.00     0.029 A 
ATOM     38  N   UNL A   1      40.207  29.586  30.155  1.00  0.00    -0.354 N 
ATOM     39  C   UNL A   1      44.187  29.764  28.000  1.00  0.00     0.074 A 
ATOM     40  C   UNL A   1      43.503  29.648  26.740  1.00  0.00     0.031 C 
ATOM     41  C   UNL A   1      38.185  28.665  30.460  1.00  0.00     0.029 A 
ATOM     42  C   UNL A   1      38.943  29.881  30.658  1.00  0.00     0.049 A 
ATOM     43  H   UNL A   1      40.953  30.228  30.177  1.00  0.00     0.167 HD
ATOM     44  C   UNL A   1      44.941  30.776  28.514  1.00  0.00     0.037 A 
ATOM     45  C   UNL A   1      38.548  31.019  31.271  1.00  0.00     0.037 A 
ATOM     46  C   UNL A   1      45.131  30.584  29.935  1.00  0.00     0.049 A 
ATOM     47  C   UNL A   1      39.768  31.642  31.831  1.00  0.00     0.074 A 
ATOM     48  C   UNL A   1      45.857  29.735  30.741  1.00  0.00     0.029 A 
ATOM     49  N   UNL A   1      44.133  31.127  30.706  1.00  0.00    -0.354 N 
ATOM     50  N   UNL A   1      40.485  31.088  32.773  1.00  0.00    -0.248 NA
ATOM     51  C   UNL A   1      40.433  32.704  31.086  1.00  0.00     0.031 C 
ATOM     52  C   UNL A   1      45.139  29.644  31.972  1.00  0.00     0.029 A 
ATOM     53  C   UNL A   1      44.020  30.473  31.905  1.00  0.00     0.049 A 
ATOM     54  H   UNL A   1      43.571  31.889  30.434  1.00  0.00     0.167 HD
ATOM     55  C   UNL A   1      41.787  31.416  32.450  1.00  0.00     0.074 A 
ATOM     56  C   UNL A   1      41.683  32.540  31.529  1.00  0.00     0.031 C 
ATOM     57  C   UNL A   1      42.810  30.549  32.697  1.00  0.00     0.037 A 
BRANCH  44  58
ATOM     58  C   UNL A   1      45.097  32.158  27.911  1.00  0.00     0.058 A 
ATOM     59  C   UNL A   1      46.373  32.554  27.452  1.00  0.00     0.135 A 
ATOM     60  C   UNL A   1      44.148  33.196  28.027  1.00  0.00     0.135 A 
ATOM     61  F   UNL A   1      47.356  31.651  27.302  1.00  0.00    -0.206 F 
ATOM     62  C   UNL A   1      46.699  33.888  27.201  1.00  0.00     0.059 A 
ATOM     63  C   UNL A   1      44.437  34.524  27.731  1.00  0.00     0.059 A 
ATOM     64  F   UNL A   1      42.924  33.000  28.530  1.00  0.00    -0.206 F 
ATOM     65  C   UNL A   1      45.724  34.868  27.359  1.00  0.00     0.060 A 
BRANCH  65  66
ATOM     66  S   UNL A   1      46.159  36.601  27.129  1.00  0.00     0.124 S 
ATOM     67  O   UNL A   1      44.847  37.236  27.163  1.00  0.00    -0.237 OA
ATOM     68  O   UNL A   1      47.024  36.850  28.278  1.00  0.00    -0.237 OA
ATOM     69  O   UNL A   1      46.831  36.608  25.833  1.00  0.00    -0.744 OA
ENDBRANCH  65  66
ENDBRANCH  44  58
BRANCH  45  70
ATOM     70  C   UNL A   1      37.229  31.688  31.251  1.00  0.00     0.058 A 
ATOM     71  C   UNL A   1      36.363  31.626  32.354  1.00  0.00     0.135 A 
ATOM     72  C   UNL A   1      36.929  32.653  30.268  1.00  0.00     0.135 A 
ATOM     73  F   UNL A   1      36.581  30.737  33.334  1.00  0.00    -0.206 F 
ATOM     74  C   UNL A   1      35.302  32.522  32.515  1.00  0.00     0.059 A 
ATOM     75  C   UNL A   1      35.875  33.555  30.405  1.00  0.00     0.059 A 
ATOM     76  F   UNL A   1      37.721  32.806  29.194  1.00  0.00    -0.206 F 
ATOM     77  C   UNL A   1      35.085  33.504  31.548  1.00  0.00     0.060 A 
BRANCH  77  78
ATOM     78  S   UNL A   1      33.850  34.788  31.862  1.00  0.00     0.124 S 
ATOM     79  O   UNL A   1      33.242  34.951  30.546  1.00  0.00    -0.237 OA
ATOM     80  O   UNL A   1      33.009  34.164  32.879  1.00  0.00    -0.237 OA
ATOM     81  O   UNL A   1      34.648  35.920  32.327  1.00  0.00    -0.744 OA
ENDBRANCH  77  78
ENDBRANCH  45  70
BRANCH  57  82
ATOM     82  C   UNL A   1      42.602  29.530  33.782  1.00  0.00     0.058 A 
ATOM     83  C   UNL A   1      42.687  29.785  35.160  1.00  0.00     0.135 A 
ATOM     84  C   UNL A   1      42.222  28.238  33.390  1.00  0.00     0.135 A 
ATOM     85  F   UNL A   1      42.972  31.012  35.618  1.00  0.00    -0.206 F 
ATOM     86  C   UNL A   1      42.437  28.789  36.107  1.00  0.00     0.059 A 
ATOM     87  C   UNL A   1      41.944  27.238  34.314  1.00  0.00     0.059 A 
ATOM     88  F   UNL A   1      42.081  27.947  32.086  1.00  0.00    -0.206 F 
ATOM     89  C   UNL A   1      42.066  27.516  35.673  1.00  0.00     0.060 A 
BRANCH  89  90
ATOM     90  S   UNL A   1      41.682  26.242  36.894  1.00  0.00     0.124 S 
ATOM     91  O   UNL A   1      41.633  25.036  36.075  1.00  0.00    -0.237 OA
ATOM     92  O   UNL A   1      42.810  26.336  37.816  1.00  0.00    -0.237 OA
ATOM     93  O   UNL A   1      40.401  26.675  37.446  1.00  0.00    -0.744 OA
ENDBRANCH  89  90
ENDBRANCH  57  82
ENDBRANCH  31  32
ENDBRANCH  23  26
ENDBRANCH  21  22
ENDBRANCH   1  21
TORSDOF 16
ENDMDL
MODEL 3
REMARK VINA RESULT:     -12.1      5.099     12.063
REMARK SMILES C[C@@H](Cc1cnn(-c2ccccc2)n1)C(=O)NCCCNC(=O)c1ccc(-c2c3nc(c(-c4c(F)cc(S(=O)(=O)[O-])cc4F)c4ccc([nH]4)c(-c4c(F)cc(S(=O)(=O)[O-])cc4F)c4nc(c(-c5c(F)cc(S(=O)(=O)[O-])cc5F)c5ccc2[nH]5)C=C4)C=C3)cc1
REMARK SMILES IDX 19 1 18 2 17 3 15 4 16 5 2 7 1 8 3 9 4 10 5 11 14 12 6 13
REMARK SMILES IDX 7 14 8 15 9 16 13 17 10 18 12 19 11 20 20 21 21 22 22 23
REMARK SMILES IDX 23 25 24 26 25 27 89 28 26 29 88 30 27 31 28 32 29 33 82 34
REMARK SMILES IDX 30 35 87 36 81 37 83 38 31 39 86 40 80 41 79 42 32 44 66 45
REMARK SMILES IDX 45 46 65 47 46 48 49 49 64 50 84 51 47 52 48 53 63 55 85 56
REMARK SMILES IDX 50 57 33 58 34 59 43 60 35 61 36 62 42 63 44 64 37 65 38 66
REMARK SMILES IDX 39 67 40 68 41 69 67 70 68 71 77 72 69 73 70 74 76 75 78 76
REMARK SMILES IDX 71 77 72 78 73 79 74 80 75 81 51 82 52 83 61 84 53 85 54 86
REMARK SMILES IDX 60 87 62 88 55 89 56 90 57 91 58 92 59 93
REMARK H PARENT 17 6 21 24 83 43 49 54
REMARK Flexibility Score: inf
ROOT
ATOM      1  C   UNL A   1      43.524  25.418  24.999  1.00  0.00     0.042 C 
ENDROOT
BRANCH   1   2
ATOM      2  C   UNL A   1      44.491  26.400  25.642  1.00  0.00     0.117 C 
BRANCH   2   3
ATOM      3  N   UNL A   1      45.005  27.482  24.845  1.00  0.00    -0.356 N 
ATOM      4  C   UNL A   1      46.322  27.770  24.612  1.00  0.00     0.223 C 
ATOM      5  O   UNL A   1      46.596  28.440  23.613  1.00  0.00    -0.275 OA
ATOM      6  H   UNL A   1      44.341  28.076  24.424  1.00  0.00     0.163 HD
BRANCH   4   7
ATOM      7  C   UNL A   1      47.442  27.362  25.589  1.00  0.00     0.081 C 
ATOM      8  C   UNL A   1      48.705  26.944  24.838  1.00  0.00     0.018 C 
BRANCH   7   9
ATOM      9  C   UNL A   1      47.636  28.205  26.879  1.00  0.00     0.073 C 
BRANCH   9  10
ATOM     10  C   UNL A   1      47.779  27.513  28.204  1.00  0.00     0.084 A 
ATOM     11  C   UNL A   1      48.761  27.666  29.204  1.00  0.00     0.161 A 
ATOM     12  N   UNL A   1      46.841  26.664  28.659  1.00  0.00    -0.153 NA
ATOM     13  N   UNL A   1      48.328  27.144  30.355  1.00  0.00    -0.157 NA
ATOM     14  N   UNL A   1      47.174  26.530  29.976  1.00  0.00    -0.151 N 
BRANCH  14  15
ATOM     15  C   UNL A   1      46.304  25.920  30.912  1.00  0.00     0.086 A 
ATOM     16  C   UNL A   1      46.449  26.180  32.282  1.00  0.00     0.030 A 
ATOM     17  C   UNL A   1      45.284  25.073  30.469  1.00  0.00     0.030 A 
ATOM     18  C   UNL A   1      45.526  25.658  33.193  1.00  0.00     0.002 A 
ATOM     19  C   UNL A   1      44.431  24.470  31.397  1.00  0.00     0.002 A 
ATOM     20  C   UNL A   1      44.533  24.784  32.753  1.00  0.00     0.000 A 
ENDBRANCH  14  15
ENDBRANCH   9  10
ENDBRANCH   7   9
ENDBRANCH   4   7
ENDBRANCH   2   3
ENDBRANCH   1   2
BRANCH   1  21
ATOM     21  C   UNL A   1      43.684  24.025  25.561  1.00  0.00     0.118 C 
BRANCH  21  22
ATOM     22  N   UNL A   1      42.502  23.168  25.338  1.00  0.00    -0.352 N 
ATOM     23  C   UNL A   1      41.418  22.952  26.178  1.00  0.00     0.251 C 
ATOM     24  H   UNL A   1      42.478  22.686  24.480  1.00  0.00     0.163 HD
ATOM     25  O   UNL A   1      40.683  21.979  26.054  1.00  0.00    -0.269 OA
BRANCH  23  26
ATOM     26  C   UNL A   1      41.173  23.970  27.205  1.00  0.00     0.039 A 
ATOM     27  C   UNL A   1      41.915  24.079  28.381  1.00  0.00     0.014 A 
ATOM     28  C   UNL A   1      40.291  24.961  26.810  1.00  0.00     0.014 A 
ATOM     29  C   UNL A   1      41.851  25.285  29.078  1.00  0.00     0.010 A 
ATOM     30  C   UNL A   1      40.511  26.211  27.291  1.00  0.00     0.010 A 
ATOM     31  C   UNL A   1      41.181  26.371  28.490  1.00  0.00    -0.014 A 
BRANCH  31  32
ATOM     32  C   UNL A   1      41.229  27.729  29.016  1.00  0.00     0.031 A 
ATOM     33  C   UNL A   1      42.282  28.573  28.410  1.00  0.00     0.074 A 
ATOM     34  C   UNL A   1      40.255  28.243  29.804  1.00  0.00     0.049 A 
ATOM     35  N   UNL A   1      43.460  28.803  28.886  1.00  0.00    -0.248 NA
ATOM     36  C   UNL A   1      42.099  29.056  27.032  1.00  0.00     0.031 C 
ATOM     37  C   UNL A   1      38.986  27.613  30.213  1.00  0.00     0.029 A 
ATOM     38  N   UNL A   1      40.148  29.487  30.345  1.00  0.00    -0.354 N 
ATOM     39  C   UNL A   1      44.027  29.728  28.019  1.00  0.00     0.074 A 
ATOM     40  C   UNL A   1      43.289  29.616  26.788  1.00  0.00     0.031 C 
ATOM     41  C   UNL A   1      38.152  28.539  30.730  1.00  0.00     0.029 A 
ATOM     42  C   UNL A   1      38.905  29.763  30.906  1.00  0.00     0.049 A 
ATOM     43  H   UNL A   1      40.887  30.136  30.340  1.00  0.00     0.167 HD
ATOM     44  C   UNL A   1      44.792  30.744  28.508  1.00  0.00     0.037 A 
ATOM     45  C   UNL A   1      38.524  30.891  31.547  1.00  0.00     0.037 A 
ATOM     46  C   UNL A   1      45.046  30.542  29.917  1.00  0.00     0.049 A 
ATOM     47  C   UNL A   1      39.761  31.522  32.058  1.00  0.00     0.074 A 
ATOM     48  C   UNL A   1      45.817  29.693  30.682  1.00  0.00     0.029 A 
ATOM     49  N   UNL A   1      44.078  31.067  30.737  1.00  0.00    -0.354 N 
ATOM     50  N   UNL A   1      40.525  30.968  32.962  1.00  0.00    -0.248 NA
ATOM     51  C   UNL A   1      40.381  32.598  31.294  1.00  0.00     0.031 C 
ATOM     52  C   UNL A   1      45.155  29.584  31.943  1.00  0.00     0.029 A 
ATOM     53  C   UNL A   1      44.025  30.401  31.933  1.00  0.00     0.049 A 
ATOM     54  H   UNL A   1      43.496  31.824  30.497  1.00  0.00     0.167 HD
ATOM     55  C   UNL A   1      41.808  31.313  32.585  1.00  0.00     0.074 A 
ATOM     56  C   UNL A   1      41.652  32.445  31.679  1.00  0.00     0.031 C 
ATOM     57  C   UNL A   1      42.850  30.456  32.779  1.00  0.00     0.037 A 
BRANCH  44  58
ATOM     58  C   UNL A   1      44.906  32.132  27.912  1.00  0.00     0.058 A 
ATOM     59  C   UNL A   1      46.139  32.524  27.344  1.00  0.00     0.135 A 
ATOM     60  C   UNL A   1      43.982  33.177  28.128  1.00  0.00     0.135 A 
ATOM     61  F   UNL A   1      47.095  31.615  27.093  1.00  0.00    -0.206 F 
ATOM     62  C   UNL A   1      46.454  33.858  27.081  1.00  0.00     0.059 A 
ATOM     63  C   UNL A   1      44.256  34.507  27.823  1.00  0.00     0.059 A 
ATOM     64  F   UNL A   1      42.807  32.985  28.737  1.00  0.00    -0.206 F 
ATOM     65  C   UNL A   1      45.508  34.845  27.340  1.00  0.00     0.060 A 
BRANCH  65  66
ATOM     66  S   UNL A   1      45.937  36.577  27.095  1.00  0.00     0.124 S 
ATOM     67  O   UNL A   1      46.692  36.863  28.309  1.00  0.00    -0.237 OA
ATOM     68  O   UNL A   1      46.707  36.524  25.857  1.00  0.00    -0.237 OA
ATOM     69  O   UNL A   1      44.637  37.231  26.990  1.00  0.00    -0.744 OA
ENDBRANCH  65  66
ENDBRANCH  44  58
BRANCH  45  70
ATOM     70  C   UNL A   1      37.199  31.545  31.590  1.00  0.00     0.058 A 
ATOM     71  C   UNL A   1      36.551  31.798  32.810  1.00  0.00     0.135 A 
ATOM     72  C   UNL A   1      36.688  32.208  30.456  1.00  0.00     0.135 A 
ATOM     73  F   UNL A   1      36.979  31.209  33.936  1.00  0.00    -0.206 F 
ATOM     74  C   UNL A   1      35.503  32.717  32.916  1.00  0.00     0.059 A 
ATOM     75  C   UNL A   1      35.642  33.126  30.536  1.00  0.00     0.059 A 
ATOM     76  F   UNL A   1      37.265  32.051  29.254  1.00  0.00    -0.206 F 
ATOM     77  C   UNL A   1      35.075  33.400  31.776  1.00  0.00     0.060 A 
BRANCH  77  78
ATOM     78  S   UNL A   1      33.869  34.736  31.953  1.00  0.00     0.124 S 
ATOM     79  O   UNL A   1      32.917  34.161  32.898  1.00  0.00    -0.237 OA
ATOM     80  O   UNL A   1      34.692  35.828  32.463  1.00  0.00    -0.237 OA
ATOM     81  O   UNL A   1      33.367  34.921  30.594  1.00  0.00    -0.744 OA
ENDBRANCH  77  78
ENDBRANCH  45  70
BRANCH  57  82
ATOM     82  C   UNL A   1      42.702  29.425  33.862  1.00  0.00     0.058 A 
ATOM     83  C   UNL A   1      42.766  29.684  35.241  1.00  0.00     0.135 A 
ATOM     84  C   UNL A   1      42.403  28.113  33.469  1.00  0.00     0.135 A 
ATOM     85  F   UNL A   1      42.973  30.926  35.700  1.00  0.00    -0.206 F 
ATOM     86  C   UNL A   1      42.574  28.674  36.187  1.00  0.00     0.059 A 
ATOM     87  C   UNL A   1      42.184  27.096  34.391  1.00  0.00     0.059 A 
ATOM     88  F   UNL A   1      42.285  27.814  32.164  1.00  0.00    -0.206 F 
ATOM     89  C   UNL A   1      42.284  27.381  35.750  1.00  0.00     0.060 A 
BRANCH  89  90
ATOM     90  S   UNL A   1      41.974  26.084  36.969  1.00  0.00     0.124 S 
ATOM     91  O   UNL A   1      42.180  24.870  36.186  1.00  0.00    -0.237 OA
ATOM     92  O   UNL A   1      42.983  26.360  37.988  1.00  0.00    -0.237 OA
ATOM     93  O   UNL A   1      40.597  26.332  37.387  1.00  0.00    -0.744 OA
ENDBRANCH  89  90
ENDBRANCH  57  82
ENDBRANCH  31  32
ENDBRANCH  23  26
ENDBRANCH  21  22
ENDBRANCH   1  21
TORSDOF 16
ENDMDL
