MODEL 1
REMARK VINA RESULT:     -12.5      0.000      0.000
REMARK SMILES O=C(NCCCNC(=O)c1ccc2c(c1)NC1=[NH+]S(=O)(=O)[NH+]=C1N2)c1ccc(-c2c3nc(c(-c4c(F)cc(S(=O)(=O)[O-])cc4F)c4ccc([nH]4)c(-c4c(F)cc(S(=O)(=O)[O-])cc4F)c4nc(c(-c5c(F)cc(S(=O)(=O)[O-])cc5F)c5ccc2[nH]5)C=C4)C=C3)cc1
REMARK SMILES IDX 1 1 2 2 3 3 25 5 26 6 90 7 27 8 89 9 28 10 29 11 30 12 83 13
REMARK SMILES IDX 31 14 88 15 82 16 84 17 32 18 87 19 81 20 80 21 33 23 67 24
REMARK SMILES IDX 46 25 66 26 47 27 50 28 65 29 85 30 48 31 49 32 64 34 86 35
REMARK SMILES IDX 51 36 34 37 35 38 44 39 36 40 37 41 43 42 45 43 38 44 39 45
REMARK SMILES IDX 40 46 41 47 42 48 68 49 69 50 78 51 70 52 71 53 77 54 79 55
REMARK SMILES IDX 72 56 73 57 74 58 75 59 76 60 52 61 53 62 62 63 54 64 55 65
REMARK SMILES IDX 61 66 63 67 56 68 57 69 58 70 59 71 60 72 4 73 5 74 6 75
REMARK SMILES IDX 7 76 8 77 9 79 10 80 11 81 15 82 12 83 14 84 13 85 16 86
REMARK SMILES IDX 24 87 17 88 23 90 18 92 22 93 19 94 20 97 21 98
REMARK H PARENT 3 4 84 22 50 33 7 78 16 89 24 91 18 95 22 96
REMARK Flexibility Score: inf
ROOT
ATOM      1  O   UNL A   1      40.047  21.928  27.720  1.00  0.00    -0.269 OA
ATOM      2  C   UNL A   1      40.841  22.536  27.015  1.00  0.00     0.251 C 
ATOM      3  N   UNL A   1      41.622  21.885  26.059  1.00  0.00    -0.352 N 
ATOM      4  H   UNL A   1      41.327  20.984  25.793  1.00  0.00     0.163 HD
ENDROOT
BRANCH   2   5
ATOM      5  C   UNL A   1      40.992  23.998  27.113  1.00  0.00     0.039 A 
ATOM      6  C   UNL A   1      40.115  24.927  26.553  1.00  0.00     0.014 A 
ATOM      7  C   UNL A   1      41.977  24.395  27.997  1.00  0.00     0.014 A 
ATOM      8  C   UNL A   1      40.194  26.249  27.002  1.00  0.00     0.010 A 
ATOM      9  C   UNL A   1      41.758  25.539  28.692  1.00  0.00     0.010 A 
ATOM     10  C   UNL A   1      41.006  26.538  28.112  1.00  0.00    -0.014 A 
BRANCH  10  11
ATOM     11  C   UNL A   1      41.068  27.834  28.775  1.00  0.00     0.031 A 
ATOM     12  C   UNL A   1      42.093  28.745  28.216  1.00  0.00     0.074 A 
ATOM     13  C   UNL A   1      40.147  28.237  29.687  1.00  0.00     0.049 A 
ATOM     14  N   UNL A   1      43.249  29.002  28.727  1.00  0.00    -0.248 NA
ATOM     15  C   UNL A   1      41.924  29.260  26.847  1.00  0.00     0.031 C 
ATOM     16  C   UNL A   1      38.924  27.555  30.147  1.00  0.00     0.029 A 
ATOM     17  N   UNL A   1      40.070  29.417  30.358  1.00  0.00    -0.354 N 
ATOM     18  C   UNL A   1      43.831  29.940  27.888  1.00  0.00     0.074 A 
ATOM     19  C   UNL A   1      43.095  29.874  26.651  1.00  0.00     0.031 C 
ATOM     20  C   UNL A   1      38.124  28.419  30.807  1.00  0.00     0.029 A 
ATOM     21  C   UNL A   1      38.855  29.650  31.006  1.00  0.00     0.049 A 
ATOM     22  H   UNL A   1      40.815  30.060  30.384  1.00  0.00     0.167 HD
ATOM     23  C   UNL A   1      44.681  30.879  28.388  1.00  0.00     0.037 A 
ATOM     24  C   UNL A   1      38.492  30.768  31.688  1.00  0.00     0.037 A 
ATOM     25  C   UNL A   1      45.084  30.539  29.734  1.00  0.00     0.049 A 
ATOM     26  C   UNL A   1      39.761  31.446  32.067  1.00  0.00     0.074 A 
ATOM     27  C   UNL A   1      45.719  29.453  30.305  1.00  0.00     0.029 A 
ATOM     28  N   UNL A   1      44.443  31.186  30.766  1.00  0.00    -0.354 N 
ATOM     29  N   UNL A   1      40.623  30.932  32.905  1.00  0.00    -0.248 NA
ATOM     30  C   UNL A   1      40.304  32.418  31.131  1.00  0.00     0.031 C 
ATOM     31  C   UNL A   1      45.034  29.230  31.535  1.00  0.00     0.029 A 
ATOM     32  C   UNL A   1      44.089  30.244  31.699  1.00  0.00     0.049 A 
ATOM     33  H   UNL A   1      44.270  32.154  30.826  1.00  0.00     0.167 HD
ATOM     34  C   UNL A   1      41.865  31.177  32.333  1.00  0.00     0.074 A 
ATOM     35  C   UNL A   1      41.607  32.157  31.277  1.00  0.00     0.031 C 
ATOM     36  C   UNL A   1      42.927  30.348  32.560  1.00  0.00     0.037 A 
BRANCH  23  37
ATOM     37  C   UNL A   1      44.836  32.275  27.841  1.00  0.00     0.058 A 
ATOM     38  C   UNL A   1      46.040  32.625  27.196  1.00  0.00     0.135 A 
ATOM     39  C   UNL A   1      43.981  33.352  28.163  1.00  0.00     0.135 A 
ATOM     40  F   UNL A   1      46.929  31.680  26.847  1.00  0.00    -0.206 F 
ATOM     41  C   UNL A   1      46.402  33.950  26.960  1.00  0.00     0.059 A 
ATOM     42  C   UNL A   1      44.298  34.676  27.889  1.00  0.00     0.059 A 
ATOM     43  F   UNL A   1      42.845  33.186  28.849  1.00  0.00    -0.206 F 
ATOM     44  C   UNL A   1      45.527  34.970  27.324  1.00  0.00     0.060 A 
BRANCH  44  45
ATOM     45  S   UNL A   1      46.035  36.683  27.109  1.00  0.00     0.124 S 
ATOM     46  O   UNL A   1      46.772  36.925  28.343  1.00  0.00    -0.237 OA
ATOM     47  O   UNL A   1      46.831  36.607  25.889  1.00  0.00    -0.237 OA
ATOM     48  O   UNL A   1      44.767  37.394  26.981  1.00  0.00    -0.744 OA
ENDBRANCH  44  45
ENDBRANCH  23  37
BRANCH  24  49
ATOM     49  C   UNL A   1      37.166  31.448  31.718  1.00  0.00     0.058 A 
ATOM     50  C   UNL A   1      36.572  31.833  32.935  1.00  0.00     0.135 A 
ATOM     51  C   UNL A   1      36.594  32.001  30.554  1.00  0.00     0.135 A 
ATOM     52  F   UNL A   1      37.052  31.363  34.097  1.00  0.00    -0.206 F 
ATOM     53  C   UNL A   1      35.527  32.765  33.000  1.00  0.00     0.059 A 
ATOM     54  C   UNL A   1      35.547  32.926  30.594  1.00  0.00     0.059 A 
ATOM     55  F   UNL A   1      37.099  31.732  29.341  1.00  0.00    -0.206 F 
ATOM     56  C   UNL A   1      35.041  33.329  31.822  1.00  0.00     0.060 A 
BRANCH  56  57
ATOM     57  S   UNL A   1      33.835  34.679  31.912  1.00  0.00     0.124 S 
ATOM     58  O   UNL A   1      34.662  35.796  32.355  1.00  0.00    -0.237 OA
ATOM     59  O   UNL A   1      33.351  34.750  30.538  1.00  0.00    -0.237 OA
ATOM     60  O   UNL A   1      32.860  34.199  32.888  1.00  0.00    -0.744 OA
ENDBRANCH  56  57
ENDBRANCH  24  49
BRANCH  36  61
ATOM     61  C   UNL A   1      42.820  29.318  33.660  1.00  0.00     0.058 A 
ATOM     62  C   UNL A   1      43.041  29.573  35.026  1.00  0.00     0.135 A 
ATOM     63  C   UNL A   1      42.285  28.064  33.326  1.00  0.00     0.135 A 
ATOM     64  F   UNL A   1      43.463  30.774  35.443  1.00  0.00    -0.206 F 
ATOM     65  C   UNL A   1      42.761  28.620  36.010  1.00  0.00     0.059 A 
ATOM     66  C   UNL A   1      41.972  27.110  34.291  1.00  0.00     0.059 A 
ATOM     67  F   UNL A   1      41.997  27.778  32.047  1.00  0.00    -0.206 F 
ATOM     68  C   UNL A   1      42.220  27.392  35.632  1.00  0.00     0.060 A 
BRANCH  68  69
ATOM     69  S   UNL A   1      41.780  26.189  36.907  1.00  0.00     0.124 S 
ATOM     70  O   UNL A   1      41.604  24.967  36.130  1.00  0.00    -0.237 OA
ATOM     71  O   UNL A   1      42.946  26.218  37.786  1.00  0.00    -0.237 OA
ATOM     72  O   UNL A   1      40.557  26.738  37.489  1.00  0.00    -0.744 OA
ENDBRANCH  68  69
ENDBRANCH  36  61
ENDBRANCH  10  11
ENDBRANCH   2   5
BRANCH   3  73
ATOM     73  C   UNL A   1      42.842  22.395  25.402  1.00  0.00     0.118 C 
BRANCH  73  74
ATOM     74  C   UNL A   1      44.080  21.556  25.636  1.00  0.00     0.042 C 
BRANCH  74  75
ATOM     75  C   UNL A   1      45.290  22.404  26.026  1.00  0.00     0.118 C 
BRANCH  75  76
ATOM     76  N   UNL A   1      45.282  22.873  27.412  1.00  0.00    -0.352 N 
ATOM     77  C   UNL A   1      45.509  24.129  27.929  1.00  0.00     0.251 C 
ATOM     78  H   UNL A   1      45.082  22.181  28.082  1.00  0.00     0.163 HD
ATOM     79  O   UNL A   1      45.514  24.326  29.139  1.00  0.00    -0.269 OA
BRANCH  77  80
ATOM     80  C   UNL A   1      45.794  25.247  27.013  1.00  0.00     0.044 A 
ATOM     81  C   UNL A   1      44.830  26.231  26.781  1.00  0.00     0.018 A 
ATOM     82  C   UNL A   1      47.014  25.259  26.330  1.00  0.00     0.070 A 
ATOM     83  C   UNL A   1      44.995  27.125  25.729  1.00  0.00     0.057 A 
ATOM     84  C   UNL A   1      47.208  26.176  25.297  1.00  0.00     0.173 A 
ATOM     85  C   UNL A   1      46.156  27.074  24.952  1.00  0.00     0.172 A 
ATOM     86  N   UNL A   1      48.388  26.148  24.529  1.00  0.00    -0.229 N 
ATOM     87  N   UNL A   1      46.271  27.890  23.814  1.00  0.00    -0.229 N 
ATOM     88  C   UNL A   1      48.508  26.893  23.389  1.00  0.00     0.383 C 
ATOM     89  H   UNL A   1      49.140  25.581  24.818  1.00  0.00     0.313 HD
ATOM     90  C   UNL A   1      47.362  27.810  22.997  1.00  0.00     0.383 C 
ATOM     91  H   UNL A   1      45.554  28.531  23.603  1.00  0.00     0.313 HD
ATOM     92  N   UNL A   1      49.479  26.938  22.548  1.00  0.00    -0.122 N 
ATOM     93  N   UNL A   1      47.570  28.429  21.890  1.00  0.00    -0.122 N 
ATOM     94  S   UNL A   1      49.039  27.957  21.347  1.00  0.00     0.469 S 
ATOM     95  H   UNL A   1      50.330  26.448  22.616  1.00  0.00     0.331 HD
ATOM     96  H   UNL A   1      46.961  29.067  21.453  1.00  0.00     0.331 HD
ATOM     97  O   UNL A   1      49.913  29.100  21.353  1.00  0.00    -0.143 OA
ATOM     98  O   UNL A   1      48.836  27.176  20.137  1.00  0.00    -0.143 OA
ENDBRANCH  77  80
ENDBRANCH  75  76
ENDBRANCH  74  75
ENDBRANCH  73  74
ENDBRANCH   3  73
TORSDOF 13
ENDMDL
MODEL 2
REMARK VINA RESULT:     -12.4      4.432      7.679
REMARK SMILES O=C(NCCCNC(=O)c1ccc2c(c1)NC1=[NH+]S(=O)(=O)[NH+]=C1N2)c1ccc(-c2c3nc(c(-c4c(F)cc(S(=O)(=O)[O-])cc4F)c4ccc([nH]4)c(-c4c(F)cc(S(=O)(=O)[O-])cc4F)c4nc(c(-c5c(F)cc(S(=O)(=O)[O-])cc5F)c5ccc2[nH]5)C=C4)C=C3)cc1
REMARK SMILES IDX 1 1 2 2 3 3 25 5 26 6 90 7 27 8 89 9 28 10 29 11 30 12 83 13
REMARK SMILES IDX 31 14 88 15 82 16 84 17 32 18 87 19 81 20 80 21 33 23 67 24
REMARK SMILES IDX 46 25 66 26 47 27 50 28 65 29 85 30 48 31 49 32 64 34 86 35
REMARK SMILES IDX 51 36 34 37 35 38 44 39 36 40 37 41 43 42 45 43 38 44 39 45
REMARK SMILES IDX 40 46 41 47 42 48 68 49 69 50 78 51 70 52 71 53 77 54 79 55
REMARK SMILES IDX 72 56 73 57 74 58 75 59 76 60 52 61 53 62 62 63 54 64 55 65
REMARK SMILES IDX 61 66 63 67 56 68 57 69 58 70 59 71 60 72 4 73 5 74 6 75
REMARK SMILES IDX 7 76 8 77 9 79 10 80 11 81 15 82 12 83 14 84 13 85 16 86
REMARK SMILES IDX 24 87 17 88 23 90 18 92 22 93 19 94 20 97 21 98
REMARK H PARENT 3 4 84 22 50 33 7 78 16 89 24 91 18 95 22 96
REMARK Flexibility Score: inf
ROOT
ATOM      1  O   UNL A   1      40.878  22.090  26.678  1.00  0.00    -0.269 OA
ATOM      2  C   UNL A   1      40.111  23.041  26.708  1.00  0.00     0.251 C 
ATOM      3  N   UNL A   1      38.738  22.884  26.509  1.00  0.00    -0.352 N 
ATOM      4  H   UNL A   1      38.384  21.971  26.607  1.00  0.00     0.163 HD
ENDROOT
BRANCH   2   5
ATOM      5  C   UNL A   1      40.589  24.405  26.991  1.00  0.00     0.039 A 
ATOM      6  C   UNL A   1      40.393  25.507  26.157  1.00  0.00     0.014 A 
ATOM      7  C   UNL A   1      41.081  24.565  28.272  1.00  0.00     0.014 A 
ATOM      8  C   UNL A   1      40.602  26.778  26.698  1.00  0.00     0.010 A 
ATOM      9  C   UNL A   1      40.875  25.766  28.868  1.00  0.00     0.010 A 
ATOM     10  C   UNL A   1      40.811  26.897  28.083  1.00  0.00    -0.014 A 
BRANCH  10  11
ATOM     11  C   UNL A   1      40.894  28.163  28.800  1.00  0.00     0.031 A 
ATOM     12  C   UNL A   1      42.044  29.005  28.398  1.00  0.00     0.074 A 
ATOM     13  C   UNL A   1      39.907  28.610  29.618  1.00  0.00     0.049 A 
ATOM     14  N   UNL A   1      43.149  29.152  29.047  1.00  0.00    -0.248 NA
ATOM     15  C   UNL A   1      42.075  29.574  27.040  1.00  0.00     0.031 C 
ATOM     16  C   UNL A   1      38.591  28.015  29.909  1.00  0.00     0.029 A 
ATOM     17  N   UNL A   1      39.843  29.771  30.322  1.00  0.00    -0.354 N 
ATOM     18  C   UNL A   1      43.895  30.066  28.316  1.00  0.00     0.074 A 
ATOM     19  C   UNL A   1      43.304  30.097  27.003  1.00  0.00     0.031 C 
ATOM     20  C   UNL A   1      37.788  28.920  30.508  1.00  0.00     0.029 A 
ATOM     21  C   UNL A   1      38.583  30.081  30.837  1.00  0.00     0.049 A 
ATOM     22  H   UNL A   1      40.628  30.351  30.458  1.00  0.00     0.167 HD
ATOM     23  C   UNL A   1      44.751  30.917  28.947  1.00  0.00     0.037 A 
ATOM     24  C   UNL A   1      38.230  31.203  31.518  1.00  0.00     0.037 A 
ATOM     25  C   UNL A   1      44.967  30.504  30.315  1.00  0.00     0.049 A 
ATOM     26  C   UNL A   1      39.495  31.764  32.065  1.00  0.00     0.074 A 
ATOM     27  C   UNL A   1      45.447  29.353  30.911  1.00  0.00     0.029 A 
ATOM     28  N   UNL A   1      44.263  31.169  31.293  1.00  0.00    -0.354 N 
ATOM     29  N   UNL A   1      40.212  31.157  32.974  1.00  0.00    -0.248 NA
ATOM     30  C   UNL A   1      40.215  32.719  31.236  1.00  0.00     0.031 C 
ATOM     31  C   UNL A   1      44.608  29.149  32.045  1.00  0.00     0.029 A 
ATOM     32  C   UNL A   1      43.731  30.230  32.142  1.00  0.00     0.049 A 
ATOM     33  H   UNL A   1      44.158  32.145  31.371  1.00  0.00     0.167 HD
ATOM     34  C   UNL A   1      41.527  31.318  32.556  1.00  0.00     0.074 A 
ATOM     35  C   UNL A   1      41.469  32.349  31.518  1.00  0.00     0.031 C 
ATOM     36  C   UNL A   1      42.489  30.400  32.869  1.00  0.00     0.037 A 
BRANCH  23  37
ATOM     37  C   UNL A   1      45.074  32.312  28.477  1.00  0.00     0.058 A 
ATOM     38  C   UNL A   1      46.420  32.652  28.226  1.00  0.00     0.135 A 
ATOM     39  C   UNL A   1      44.170  33.396  28.531  1.00  0.00     0.135 A 
ATOM     40  F   UNL A   1      47.365  31.700  28.159  1.00  0.00    -0.206 F 
ATOM     41  C   UNL A   1      46.846  33.975  28.116  1.00  0.00     0.059 A 
ATOM     42  C   UNL A   1      44.566  34.718  28.370  1.00  0.00     0.059 A 
ATOM     43  F   UNL A   1      42.879  33.240  28.841  1.00  0.00    -0.206 F 
ATOM     44  C   UNL A   1      45.911  35.002  28.203  1.00  0.00     0.060 A 
BRANCH  44  45
ATOM     45  S   UNL A   1      46.473  36.710  28.158  1.00  0.00     0.124 S 
ATOM     46  O   UNL A   1      46.933  36.829  26.781  1.00  0.00    -0.237 OA
ATOM     47  O   UNL A   1      45.251  37.435  28.492  1.00  0.00    -0.237 OA
ATOM     48  O   UNL A   1      47.516  36.747  29.178  1.00  0.00    -0.744 OA
ENDBRANCH  44  45
ENDBRANCH  23  37
BRANCH  24  49
ATOM     49  C   UNL A   1      36.965  31.987  31.425  1.00  0.00     0.058 A 
ATOM     50  C   UNL A   1      36.149  32.189  32.554  1.00  0.00     0.135 A 
ATOM     51  C   UNL A   1      36.682  32.801  30.309  1.00  0.00     0.135 A 
ATOM     52  F   UNL A   1      36.347  31.465  33.667  1.00  0.00    -0.206 F 
ATOM     53  C   UNL A   1      35.165  33.185  32.601  1.00  0.00     0.059 A 
ATOM     54  C   UNL A   1      35.702  33.795  30.330  1.00  0.00     0.059 A 
ATOM     55  F   UNL A   1      37.417  32.720  29.190  1.00  0.00    -0.206 F 
ATOM     56  C   UNL A   1      34.969  34.005  31.491  1.00  0.00     0.060 A 
BRANCH  56  57
ATOM     57  S   UNL A   1      33.845  35.421  31.615  1.00  0.00     0.124 S 
ATOM     58  O   UNL A   1      32.669  34.822  32.239  1.00  0.00    -0.237 OA
ATOM     59  O   UNL A   1      34.606  36.346  32.447  1.00  0.00    -0.237 OA
ATOM     60  O   UNL A   1      33.669  35.837  30.226  1.00  0.00    -0.744 OA
ENDBRANCH  56  57
ENDBRANCH  24  49
BRANCH  36  61
ATOM     61  C   UNL A   1      42.176  29.348  33.907  1.00  0.00     0.058 A 
ATOM     62  C   UNL A   1      41.653  28.071  33.628  1.00  0.00     0.135 A 
ATOM     63  C   UNL A   1      42.607  29.585  35.222  1.00  0.00     0.135 A 
ATOM     64  F   UNL A   1      41.303  27.728  32.381  1.00  0.00    -0.206 F 
ATOM     65  C   UNL A   1      41.546  27.086  34.614  1.00  0.00     0.059 A 
ATOM     66  C   UNL A   1      42.537  28.609  36.213  1.00  0.00     0.059 A 
ATOM     67  F   UNL A   1      43.168  30.761  35.541  1.00  0.00    -0.206 F 
ATOM     68  C   UNL A   1      41.997  27.363  35.904  1.00  0.00     0.060 A 
BRANCH  68  69
ATOM     69  S   UNL A   1      41.937  26.065  37.160  1.00  0.00     0.124 S 
ATOM     70  O   UNL A   1      42.937  26.520  38.121  1.00  0.00    -0.237 OA
ATOM     71  O   UNL A   1      40.550  26.127  37.613  1.00  0.00    -0.237 OA
ATOM     72  O   UNL A   1      42.289  24.855  36.420  1.00  0.00    -0.744 OA
ENDBRANCH  68  69
ENDBRANCH  36  61
ENDBRANCH  10  11
ENDBRANCH   2   5
BRANCH   3  73
ATOM     73  C   UNL A   1      37.758  23.934  26.167  1.00  0.00     0.118 C 
BRANCH  73  74
ATOM     74  C   UNL A   1      36.399  23.412  25.749  1.00  0.00     0.042 C 
BRANCH  74  75
ATOM     75  C   UNL A   1      36.261  23.303  24.231  1.00  0.00     0.118 C 
BRANCH  75  76
ATOM     76  N   UNL A   1      35.125  24.035  23.670  1.00  0.00    -0.352 N 
ATOM     77  C   UNL A   1      33.780  23.745  23.690  1.00  0.00     0.251 C 
ATOM     78  H   UNL A   1      35.361  24.869  23.203  1.00  0.00     0.163 HD
ATOM     79  O   UNL A   1      32.968  24.457  23.111  1.00  0.00    -0.269 OA
BRANCH  77  80
ATOM     80  C   UNL A   1      33.313  22.532  24.384  1.00  0.00     0.044 A 
ATOM     81  C   UNL A   1      33.036  22.567  25.753  1.00  0.00     0.018 A 
ATOM     82  C   UNL A   1      33.226  21.338  23.662  1.00  0.00     0.070 A 
ATOM     83  C   UNL A   1      32.856  21.377  26.451  1.00  0.00     0.057 A 
ATOM     84  C   UNL A   1      33.008  20.142  24.346  1.00  0.00     0.173 A 
ATOM     85  C   UNL A   1      32.890  20.160  25.766  1.00  0.00     0.172 A 
ATOM     86  N   UNL A   1      33.013  18.914  23.656  1.00  0.00    -0.229 N 
ATOM     87  N   UNL A   1      32.834  18.953  26.484  1.00  0.00    -0.229 N 
ATOM     88  C   UNL A   1      33.010  17.724  24.330  1.00  0.00     0.383 C 
ATOM     89  H   UNL A   1      33.019  18.912  22.671  1.00  0.00     0.313 HD
ATOM     90  C   UNL A   1      32.936  17.750  25.847  1.00  0.00     0.383 C 
ATOM     91  H   UNL A   1      32.718  18.975  27.461  1.00  0.00     0.313 HD
ATOM     92  N   UNL A   1      33.074  16.529  23.863  1.00  0.00    -0.122 N 
ATOM     93  N   UNL A   1      32.980  16.576  26.371  1.00  0.00    -0.122 N 
ATOM     94  S   UNL A   1      33.098  15.506  25.139  1.00  0.00     0.469 S 
ATOM     95  H   UNL A   1      33.103  16.276  22.912  1.00  0.00     0.331 HD
ATOM     96  H   UNL A   1      32.948  16.363  27.332  1.00  0.00     0.331 HD
ATOM     97  O   UNL A   1      31.906  14.701  25.123  1.00  0.00    -0.143 OA
ATOM     98  O   UNL A   1      34.415  14.893  25.209  1.00  0.00    -0.143 OA
ENDBRANCH  77  80
ENDBRANCH  75  76
ENDBRANCH  74  75
ENDBRANCH  73  74
ENDBRANCH   3  73
TORSDOF 13
ENDMDL
MODEL 3
REMARK VINA RESULT:     -12.3      4.751      7.724
REMARK SMILES O=C(NCCCNC(=O)c1ccc2c(c1)NC1=[NH+]S(=O)(=O)[NH+]=C1N2)c1ccc(-c2c3nc(c(-c4c(F)cc(S(=O)(=O)[O-])cc4F)c4ccc([nH]4)c(-c4c(F)cc(S(=O)(=O)[O-])cc4F)c4nc(c(-c5c(F)cc(S(=O)(=O)[O-])cc5F)c5ccc2[nH]5)C=C4)C=C3)cc1
REMARK SMILES IDX 1 1 2 2 3 3 25 5 26 6 90 7 27 8 89 9 28 10 29 11 30 12 83 13
REMARK SMILES IDX 31 14 88 15 82 16 84 17 32 18 87 19 81 20 80 21 33 23 67 24
REMARK SMILES IDX 46 25 66 26 47 27 50 28 65 29 85 30 48 31 49 32 64 34 86 35
REMARK SMILES IDX 51 36 34 37 35 38 44 39 36 40 37 41 43 42 45 43 38 44 39 45
REMARK SMILES IDX 40 46 41 47 42 48 68 49 69 50 78 51 70 52 71 53 77 54 79 55
REMARK SMILES IDX 72 56 73 57 74 58 75 59 76 60 52 61 53 62 62 63 54 64 55 65
REMARK SMILES IDX 61 66 63 67 56 68 57 69 58 70 59 71 60 72 4 73 5 74 6 75
REMARK SMILES IDX 7 76 8 77 9 79 10 80 11 81 15 82 12 83 14 84 13 85 16 86
REMARK SMILES IDX 24 87 17 88 23 90 18 92 22 93 19 94 20 97 21 98
REMARK H PARENT 3 4 84 22 50 33 7 78 16 89 24 91 18 95 22 96
REMARK Flexibility Score: inf
ROOT
ATOM      1  O   UNL A   1      40.553  21.892  26.769  1.00  0.00    -0.269 OA
ATOM      2  C   UNL A   1      39.824  22.874  26.746  1.00  0.00     0.251 C 
ATOM      3  N   UNL A   1      38.453  22.765  26.509  1.00  0.00    -0.352 N 
ATOM      4  H   UNL A   1      38.059  21.870  26.623  1.00  0.00     0.163 HD
ENDROOT
BRANCH   2   5
ATOM      5  C   UNL A   1      40.349  24.226  27.004  1.00  0.00     0.039 A 
ATOM      6  C   UNL A   1      40.229  25.306  26.128  1.00  0.00     0.014 A 
ATOM      7  C   UNL A   1      40.799  24.408  28.298  1.00  0.00     0.014 A 
ATOM      8  C   UNL A   1      40.472  26.585  26.637  1.00  0.00     0.010 A 
ATOM      9  C   UNL A   1      40.621  25.635  28.846  1.00  0.00     0.010 A 
ATOM     10  C   UNL A   1      40.634  26.742  28.024  1.00  0.00    -0.014 A 
BRANCH  10  11
ATOM     11  C   UNL A   1      40.743  28.026  28.703  1.00  0.00     0.031 A 
ATOM     12  C   UNL A   1      41.888  28.848  28.249  1.00  0.00     0.074 A 
ATOM     13  C   UNL A   1      39.781  28.503  29.533  1.00  0.00     0.049 A 
ATOM     14  N   UNL A   1      43.010  29.006  28.865  1.00  0.00    -0.248 NA
ATOM     15  C   UNL A   1      41.888  29.380  26.875  1.00  0.00     0.031 C 
ATOM     16  C   UNL A   1      38.468  27.925  29.874  1.00  0.00     0.029 A 
ATOM     17  N   UNL A   1      39.742  29.683  30.206  1.00  0.00    -0.354 N 
ATOM     18  C   UNL A   1      43.742  29.894  28.091  1.00  0.00     0.074 A 
ATOM     19  C   UNL A   1      43.119  29.893  26.792  1.00  0.00     0.031 C 
ATOM     20  C   UNL A   1      37.686  28.852  30.468  1.00  0.00     0.029 A 
ATOM     21  C   UNL A   1      38.498  30.016  30.744  1.00  0.00     0.049 A 
ATOM     22  H   UNL A   1      40.534  30.261  30.306  1.00  0.00     0.167 HD
ATOM     23  C   UNL A   1      44.620  30.756  28.675  1.00  0.00     0.037 A 
ATOM     24  C   UNL A   1      38.169  31.159  31.402  1.00  0.00     0.037 A 
ATOM     25  C   UNL A   1      44.868  30.379  30.049  1.00  0.00     0.049 A 
ATOM     26  C   UNL A   1      39.451  31.726  31.901  1.00  0.00     0.074 A 
ATOM     27  C   UNL A   1      45.356  29.242  30.663  1.00  0.00     0.029 A 
ATOM     28  N   UNL A   1      44.193  31.076  31.025  1.00  0.00    -0.354 N 
ATOM     29  N   UNL A   1      40.187  31.139  32.809  1.00  0.00    -0.248 NA
ATOM     30  C   UNL A   1      40.156  32.652  31.028  1.00  0.00     0.031 C 
ATOM     31  C   UNL A   1      44.546  29.075  31.824  1.00  0.00     0.029 A 
ATOM     32  C   UNL A   1      43.678  30.165  31.913  1.00  0.00     0.049 A 
ATOM     33  H   UNL A   1      44.097  32.054  31.079  1.00  0.00     0.167 HD
ATOM     34  C   UNL A   1      41.492  31.280  32.353  1.00  0.00     0.074 A 
ATOM     35  C   UNL A   1      41.414  32.282  31.288  1.00  0.00     0.031 C 
ATOM     36  C   UNL A   1      42.456  30.363  32.667  1.00  0.00     0.037 A 
BRANCH  23  37
ATOM     37  C   UNL A   1      44.940  32.136  28.159  1.00  0.00     0.058 A 
ATOM     38  C   UNL A   1      46.250  32.410  27.714  1.00  0.00     0.135 A 
ATOM     39  C   UNL A   1      44.108  33.263  28.340  1.00  0.00     0.135 A 
ATOM     40  F   UNL A   1      47.127  31.412  27.513  1.00  0.00    -0.206 F 
ATOM     41  C   UNL A   1      46.720  33.710  27.538  1.00  0.00     0.059 A 
ATOM     42  C   UNL A   1      44.541  34.564  28.119  1.00  0.00     0.059 A 
ATOM     43  F   UNL A   1      42.869  33.169  28.835  1.00  0.00    -0.206 F 
ATOM     44  C   UNL A   1      45.859  34.782  27.757  1.00  0.00     0.060 A 
BRANCH  44  45
ATOM     45  S   UNL A   1      46.493  36.461  27.625  1.00  0.00     0.124 S 
ATOM     46  O   UNL A   1      45.294  37.245  27.892  1.00  0.00    -0.237 OA
ATOM     47  O   UNL A   1      47.516  36.476  28.665  1.00  0.00    -0.237 OA
ATOM     48  O   UNL A   1      46.996  36.522  26.256  1.00  0.00    -0.744 OA
ENDBRANCH  44  45
ENDBRANCH  23  37
BRANCH  24  49
ATOM     49  C   UNL A   1      36.907  31.949  31.320  1.00  0.00     0.058 A 
ATOM     50  C   UNL A   1      36.073  32.108  32.443  1.00  0.00     0.135 A 
ATOM     51  C   UNL A   1      36.644  32.808  30.233  1.00  0.00     0.135 A 
ATOM     52  F   UNL A   1      36.251  31.339  33.529  1.00  0.00    -0.206 F 
ATOM     53  C   UNL A   1      35.089  33.104  32.513  1.00  0.00     0.059 A 
ATOM     54  C   UNL A   1      35.665  33.803  30.278  1.00  0.00     0.059 A 
ATOM     55  F   UNL A   1      37.397  32.769  29.124  1.00  0.00    -0.206 F 
ATOM     56  C   UNL A   1      34.913  33.967  31.434  1.00  0.00     0.060 A 
BRANCH  56  57
ATOM     57  S   UNL A   1      33.790  35.380  31.596  1.00  0.00     0.124 S 
ATOM     58  O   UNL A   1      34.558  36.284  32.444  1.00  0.00    -0.237 OA
ATOM     59  O   UNL A   1      33.619  35.798  30.209  1.00  0.00    -0.237 OA
ATOM     60  O   UNL A   1      32.603  34.799  32.218  1.00  0.00    -0.744 OA
ENDBRANCH  56  57
ENDBRANCH  24  49
BRANCH  36  61
ATOM     61  C   UNL A   1      42.163  29.343  33.741  1.00  0.00     0.058 A 
ATOM     62  C   UNL A   1      41.607  28.071  33.513  1.00  0.00     0.135 A 
ATOM     63  C   UNL A   1      42.648  29.602  35.033  1.00  0.00     0.135 A 
ATOM     64  F   UNL A   1      41.203  27.705  32.289  1.00  0.00    -0.206 F 
ATOM     65  C   UNL A   1      41.518  27.111  34.526  1.00  0.00     0.059 A 
ATOM     66  C   UNL A   1      42.597  28.652  36.049  1.00  0.00     0.059 A 
ATOM     67  F   UNL A   1      43.243  30.775  35.302  1.00  0.00    -0.206 F 
ATOM     68  C   UNL A   1      42.023  27.410  35.791  1.00  0.00     0.060 A 
BRANCH  68  69
ATOM     69  S   UNL A   1      41.987  26.144  37.080  1.00  0.00     0.124 S 
ATOM     70  O   UNL A   1      42.986  26.636  38.023  1.00  0.00    -0.237 OA
ATOM     71  O   UNL A   1      40.602  26.199  37.539  1.00  0.00    -0.237 OA
ATOM     72  O   UNL A   1      42.350  24.920  36.369  1.00  0.00    -0.744 OA
ENDBRANCH  68  69
ENDBRANCH  36  61
ENDBRANCH  10  11
ENDBRANCH   2   5
BRANCH   3  73
ATOM     73  C   UNL A   1      37.526  23.841  26.106  1.00  0.00     0.118 C 
BRANCH  73  74
ATOM     74  C   UNL A   1      36.075  23.420  26.013  1.00  0.00     0.042 C 
BRANCH  74  75
ATOM     75  C   UNL A   1      35.267  24.322  25.081  1.00  0.00     0.118 C 
BRANCH  75  76
ATOM     76  N   UNL A   1      34.990  23.743  23.766  1.00  0.00    -0.352 N 
ATOM     77  C   UNL A   1      33.933  23.947  22.907  1.00  0.00     0.251 C 
ATOM     78  H   UNL A   1      35.667  23.107  23.443  1.00  0.00     0.163 HD
ATOM     79  O   UNL A   1      33.840  23.325  21.856  1.00  0.00    -0.269 OA
BRANCH  77  80
ATOM     80  C   UNL A   1      32.873  24.899  23.281  1.00  0.00     0.044 A 
ATOM     81  C   UNL A   1      31.829  24.498  24.118  1.00  0.00     0.018 A 
ATOM     82  C   UNL A   1      32.895  26.181  22.723  1.00  0.00     0.070 A 
ATOM     83  C   UNL A   1      30.703  25.303  24.252  1.00  0.00     0.057 A 
ATOM     84  C   UNL A   1      31.788  27.014  22.882  1.00  0.00     0.173 A 
ATOM     85  C   UNL A   1      30.652  26.538  23.600  1.00  0.00     0.172 A 
ATOM     86  N   UNL A   1      31.742  28.272  22.250  1.00  0.00    -0.229 N 
ATOM     87  N   UNL A   1      29.469  27.296  23.632  1.00  0.00    -0.229 N 
ATOM     88  C   UNL A   1      30.591  29.008  22.221  1.00  0.00     0.383 C 
ATOM     89  H   UNL A   1      32.555  28.627  21.820  1.00  0.00     0.313 HD
ATOM     90  C   UNL A   1      29.368  28.471  22.945  1.00  0.00     0.383 C 
ATOM     91  H   UNL A   1      28.702  26.975  24.158  1.00  0.00     0.313 HD
ATOM     92  N   UNL A   1      30.363  30.133  21.643  1.00  0.00    -0.122 N 
ATOM     93  N   UNL A   1      28.336  29.228  22.816  1.00  0.00    -0.122 N 
ATOM     94  S   UNL A   1      28.790  30.502  21.896  1.00  0.00     0.469 S 
ATOM     95  H   UNL A   1      31.016  30.672  21.141  1.00  0.00     0.331 HD
ATOM     96  H   UNL A   1      27.444  29.070  23.199  1.00  0.00     0.331 HD
ATOM     97  O   UNL A   1      28.707  31.693  22.699  1.00  0.00    -0.143 OA
ATOM     98  O   UNL A   1      28.088  30.405  20.626  1.00  0.00    -0.143 OA
ENDBRANCH  77  80
ENDBRANCH  75  76
ENDBRANCH  74  75
ENDBRANCH  73  74
ENDBRANCH   3  73
TORSDOF 13
ENDMDL
