MODEL 1
REMARK VINA RESULT:     -11.0      0.000      0.000
REMARK SMILES CCn1nccc1[C@H](F)C(=O)NCCCNC(=O)c1ccc(-c2c3nc(c(-c4c(F)cc(S(=O)(=O)[O-])cc4F)c4ccc([nH]4)c(-c4c(F)cc(S(=O)(=O)[O-])cc4F)c4nc(c(-c5c(F)cc(S(=O)(=O)[O-])cc5F)c5ccc2[nH]5)C=C4)C=C3)cc1
REMARK SMILES IDX 14 1 13 2 12 3 10 4 11 5 8 7 9 8 7 9 3 10 4 11 5 12 6 13
REMARK SMILES IDX 2 14 1 15 15 16 16 17 17 18 18 20 19 21 20 22 84 23 21 24
REMARK SMILES IDX 83 25 22 26 23 27 24 28 77 29 25 30 82 31 76 32 78 33 26 34
REMARK SMILES IDX 81 35 75 36 74 37 27 39 61 40 40 41 60 42 41 43 44 44 59 45
REMARK SMILES IDX 79 46 42 47 43 48 58 50 80 51 45 52 28 53 29 54 38 55 30 56
REMARK SMILES IDX 31 57 37 58 39 59 32 60 33 61 34 62 35 63 36 64 62 65 63 66
REMARK SMILES IDX 72 67 64 68 65 69 71 70 73 71 66 72 67 73 68 74 69 75 70 76
REMARK SMILES IDX 46 77 47 78 56 79 48 80 49 81 55 82 57 83 50 84 51 85 52 86
REMARK SMILES IDX 53 87 54 88
REMARK H PARENT 12 6 16 19 78 38 44 49
REMARK Flexibility Score: inf
ROOT
ATOM      1  C   UNL A   1      34.115  34.995  28.901  1.00  0.00     0.042 C 
ENDROOT
BRANCH   1   2
ATOM      2  C   UNL A   1      33.782  34.470  30.293  1.00  0.00     0.117 C 
BRANCH   2   3
ATOM      3  N   UNL A   1      33.997  35.428  31.365  1.00  0.00    -0.353 N 
ATOM      4  C   UNL A   1      34.706  35.241  32.526  1.00  0.00     0.260 C 
ATOM      5  O   UNL A   1      34.991  36.230  33.206  1.00  0.00    -0.271 OA
ATOM      6  H   UNL A   1      33.586  36.315  31.243  1.00  0.00     0.163 HD
BRANCH   4   7
ATOM      7  C   UNL A   1      35.175  33.834  32.934  1.00  0.00     0.303 C 
ATOM      8  F   UNL A   1      34.400  32.866  32.347  1.00  0.00    -0.230 F 
BRANCH   7   9
ATOM      9  C   UNL A   1      36.610  33.625  32.559  1.00  0.00     0.082 A 
ATOM     10  N   UNL A   1      37.522  32.859  33.246  1.00  0.00    -0.266 N 
ATOM     11  N   UNL A   1      38.781  33.013  32.774  1.00  0.00    -0.181 NA
ATOM     12  C   UNL A   1      38.647  33.815  31.720  1.00  0.00     0.135 A 
ATOM     13  C   UNL A   1      37.314  34.168  31.497  1.00  0.00     0.049 A 
BRANCH  10  14
ATOM     14  C   UNL A   1      37.339  31.956  34.371  1.00  0.00     0.141 C 
ATOM     15  C   UNL A   1      38.625  31.460  35.012  1.00  0.00     0.029 C 
ENDBRANCH  10  14
ENDBRANCH   7   9
ENDBRANCH   4   7
ENDBRANCH   2   3
ENDBRANCH   1   2
BRANCH   1  16
ATOM     16  C   UNL A   1      34.651  33.908  27.987  1.00  0.00     0.118 C 
BRANCH  16  17
ATOM     17  N   UNL A   1      33.884  32.658  28.081  1.00  0.00    -0.352 N 
ATOM     18  C   UNL A   1      34.337  31.367  27.910  1.00  0.00     0.251 C 
ATOM     19  H   UNL A   1      32.927  32.755  28.292  1.00  0.00     0.163 HD
ATOM     20  O   UNL A   1      33.568  30.439  27.748  1.00  0.00    -0.269 OA
BRANCH  18  21
ATOM     21  C   UNL A   1      35.800  31.155  27.896  1.00  0.00     0.039 A 
ATOM     22  C   UNL A   1      36.654  32.060  28.528  1.00  0.00     0.014 A 
ATOM     23  C   UNL A   1      36.270  29.953  27.384  1.00  0.00     0.014 A 
ATOM     24  C   UNL A   1      37.979  31.687  28.749  1.00  0.00     0.010 A 
ATOM     25  C   UNL A   1      37.530  29.533  27.740  1.00  0.00     0.010 A 
ATOM     26  C   UNL A   1      38.410  30.400  28.394  1.00  0.00    -0.014 A 
BRANCH  26  27
ATOM     27  C   UNL A   1      39.732  29.913  28.810  1.00  0.00     0.031 A 
ATOM     28  C   UNL A   1      40.001  29.858  30.283  1.00  0.00     0.074 A 
ATOM     29  C   UNL A   1      40.580  29.288  27.965  1.00  0.00     0.049 A 
ATOM     30  N   UNL A   1      40.952  30.428  30.952  1.00  0.00    -0.248 NA
ATOM     31  C   UNL A   1      39.051  29.116  31.129  1.00  0.00     0.031 C 
ATOM     32  C   UNL A   1      40.369  28.960  26.548  1.00  0.00     0.029 A 
ATOM     33  N   UNL A   1      41.770  28.683  28.238  1.00  0.00    -0.354 N 
ATOM     34  C   UNL A   1      40.850  29.958  32.263  1.00  0.00     0.074 A 
ATOM     35  C   UNL A   1      39.582  29.282  32.342  1.00  0.00     0.031 C 
ATOM     36  C   UNL A   1      41.252  28.015  26.167  1.00  0.00     0.029 A 
ATOM     37  C   UNL A   1      42.207  27.824  27.241  1.00  0.00     0.049 A 
ATOM     38  H   UNL A   1      42.275  28.841  29.069  1.00  0.00     0.167 HD
ATOM     39  C   UNL A   1      41.909  29.980  33.124  1.00  0.00     0.037 A 
ATOM     40  C   UNL A   1      43.275  26.994  27.273  1.00  0.00     0.037 A 
ATOM     41  C   UNL A   1      42.933  30.888  32.671  1.00  0.00     0.049 A 
ATOM     42  C   UNL A   1      44.206  27.515  28.299  1.00  0.00     0.074 A 
ATOM     43  C   UNL A   1      42.993  32.239  32.388  1.00  0.00     0.029 A 
ATOM     44  N   UNL A   1      44.071  30.348  32.123  1.00  0.00    -0.354 N 
ATOM     45  N   UNL A   1      44.822  28.662  28.210  1.00  0.00    -0.248 NA
ATOM     46  C   UNL A   1      44.168  26.933  29.631  1.00  0.00     0.031 C 
ATOM     47  C   UNL A   1      43.896  32.350  31.288  1.00  0.00     0.029 A 
ATOM     48  C   UNL A   1      44.362  31.067  30.993  1.00  0.00     0.049 A 
ATOM     49  H   UNL A   1      44.583  29.586  32.477  1.00  0.00     0.167 HD
ATOM     50  C   UNL A   1      44.877  29.140  29.510  1.00  0.00     0.074 A 
ATOM     51  C   UNL A   1      44.589  27.979  30.346  1.00  0.00     0.031 C 
ATOM     52  C   UNL A   1      44.874  30.482  29.772  1.00  0.00     0.037 A 
BRANCH  39  53
ATOM     53  C   UNL A   1      42.192  28.926  34.185  1.00  0.00     0.058 A 
ATOM     54  C   UNL A   1      42.388  27.582  33.790  1.00  0.00     0.135 A 
ATOM     55  C   UNL A   1      41.974  29.116  35.567  1.00  0.00     0.135 A 
ATOM     56  F   UNL A   1      42.624  27.272  32.504  1.00  0.00    -0.206 F 
ATOM     57  C   UNL A   1      42.258  26.508  34.676  1.00  0.00     0.059 A 
ATOM     58  C   UNL A   1      41.896  28.065  36.476  1.00  0.00     0.059 A 
ATOM     59  F   UNL A   1      41.729  30.320  36.096  1.00  0.00    -0.206 F 
ATOM     60  C   UNL A   1      41.979  26.763  36.013  1.00  0.00     0.060 A 
BRANCH  60  61
ATOM     61  S   UNL A   1      41.633  25.389  37.128  1.00  0.00     0.124 S 
ATOM     62  O   UNL A   1      41.528  24.279  36.188  1.00  0.00    -0.237 OA
ATOM     63  O   UNL A   1      42.809  25.390  37.990  1.00  0.00    -0.237 OA
ATOM     64  O   UNL A   1      40.388  25.791  37.775  1.00  0.00    -0.744 OA
ENDBRANCH  60  61
ENDBRANCH  39  53
BRANCH  40  65
ATOM     65  C   UNL A   1      43.399  25.667  26.627  1.00  0.00     0.058 A 
ATOM     66  C   UNL A   1      44.220  25.465  25.508  1.00  0.00     0.135 A 
ATOM     67  C   UNL A   1      42.888  24.507  27.248  1.00  0.00     0.135 A 
ATOM     68  F   UNL A   1      44.769  26.513  24.877  1.00  0.00    -0.206 F 
ATOM     69  C   UNL A   1      44.542  24.185  25.047  1.00  0.00     0.059 A 
ATOM     70  C   UNL A   1      43.184  23.223  26.800  1.00  0.00     0.059 A 
ATOM     71  F   UNL A   1      42.150  24.591  28.366  1.00  0.00    -0.206 F 
ATOM     72  C   UNL A   1      44.030  23.068  25.709  1.00  0.00     0.060 A 
BRANCH  72  73
ATOM     73  S   UNL A   1      44.566  21.416  25.207  1.00  0.00     0.124 S 
ATOM     74  O   UNL A   1      45.906  21.347  25.778  1.00  0.00    -0.237 OA
ATOM     75  O   UNL A   1      43.560  20.564  25.832  1.00  0.00    -0.237 OA
ATOM     76  O   UNL A   1      44.512  21.471  23.748  1.00  0.00    -0.744 OA
ENDBRANCH  72  73
ENDBRANCH  40  65
BRANCH  52  77
ATOM     77  C   UNL A   1      45.162  31.432  28.636  1.00  0.00     0.058 A 
ATOM     78  C   UNL A   1      44.178  31.963  27.783  1.00  0.00     0.135 A 
ATOM     79  C   UNL A   1      46.459  31.952  28.508  1.00  0.00     0.135 A 
ATOM     80  F   UNL A   1      42.894  31.604  27.906  1.00  0.00    -0.206 F 
ATOM     81  C   UNL A   1      44.475  32.934  26.825  1.00  0.00     0.059 A 
ATOM     82  C   UNL A   1      46.773  32.942  27.580  1.00  0.00     0.059 A 
ATOM     83  F   UNL A   1      47.434  31.536  29.337  1.00  0.00    -0.206 F 
ATOM     84  C   UNL A   1      45.776  33.421  26.732  1.00  0.00     0.060 A 
BRANCH  84  85
ATOM     85  S   UNL A   1      46.133  34.749  25.562  1.00  0.00     0.124 S 
ATOM     86  O   UNL A   1      45.753  35.937  26.319  1.00  0.00    -0.237 OA
ATOM     87  O   UNL A   1      47.564  34.584  25.318  1.00  0.00    -0.237 OA
ATOM     88  O   UNL A   1      45.278  34.437  24.419  1.00  0.00    -0.744 OA
ENDBRANCH  84  85
ENDBRANCH  52  77
ENDBRANCH  26  27
ENDBRANCH  18  21
ENDBRANCH  16  17
ENDBRANCH   1  16
TORSDOF 15
ENDMDL
MODEL 2
REMARK VINA RESULT:     -10.8      4.609     11.012
REMARK SMILES CCn1nccc1[C@H](F)C(=O)NCCCNC(=O)c1ccc(-c2c3nc(c(-c4c(F)cc(S(=O)(=O)[O-])cc4F)c4ccc([nH]4)c(-c4c(F)cc(S(=O)(=O)[O-])cc4F)c4nc(c(-c5c(F)cc(S(=O)(=O)[O-])cc5F)c5ccc2[nH]5)C=C4)C=C3)cc1
REMARK SMILES IDX 14 1 13 2 12 3 10 4 11 5 8 7 9 8 7 9 3 10 4 11 5 12 6 13
REMARK SMILES IDX 2 14 1 15 15 16 16 17 17 18 18 20 19 21 20 22 84 23 21 24
REMARK SMILES IDX 83 25 22 26 23 27 24 28 77 29 25 30 82 31 76 32 78 33 26 34
REMARK SMILES IDX 81 35 75 36 74 37 27 39 61 40 40 41 60 42 41 43 44 44 59 45
REMARK SMILES IDX 79 46 42 47 43 48 58 50 80 51 45 52 28 53 29 54 38 55 30 56
REMARK SMILES IDX 31 57 37 58 39 59 32 60 33 61 34 62 35 63 36 64 62 65 63 66
REMARK SMILES IDX 72 67 64 68 65 69 71 70 73 71 66 72 67 73 68 74 69 75 70 76
REMARK SMILES IDX 46 77 47 78 56 79 48 80 49 81 55 82 57 83 50 84 51 85 52 86
REMARK SMILES IDX 53 87 54 88
REMARK H PARENT 12 6 16 19 78 38 44 49
REMARK Flexibility Score: inf
ROOT
ATOM      1  C   UNL A   1      36.052  22.898  25.284  1.00  0.00     0.042 C 
ENDROOT
BRANCH   1   2
ATOM      2  C   UNL A   1      35.225  24.096  24.830  1.00  0.00     0.117 C 
BRANCH   2   3
ATOM      3  N   UNL A   1      34.897  24.099  23.414  1.00  0.00    -0.353 N 
ATOM      4  C   UNL A   1      33.650  24.147  22.844  1.00  0.00     0.260 C 
ATOM      5  O   UNL A   1      33.564  24.389  21.636  1.00  0.00    -0.271 OA
ATOM      6  H   UNL A   1      35.660  24.063  22.792  1.00  0.00     0.163 HD
BRANCH   4   7
ATOM      7  C   UNL A   1      32.390  23.956  23.707  1.00  0.00     0.303 C 
ATOM      8  F   UNL A   1      31.269  24.384  23.043  1.00  0.00    -0.230 F 
BRANCH   7   9
ATOM      9  C   UNL A   1      32.228  22.520  24.097  1.00  0.00     0.082 A 
ATOM     10  N   UNL A   1      31.934  22.052  25.356  1.00  0.00    -0.266 N 
ATOM     11  N   UNL A   1      32.038  20.705  25.440  1.00  0.00    -0.181 NA
ATOM     12  C   UNL A   1      32.311  20.312  24.198  1.00  0.00     0.135 A 
ATOM     13  C   UNL A   1      32.370  21.389  23.309  1.00  0.00     0.049 A 
BRANCH  10  14
ATOM     14  C   UNL A   1      31.559  22.767  26.565  1.00  0.00     0.141 C 
ATOM     15  C   UNL A   1      30.069  22.783  26.865  1.00  0.00     0.029 C 
ENDBRANCH  10  14
ENDBRANCH   7   9
ENDBRANCH   4   7
ENDBRANCH   2   3
ENDBRANCH   1   2
BRANCH   1  16
ATOM     16  C   UNL A   1      37.530  23.224  25.392  1.00  0.00     0.118 C 
BRANCH  16  17
ATOM     17  N   UNL A   1      38.271  22.244  26.200  1.00  0.00    -0.352 N 
ATOM     18  C   UNL A   1      39.435  22.435  26.914  1.00  0.00     0.251 C 
ATOM     19  H   UNL A   1      37.887  21.338  26.235  1.00  0.00     0.163 HD
ATOM     20  O   UNL A   1      40.092  21.497  27.320  1.00  0.00    -0.269 OA
BRANCH  18  21
ATOM     21  C   UNL A   1      39.874  23.829  27.139  1.00  0.00     0.039 A 
ATOM     22  C   UNL A   1      38.952  24.875  27.118  1.00  0.00     0.014 A 
ATOM     23  C   UNL A   1      41.190  24.030  27.533  1.00  0.00     0.014 A 
ATOM     24  C   UNL A   1      39.339  26.118  27.616  1.00  0.00     0.010 A 
ATOM     25  C   UNL A   1      41.516  25.210  28.161  1.00  0.00     0.010 A 
ATOM     26  C   UNL A   1      40.613  26.277  28.182  1.00  0.00    -0.014 A 
BRANCH  26  27
ATOM     27  C   UNL A   1      40.962  27.508  28.904  1.00  0.00     0.031 A 
ATOM     28  C   UNL A   1      42.094  28.319  28.351  1.00  0.00     0.074 A 
ATOM     29  C   UNL A   1      40.166  28.053  29.849  1.00  0.00     0.049 A 
ATOM     30  N   UNL A   1      43.188  28.686  28.940  1.00  0.00    -0.248 NA
ATOM     31  C   UNL A   1      42.023  28.727  26.938  1.00  0.00     0.031 C 
ATOM     32  C   UNL A   1      38.855  27.578  30.312  1.00  0.00     0.029 A 
ATOM     33  N   UNL A   1      40.302  29.241  30.503  1.00  0.00    -0.354 N 
ATOM     34  C   UNL A   1      43.848  29.538  28.052  1.00  0.00     0.074 A 
ATOM     35  C   UNL A   1      43.165  29.402  26.793  1.00  0.00     0.031 C 
ATOM     36  C   UNL A   1      38.215  28.574  30.957  1.00  0.00     0.029 A 
ATOM     37  C   UNL A   1      39.142  29.676  31.126  1.00  0.00     0.049 A 
ATOM     38  H   UNL A   1      41.147  29.744  30.531  1.00  0.00     0.167 HD
ATOM     39  C   UNL A   1      44.775  30.447  28.475  1.00  0.00     0.037 A 
ATOM     40  C   UNL A   1      38.928  30.861  31.742  1.00  0.00     0.037 A 
ATOM     41  C   UNL A   1      45.259  30.124  29.795  1.00  0.00     0.049 A 
ATOM     42  C   UNL A   1      40.253  31.406  32.117  1.00  0.00     0.074 A 
ATOM     43  C   UNL A   1      45.897  29.041  30.369  1.00  0.00     0.029 A 
ATOM     44  N   UNL A   1      44.811  30.885  30.845  1.00  0.00    -0.354 N 
ATOM     45  N   UNL A   1      41.051  30.849  32.986  1.00  0.00    -0.248 NA
ATOM     46  C   UNL A   1      40.876  32.383  31.239  1.00  0.00     0.031 C 
ATOM     47  C   UNL A   1      45.378  28.964  31.697  1.00  0.00     0.029 A 
ATOM     48  C   UNL A   1      44.488  30.027  31.864  1.00  0.00     0.049 A 
ATOM     49  H   UNL A   1      44.737  31.867  30.864  1.00  0.00     0.167 HD
ATOM     50  C   UNL A   1      42.328  31.081  32.499  1.00  0.00     0.074 A 
ATOM     51  C   UNL A   1      42.161  32.141  31.509  1.00  0.00     0.031 C 
ATOM     52  C   UNL A   1      43.349  30.205  32.741  1.00  0.00     0.037 A 
BRANCH  39  53
ATOM     53  C   UNL A   1      44.988  31.824  27.864  1.00  0.00     0.058 A 
ATOM     54  C   UNL A   1      46.231  32.130  27.262  1.00  0.00     0.135 A 
ATOM     55  C   UNL A   1      44.154  32.937  28.111  1.00  0.00     0.135 A 
ATOM     56  F   UNL A   1      47.104  31.156  26.958  1.00  0.00    -0.206 F 
ATOM     57  C   UNL A   1      46.658  33.442  27.038  1.00  0.00     0.059 A 
ATOM     58  C   UNL A   1      44.538  34.248  27.845  1.00  0.00     0.059 A 
ATOM     59  F   UNL A   1      42.966  32.824  28.714  1.00  0.00    -0.206 F 
ATOM     60  C   UNL A   1      45.813  34.495  27.365  1.00  0.00     0.060 A 
BRANCH  60  61
ATOM     61  S   UNL A   1      46.417  36.190  27.250  1.00  0.00     0.124 S 
ATOM     62  O   UNL A   1      46.932  36.218  25.885  1.00  0.00    -0.237 OA
ATOM     63  O   UNL A   1      45.205  36.965  27.493  1.00  0.00    -0.237 OA
ATOM     64  O   UNL A   1      47.421  36.258  28.307  1.00  0.00    -0.744 OA
ENDBRANCH  60  61
ENDBRANCH  39  53
BRANCH  40  65
ATOM     65  C   UNL A   1      37.662  31.626  31.800  1.00  0.00     0.058 A 
ATOM     66  C   UNL A   1      36.985  31.841  33.009  1.00  0.00     0.135 A 
ATOM     67  C   UNL A   1      37.212  32.369  30.687  1.00  0.00     0.135 A 
ATOM     68  F   UNL A   1      37.368  31.196  34.120  1.00  0.00    -0.206 F 
ATOM     69  C   UNL A   1      35.938  32.763  33.118  1.00  0.00     0.059 A 
ATOM     70  C   UNL A   1      36.163  33.282  30.769  1.00  0.00     0.059 A 
ATOM     71  F   UNL A   1      37.838  32.287  29.503  1.00  0.00    -0.206 F 
ATOM     72  C   UNL A   1      35.544  33.489  31.994  1.00  0.00     0.060 A 
BRANCH  72  73
ATOM     73  S   UNL A   1      34.295  34.786  32.168  1.00  0.00     0.124 S 
ATOM     74  O   UNL A   1      35.007  35.785  32.957  1.00  0.00    -0.237 OA
ATOM     75  O   UNL A   1      34.025  35.141  30.780  1.00  0.00    -0.237 OA
ATOM     76  O   UNL A   1      33.199  34.110  32.860  1.00  0.00    -0.744 OA
ENDBRANCH  72  73
ENDBRANCH  40  65
BRANCH  52  77
ATOM     77  C   UNL A   1      43.162  29.172  33.825  1.00  0.00     0.058 A 
ATOM     78  C   UNL A   1      43.356  29.422  35.194  1.00  0.00     0.135 A 
ATOM     79  C   UNL A   1      42.609  27.930  33.479  1.00  0.00     0.135 A 
ATOM     80  F   UNL A   1      43.778  30.618  35.623  1.00  0.00    -0.206 F 
ATOM     81  C   UNL A   1      43.053  28.472  36.171  1.00  0.00     0.059 A 
ATOM     82  C   UNL A   1      42.270  26.977  34.437  1.00  0.00     0.059 A 
ATOM     83  F   UNL A   1      42.336  27.651  32.192  1.00  0.00    -0.206 F 
ATOM     84  C   UNL A   1      42.506  27.252  35.783  1.00  0.00     0.060 A 
BRANCH  84  85
ATOM     85  S   UNL A   1      42.020  26.065  37.055  1.00  0.00     0.124 S 
ATOM     86  O   UNL A   1      42.212  24.789  36.375  1.00  0.00    -0.237 OA
ATOM     87  O   UNL A   1      42.958  26.354  38.137  1.00  0.00    -0.237 OA
ATOM     88  O   UNL A   1      40.631  26.419  37.340  1.00  0.00    -0.744 OA
ENDBRANCH  84  85
ENDBRANCH  52  77
ENDBRANCH  26  27
ENDBRANCH  18  21
ENDBRANCH  16  17
ENDBRANCH   1  16
TORSDOF 15
ENDMDL
MODEL 3
REMARK VINA RESULT:     -10.7      3.017     11.428
REMARK SMILES CCn1nccc1[C@H](F)C(=O)NCCCNC(=O)c1ccc(-c2c3nc(c(-c4c(F)cc(S(=O)(=O)[O-])cc4F)c4ccc([nH]4)c(-c4c(F)cc(S(=O)(=O)[O-])cc4F)c4nc(c(-c5c(F)cc(S(=O)(=O)[O-])cc5F)c5ccc2[nH]5)C=C4)C=C3)cc1
REMARK SMILES IDX 14 1 13 2 12 3 10 4 11 5 8 7 9 8 7 9 3 10 4 11 5 12 6 13
REMARK SMILES IDX 2 14 1 15 15 16 16 17 17 18 18 20 19 21 20 22 84 23 21 24
REMARK SMILES IDX 83 25 22 26 23 27 24 28 77 29 25 30 82 31 76 32 78 33 26 34
REMARK SMILES IDX 81 35 75 36 74 37 27 39 61 40 40 41 60 42 41 43 44 44 59 45
REMARK SMILES IDX 79 46 42 47 43 48 58 50 80 51 45 52 28 53 29 54 38 55 30 56
REMARK SMILES IDX 31 57 37 58 39 59 32 60 33 61 34 62 35 63 36 64 62 65 63 66
REMARK SMILES IDX 72 67 64 68 65 69 71 70 73 71 66 72 67 73 68 74 69 75 70 76
REMARK SMILES IDX 46 77 47 78 56 79 48 80 49 81 55 82 57 83 50 84 51 85 52 86
REMARK SMILES IDX 53 87 54 88
REMARK H PARENT 12 6 16 19 78 38 44 49
REMARK Flexibility Score: inf
ROOT
ATOM      1  C   UNL A   1      45.425  23.358  25.367  1.00  0.00     0.042 C 
ENDROOT
BRANCH   1   2
ATOM      2  C   UNL A   1      45.844  24.494  26.294  1.00  0.00     0.117 C 
BRANCH   2   3
ATOM      3  N   UNL A   1      45.783  25.815  25.692  1.00  0.00    -0.353 N 
ATOM      4  C   UNL A   1      46.651  26.361  24.779  1.00  0.00     0.260 C 
ATOM      5  O   UNL A   1      46.315  27.394  24.193  1.00  0.00    -0.271 OA
ATOM      6  H   UNL A   1      45.032  26.386  25.974  1.00  0.00     0.163 HD
BRANCH   4   7
ATOM      7  C   UNL A   1      47.985  25.664  24.459  1.00  0.00     0.303 C 
ATOM      8  F   UNL A   1      47.785  24.543  23.694  1.00  0.00    -0.230 F 
BRANCH   7   9
ATOM      9  C   UNL A   1      48.914  26.600  23.749  1.00  0.00     0.082 A 
ATOM     10  N   UNL A   1      49.747  27.518  24.343  1.00  0.00    -0.266 N 
ATOM     11  N   UNL A   1      50.323  28.347  23.441  1.00  0.00    -0.181 NA
ATOM     12  C   UNL A   1      49.921  27.886  22.258  1.00  0.00     0.135 A 
ATOM     13  C   UNL A   1      49.103  26.760  22.386  1.00  0.00     0.049 A 
BRANCH  10  14
ATOM     14  C   UNL A   1      50.071  27.731  25.744  1.00  0.00     0.141 C 
ATOM     15  C   UNL A   1      49.125  28.659  26.488  1.00  0.00     0.029 C 
ENDBRANCH  10  14
ENDBRANCH   7   9
ENDBRANCH   4   7
ENDBRANCH   2   3
ENDBRANCH   1   2
BRANCH   1  16
ATOM     16  C   UNL A   1      44.138  23.664  24.624  1.00  0.00     0.118 C 
BRANCH  16  17
ATOM     17  N   UNL A   1      43.185  22.545  24.655  1.00  0.00    -0.352 N 
ATOM     18  C   UNL A   1      42.225  22.269  25.606  1.00  0.00     0.251 C 
ATOM     19  H   UNL A   1      43.239  21.912  23.902  1.00  0.00     0.163 HD
ATOM     20  O   UNL A   1      41.683  21.184  25.666  1.00  0.00    -0.269 OA
BRANCH  18  21
ATOM     21  C   UNL A   1      41.905  23.337  26.577  1.00  0.00     0.039 A 
ATOM     22  C   UNL A   1      42.521  23.368  27.828  1.00  0.00     0.014 A 
ATOM     23  C   UNL A   1      41.106  24.385  26.137  1.00  0.00     0.014 A 
ATOM     24  C   UNL A   1      42.424  24.529  28.594  1.00  0.00     0.010 A 
ATOM     25  C   UNL A   1      41.142  25.574  26.827  1.00  0.00     0.010 A 
ATOM     26  C   UNL A   1      41.769  25.655  28.074  1.00  0.00    -0.014 A 
BRANCH  26  27
ATOM     27  C   UNL A   1      41.839  26.947  28.767  1.00  0.00     0.031 A 
ATOM     28  C   UNL A   1      43.035  27.804  28.484  1.00  0.00     0.074 A 
ATOM     29  C   UNL A   1      40.785  27.488  29.416  1.00  0.00     0.049 A 
ATOM     30  N   UNL A   1      43.902  28.282  29.319  1.00  0.00    -0.248 NA
ATOM     31  C   UNL A   1      43.336  28.123  27.079  1.00  0.00     0.031 C 
ATOM     32  C   UNL A   1      39.424  26.948  29.540  1.00  0.00     0.029 A 
ATOM     33  N   UNL A   1      40.672  28.718  29.991  1.00  0.00    -0.354 N 
ATOM     34  C   UNL A   1      44.736  29.126  28.583  1.00  0.00     0.074 A 
ATOM     35  C   UNL A   1      44.436  28.869  27.199  1.00  0.00     0.031 C 
ATOM     36  C   UNL A   1      38.579  27.931  29.909  1.00  0.00     0.029 A 
ATOM     37  C   UNL A   1      39.363  29.105  30.241  1.00  0.00     0.049 A 
ATOM     38  H   UNL A   1      41.449  29.282  30.210  1.00  0.00     0.167 HD
ATOM     39  C   UNL A   1      45.461  30.122  29.172  1.00  0.00     0.037 A 
ATOM     40  C   UNL A   1      38.925  30.305  30.683  1.00  0.00     0.037 A 
ATOM     41  C   UNL A   1      45.578  29.912  30.594  1.00  0.00     0.049 A 
ATOM     42  C   UNL A   1      40.064  30.965  31.363  1.00  0.00     0.074 A 
ATOM     43  C   UNL A   1      46.088  28.912  31.400  1.00  0.00     0.029 A 
ATOM     44  N   UNL A   1      44.817  30.699  31.423  1.00  0.00    -0.354 N 
ATOM     45  N   UNL A   1      40.619  30.518  32.456  1.00  0.00    -0.248 NA
ATOM     46  C   UNL A   1      40.853  31.932  30.617  1.00  0.00     0.031 C 
ATOM     47  C   UNL A   1      45.228  28.876  32.539  1.00  0.00     0.029 A 
ATOM     48  C   UNL A   1      44.271  29.880  32.376  1.00  0.00     0.049 A 
ATOM     49  H   UNL A   1      44.688  31.672  31.347  1.00  0.00     0.167 HD
ATOM     50  C   UNL A   1      41.967  30.812  32.318  1.00  0.00     0.074 A 
ATOM     51  C   UNL A   1      42.024  31.798  31.244  1.00  0.00     0.031 C 
ATOM     52  C   UNL A   1      42.926  30.027  32.894  1.00  0.00     0.037 A 
BRANCH  39  53
ATOM     53  C   UNL A   1      45.761  31.473  28.539  1.00  0.00     0.058 A 
ATOM     54  C   UNL A   1      44.692  32.270  28.067  1.00  0.00     0.135 A 
ATOM     55  C   UNL A   1      47.043  31.874  28.102  1.00  0.00     0.135 A 
ATOM     56  F   UNL A   1      43.426  32.002  28.428  1.00  0.00    -0.206 F 
ATOM     57  C   UNL A   1      44.871  33.302  27.142  1.00  0.00     0.059 A 
ATOM     58  C   UNL A   1      47.249  32.935  27.224  1.00  0.00     0.059 A 
ATOM     59  F   UNL A   1      48.154  31.202  28.423  1.00  0.00    -0.206 F 
ATOM     60  C   UNL A   1      46.154  33.604  26.703  1.00  0.00     0.060 A 
BRANCH  60  61
ATOM     61  S   UNL A   1      46.383  34.808  25.381  1.00  0.00     0.124 S 
ATOM     62  O   UNL A   1      45.474  34.292  24.364  1.00  0.00    -0.237 OA
ATOM     63  O   UNL A   1      45.981  36.053  26.027  1.00  0.00    -0.237 OA
ATOM     64  O   UNL A   1      47.806  34.699  25.075  1.00  0.00    -0.744 OA
ENDBRANCH  60  61
ENDBRANCH  39  53
BRANCH  40  65
ATOM     65  C   UNL A   1      37.654  30.980  30.337  1.00  0.00     0.058 A 
ATOM     66  C   UNL A   1      36.836  31.562  31.317  1.00  0.00     0.135 A 
ATOM     67  C   UNL A   1      37.331  31.273  28.994  1.00  0.00     0.135 A 
ATOM     68  F   UNL A   1      37.092  31.356  32.617  1.00  0.00    -0.206 F 
ATOM     69  C   UNL A   1      35.776  32.411  30.987  1.00  0.00     0.059 A 
ATOM     70  C   UNL A   1      36.271  32.105  28.642  1.00  0.00     0.059 A 
ATOM     71  F   UNL A   1      38.093  30.822  27.986  1.00  0.00    -0.206 F 
ATOM     72  C   UNL A   1      35.510  32.689  29.646  1.00  0.00     0.060 A 
BRANCH  72  73
ATOM     73  S   UNL A   1      34.237  33.902  29.226  1.00  0.00     0.124 S 
ATOM     74  O   UNL A   1      33.395  33.149  28.303  1.00  0.00    -0.237 OA
ATOM     75  O   UNL A   1      33.652  34.198  30.529  1.00  0.00    -0.237 OA
ATOM     76  O   UNL A   1      34.997  34.996  28.624  1.00  0.00    -0.744 OA
ENDBRANCH  72  73
ENDBRANCH  40  65
BRANCH  52  77
ATOM     77  C   UNL A   1      42.502  29.048  33.961  1.00  0.00     0.058 A 
ATOM     78  C   UNL A   1      41.975  27.771  33.696  1.00  0.00     0.135 A 
ATOM     79  C   UNL A   1      42.792  29.349  35.300  1.00  0.00     0.135 A 
ATOM     80  F   UNL A   1      41.769  27.359  32.440  1.00  0.00    -0.206 F 
ATOM     81  C   UNL A   1      41.713  26.853  34.714  1.00  0.00     0.059 A 
ATOM     82  C   UNL A   1      42.568  28.438  36.331  1.00  0.00     0.059 A 
ATOM     83  F   UNL A   1      43.359  30.526  35.617  1.00  0.00    -0.206 F 
ATOM     84  C   UNL A   1      42.016  27.193  36.030  1.00  0.00     0.060 A 
BRANCH  84  85
ATOM     85  S   UNL A   1      41.770  25.966  37.332  1.00  0.00     0.124 S 
ATOM     86  O   UNL A   1      42.770  26.360  38.318  1.00  0.00    -0.237 OA
ATOM     87  O   UNL A   1      40.379  26.184  37.718  1.00  0.00    -0.237 OA
ATOM     88  O   UNL A   1      42.026  24.696  36.656  1.00  0.00    -0.744 OA
ENDBRANCH  84  85
ENDBRANCH  52  77
ENDBRANCH  26  27
ENDBRANCH  18  21
ENDBRANCH  16  17
ENDBRANCH   1  16
TORSDOF 15
ENDMDL
