MODEL 1
REMARK VINA RESULT:      -9.7      0.000      0.000
REMARK SMILES CS(=O)(=O)c1ccc(/C=C(/C(=O)NCCCNC(=O)c2ccc(-c3c4nc(c(-c5c(F)cc(S(=O)(=O)[O-])cc5F)c5ccc([nH]5)c(-c5c(F)cc(S(=O)(=O)[O-])cc5F)c5nc(c(-c6c(F)cc(S(=O)(=O)[O-])cc6F)c6ccc3[nH]6)C=C5)C=C4)cc2)c2cccc(Br)c2)cc1
REMARK SMILES IDX 15 1 14 2 13 3 11 4 12 5 10 7 9 8 8 9 5 10 6 11 94 12 7 13
REMARK SMILES IDX 93 14 2 15 1 16 3 17 4 18 86 19 87 20 92 21 88 22 90 23
REMARK SMILES IDX 89 24 91 25 16 26 17 27 18 28 19 30 20 31 21 32 85 33 22 34
REMARK SMILES IDX 84 35 23 36 24 37 25 38 78 39 26 40 83 41 77 42 79 43 27 44
REMARK SMILES IDX 82 45 76 46 75 47 28 49 62 50 41 51 61 52 42 53 45 54 60 55
REMARK SMILES IDX 80 56 43 57 44 58 59 60 81 61 46 62 29 63 30 64 39 65 31 66
REMARK SMILES IDX 32 67 38 68 40 69 33 70 34 71 35 72 36 73 37 74 63 75 64 76
REMARK SMILES IDX 73 77 65 78 66 79 72 80 74 81 67 82 68 83 69 84 70 85 71 86
REMARK SMILES IDX 47 87 48 88 57 89 49 90 50 91 56 92 58 93 51 94 52 95 53 96
REMARK SMILES IDX 54 97 55 98
REMARK H PARENT 13 6 17 29 79 48 45 59
REMARK Flexibility Score: inf
ROOT
ATOM      1  C   UNL A   1      34.520  33.212  30.105  1.00  0.00     0.042 C 
ENDROOT
BRANCH   1   2
ATOM      2  C   UNL A   1      34.844  32.163  31.170  1.00  0.00     0.118 C 
BRANCH   2   3
ATOM      3  N   UNL A   1      34.831  32.746  32.501  1.00  0.00    -0.352 N 
ATOM      4  C   UNL A   1      35.726  32.796  33.523  1.00  0.00     0.251 C 
ATOM      5  O   UNL A   1      35.365  33.415  34.527  1.00  0.00    -0.269 OA
ATOM      6  H   UNL A   1      33.987  33.207  32.708  1.00  0.00     0.163 HD
BRANCH   4   7
ATOM      7  C   UNL A   1      37.122  32.220  33.447  1.00  0.00     0.047 C 
ATOM      8  C   UNL A   1      37.413  30.993  33.936  1.00  0.00     0.022 C 
BRANCH   8   9
ATOM      9  C   UNL A   1      38.687  30.244  33.883  1.00  0.00    -0.025 A 
ATOM     10  C   UNL A   1      41.087  28.814  33.596  1.00  0.00     0.067 A 
ATOM     11  C   UNL A   1      40.940  29.720  34.647  1.00  0.00     0.021 A 
ATOM     12  C   UNL A   1      40.031  28.577  32.715  1.00  0.00     0.021 A 
ATOM     13  C   UNL A   1      39.736  30.418  34.795  1.00  0.00     0.009 A 
ATOM     14  C   UNL A   1      38.838  29.290  32.863  1.00  0.00     0.009 A 
BRANCH  10  15
ATOM     15  S   UNL A   1      42.625  27.955  33.368  1.00  0.00     0.175 S 
ATOM     16  C   UNL A   1      43.875  29.100  33.885  1.00  0.00     0.163 C 
ATOM     17  O   UNL A   1      42.808  27.753  31.944  1.00  0.00    -0.224 OA
ATOM     18  O   UNL A   1      42.628  26.836  34.294  1.00  0.00    -0.224 OA
ENDBRANCH  10  15
ENDBRANCH   8   9
BRANCH   7  19
ATOM     19  C   UNL A   1      38.202  33.127  32.978  1.00  0.00    -0.012 A 
ATOM     20  C   UNL A   1      39.241  33.460  33.865  1.00  0.00     0.009 A 
ATOM     21  C   UNL A   1      38.262  33.595  31.659  1.00  0.00     0.024 A 
ATOM     22  C   UNL A   1      40.329  34.223  33.445  1.00  0.00     0.002 A 
ATOM     23  C   UNL A   1      39.366  34.343  31.239  1.00  0.00     0.018 A 
ATOM     24  C   UNL A   1      40.398  34.657  32.124  1.00  0.00     0.016 A 
ATOM     25  Br  UNL A   1      39.488  34.897  29.436  1.00  0.00    -0.051 Br
ENDBRANCH   7  19
ENDBRANCH   4   7
ENDBRANCH   2   3
ENDBRANCH   1   2
BRANCH   1  26
ATOM     26  C   UNL A   1      34.839  32.769  28.675  1.00  0.00     0.118 C 
BRANCH  26  27
ATOM     27  N   UNL A   1      34.110  31.570  28.293  1.00  0.00    -0.352 N 
ATOM     28  C   UNL A   1      34.571  30.307  28.008  1.00  0.00     0.251 C 
ATOM     29  H   UNL A   1      33.134  31.679  28.229  1.00  0.00     0.163 HD
ATOM     30  O   UNL A   1      33.802  29.493  27.502  1.00  0.00    -0.269 OA
BRANCH  28  31
ATOM     31  C   UNL A   1      35.973  29.922  28.289  1.00  0.00     0.039 A 
ATOM     32  C   UNL A   1      36.917  30.033  27.263  1.00  0.00     0.014 A 
ATOM     33  C   UNL A   1      36.352  29.399  29.529  1.00  0.00     0.014 A 
ATOM     34  C   UNL A   1      38.247  29.670  27.494  1.00  0.00     0.010 A 
ATOM     35  C   UNL A   1      37.690  29.090  29.776  1.00  0.00     0.010 A 
ATOM     36  C   UNL A   1      38.651  29.220  28.761  1.00  0.00    -0.014 A 
BRANCH  36  37
ATOM     37  C   UNL A   1      40.073  28.888  29.041  1.00  0.00     0.031 A 
ATOM     38  C   UNL A   1      40.998  29.921  29.624  1.00  0.00     0.074 A 
ATOM     39  C   UNL A   1      40.546  27.670  28.709  1.00  0.00     0.049 A 
ATOM     40  N   UNL A   1      42.279  29.835  29.872  1.00  0.00    -0.248 NA
ATOM     41  C   UNL A   1      40.409  31.229  29.950  1.00  0.00     0.031 C 
ATOM     42  C   UNL A   1      39.762  26.596  28.096  1.00  0.00     0.029 A 
ATOM     43  N   UNL A   1      41.803  27.134  28.830  1.00  0.00    -0.354 N 
ATOM     44  C   UNL A   1      42.656  31.079  30.365  1.00  0.00     0.074 A 
ATOM     45  C   UNL A   1      41.473  31.914  30.343  1.00  0.00     0.031 C 
ATOM     46  C   UNL A   1      40.551  25.527  27.907  1.00  0.00     0.029 A 
ATOM     47  C   UNL A   1      41.902  25.847  28.357  1.00  0.00     0.049 A 
ATOM     48  H   UNL A   1      42.563  27.624  29.220  1.00  0.00     0.167 HD
ATOM     49  C   UNL A   1      43.871  31.484  30.810  1.00  0.00     0.037 A 
ATOM     50  C   UNL A   1      42.963  25.019  28.285  1.00  0.00     0.037 A 
ATOM     51  C   UNL A   1      45.038  30.641  30.856  1.00  0.00     0.049 A 
ATOM     52  C   UNL A   1      44.296  25.483  28.802  1.00  0.00     0.074 A 
ATOM     53  C   UNL A   1      46.297  30.940  31.348  1.00  0.00     0.029 A 
ATOM     54  N   UNL A   1      45.090  29.335  30.394  1.00  0.00    -0.354 N 
ATOM     55  N   UNL A   1      44.618  26.644  29.318  1.00  0.00    -0.248 NA
ATOM     56  C   UNL A   1      45.406  24.523  28.733  1.00  0.00     0.031 C 
ATOM     57  C   UNL A   1      47.120  29.825  31.153  1.00  0.00     0.029 A 
ATOM     58  C   UNL A   1      46.363  28.818  30.574  1.00  0.00     0.049 A 
ATOM     59  H   UNL A   1      44.334  28.846  29.996  1.00  0.00     0.167 HD
ATOM     60  C   UNL A   1      45.965  26.549  29.654  1.00  0.00     0.074 A 
ATOM     61  C   UNL A   1      46.392  25.212  29.294  1.00  0.00     0.031 C 
ATOM     62  C   UNL A   1      46.773  27.484  30.211  1.00  0.00     0.037 A 
BRANCH  49  63
ATOM     63  C   UNL A   1      43.996  32.906  31.286  1.00  0.00     0.058 A 
ATOM     64  C   UNL A   1      44.228  33.963  30.392  1.00  0.00     0.135 A 
ATOM     65  C   UNL A   1      43.864  33.219  32.649  1.00  0.00     0.135 A 
ATOM     66  F   UNL A   1      44.375  33.719  29.081  1.00  0.00    -0.206 F 
ATOM     67  C   UNL A   1      44.359  35.275  30.835  1.00  0.00     0.059 A 
ATOM     68  C   UNL A   1      43.966  34.527  33.111  1.00  0.00     0.059 A 
ATOM     69  F   UNL A   1      43.639  32.246  33.546  1.00  0.00    -0.206 F 
ATOM     70  C   UNL A   1      44.233  35.547  32.198  1.00  0.00     0.060 A 
BRANCH  70  71
ATOM     71  S   UNL A   1      44.419  37.252  32.762  1.00  0.00     0.124 S 
ATOM     72  O   UNL A   1      44.346  37.983  31.500  1.00  0.00    -0.237 OA
ATOM     73  O   UNL A   1      43.275  37.415  33.653  1.00  0.00    -0.237 OA
ATOM     74  O   UNL A   1      45.723  37.253  33.415  1.00  0.00    -0.744 OA
ENDBRANCH  70  71
ENDBRANCH  49  63
BRANCH  50  75
ATOM     75  C   UNL A   1      42.793  23.654  27.725  1.00  0.00     0.058 A 
ATOM     76  C   UNL A   1      42.641  22.544  28.568  1.00  0.00     0.135 A 
ATOM     77  C   UNL A   1      42.748  23.435  26.339  1.00  0.00     0.135 A 
ATOM     78  F   UNL A   1      42.683  22.703  29.900  1.00  0.00    -0.206 F 
ATOM     79  C   UNL A   1      42.457  21.263  28.060  1.00  0.00     0.059 A 
ATOM     80  C   UNL A   1      42.544  22.166  25.807  1.00  0.00     0.059 A 
ATOM     81  F   UNL A   1      42.872  24.468  25.491  1.00  0.00    -0.206 F 
ATOM     82  C   UNL A   1      42.405  21.085  26.676  1.00  0.00     0.060 A 
BRANCH  82  83
ATOM     83  S   UNL A   1      42.099  19.428  26.025  1.00  0.00     0.124 S 
ATOM     84  O   UNL A   1      42.519  18.591  27.144  1.00  0.00    -0.237 OA
ATOM     85  O   UNL A   1      40.665  19.463  25.758  1.00  0.00    -0.237 OA
ATOM     86  O   UNL A   1      42.949  19.373  24.839  1.00  0.00    -0.744 OA
ENDBRANCH  82  83
ENDBRANCH  50  75
BRANCH  62  87
ATOM     87  C   UNL A   1      48.196  27.088  30.486  1.00  0.00     0.058 A 
ATOM     88  C   UNL A   1      49.222  27.347  29.566  1.00  0.00     0.135 A 
ATOM     89  C   UNL A   1      48.542  26.481  31.704  1.00  0.00     0.135 A 
ATOM     90  F   UNL A   1      48.941  27.918  28.384  1.00  0.00    -0.206 F 
ATOM     91  C   UNL A   1      50.542  26.998  29.833  1.00  0.00     0.059 A 
ATOM     92  C   UNL A   1      49.859  26.144  32.002  1.00  0.00     0.059 A 
ATOM     93  F   UNL A   1      47.598  26.219  32.622  1.00  0.00    -0.206 F 
ATOM     94  C   UNL A   1      50.851  26.397  31.055  1.00  0.00     0.060 A 
BRANCH  94  95
ATOM     95  S   UNL A   1      52.572  25.976  31.406  1.00  0.00     0.124 S 
ATOM     96  O   UNL A   1      52.941  27.020  32.355  1.00  0.00    -0.237 OA
ATOM     97  O   UNL A   1      52.459  24.628  31.957  1.00  0.00    -0.237 OA
ATOM     98  O   UNL A   1      53.214  26.059  30.097  1.00  0.00    -0.744 OA
ENDBRANCH  94  95
ENDBRANCH  62  87
ENDBRANCH  36  37
ENDBRANCH  28  31
ENDBRANCH  26  27
ENDBRANCH   1  26
TORSDOF 16
ENDMDL
MODEL 2
REMARK VINA RESULT:      -9.7      1.090      1.895
REMARK SMILES CS(=O)(=O)c1ccc(/C=C(/C(=O)NCCCNC(=O)c2ccc(-c3c4nc(c(-c5c(F)cc(S(=O)(=O)[O-])cc5F)c5ccc([nH]5)c(-c5c(F)cc(S(=O)(=O)[O-])cc5F)c5nc(c(-c6c(F)cc(S(=O)(=O)[O-])cc6F)c6ccc3[nH]6)C=C5)C=C4)cc2)c2cccc(Br)c2)cc1
REMARK SMILES IDX 15 1 14 2 13 3 11 4 12 5 10 7 9 8 8 9 5 10 6 11 94 12 7 13
REMARK SMILES IDX 93 14 2 15 1 16 3 17 4 18 86 19 87 20 92 21 88 22 90 23
REMARK SMILES IDX 89 24 91 25 16 26 17 27 18 28 19 30 20 31 21 32 85 33 22 34
REMARK SMILES IDX 84 35 23 36 24 37 25 38 78 39 26 40 83 41 77 42 79 43 27 44
REMARK SMILES IDX 82 45 76 46 75 47 28 49 62 50 41 51 61 52 42 53 45 54 60 55
REMARK SMILES IDX 80 56 43 57 44 58 59 60 81 61 46 62 29 63 30 64 39 65 31 66
REMARK SMILES IDX 32 67 38 68 40 69 33 70 34 71 35 72 36 73 37 74 63 75 64 76
REMARK SMILES IDX 73 77 65 78 66 79 72 80 74 81 67 82 68 83 69 84 70 85 71 86
REMARK SMILES IDX 47 87 48 88 57 89 49 90 50 91 56 92 58 93 51 94 52 95 53 96
REMARK SMILES IDX 54 97 55 98
REMARK H PARENT 13 6 17 29 79 48 45 59
REMARK Flexibility Score: inf
ROOT
ATOM      1  C   UNL A   1      34.397  33.493  29.411  1.00  0.00     0.042 C 
ENDROOT
BRANCH   1   2
ATOM      2  C   UNL A   1      35.458  33.046  30.418  1.00  0.00     0.118 C 
BRANCH   2   3
ATOM      3  N   UNL A   1      34.970  33.162  31.781  1.00  0.00    -0.352 N 
ATOM      4  C   UNL A   1      35.462  32.810  32.998  1.00  0.00     0.251 C 
ATOM      5  O   UNL A   1      34.756  33.093  33.970  1.00  0.00    -0.269 OA
ATOM      6  H   UNL A   1      34.086  33.592  31.836  1.00  0.00     0.163 HD
BRANCH   4   7
ATOM      7  C   UNL A   1      36.824  32.188  33.206  1.00  0.00     0.047 C 
ATOM      8  C   UNL A   1      37.047  30.872  32.986  1.00  0.00     0.022 C 
BRANCH   8   9
ATOM      9  C   UNL A   1      38.314  30.113  33.060  1.00  0.00    -0.025 A 
ATOM     10  C   UNL A   1      40.759  28.763  33.359  1.00  0.00     0.067 A 
ATOM     11  C   UNL A   1      39.688  28.129  32.728  1.00  0.00     0.021 A 
ATOM     12  C   UNL A   1      40.638  30.082  33.799  1.00  0.00     0.021 A 
ATOM     13  C   UNL A   1      38.477  28.812  32.567  1.00  0.00     0.009 A 
ATOM     14  C   UNL A   1      39.420  30.750  33.647  1.00  0.00     0.009 A 
BRANCH  10  15
ATOM     15  S   UNL A   1      42.286  27.894  33.613  1.00  0.00     0.175 S 
ATOM     16  C   UNL A   1      43.397  29.097  34.291  1.00  0.00     0.163 C 
ATOM     17  O   UNL A   1      42.808  27.533  32.309  1.00  0.00    -0.224 OA
ATOM     18  O   UNL A   1      42.037  26.887  34.630  1.00  0.00    -0.224 OA
ENDBRANCH  10  15
ENDBRANCH   8   9
BRANCH   7  19
ATOM     19  C   UNL A   1      37.867  33.040  33.835  1.00  0.00    -0.012 A 
ATOM     20  C   UNL A   1      38.717  33.794  33.007  1.00  0.00     0.009 A 
ATOM     21  C   UNL A   1      37.977  33.178  35.225  1.00  0.00     0.024 A 
ATOM     22  C   UNL A   1      39.643  34.684  33.548  1.00  0.00     0.002 A 
ATOM     23  C   UNL A   1      38.894  34.088  35.759  1.00  0.00     0.018 A 
ATOM     24  C   UNL A   1      39.725  34.841  34.929  1.00  0.00     0.016 A 
ATOM     25  Br  UNL A   1      38.978  34.339  37.631  1.00  0.00    -0.051 Br
ENDBRANCH   7  19
ENDBRANCH   4   7
ENDBRANCH   2   3
ENDBRANCH   1   2
BRANCH   1  26
ATOM     26  C   UNL A   1      34.606  32.943  27.998  1.00  0.00     0.118 C 
BRANCH  26  27
ATOM     27  N   UNL A   1      33.845  31.727  27.760  1.00  0.00    -0.352 N 
ATOM     28  C   UNL A   1      34.268  30.424  27.656  1.00  0.00     0.251 C 
ATOM     29  H   UNL A   1      32.874  31.858  27.659  1.00  0.00     0.163 HD
ATOM     30  O   UNL A   1      33.482  29.574  27.244  1.00  0.00    -0.269 OA
BRANCH  28  31
ATOM     31  C   UNL A   1      35.650  30.036  28.020  1.00  0.00     0.039 A 
ATOM     32  C   UNL A   1      36.638  30.070  27.030  1.00  0.00     0.014 A 
ATOM     33  C   UNL A   1      35.968  29.584  29.304  1.00  0.00     0.014 A 
ATOM     34  C   UNL A   1      37.950  29.702  27.340  1.00  0.00     0.010 A 
ATOM     35  C   UNL A   1      37.289  29.271  29.626  1.00  0.00     0.010 A 
ATOM     36  C   UNL A   1      38.293  29.324  28.648  1.00  0.00    -0.014 A 
BRANCH  36  37
ATOM     37  C   UNL A   1      39.696  28.989  29.007  1.00  0.00     0.031 A 
ATOM     38  C   UNL A   1      40.580  30.010  29.671  1.00  0.00     0.074 A 
ATOM     39  C   UNL A   1      40.193  27.781  28.677  1.00  0.00     0.049 A 
ATOM     40  N   UNL A   1      41.843  29.922  29.996  1.00  0.00    -0.248 NA
ATOM     41  C   UNL A   1      39.967  31.309  29.990  1.00  0.00     0.031 C 
ATOM     42  C   UNL A   1      39.453  26.720  27.992  1.00  0.00     0.029 A 
ATOM     43  N   UNL A   1      41.443  27.244  28.864  1.00  0.00    -0.354 N 
ATOM     44  C   UNL A   1      42.184  31.155  30.541  1.00  0.00     0.074 A 
ATOM     45  C   UNL A   1      41.002  31.987  30.464  1.00  0.00     0.031 C 
ATOM     46  C   UNL A   1      40.256  25.657  27.828  1.00  0.00     0.029 A 
ATOM     47  C   UNL A   1      41.576  25.969  28.368  1.00  0.00     0.049 A 
ATOM     48  H   UNL A   1      42.175  27.727  29.312  1.00  0.00     0.167 HD
ATOM     49  C   UNL A   1      43.367  31.552  31.070  1.00  0.00     0.037 A 
ATOM     50  C   UNL A   1      42.642  25.146  28.343  1.00  0.00     0.037 A 
ATOM     51  C   UNL A   1      44.533  30.711  31.168  1.00  0.00     0.049 A 
ATOM     52  C   UNL A   1      43.939  25.600  28.953  1.00  0.00     0.074 A 
ATOM     53  C   UNL A   1      45.758  31.000  31.745  1.00  0.00     0.029 A 
ATOM     54  N   UNL A   1      44.618  29.415  30.680  1.00  0.00    -0.354 N 
ATOM     55  N   UNL A   1      44.224  26.750  29.514  1.00  0.00    -0.248 NA
ATOM     56  C   UNL A   1      45.054  24.645  28.931  1.00  0.00     0.031 C 
ATOM     57  C   UNL A   1      46.595  29.892  31.575  1.00  0.00     0.029 A 
ATOM     58  C   UNL A   1      45.880  28.898  30.927  1.00  0.00     0.049 A 
ATOM     59  H   UNL A   1      43.890  28.935  30.224  1.00  0.00     0.167 HD
ATOM     60  C   UNL A   1      45.547  26.650  29.931  1.00  0.00     0.074 A 
ATOM     61  C   UNL A   1      46.001  25.323  29.568  1.00  0.00     0.031 C 
ATOM     62  C   UNL A   1      46.316  27.574  30.559  1.00  0.00     0.037 A 
BRANCH  49  63
ATOM     63  C   UNL A   1      43.458  32.962  31.585  1.00  0.00     0.058 A 
ATOM     64  C   UNL A   1      43.889  34.019  30.768  1.00  0.00     0.135 A 
ATOM     65  C   UNL A   1      43.090  33.266  32.907  1.00  0.00     0.135 A 
ATOM     66  F   UNL A   1      44.264  33.782  29.501  1.00  0.00    -0.206 F 
ATOM     67  C   UNL A   1      43.987  35.319  31.250  1.00  0.00     0.059 A 
ATOM     68  C   UNL A   1      43.156  34.564  33.403  1.00  0.00     0.059 A 
ATOM     69  F   UNL A   1      42.668  32.294  33.731  1.00  0.00    -0.206 F 
ATOM     70  C   UNL A   1      43.624  35.582  32.572  1.00  0.00     0.060 A 
BRANCH  70  71
ATOM     71  S   UNL A   1      43.768  37.272  33.190  1.00  0.00     0.124 S 
ATOM     72  O   UNL A   1      45.100  37.248  33.788  1.00  0.00    -0.237 OA
ATOM     73  O   UNL A   1      43.636  38.065  31.972  1.00  0.00    -0.237 OA
ATOM     74  O   UNL A   1      42.660  37.385  34.130  1.00  0.00    -0.744 OA
ENDBRANCH  70  71
ENDBRANCH  49  63
BRANCH  50  75
ATOM     75  C   UNL A   1      42.512  23.793  27.741  1.00  0.00     0.058 A 
ATOM     76  C   UNL A   1      42.598  23.613  26.353  1.00  0.00     0.135 A 
ATOM     77  C   UNL A   1      42.334  22.654  28.542  1.00  0.00     0.135 A 
ATOM     78  F   UNL A   1      42.762  24.674  25.548  1.00  0.00    -0.206 F 
ATOM     79  C   UNL A   1      42.503  22.352  25.776  1.00  0.00     0.059 A 
ATOM     80  C   UNL A   1      42.258  21.379  27.989  1.00  0.00     0.059 A 
ATOM     81  F   UNL A   1      42.264  22.774  29.876  1.00  0.00    -0.206 F 
ATOM     82  C   UNL A   1      42.337  21.239  26.604  1.00  0.00     0.060 A 
BRANCH  82  83
ATOM     83  S   UNL A   1      42.283  19.598  25.851  1.00  0.00     0.124 S 
ATOM     84  O   UNL A   1      43.290  19.723  24.803  1.00  0.00    -0.237 OA
ATOM     85  O   UNL A   1      42.633  18.734  26.973  1.00  0.00    -0.237 OA
ATOM     86  O   UNL A   1      40.901  19.488  25.392  1.00  0.00    -0.744 OA
ENDBRANCH  82  83
ENDBRANCH  50  75
BRANCH  62  87
ATOM     87  C   UNL A   1      47.720  27.174  30.913  1.00  0.00     0.058 A 
ATOM     88  C   UNL A   1      48.008  26.463  32.087  1.00  0.00     0.135 A 
ATOM     89  C   UNL A   1      48.784  27.470  30.046  1.00  0.00     0.135 A 
ATOM     90  F   UNL A   1      47.027  26.164  32.953  1.00  0.00    -0.206 F 
ATOM     91  C   UNL A   1      49.307  26.076  32.402  1.00  0.00     0.059 A 
ATOM     92  C   UNL A   1      50.087  27.073  30.328  1.00  0.00     0.059 A 
ATOM     93  F   UNL A   1      48.560  28.142  28.905  1.00  0.00    -0.206 F 
ATOM     94  C   UNL A   1      50.340  26.386  31.515  1.00  0.00     0.060 A 
BRANCH  94  95
ATOM     95  S   UNL A   1      52.018  25.852  31.916  1.00  0.00     0.124 S 
ATOM     96  O   UNL A   1      52.385  26.798  32.964  1.00  0.00    -0.237 OA
ATOM     97  O   UNL A   1      51.813  24.472  32.351  1.00  0.00    -0.237 OA
ATOM     98  O   UNL A   1      52.733  26.003  30.652  1.00  0.00    -0.744 OA
ENDBRANCH  94  95
ENDBRANCH  62  87
ENDBRANCH  36  37
ENDBRANCH  28  31
ENDBRANCH  26  27
ENDBRANCH   1  26
TORSDOF 16
ENDMDL
MODEL 3
REMARK VINA RESULT:      -9.4      2.002      3.201
REMARK SMILES CS(=O)(=O)c1ccc(/C=C(/C(=O)NCCCNC(=O)c2ccc(-c3c4nc(c(-c5c(F)cc(S(=O)(=O)[O-])cc5F)c5ccc([nH]5)c(-c5c(F)cc(S(=O)(=O)[O-])cc5F)c5nc(c(-c6c(F)cc(S(=O)(=O)[O-])cc6F)c6ccc3[nH]6)C=C5)C=C4)cc2)c2cccc(Br)c2)cc1
REMARK SMILES IDX 15 1 14 2 13 3 11 4 12 5 10 7 9 8 8 9 5 10 6 11 94 12 7 13
REMARK SMILES IDX 93 14 2 15 1 16 3 17 4 18 86 19 87 20 92 21 88 22 90 23
REMARK SMILES IDX 89 24 91 25 16 26 17 27 18 28 19 30 20 31 21 32 85 33 22 34
REMARK SMILES IDX 84 35 23 36 24 37 25 38 78 39 26 40 83 41 77 42 79 43 27 44
REMARK SMILES IDX 82 45 76 46 75 47 28 49 62 50 41 51 61 52 42 53 45 54 60 55
REMARK SMILES IDX 80 56 43 57 44 58 59 60 81 61 46 62 29 63 30 64 39 65 31 66
REMARK SMILES IDX 32 67 38 68 40 69 33 70 34 71 35 72 36 73 37 74 63 75 64 76
REMARK SMILES IDX 73 77 65 78 66 79 72 80 74 81 67 82 68 83 69 84 70 85 71 86
REMARK SMILES IDX 47 87 48 88 57 89 49 90 50 91 56 92 58 93 51 94 52 95 53 96
REMARK SMILES IDX 54 97 55 98
REMARK H PARENT 13 6 17 29 79 48 45 59
REMARK Flexibility Score: inf
ROOT
ATOM      1  C   UNL A   1      34.744  32.558  30.631  1.00  0.00     0.042 C 
ENDROOT
BRANCH   1   2
ATOM      2  C   UNL A   1      35.287  33.827  31.290  1.00  0.00     0.118 C 
BRANCH   2   3
ATOM      3  N   UNL A   1      36.648  34.100  30.863  1.00  0.00    -0.352 N 
ATOM      4  C   UNL A   1      37.862  34.045  31.472  1.00  0.00     0.251 C 
ATOM      5  O   UNL A   1      38.833  34.336  30.769  1.00  0.00    -0.269 OA
ATOM      6  H   UNL A   1      36.704  34.386  29.923  1.00  0.00     0.163 HD
BRANCH   4   7
ATOM      7  C   UNL A   1      38.068  33.579  32.895  1.00  0.00     0.047 C 
ATOM      8  C   UNL A   1      38.104  34.448  33.931  1.00  0.00     0.022 C 
BRANCH   8   9
ATOM      9  C   UNL A   1      38.217  34.172  35.380  1.00  0.00    -0.025 A 
ATOM     10  C   UNL A   1      38.320  33.501  38.105  1.00  0.00     0.067 A 
ATOM     11  C   UNL A   1      39.412  34.127  37.502  1.00  0.00     0.021 A 
ATOM     12  C   UNL A   1      37.158  33.250  37.374  1.00  0.00     0.021 A 
ATOM     13  C   UNL A   1      39.349  34.475  36.148  1.00  0.00     0.009 A 
ATOM     14  C   UNL A   1      37.111  33.587  36.019  1.00  0.00     0.009 A 
BRANCH  10  15
ATOM     15  S   UNL A   1      38.402  33.012  39.810  1.00  0.00     0.175 S 
ATOM     16  C   UNL A   1      40.130  33.000  40.205  1.00  0.00     0.163 C 
ATOM     17  O   UNL A   1      37.945  31.639  39.896  1.00  0.00    -0.224 OA
ATOM     18  O   UNL A   1      37.771  34.067  40.585  1.00  0.00    -0.224 OA
ENDBRANCH  10  15
ENDBRANCH   8   9
BRANCH   7  19
ATOM     19  C   UNL A   1      38.412  32.147  33.094  1.00  0.00    -0.012 A 
ATOM     20  C   UNL A   1      37.387  31.187  33.019  1.00  0.00     0.009 A 
ATOM     21  C   UNL A   1      39.733  31.715  33.271  1.00  0.00     0.024 A 
ATOM     22  C   UNL A   1      37.671  29.824  33.097  1.00  0.00     0.002 A 
ATOM     23  C   UNL A   1      40.012  30.347  33.327  1.00  0.00     0.018 A 
ATOM     24  C   UNL A   1      38.990  29.401  33.241  1.00  0.00     0.016 A 
ATOM     25  Br  UNL A   1      41.805  29.764  33.477  1.00  0.00    -0.051 Br
ENDBRANCH   7  19
ENDBRANCH   4   7
ENDBRANCH   2   3
ENDBRANCH   1   2
BRANCH   1  26
ATOM     26  C   UNL A   1      34.694  32.620  29.103  1.00  0.00     0.118 C 
BRANCH  26  27
ATOM     27  N   UNL A   1      34.041  31.457  28.524  1.00  0.00    -0.352 N 
ATOM     28  C   UNL A   1      34.577  30.280  28.060  1.00  0.00     0.251 C 
ATOM     29  H   UNL A   1      33.061  31.522  28.454  1.00  0.00     0.163 HD
ATOM     30  O   UNL A   1      33.864  29.513  27.418  1.00  0.00    -0.269 OA
BRANCH  28  31
ATOM     31  C   UNL A   1      35.994  29.931  28.313  1.00  0.00     0.039 A 
ATOM     32  C   UNL A   1      36.916  30.082  27.273  1.00  0.00     0.014 A 
ATOM     33  C   UNL A   1      36.409  29.405  29.540  1.00  0.00     0.014 A 
ATOM     34  C   UNL A   1      38.260  29.755  27.478  1.00  0.00     0.010 A 
ATOM     35  C   UNL A   1      37.759  29.132  29.761  1.00  0.00     0.010 A 
ATOM     36  C   UNL A   1      38.698  29.301  28.732  1.00  0.00    -0.014 A 
BRANCH  36  37
ATOM     37  C   UNL A   1      40.134  29.007  28.983  1.00  0.00     0.031 A 
ATOM     38  C   UNL A   1      41.047  30.070  29.532  1.00  0.00     0.074 A 
ATOM     39  C   UNL A   1      40.628  27.797  28.657  1.00  0.00     0.049 A 
ATOM     40  N   UNL A   1      42.335  30.018  29.752  1.00  0.00    -0.248 NA
ATOM     41  C   UNL A   1      40.434  31.368  29.854  1.00  0.00     0.031 C 
ATOM     42  C   UNL A   1      39.857  26.696  28.076  1.00  0.00     0.029 A 
ATOM     43  N   UNL A   1      41.901  27.292  28.757  1.00  0.00    -0.354 N 
ATOM     44  C   UNL A   1      42.693  31.278  30.220  1.00  0.00     0.074 A 
ATOM     45  C   UNL A   1      41.490  32.084  30.213  1.00  0.00     0.031 C 
ATOM     46  C   UNL A   1      40.667  25.643  27.884  1.00  0.00     0.029 A 
ATOM     47  C   UNL A   1      42.020  26.001  28.298  1.00  0.00     0.049 A 
ATOM     48  H   UNL A   1      42.657  27.806  29.123  1.00  0.00     0.167 HD
ATOM     49  C   UNL A   1      43.907  31.718  30.632  1.00  0.00     0.037 A 
ATOM     50  C   UNL A   1      43.099  25.198  28.214  1.00  0.00     0.037 A 
ATOM     51  C   UNL A   1      45.095  30.903  30.662  1.00  0.00     0.049 A 
ATOM     52  C   UNL A   1      44.431  25.701  28.694  1.00  0.00     0.074 A 
ATOM     53  C   UNL A   1      46.357  31.238  31.122  1.00  0.00     0.029 A 
ATOM     54  N   UNL A   1      45.168  29.592  30.216  1.00  0.00    -0.354 N 
ATOM     55  N   UNL A   1      44.737  26.876  29.187  1.00  0.00    -0.248 NA
ATOM     56  C   UNL A   1      45.562  24.766  28.613  1.00  0.00     0.031 C 
ATOM     57  C   UNL A   1      47.202  30.140  30.922  1.00  0.00     0.029 A 
ATOM     58  C   UNL A   1      46.457  29.108  30.375  1.00  0.00     0.049 A 
ATOM     59  H   UNL A   1      44.415  29.080  29.842  1.00  0.00     0.167 HD
ATOM     60  C   UNL A   1      46.093  26.818  29.493  1.00  0.00     0.074 A 
ATOM     61  C   UNL A   1      46.543  25.487  29.142  1.00  0.00     0.031 C 
ATOM     62  C   UNL A   1      46.891  27.780  30.020  1.00  0.00     0.037 A 
BRANCH  49  63
ATOM     63  C   UNL A   1      44.009  33.148  31.086  1.00  0.00     0.058 A 
ATOM     64  C   UNL A   1      43.916  33.498  32.442  1.00  0.00     0.135 A 
ATOM     65  C   UNL A   1      44.222  34.180  30.157  1.00  0.00     0.135 A 
ATOM     66  F   UNL A   1      43.699  32.553  33.370  1.00  0.00    -0.206 F 
ATOM     67  C   UNL A   1      43.995  34.822  32.859  1.00  0.00     0.059 A 
ATOM     68  C   UNL A   1      44.330  35.509  30.554  1.00  0.00     0.059 A 
ATOM     69  F   UNL A   1      44.322  33.900  28.848  1.00  0.00    -0.206 F 
ATOM     70  C   UNL A   1      44.196  35.822  31.906  1.00  0.00     0.060 A 
BRANCH  70  71
ATOM     71  S   UNL A   1      44.284  37.539  32.459  1.00  0.00     0.124 S 
ATOM     72  O   UNL A   1      43.222  37.575  33.460  1.00  0.00    -0.237 OA
ATOM     73  O   UNL A   1      45.644  37.635  32.977  1.00  0.00    -0.237 OA
ATOM     74  O   UNL A   1      44.025  38.301  31.242  1.00  0.00    -0.744 OA
ENDBRANCH  70  71
ENDBRANCH  49  63
BRANCH  50  75
ATOM     75  C   UNL A   1      42.949  23.821  27.675  1.00  0.00     0.058 A 
ATOM     76  C   UNL A   1      42.597  22.755  28.515  1.00  0.00     0.135 A 
ATOM     77  C   UNL A   1      43.124  23.551  26.309  1.00  0.00     0.135 A 
ATOM     78  F   UNL A   1      42.425  22.965  29.829  1.00  0.00    -0.206 F 
ATOM     79  C   UNL A   1      42.430  21.466  28.023  1.00  0.00     0.059 A 
ATOM     80  C   UNL A   1      42.941  22.273  25.790  1.00  0.00     0.059 A 
ATOM     81  F   UNL A   1      43.445  24.541  25.463  1.00  0.00    -0.206 F 
ATOM     82  C   UNL A   1      42.600  21.235  26.657  1.00  0.00     0.060 A 
BRANCH  82  83
ATOM     83  S   UNL A   1      42.315  19.570  26.015  1.00  0.00     0.124 S 
ATOM     84  O   UNL A   1      43.231  19.533  24.881  1.00  0.00    -0.237 OA
ATOM     85  O   UNL A   1      42.678  18.736  27.157  1.00  0.00    -0.237 OA
ATOM     86  O   UNL A   1      40.893  19.580  25.683  1.00  0.00    -0.744 OA
ENDBRANCH  82  83
ENDBRANCH  50  75
BRANCH  62  87
ATOM     87  C   UNL A   1      48.328  27.421  30.268  1.00  0.00     0.058 A 
ATOM     88  C   UNL A   1      48.736  26.800  31.457  1.00  0.00     0.135 A 
ATOM     89  C   UNL A   1      49.302  27.664  29.286  1.00  0.00     0.135 A 
ATOM     90  F   UNL A   1      47.844  26.554  32.431  1.00  0.00    -0.206 F 
ATOM     91  C   UNL A   1      50.065  26.450  31.675  1.00  0.00     0.059 A 
ATOM     92  C   UNL A   1      50.632  27.302  29.472  1.00  0.00     0.059 A 
ATOM     93  F   UNL A   1      48.961  28.249  28.126  1.00  0.00    -0.206 F 
ATOM     94  C   UNL A   1      51.006  26.705  30.676  1.00  0.00     0.060 A 
BRANCH  94  95
ATOM     95  S   UNL A   1      52.722  26.218  30.955  1.00  0.00     0.124 S 
ATOM     96  O   UNL A   1      53.262  27.406  31.607  1.00  0.00    -0.237 OA
ATOM     97  O   UNL A   1      52.580  25.038  31.804  1.00  0.00    -0.237 OA
ATOM     98  O   UNL A   1      53.223  25.956  29.608  1.00  0.00    -0.744 OA
ENDBRANCH  94  95
ENDBRANCH  62  87
ENDBRANCH  36  37
ENDBRANCH  28  31
ENDBRANCH  26  27
ENDBRANCH   1  26
TORSDOF 16
ENDMDL
