MODEL 1
REMARK VINA RESULT:     -12.2      0.000      0.000
REMARK SMILES Cc1ccccc1CNc1ccc(C(=O)NCCCNC(=O)c2ccc(-c3c4nc(c(-c5c(F)cc(S(=O)(=O)[O-])cc5F)c5ccc([nH]5)c(-c5c(F)cc(S(=O)(=O)[O-])cc5F)c5nc(c(-c6c(F)cc(S(=O)(=O)[O-])cc6F)c6ccc3[nH]6)C=C5)C=C4)cc2)c(F)c1F
REMARK SMILES IDX 18 1 17 2 16 3 14 4 15 5 13 7 10 8 11 9 91 10 12 11 89 12
REMARK SMILES IDX 92 13 90 14 9 15 8 17 7 18 1 19 2 20 3 21 4 22 6 23 5 24
REMARK SMILES IDX 19 25 20 26 21 27 22 29 23 30 24 31 88 32 25 33 87 34 26 35
REMARK SMILES IDX 27 36 28 37 81 38 29 39 86 40 80 41 82 42 30 43 85 44 79 45
REMARK SMILES IDX 78 46 31 48 65 49 44 50 64 51 45 52 48 53 63 54 83 55 46 56
REMARK SMILES IDX 47 57 62 59 84 60 49 61 32 62 33 63 42 64 34 65 35 66 41 67
REMARK SMILES IDX 43 68 36 69 37 70 38 71 39 72 40 73 66 74 67 75 76 76 68 77
REMARK SMILES IDX 69 78 75 79 77 80 70 81 71 82 72 83 73 84 74 85 50 86 51 87
REMARK SMILES IDX 60 88 52 89 53 90 59 91 61 92 54 93 55 94 56 95 57 96 58 97
REMARK H PARENT 16 6 9 16 20 28 82 47 48 58
REMARK Flexibility Score: inf
ROOT
ATOM      1  C   UNL A   1      33.749  33.385  28.196  1.00  0.00     0.042 C 
ENDROOT
BRANCH   1   2
ATOM      2  C   UNL A   1      33.234  31.960  27.650  1.00  0.00     0.118 C 
BRANCH   2   3
ATOM      3  N   UNL A   1      34.025  30.743  27.955  1.00  0.00    -0.352 N 
ATOM      4  C   UNL A   1      34.255  29.507  27.378  1.00  0.00     0.254 C 
ATOM      5  O   UNL A   1      35.233  28.826  27.680  1.00  0.00    -0.269 OA
ATOM      6  H   UNL A   1      34.523  30.841  28.799  1.00  0.00     0.163 HD
BRANCH   4   7
ATOM      7  C   UNL A   1      33.307  28.943  26.405  1.00  0.00     0.078 A 
ATOM      8  C   UNL A   1      31.730  27.644  24.490  1.00  0.00     0.074 A 
ATOM      9  C   UNL A   1      32.802  28.447  24.100  1.00  0.00     0.030 A 
ATOM     10  C   UNL A   1      31.363  27.634  25.845  1.00  0.00     0.182 A 
ATOM     11  C   UNL A   1      33.558  29.126  25.047  1.00  0.00     0.019 A 
ATOM     12  C   UNL A   1      32.145  28.272  26.803  1.00  0.00     0.173 A 
ATOM     13  F   UNL A   1      30.293  26.913  26.227  1.00  0.00    -0.201 F 
ATOM     14  F   UNL A   1      31.783  28.165  28.092  1.00  0.00    -0.203 F 
BRANCH   8  15
ATOM     15  N   UNL A   1      31.141  26.757  23.586  1.00  0.00    -0.379 N 
ATOM     16  H   UNL A   1      31.042  25.798  23.786  1.00  0.00     0.161 HD
BRANCH  15  17
ATOM     17  C   UNL A   1      30.683  27.333  22.325  1.00  0.00     0.149 C 
BRANCH  17  18
ATOM     18  C   UNL A   1      29.614  28.368  22.599  1.00  0.00    -0.026 A 
ATOM     19  C   UNL A   1      28.000  26.743  23.777  1.00  0.00     0.044 C 
ATOM     20  C   UNL A   1      28.393  28.093  23.243  1.00  0.00    -0.046 A 
ATOM     21  C   UNL A   1      27.454  29.133  23.387  1.00  0.00     0.004 A 
ATOM     22  C   UNL A   1      27.717  30.422  22.922  1.00  0.00     0.000 A 
ATOM     23  C   UNL A   1      29.870  29.685  22.154  1.00  0.00     0.006 A 
ATOM     24  C   UNL A   1      28.931  30.701  22.311  1.00  0.00     0.000 A 
ENDBRANCH  17  18
ENDBRANCH  15  17
ENDBRANCH   8  15
ENDBRANCH   4   7
ENDBRANCH   2   3
ENDBRANCH   1   2
BRANCH   1  25
ATOM     25  C   UNL A   1      35.315  33.513  28.489  1.00  0.00     0.118 C 
BRANCH  25  26
ATOM     26  N   UNL A   1      36.091  32.729  29.602  1.00  0.00    -0.352 N 
ATOM     27  C   UNL A   1      37.275  31.896  29.708  1.00  0.00     0.251 C 
ATOM     28  H   UNL A   1      35.651  32.831  30.478  1.00  0.00     0.163 HD
ATOM     29  O   UNL A   1      38.152  32.386  30.444  1.00  0.00    -0.269 OA
BRANCH  27  30
ATOM     30  C   UNL A   1      37.661  30.476  29.146  1.00  0.00     0.039 A 
ATOM     31  C   UNL A   1      37.776  29.352  30.027  1.00  0.00     0.014 A 
ATOM     32  C   UNL A   1      38.051  30.188  27.846  1.00  0.00     0.014 A 
ATOM     33  C   UNL A   1      38.726  28.291  29.765  1.00  0.00     0.010 A 
ATOM     34  C   UNL A   1      38.993  29.143  27.585  1.00  0.00     0.010 A 
ATOM     35  C   UNL A   1      39.513  28.328  28.602  1.00  0.00    -0.014 A 
BRANCH  35  36
ATOM     36  C   UNL A   1      40.926  27.778  28.491  1.00  0.00     0.031 A 
ATOM     37  C   UNL A   1      41.178  26.380  28.161  1.00  0.00     0.074 A 
ATOM     38  C   UNL A   1      42.108  28.464  28.515  1.00  0.00     0.049 A 
ATOM     39  N   UNL A   1      41.958  25.590  28.826  1.00  0.00    -0.248 NA
ATOM     40  C   UNL A   1      40.645  25.825  26.931  1.00  0.00     0.031 C 
ATOM     41  C   UNL A   1      43.514  28.085  28.286  1.00  0.00     0.029 A 
ATOM     42  N   UNL A   1      42.292  29.809  28.725  1.00  0.00    -0.354 N 
ATOM     43  C   UNL A   1      42.276  24.574  27.947  1.00  0.00     0.074 A 
ATOM     44  C   UNL A   1      41.283  24.653  26.892  1.00  0.00     0.031 C 
ATOM     45  C   UNL A   1      44.332  29.053  28.763  1.00  0.00     0.029 A 
ATOM     46  C   UNL A   1      43.505  30.082  29.354  1.00  0.00     0.049 A 
ATOM     47  H   UNL A   1      41.642  30.500  28.461  1.00  0.00     0.167 HD
ATOM     48  C   UNL A   1      43.498  23.958  27.964  1.00  0.00     0.037 A 
ATOM     49  C   UNL A   1      43.483  30.597  30.627  1.00  0.00     0.037 A 
ATOM     50  C   UNL A   1      44.480  24.692  28.785  1.00  0.00     0.049 A 
ATOM     51  C   UNL A   1      43.883  29.515  31.614  1.00  0.00     0.074 A 
ATOM     52  C   UNL A   1      45.639  25.404  28.496  1.00  0.00     0.029 A 
ATOM     53  N   UNL A   1      44.183  25.017  30.097  1.00  0.00    -0.354 N 
ATOM     54  N   UNL A   1      44.447  28.405  31.232  1.00  0.00    -0.248 NA
ATOM     55  C   UNL A   1      43.649  29.522  33.058  1.00  0.00     0.031 C 
ATOM     56  C   UNL A   1      46.041  26.123  29.661  1.00  0.00     0.029 A 
ATOM     57  C   UNL A   1      45.136  25.841  30.666  1.00  0.00     0.049 A 
ATOM     58  H   UNL A   1      43.382  24.698  30.572  1.00  0.00     0.167 HD
ATOM     59  C   UNL A   1      44.539  27.524  32.266  1.00  0.00     0.074 A 
ATOM     60  C   UNL A   1      44.071  28.290  33.410  1.00  0.00     0.031 C 
ATOM     61  C   UNL A   1      44.963  26.241  32.060  1.00  0.00     0.037 A 
BRANCH  48  62
ATOM     62  C   UNL A   1      43.884  22.856  26.984  1.00  0.00     0.058 A 
ATOM     63  C   UNL A   1      43.123  21.677  26.846  1.00  0.00     0.135 A 
ATOM     64  C   UNL A   1      44.978  22.942  26.092  1.00  0.00     0.135 A 
ATOM     65  F   UNL A   1      41.964  21.507  27.495  1.00  0.00    -0.206 F 
ATOM     66  C   UNL A   1      43.484  20.629  25.995  1.00  0.00     0.059 A 
ATOM     67  C   UNL A   1      45.403  21.883  25.286  1.00  0.00     0.059 A 
ATOM     68  F   UNL A   1      45.640  24.095  25.906  1.00  0.00    -0.206 F 
ATOM     69  C   UNL A   1      44.644  20.725  25.240  1.00  0.00     0.060 A 
BRANCH  69  70
ATOM     70  S   UNL A   1      45.083  19.373  24.134  1.00  0.00     0.124 S 
ATOM     71  O   UNL A   1      44.428  19.764  22.890  1.00  0.00    -0.237 OA
ATOM     72  O   UNL A   1      46.540  19.442  24.135  1.00  0.00    -0.237 OA
ATOM     73  O   UNL A   1      44.515  18.197  24.790  1.00  0.00    -0.744 OA
ENDBRANCH  69  70
ENDBRANCH  48  62
BRANCH  49  74
ATOM     74  C   UNL A   1      42.434  31.719  30.841  1.00  0.00     0.058 A 
ATOM     75  C   UNL A   1      41.502  31.415  31.864  1.00  0.00     0.135 A 
ATOM     76  C   UNL A   1      42.999  32.974  30.989  1.00  0.00     0.135 A 
ATOM     77  F   UNL A   1      40.511  30.548  31.618  1.00  0.00    -0.206 F 
ATOM     78  C   UNL A   1      41.674  31.859  33.181  1.00  0.00     0.059 A 
ATOM     79  C   UNL A   1      43.189  33.419  32.305  1.00  0.00     0.059 A 
ATOM     80  F   UNL A   1      43.763  33.488  30.009  1.00  0.00    -0.206 F 
ATOM     81  C   UNL A   1      42.709  32.738  33.412  1.00  0.00     0.060 A 
BRANCH  81  82
ATOM     82  S   UNL A   1      43.607  32.736  35.111  1.00  0.00     0.124 S 
ATOM     83  O   UNL A   1      42.905  31.657  35.763  1.00  0.00    -0.237 OA
ATOM     84  O   UNL A   1      44.998  32.400  34.807  1.00  0.00    -0.237 OA
ATOM     85  O   UNL A   1      43.407  34.033  35.712  1.00  0.00    -0.744 OA
ENDBRANCH  81  82
ENDBRANCH  49  74
BRANCH  61  86
ATOM     86  C   UNL A   1      45.233  25.221  33.139  1.00  0.00     0.058 A 
ATOM     87  C   UNL A   1      44.233  24.744  33.999  1.00  0.00     0.135 A 
ATOM     88  C   UNL A   1      46.550  24.796  33.446  1.00  0.00     0.135 A 
ATOM     89  F   UNL A   1      42.967  25.177  33.898  1.00  0.00    -0.206 F 
ATOM     90  C   UNL A   1      44.505  23.832  35.022  1.00  0.00     0.059 A 
ATOM     91  C   UNL A   1      46.850  23.929  34.486  1.00  0.00     0.059 A 
ATOM     92  F   UNL A   1      47.617  25.192  32.741  1.00  0.00    -0.206 F 
ATOM     93  C   UNL A   1      45.817  23.421  35.248  1.00  0.00     0.060 A 
BRANCH  93  94
ATOM     94  S   UNL A   1      46.169  22.229  36.548  1.00  0.00     0.124 S 
ATOM     95  O   UNL A   1      45.540  22.842  37.713  1.00  0.00    -0.237 OA
ATOM     96  O   UNL A   1      45.510  21.034  36.028  1.00  0.00    -0.237 OA
ATOM     97  O   UNL A   1      47.627  22.176  36.583  1.00  0.00    -0.744 OA
ENDBRANCH  93  94
ENDBRANCH  61  86
ENDBRANCH  35  36
ENDBRANCH  27  30
ENDBRANCH  25  26
ENDBRANCH   1  25
TORSDOF 16
ENDMDL
MODEL 2
REMARK VINA RESULT:     -12.1      4.466     10.131
REMARK SMILES Cc1ccccc1CNc1ccc(C(=O)NCCCNC(=O)c2ccc(-c3c4nc(c(-c5c(F)cc(S(=O)(=O)[O-])cc5F)c5ccc([nH]5)c(-c5c(F)cc(S(=O)(=O)[O-])cc5F)c5nc(c(-c6c(F)cc(S(=O)(=O)[O-])cc6F)c6ccc3[nH]6)C=C5)C=C4)cc2)c(F)c1F
REMARK SMILES IDX 18 1 17 2 16 3 14 4 15 5 13 7 10 8 11 9 91 10 12 11 89 12
REMARK SMILES IDX 92 13 90 14 9 15 8 17 7 18 1 19 2 20 3 21 4 22 6 23 5 24
REMARK SMILES IDX 19 25 20 26 21 27 22 29 23 30 24 31 88 32 25 33 87 34 26 35
REMARK SMILES IDX 27 36 28 37 81 38 29 39 86 40 80 41 82 42 30 43 85 44 79 45
REMARK SMILES IDX 78 46 31 48 65 49 44 50 64 51 45 52 48 53 63 54 83 55 46 56
REMARK SMILES IDX 47 57 62 59 84 60 49 61 32 62 33 63 42 64 34 65 35 66 41 67
REMARK SMILES IDX 43 68 36 69 37 70 38 71 39 72 40 73 66 74 67 75 76 76 68 77
REMARK SMILES IDX 69 78 75 79 77 80 70 81 71 82 72 83 73 84 74 85 50 86 51 87
REMARK SMILES IDX 60 88 52 89 53 90 59 91 61 92 54 93 55 94 56 95 57 96 58 97
REMARK H PARENT 16 6 9 16 20 28 82 47 48 58
REMARK Flexibility Score: inf
ROOT
ATOM      1  C   UNL A   1      33.048  27.383  24.754  1.00  0.00     0.042 C 
ENDROOT
BRANCH   1   2
ATOM      2  C   UNL A   1      32.254  28.489  23.894  1.00  0.00     0.118 C 
BRANCH   2   3
ATOM      3  N   UNL A   1      30.857  28.211  23.476  1.00  0.00    -0.352 N 
ATOM      4  C   UNL A   1      29.899  27.242  23.712  1.00  0.00     0.254 C 
ATOM      5  O   UNL A   1      28.706  27.451  23.502  1.00  0.00    -0.269 OA
ATOM      6  H   UNL A   1      30.521  28.906  22.865  1.00  0.00     0.163 HD
BRANCH   4   7
ATOM      7  C   UNL A   1      30.283  25.903  24.184  1.00  0.00     0.078 A 
ATOM      8  C   UNL A   1      31.307  23.409  24.942  1.00  0.00     0.074 A 
ATOM      9  C   UNL A   1      30.927  23.649  23.621  1.00  0.00     0.030 A 
ATOM     10  C   UNL A   1      31.012  24.385  25.907  1.00  0.00     0.182 A 
ATOM     11  C   UNL A   1      30.380  24.871  23.252  1.00  0.00     0.019 A 
ATOM     12  C   UNL A   1      30.509  25.628  25.536  1.00  0.00     0.173 A 
ATOM     13  F   UNL A   1      31.316  24.142  27.195  1.00  0.00    -0.201 F 
ATOM     14  F   UNL A   1      30.318  26.547  26.498  1.00  0.00    -0.203 F 
BRANCH   8  15
ATOM     15  N   UNL A   1      32.094  22.302  25.265  1.00  0.00    -0.379 N 
ATOM     16  H   UNL A   1      32.196  21.988  26.192  1.00  0.00     0.161 HD
BRANCH  15  17
ATOM     17  C   UNL A   1      32.760  21.637  24.148  1.00  0.00     0.149 C 
BRANCH  17  18
ATOM     18  C   UNL A   1      34.258  21.785  24.290  1.00  0.00    -0.026 A 
ATOM     19  C   UNL A   1      34.405  24.015  23.010  1.00  0.00     0.044 C 
ATOM     20  C   UNL A   1      35.002  22.855  23.759  1.00  0.00    -0.046 A 
ATOM     21  C   UNL A   1      36.403  22.848  23.910  1.00  0.00     0.004 A 
ATOM     22  C   UNL A   1      37.057  21.816  24.584  1.00  0.00     0.000 A 
ATOM     23  C   UNL A   1      34.938  20.760  24.987  1.00  0.00     0.006 A 
ATOM     24  C   UNL A   1      36.323  20.773  25.130  1.00  0.00     0.000 A 
ENDBRANCH  17  18
ENDBRANCH  15  17
ENDBRANCH   8  15
ENDBRANCH   4   7
ENDBRANCH   2   3
ENDBRANCH   1   2
BRANCH   1  25
ATOM     25  C   UNL A   1      33.455  27.795  26.244  1.00  0.00     0.118 C 
BRANCH  25  26
ATOM     26  N   UNL A   1      32.850  28.999  27.044  1.00  0.00    -0.352 N 
ATOM     27  C   UNL A   1      33.139  30.406  27.257  1.00  0.00     0.251 C 
ATOM     28  H   UNL A   1      32.047  28.724  27.543  1.00  0.00     0.163 HD
ATOM     29  O   UNL A   1      32.239  31.158  26.839  1.00  0.00    -0.269 OA
BRANCH  27  30
ATOM     30  C   UNL A   1      34.316  31.181  27.962  1.00  0.00     0.039 A 
ATOM     31  C   UNL A   1      35.676  30.942  27.579  1.00  0.00     0.014 A 
ATOM     32  C   UNL A   1      34.202  32.022  29.059  1.00  0.00     0.014 A 
ATOM     33  C   UNL A   1      36.752  31.038  28.543  1.00  0.00     0.010 A 
ATOM     34  C   UNL A   1      35.262  32.116  30.015  1.00  0.00     0.010 A 
ATOM     35  C   UNL A   1      36.475  31.426  29.864  1.00  0.00    -0.014 A 
BRANCH  35  36
ATOM     36  C   UNL A   1      37.238  30.946  31.089  1.00  0.00     0.031 A 
ATOM     37  C   UNL A   1      37.348  31.766  32.290  1.00  0.00     0.074 A 
ATOM     38  C   UNL A   1      37.768  29.709  31.326  1.00  0.00     0.049 A 
ATOM     39  N   UNL A   1      38.455  32.039  32.902  1.00  0.00    -0.248 NA
ATOM     40  C   UNL A   1      36.146  32.220  32.963  1.00  0.00     0.031 C 
ATOM     41  C   UNL A   1      38.400  29.078  32.499  1.00  0.00     0.029 A 
ATOM     42  N   UNL A   1      37.801  28.634  30.474  1.00  0.00    -0.354 N 
ATOM     43  C   UNL A   1      38.081  32.401  34.180  1.00  0.00     0.074 A 
ATOM     44  C   UNL A   1      36.664  32.702  34.095  1.00  0.00     0.031 C 
ATOM     45  C   UNL A   1      39.060  27.959  32.116  1.00  0.00     0.029 A 
ATOM     46  C   UNL A   1      38.921  27.831  30.682  1.00  0.00     0.049 A 
ATOM     47  H   UNL A   1      37.112  28.450  29.794  1.00  0.00     0.167 HD
ATOM     48  C   UNL A   1      38.859  32.119  35.271  1.00  0.00     0.037 A 
ATOM     49  C   UNL A   1      39.870  27.758  29.691  1.00  0.00     0.037 A 
ATOM     50  C   UNL A   1      39.931  31.157  34.954  1.00  0.00     0.049 A 
ATOM     51  C   UNL A   1      41.090  28.560  30.102  1.00  0.00     0.074 A 
ATOM     52  C   UNL A   1      40.187  29.841  35.322  1.00  0.00     0.029 A 
ATOM     53  N   UNL A   1      40.798  31.405  33.904  1.00  0.00    -0.354 N 
ATOM     54  N   UNL A   1      41.274  28.959  31.329  1.00  0.00    -0.248 NA
ATOM     55  C   UNL A   1      42.156  29.040  29.222  1.00  0.00     0.031 C 
ATOM     56  C   UNL A   1      41.236  29.328  34.503  1.00  0.00     0.029 A 
ATOM     57  C   UNL A   1      41.632  30.333  33.642  1.00  0.00     0.049 A 
ATOM     58  H   UNL A   1      40.817  32.249  33.398  1.00  0.00     0.167 HD
ATOM     59  C   UNL A   1      42.334  29.810  31.410  1.00  0.00     0.074 A 
ATOM     60  C   UNL A   1      42.892  29.792  30.067  1.00  0.00     0.031 C 
ATOM     61  C   UNL A   1      42.619  30.468  32.575  1.00  0.00     0.037 A 
BRANCH  48  62
ATOM     62  C   UNL A   1      38.452  32.479  36.694  1.00  0.00     0.058 A 
ATOM     63  C   UNL A   1      38.590  33.788  37.204  1.00  0.00     0.135 A 
ATOM     64  C   UNL A   1      37.847  31.573  37.595  1.00  0.00     0.135 A 
ATOM     65  F   UNL A   1      38.992  34.805  36.431  1.00  0.00    -0.206 F 
ATOM     66  C   UNL A   1      38.276  34.132  38.521  1.00  0.00     0.059 A 
ATOM     67  C   UNL A   1      37.590  31.871  38.936  1.00  0.00     0.059 A 
ATOM     68  F   UNL A   1      37.402  30.374  37.187  1.00  0.00    -0.206 F 
ATOM     69  C   UNL A   1      37.805  33.161  39.392  1.00  0.00     0.060 A 
BRANCH  69  70
ATOM     70  S   UNL A   1      37.386  33.628  41.080  1.00  0.00     0.124 S 
ATOM     71  O   UNL A   1      38.129  32.649  41.867  1.00  0.00    -0.237 OA
ATOM     72  O   UNL A   1      37.877  35.001  41.145  1.00  0.00    -0.237 OA
ATOM     73  O   UNL A   1      35.933  33.483  41.123  1.00  0.00    -0.744 OA
ENDBRANCH  69  70
ENDBRANCH  48  62
BRANCH  49  74
ATOM     74  C   UNL A   1      39.285  27.608  28.262  1.00  0.00     0.058 A 
ATOM     75  C   UNL A   1      39.731  28.618  27.374  1.00  0.00     0.135 A 
ATOM     76  C   UNL A   1      39.435  26.334  27.741  1.00  0.00     0.135 A 
ATOM     77  F   UNL A   1      39.203  29.846  27.451  1.00  0.00    -0.206 F 
ATOM     78  C   UNL A   1      40.830  28.427  26.525  1.00  0.00     0.059 A 
ATOM     79  C   UNL A   1      40.541  26.131  26.903  1.00  0.00     0.059 A 
ATOM     80  F   UNL A   1      38.896  25.279  28.377  1.00  0.00    -0.206 F 
ATOM     81  C   UNL A   1      41.366  27.160  26.474  1.00  0.00     0.060 A 
BRANCH  81  82
ATOM     82  S   UNL A   1      43.243  26.926  26.137  1.00  0.00     0.124 S 
ATOM     83  O   UNL A   1      43.676  26.483  27.440  1.00  0.00    -0.237 OA
ATOM     84  O   UNL A   1      43.321  25.869  25.129  1.00  0.00    -0.237 OA
ATOM     85  O   UNL A   1      43.776  28.204  25.729  1.00  0.00    -0.744 OA
ENDBRANCH  81  82
ENDBRANCH  49  74
BRANCH  61  86
ATOM     86  C   UNL A   1      43.835  31.325  32.824  1.00  0.00     0.058 A 
ATOM     87  C   UNL A   1      43.944  32.643  32.355  1.00  0.00     0.135 A 
ATOM     88  C   UNL A   1      45.006  30.795  33.421  1.00  0.00     0.135 A 
ATOM     89  F   UNL A   1      42.953  33.213  31.653  1.00  0.00    -0.206 F 
ATOM     90  C   UNL A   1      45.094  33.410  32.555  1.00  0.00     0.059 A 
ATOM     91  C   UNL A   1      46.175  31.523  33.588  1.00  0.00     0.059 A 
ATOM     92  F   UNL A   1      45.074  29.542  33.887  1.00  0.00    -0.206 F 
ATOM     93  C   UNL A   1      46.200  32.844  33.186  1.00  0.00     0.060 A 
BRANCH  93  94
ATOM     94  S   UNL A   1      47.673  33.836  33.469  1.00  0.00     0.124 S 
ATOM     95  O   UNL A   1      47.218  35.178  33.120  1.00  0.00    -0.237 OA
ATOM     96  O   UNL A   1      47.913  33.597  34.889  1.00  0.00    -0.237 OA
ATOM     97  O   UNL A   1      48.659  33.257  32.561  1.00  0.00    -0.744 OA
ENDBRANCH  93  94
ENDBRANCH  61  86
ENDBRANCH  35  36
ENDBRANCH  27  30
ENDBRANCH  25  26
ENDBRANCH   1  25
TORSDOF 16
ENDMDL
MODEL 3
REMARK VINA RESULT:     -12.0      4.404      6.985
REMARK SMILES Cc1ccccc1CNc1ccc(C(=O)NCCCNC(=O)c2ccc(-c3c4nc(c(-c5c(F)cc(S(=O)(=O)[O-])cc5F)c5ccc([nH]5)c(-c5c(F)cc(S(=O)(=O)[O-])cc5F)c5nc(c(-c6c(F)cc(S(=O)(=O)[O-])cc6F)c6ccc3[nH]6)C=C5)C=C4)cc2)c(F)c1F
REMARK SMILES IDX 18 1 17 2 16 3 14 4 15 5 13 7 10 8 11 9 91 10 12 11 89 12
REMARK SMILES IDX 92 13 90 14 9 15 8 17 7 18 1 19 2 20 3 21 4 22 6 23 5 24
REMARK SMILES IDX 19 25 20 26 21 27 22 29 23 30 24 31 88 32 25 33 87 34 26 35
REMARK SMILES IDX 27 36 28 37 81 38 29 39 86 40 80 41 82 42 30 43 85 44 79 45
REMARK SMILES IDX 78 46 31 48 65 49 44 50 64 51 45 52 48 53 63 54 83 55 46 56
REMARK SMILES IDX 47 57 62 59 84 60 49 61 32 62 33 63 42 64 34 65 35 66 41 67
REMARK SMILES IDX 43 68 36 69 37 70 38 71 39 72 40 73 66 74 67 75 76 76 68 77
REMARK SMILES IDX 69 78 75 79 77 80 70 81 71 82 72 83 73 84 74 85 50 86 51 87
REMARK SMILES IDX 60 88 52 89 53 90 59 91 61 92 54 93 55 94 56 95 57 96 58 97
REMARK H PARENT 16 6 9 16 20 28 82 47 48 58
REMARK Flexibility Score: inf
ROOT
ATOM      1  C   UNL A   1      39.881  34.405  30.224  1.00  0.00     0.042 C 
ENDROOT
BRANCH   1   2
ATOM      2  C   UNL A   1      41.372  34.072  29.711  1.00  0.00     0.118 C 
BRANCH   2   3
ATOM      3  N   UNL A   1      42.357  35.176  29.595  1.00  0.00    -0.352 N 
ATOM      4  C   UNL A   1      43.386  35.536  28.744  1.00  0.00     0.254 C 
ATOM      5  O   UNL A   1      43.809  36.689  28.696  1.00  0.00    -0.269 OA
ATOM      6  H   UNL A   1      42.248  35.831  30.322  1.00  0.00     0.163 HD
BRANCH   4   7
ATOM      7  C   UNL A   1      44.042  34.534  27.891  1.00  0.00     0.078 A 
ATOM      8  C   UNL A   1      45.091  32.404  26.405  1.00  0.00     0.074 A 
ATOM      9  C   UNL A   1      45.412  32.554  27.755  1.00  0.00     0.030 A 
ATOM     10  C   UNL A   1      44.368  33.429  25.775  1.00  0.00     0.182 A 
ATOM     11  C   UNL A   1      44.927  33.633  28.482  1.00  0.00     0.019 A 
ATOM     12  C   UNL A   1      43.839  34.487  26.508  1.00  0.00     0.173 A 
ATOM     13  F   UNL A   1      44.104  33.328  24.459  1.00  0.00    -0.201 F 
ATOM     14  F   UNL A   1      43.094  35.398  25.860  1.00  0.00    -0.203 F 
BRANCH   8  15
ATOM     15  N   UNL A   1      45.345  31.200  25.744  1.00  0.00    -0.379 N 
ATOM     16  H   UNL A   1      45.364  31.140  24.761  1.00  0.00     0.161 HD
BRANCH  15  17
ATOM     17  C   UNL A   1      45.580  30.036  26.593  1.00  0.00     0.149 C 
BRANCH  17  18
ATOM     18  C   UNL A   1      44.637  28.922  26.197  1.00  0.00    -0.026 A 
ATOM     19  C   UNL A   1      46.457  27.106  26.048  1.00  0.00     0.044 C 
ATOM     20  C   UNL A   1      45.041  27.599  25.935  1.00  0.00    -0.046 A 
ATOM     21  C   UNL A   1      44.072  26.665  25.517  1.00  0.00     0.004 A 
ATOM     22  C   UNL A   1      42.731  27.021  25.375  1.00  0.00     0.000 A 
ATOM     23  C   UNL A   1      43.270  29.257  26.068  1.00  0.00     0.006 A 
ATOM     24  C   UNL A   1      42.327  28.318  25.659  1.00  0.00     0.000 A 
ENDBRANCH  17  18
ENDBRANCH  15  17
ENDBRANCH   8  15
ENDBRANCH   4   7
ENDBRANCH   2   3
ENDBRANCH   1   2
BRANCH   1  25
ATOM     25  C   UNL A   1      39.091  33.215  30.940  1.00  0.00     0.118 C 
BRANCH  25  26
ATOM     26  N   UNL A   1      37.800  32.524  30.381  1.00  0.00    -0.352 N 
ATOM     27  C   UNL A   1      37.128  31.242  30.494  1.00  0.00     0.251 C 
ATOM     28  H   UNL A   1      37.305  33.131  29.784  1.00  0.00     0.163 HD
ATOM     29  O   UNL A   1      35.996  31.329  31.005  1.00  0.00    -0.269 OA
BRANCH  27  30
ATOM     30  C   UNL A   1      37.496  29.777  30.049  1.00  0.00     0.039 A 
ATOM     31  C   UNL A   1      37.747  28.762  31.029  1.00  0.00     0.014 A 
ATOM     32  C   UNL A   1      37.747  29.352  28.753  1.00  0.00     0.014 A 
ATOM     33  C   UNL A   1      38.697  27.698  30.777  1.00  0.00     0.010 A 
ATOM     34  C   UNL A   1      38.688  28.305  28.501  1.00  0.00     0.010 A 
ATOM     35  C   UNL A   1      39.347  27.621  29.534  1.00  0.00    -0.014 A 
BRANCH  35  36
ATOM     36  C   UNL A   1      40.756  27.091  29.322  1.00  0.00     0.031 A 
ATOM     37  C   UNL A   1      40.999  25.744  28.819  1.00  0.00     0.074 A 
ATOM     38  C   UNL A   1      41.938  27.774  29.399  1.00  0.00     0.049 A 
ATOM     39  N   UNL A   1      41.795  24.882  29.364  1.00  0.00    -0.248 NA
ATOM     40  C   UNL A   1      40.435  25.341  27.545  1.00  0.00     0.031 C 
ATOM     41  C   UNL A   1      43.338  27.428  29.090  1.00  0.00     0.029 A 
ATOM     42  N   UNL A   1      42.128  29.083  29.764  1.00  0.00    -0.354 N 
ATOM     43  C   UNL A   1      42.090  23.980  28.361  1.00  0.00     0.074 A 
ATOM     44  C   UNL A   1      41.071  24.183  27.349  1.00  0.00     0.031 C 
ATOM     45  C   UNL A   1      44.169  28.334  29.659  1.00  0.00     0.029 A 
ATOM     46  C   UNL A   1      43.358  29.282  30.390  1.00  0.00     0.049 A 
ATOM     47  H   UNL A   1      41.472  29.800  29.603  1.00  0.00     0.167 HD
ATOM     48  C   UNL A   1      43.312  23.370  28.273  1.00  0.00     0.037 A 
ATOM     49  C   UNL A   1      43.368  29.639  31.717  1.00  0.00     0.037 A 
ATOM     50  C   UNL A   1      44.315  24.002  29.151  1.00  0.00     0.049 A 
ATOM     51  C   UNL A   1      43.792  28.448  32.555  1.00  0.00     0.074 A 
ATOM     52  C   UNL A   1      45.466  24.747  28.921  1.00  0.00     0.029 A 
ATOM     53  N   UNL A   1      44.052  24.166  30.500  1.00  0.00    -0.354 N 
ATOM     54  N   UNL A   1      44.346  27.393  32.028  1.00  0.00    -0.248 NA
ATOM     55  C   UNL A   1      43.595  28.280  33.995  1.00  0.00     0.031 C 
ATOM     56  C   UNL A   1      45.898  25.321  30.153  1.00  0.00     0.029 A 
ATOM     57  C   UNL A   1      45.019  24.918  31.140  1.00  0.00     0.049 A 
ATOM     58  H   UNL A   1      43.262  23.790  30.953  1.00  0.00     0.167 HD
ATOM     59  C   UNL A   1      44.464  26.394  32.946  1.00  0.00     0.074 A 
ATOM     60  C   UNL A   1      44.025  27.015  34.185  1.00  0.00     0.031 C 
ATOM     61  C   UNL A   1      44.882  25.146  32.576  1.00  0.00     0.037 A 
BRANCH  48  62
ATOM     62  C   UNL A   1      43.673  22.395  27.158  1.00  0.00     0.058 A 
ATOM     63  C   UNL A   1      42.913  21.234  26.904  1.00  0.00     0.135 A 
ATOM     64  C   UNL A   1      44.738  22.596  26.250  1.00  0.00     0.135 A 
ATOM     65  F   UNL A   1      41.776  20.979  27.563  1.00  0.00    -0.206 F 
ATOM     66  C   UNL A   1      43.252  20.298  25.924  1.00  0.00     0.059 A 
ATOM     67  C   UNL A   1      45.142  21.643  25.310  1.00  0.00     0.059 A 
ATOM     68  F   UNL A   1      45.388  23.768  26.182  1.00  0.00    -0.206 F 
ATOM     69  C   UNL A   1      44.388  20.492  25.151  1.00  0.00     0.060 A 
BRANCH  69  70
ATOM     70  S   UNL A   1      44.798  19.285  23.879  1.00  0.00     0.124 S 
ATOM     71  O   UNL A   1      46.204  19.008  24.156  1.00  0.00    -0.237 OA
ATOM     72  O   UNL A   1      43.866  18.203  24.176  1.00  0.00    -0.237 OA
ATOM     73  O   UNL A   1      44.542  20.003  22.632  1.00  0.00    -0.744 OA
ENDBRANCH  69  70
ENDBRANCH  48  62
BRANCH  49  74
ATOM     74  C   UNL A   1      42.325  30.725  32.091  1.00  0.00     0.058 A 
ATOM     75  C   UNL A   1      41.392  30.282  33.061  1.00  0.00     0.135 A 
ATOM     76  C   UNL A   1      42.897  31.943  32.416  1.00  0.00     0.135 A 
ATOM     77  F   UNL A   1      40.397  29.465  32.695  1.00  0.00    -0.206 F 
ATOM     78  C   UNL A   1      41.569  30.533  34.429  1.00  0.00     0.059 A 
ATOM     79  C   UNL A   1      43.091  32.194  33.782  1.00  0.00     0.059 A 
ATOM     80  F   UNL A   1      43.663  32.588  31.518  1.00  0.00    -0.206 F 
ATOM     81  C   UNL A   1      42.608  31.364  34.781  1.00  0.00     0.060 A 
BRANCH  81  82
ATOM     82  S   UNL A   1      43.508  31.114  36.461  1.00  0.00     0.124 S 
ATOM     83  O   UNL A   1      43.652  32.489  36.873  1.00  0.00    -0.237 OA
ATOM     84  O   UNL A   1      42.561  30.373  37.294  1.00  0.00    -0.237 OA
ATOM     85  O   UNL A   1      44.752  30.433  36.192  1.00  0.00    -0.744 OA
ENDBRANCH  81  82
ENDBRANCH  49  74
BRANCH  61  86
ATOM     86  C   UNL A   1      45.178  24.005  33.517  1.00  0.00     0.058 A 
ATOM     87  C   UNL A   1      46.454  23.776  34.054  1.00  0.00     0.135 A 
ATOM     88  C   UNL A   1      44.214  23.004  33.796  1.00  0.00     0.135 A 
ATOM     89  F   UNL A   1      47.487  24.577  33.754  1.00  0.00    -0.206 F 
ATOM     90  C   UNL A   1      46.724  22.689  34.890  1.00  0.00     0.059 A 
ATOM     91  C   UNL A   1      44.473  21.892  34.584  1.00  0.00     0.059 A 
ATOM     92  F   UNL A   1      42.962  23.059  33.326  1.00  0.00    -0.206 F 
ATOM     93  C   UNL A   1      45.721  21.760  35.159  1.00  0.00     0.060 A 
BRANCH  93  94
ATOM     94  S   UNL A   1      46.057  20.374  36.255  1.00  0.00     0.124 S 
ATOM     95  O   UNL A   1      45.692  20.912  37.561  1.00  0.00    -0.237 OA
ATOM     96  O   UNL A   1      45.160  19.356  35.715  1.00  0.00    -0.237 OA
ATOM     97  O   UNL A   1      47.482  20.120  36.063  1.00  0.00    -0.744 OA
ENDBRANCH  93  94
ENDBRANCH  61  86
ENDBRANCH  35  36
ENDBRANCH  27  30
ENDBRANCH  25  26
ENDBRANCH   1  25
TORSDOF 16
ENDMDL
