MODEL 1
REMARK VINA RESULT:     -11.8      0.000      0.000
REMARK SMILES CC(C)(C)OC(=O)N1C[C@@H](COCc2ccccc2)O[C@@H](C(=O)NCCCNC(=O)c2ccc(-c3c4nc(c(-c5c(F)cc(S(=O)(=O)[O-])cc5F)c5ccc([nH]5)c(-c5c(F)cc(S(=O)(=O)[O-])cc5F)c5nc(c(-c6c(F)cc(S(=O)(=O)[O-])cc6F)c6ccc3[nH]6)C=C5)C=C4)cc2)C1
REMARK SMILES IDX 25 1 24 2 22 3 23 4 21 6 8 7 9 8 97 9 10 10 20 11 6 12 7 13
REMARK SMILES IDX 5 14 2 15 1 16 3 17 4 18 11 19 12 20 13 21 14 22 15 23 19 24
REMARK SMILES IDX 16 25 18 26 17 27 26 28 27 29 28 30 29 31 30 33 31 34 32 35
REMARK SMILES IDX 96 36 33 37 95 38 34 39 35 40 36 41 89 42 37 43 94 44 88 45
REMARK SMILES IDX 90 46 38 47 93 48 87 49 86 50 39 52 73 53 52 54 72 55 53 56
REMARK SMILES IDX 56 57 71 58 91 59 54 60 55 61 70 63 92 64 57 65 40 66 41 67
REMARK SMILES IDX 50 68 42 69 43 70 49 71 51 72 44 73 45 74 46 75 47 76 48 77
REMARK SMILES IDX 74 78 75 79 84 80 76 81 77 82 83 83 85 84 78 85 79 86 80 87
REMARK SMILES IDX 81 88 82 89 58 90 59 91 68 92 60 93 61 94 67 95 69 96 62 97
REMARK SMILES IDX 63 98 64 99 65 100 66 101
REMARK H PARENT 24 5 28 32 90 51 56 62
REMARK Flexibility Score: inf
ROOT
ATOM      1  C   UNL A   1      33.570  29.705  27.002  1.00  0.00     0.117 C 
ENDROOT
BRANCH   1   2
ATOM      2  N   UNL A   1      34.134  29.376  25.706  1.00  0.00    -0.354 N 
ATOM      3  C   UNL A   1      33.505  28.939  24.575  1.00  0.00     0.251 C 
ATOM      4  O   UNL A   1      34.191  28.755  23.565  1.00  0.00    -0.272 OA
ATOM      5  H   UNL A   1      35.110  29.484  25.632  1.00  0.00     0.163 HD
BRANCH   3   6
ATOM      6  C   UNL A   1      31.998  28.645  24.569  1.00  0.00     0.227 C 
ATOM      7  N   UNL A   1      29.992  28.743  23.121  1.00  0.00    -0.302 N 
ATOM      8  C   UNL A   1      29.688  27.356  23.472  1.00  0.00     0.157 C 
ATOM      9  C   UNL A   1      31.392  29.124  23.241  1.00  0.00     0.165 C 
ATOM     10  C   UNL A   1      30.315  26.980  24.829  1.00  0.00     0.164 C 
ATOM     11  O   UNL A   1      31.722  27.261  24.859  1.00  0.00    -0.359 OA
BRANCH   7  12
ATOM     12  C   UNL A   1      29.134  29.578  22.440  1.00  0.00     0.410 C 
ATOM     13  O   UNL A   1      28.163  29.162  21.814  1.00  0.00    -0.224 OA
BRANCH  12  14
ATOM     14  O   UNL A   1      29.523  30.875  22.484  1.00  0.00    -0.444 OA
BRANCH  14  15
ATOM     15  C   UNL A   1      28.542  31.934  22.657  1.00  0.00     0.106 C 
ATOM     16  C   UNL A   1      29.329  33.104  23.269  1.00  0.00     0.056 C 
ATOM     17  C   UNL A   1      27.466  31.478  23.644  1.00  0.00     0.056 C 
ATOM     18  C   UNL A   1      27.926  32.426  21.337  1.00  0.00     0.056 C 
ENDBRANCH  14  15
ENDBRANCH  12  14
ENDBRANCH   7  12
BRANCH  10  19
ATOM     19  C   UNL A   1      29.968  25.525  25.246  1.00  0.00     0.194 C 
BRANCH  19  20
ATOM     20  O   UNL A   1      30.823  24.676  26.005  1.00  0.00    -0.374 OA
BRANCH  20  21
ATOM     21  C   UNL A   1      31.329  23.464  25.482  1.00  0.00     0.195 C 
BRANCH  21  22
ATOM     22  C   UNL A   1      32.767  23.475  25.018  1.00  0.00    -0.022 A 
ATOM     23  C   UNL A   1      33.729  24.120  25.818  1.00  0.00     0.006 A 
ATOM     24  C   UNL A   1      33.169  22.968  23.779  1.00  0.00     0.006 A 
ATOM     25  C   UNL A   1      35.051  24.252  25.387  1.00  0.00     0.000 A 
ATOM     26  C   UNL A   1      34.487  23.115  23.339  1.00  0.00     0.000 A 
ATOM     27  C   UNL A   1      35.427  23.757  24.142  1.00  0.00     0.000 A 
ENDBRANCH  21  22
ENDBRANCH  20  21
ENDBRANCH  19  20
ENDBRANCH  10  19
ENDBRANCH   3   6
ENDBRANCH   1   2
BRANCH   1  28
ATOM     28  C   UNL A   1      34.039  31.052  27.533  1.00  0.00     0.042 C 
BRANCH  28  29
ATOM     29  C   UNL A   1      35.432  31.033  28.141  1.00  0.00     0.118 C 
BRANCH  29  30
ATOM     30  N   UNL A   1      35.417  31.176  29.589  1.00  0.00    -0.352 N 
ATOM     31  C   UNL A   1      36.344  30.783  30.523  1.00  0.00     0.251 C 
ATOM     32  H   UNL A   1      34.619  31.622  29.955  1.00  0.00     0.163 HD
ATOM     33  O   UNL A   1      36.058  30.846  31.716  1.00  0.00    -0.269 OA
BRANCH  31  34
ATOM     34  C   UNL A   1      37.666  30.264  30.102  1.00  0.00     0.039 A 
ATOM     35  C   UNL A   1      37.986  30.269  28.740  1.00  0.00     0.014 A 
ATOM     36  C   UNL A   1      38.580  29.759  31.029  1.00  0.00     0.014 A 
ATOM     37  C   UNL A   1      39.245  29.831  28.321  1.00  0.00     0.010 A 
ATOM     38  C   UNL A   1      39.864  29.405  30.620  1.00  0.00     0.010 A 
ATOM     39  C   UNL A   1      40.208  29.430  29.261  1.00  0.00    -0.014 A 
BRANCH  39  40
ATOM     40  C   UNL A   1      41.575  29.026  28.843  1.00  0.00     0.031 A 
ATOM     41  C   UNL A   1      42.683  30.043  28.793  1.00  0.00     0.074 A 
ATOM     42  C   UNL A   1      41.803  27.758  28.448  1.00  0.00     0.049 A 
ATOM     43  N   UNL A   1      43.920  29.899  28.392  1.00  0.00    -0.248 NA
ATOM     44  C   UNL A   1      42.350  31.411  29.223  1.00  0.00     0.031 C 
ATOM     45  C   UNL A   1      40.799  26.693  28.396  1.00  0.00     0.029 A 
ATOM     46  N   UNL A   1      42.952  27.151  28.004  1.00  0.00    -0.354 N 
ATOM     47  C   UNL A   1      44.505  31.155  28.503  1.00  0.00     0.074 A 
ATOM     48  C   UNL A   1      43.474  32.061  28.960  1.00  0.00     0.031 C 
ATOM     49  C   UNL A   1      41.381  25.559  27.971  1.00  0.00     0.029 A 
ATOM     50  C   UNL A   1      42.787  25.823  27.686  1.00  0.00     0.049 A 
ATOM     51  H   UNL A   1      43.812  27.622  27.922  1.00  0.00     0.167 HD
ATOM     52  C   UNL A   1      45.789  31.517  28.269  1.00  0.00     0.037 A 
ATOM     53  C   UNL A   1      43.670  24.921  27.216  1.00  0.00     0.037 A 
ATOM     54  C   UNL A   1      46.820  30.603  27.847  1.00  0.00     0.049 A 
ATOM     55  C   UNL A   1      45.096  25.340  26.986  1.00  0.00     0.074 A 
ATOM     56  C   UNL A   1      48.165  30.859  27.642  1.00  0.00     0.029 A 
ATOM     57  N   UNL A   1      46.621  29.260  27.568  1.00  0.00    -0.354 N 
ATOM     58  N   UNL A   1      45.645  26.518  27.154  1.00  0.00    -0.248 NA
ATOM     59  C   UNL A   1      46.024  24.305  26.511  1.00  0.00     0.031 C 
ATOM     60  C   UNL A   1      48.773  29.676  27.209  1.00  0.00     0.029 A 
ATOM     61  C   UNL A   1      47.816  28.674  27.181  1.00  0.00     0.049 A 
ATOM     62  H   UNL A   1      45.758  28.790  27.636  1.00  0.00     0.167 HD
ATOM     63  C   UNL A   1      46.987  26.362  26.828  1.00  0.00     0.074 A 
ATOM     64  C   UNL A   1      47.170  24.971  26.465  1.00  0.00     0.031 C 
ATOM     65  C   UNL A   1      47.980  27.286  26.830  1.00  0.00     0.037 A 
BRANCH  52  66
ATOM     66  C   UNL A   1      46.153  32.961  28.476  1.00  0.00     0.058 A 
ATOM     67  C   UNL A   1      46.073  33.897  27.432  1.00  0.00     0.135 A 
ATOM     68  C   UNL A   1      46.560  33.422  29.738  1.00  0.00     0.135 A 
ATOM     69  F   UNL A   1      45.705  33.506  26.202  1.00  0.00    -0.206 F 
ATOM     70  C   UNL A   1      46.414  35.232  27.623  1.00  0.00     0.059 A 
ATOM     71  C   UNL A   1      46.880  34.760  29.959  1.00  0.00     0.059 A 
ATOM     72  F   UNL A   1      46.653  32.572  30.772  1.00  0.00    -0.206 F 
ATOM     73  C   UNL A   1      46.819  35.653  28.890  1.00  0.00     0.060 A 
BRANCH  73  74
ATOM     74  S   UNL A   1      47.258  37.388  29.122  1.00  0.00     0.124 S 
ATOM     75  O   UNL A   1      48.454  37.498  28.291  1.00  0.00    -0.237 OA
ATOM     76  O   UNL A   1      46.075  38.081  28.623  1.00  0.00    -0.237 OA
ATOM     77  O   UNL A   1      47.482  37.492  30.560  1.00  0.00    -0.744 OA
ENDBRANCH  73  74
ENDBRANCH  52  66
BRANCH  53  78
ATOM     78  C   UNL A   1      43.235  23.522  26.962  1.00  0.00     0.058 A 
ATOM     79  C   UNL A   1      42.988  23.071  25.658  1.00  0.00     0.135 A 
ATOM     80  C   UNL A   1      43.076  22.605  28.012  1.00  0.00     0.135 A 
ATOM     81  F   UNL A   1      43.121  23.913  24.621  1.00  0.00    -0.206 F 
ATOM     82  C   UNL A   1      42.585  21.765  25.402  1.00  0.00     0.059 A 
ATOM     83  C   UNL A   1      42.696  21.287  27.781  1.00  0.00     0.059 A 
ATOM     84  F   UNL A   1      43.318  22.983  29.278  1.00  0.00    -0.206 F 
ATOM     85  C   UNL A   1      42.443  20.879  26.471  1.00  0.00     0.060 A 
BRANCH  85  86
ATOM     86  S   UNL A   1      41.972  19.170  26.124  1.00  0.00     0.124 S 
ATOM     87  O   UNL A   1      42.802  18.865  24.966  1.00  0.00    -0.237 OA
ATOM     88  O   UNL A   1      42.334  18.493  27.366  1.00  0.00    -0.237 OA
ATOM     89  O   UNL A   1      40.537  19.264  25.868  1.00  0.00    -0.744 OA
ENDBRANCH  85  86
ENDBRANCH  53  78
BRANCH  65  90
ATOM     90  C   UNL A   1      49.359  26.817  26.460  1.00  0.00     0.058 A 
ATOM     91  C   UNL A   1      50.189  26.169  27.389  1.00  0.00     0.135 A 
ATOM     92  C   UNL A   1      49.837  26.978  25.150  1.00  0.00     0.135 A 
ATOM     93  F   UNL A   1      49.780  25.996  28.655  1.00  0.00    -0.206 F 
ATOM     94  C   UNL A   1      51.458  25.721  27.037  1.00  0.00     0.059 A 
ATOM     95  C   UNL A   1      51.093  26.515  24.771  1.00  0.00     0.059 A 
ATOM     96  F   UNL A   1      49.078  27.581  24.222  1.00  0.00    -0.206 F 
ATOM     97  C   UNL A   1      51.901  25.899  25.725  1.00  0.00     0.060 A 
BRANCH  97  98
ATOM     98  S   UNL A   1      53.538  25.289  25.272  1.00  0.00     0.124 S 
ATOM     99  O   UNL A   1      53.415  23.866  25.573  1.00  0.00    -0.237 OA
ATOM    100  O   UNL A   1      53.622  25.632  23.856  1.00  0.00    -0.237 OA
ATOM    101  O   UNL A   1      54.434  26.040  26.147  1.00  0.00    -0.744 OA
ENDBRANCH  97  98
ENDBRANCH  65  90
ENDBRANCH  39  40
ENDBRANCH  31  34
ENDBRANCH  29  30
ENDBRANCH  28  29
ENDBRANCH   1  28
TORSDOF 20
ENDMDL
MODEL 2
REMARK VINA RESULT:     -11.6      4.516     10.184
REMARK SMILES CC(C)(C)OC(=O)N1C[C@@H](COCc2ccccc2)O[C@@H](C(=O)NCCCNC(=O)c2ccc(-c3c4nc(c(-c5c(F)cc(S(=O)(=O)[O-])cc5F)c5ccc([nH]5)c(-c5c(F)cc(S(=O)(=O)[O-])cc5F)c5nc(c(-c6c(F)cc(S(=O)(=O)[O-])cc6F)c6ccc3[nH]6)C=C5)C=C4)cc2)C1
REMARK SMILES IDX 25 1 24 2 22 3 23 4 21 6 8 7 9 8 97 9 10 10 20 11 6 12 7 13
REMARK SMILES IDX 5 14 2 15 1 16 3 17 4 18 11 19 12 20 13 21 14 22 15 23 19 24
REMARK SMILES IDX 16 25 18 26 17 27 26 28 27 29 28 30 29 31 30 33 31 34 32 35
REMARK SMILES IDX 96 36 33 37 95 38 34 39 35 40 36 41 89 42 37 43 94 44 88 45
REMARK SMILES IDX 90 46 38 47 93 48 87 49 86 50 39 52 73 53 52 54 72 55 53 56
REMARK SMILES IDX 56 57 71 58 91 59 54 60 55 61 70 63 92 64 57 65 40 66 41 67
REMARK SMILES IDX 50 68 42 69 43 70 49 71 51 72 44 73 45 74 46 75 47 76 48 77
REMARK SMILES IDX 74 78 75 79 84 80 76 81 77 82 83 83 85 84 78 85 79 86 80 87
REMARK SMILES IDX 81 88 82 89 58 90 59 91 68 92 60 93 61 94 67 95 69 96 62 97
REMARK SMILES IDX 63 98 64 99 65 100 66 101
REMARK H PARENT 24 5 28 32 90 51 56 62
REMARK Flexibility Score: inf
ROOT
ATOM      1  C   UNL A   1      34.221  23.855  25.815  1.00  0.00     0.117 C 
ENDROOT
BRANCH   1   2
ATOM      2  N   UNL A   1      33.370  23.180  24.852  1.00  0.00    -0.354 N 
ATOM      3  C   UNL A   1      32.298  23.664  24.158  1.00  0.00     0.251 C 
ATOM      4  O   UNL A   1      31.740  22.910  23.356  1.00  0.00    -0.272 OA
ATOM      5  H   UNL A   1      33.599  22.240  24.674  1.00  0.00     0.163 HD
BRANCH   3   6
ATOM      6  C   UNL A   1      31.775  25.087  24.399  1.00  0.00     0.227 C 
ATOM      7  N   UNL A   1      32.218  27.456  23.827  1.00  0.00    -0.302 N 
ATOM      8  C   UNL A   1      30.814  27.611  23.446  1.00  0.00     0.157 C 
ATOM      9  C   UNL A   1      32.737  26.098  23.753  1.00  0.00     0.165 C 
ATOM     10  C   UNL A   1      29.930  26.574  24.164  1.00  0.00     0.164 C 
ATOM     11  O   UNL A   1      30.410  25.237  23.963  1.00  0.00    -0.359 OA
BRANCH   7  12
ATOM     12  C   UNL A   1      33.109  28.499  23.959  1.00  0.00     0.410 C 
ATOM     13  O   UNL A   1      33.310  29.315  23.063  1.00  0.00    -0.224 OA
BRANCH  12  14
ATOM     14  O   UNL A   1      33.772  28.473  25.140  1.00  0.00    -0.444 OA
BRANCH  14  15
ATOM     15  C   UNL A   1      33.150  28.997  26.346  1.00  0.00     0.106 C 
ATOM     16  C   UNL A   1      34.324  29.381  27.259  1.00  0.00     0.056 C 
ATOM     17  C   UNL A   1      32.327  27.895  27.017  1.00  0.00     0.056 C 
ATOM     18  C   UNL A   1      32.311  30.263  26.107  1.00  0.00     0.056 C 
ENDBRANCH  14  15
ENDBRANCH  12  14
ENDBRANCH   7  12
BRANCH  10  19
ATOM     19  C   UNL A   1      28.428  26.749  23.811  1.00  0.00     0.194 C 
BRANCH  19  20
ATOM     20  O   UNL A   1      27.731  27.990  23.832  1.00  0.00    -0.374 OA
BRANCH  20  21
ATOM     21  C   UNL A   1      27.302  28.628  22.646  1.00  0.00     0.195 C 
BRANCH  21  22
ATOM     22  C   UNL A   1      27.677  30.084  22.487  1.00  0.00    -0.022 A 
ATOM     23  C   UNL A   1      28.040  30.553  21.211  1.00  0.00     0.006 A 
ATOM     24  C   UNL A   1      27.784  30.962  23.570  1.00  0.00     0.006 A 
ATOM     25  C   UNL A   1      28.496  31.859  21.028  1.00  0.00     0.000 A 
ATOM     26  C   UNL A   1      28.258  32.265  23.390  1.00  0.00     0.000 A 
ATOM     27  C   UNL A   1      28.614  32.713  22.121  1.00  0.00     0.000 A 
ENDBRANCH  21  22
ENDBRANCH  20  21
ENDBRANCH  19  20
ENDBRANCH  10  19
ENDBRANCH   3   6
ENDBRANCH   1   2
BRANCH   1  28
ATOM     28  C   UNL A   1      35.508  23.096  26.110  1.00  0.00     0.042 C 
BRANCH  28  29
ATOM     29  C   UNL A   1      36.764  23.763  25.575  1.00  0.00     0.118 C 
BRANCH  29  30
ATOM     30  N   UNL A   1      37.922  22.883  25.596  1.00  0.00    -0.352 N 
ATOM     31  C   UNL A   1      39.195  23.111  26.059  1.00  0.00     0.251 C 
ATOM     32  H   UNL A   1      37.770  21.986  25.218  1.00  0.00     0.163 HD
ATOM     33  O   UNL A   1      40.075  22.288  25.825  1.00  0.00    -0.269 OA
BRANCH  31  34
ATOM     34  C   UNL A   1      39.513  24.347  26.811  1.00  0.00     0.039 A 
ATOM     35  C   UNL A   1      39.055  24.469  28.127  1.00  0.00     0.014 A 
ATOM     36  C   UNL A   1      40.239  25.388  26.228  1.00  0.00     0.014 A 
ATOM     37  C   UNL A   1      39.383  25.603  28.874  1.00  0.00     0.010 A 
ATOM     38  C   UNL A   1      40.638  26.476  27.001  1.00  0.00     0.010 A 
ATOM     39  C   UNL A   1      40.208  26.600  28.329  1.00  0.00    -0.014 A 
BRANCH  39  40
ATOM     40  C   UNL A   1      40.626  27.780  29.129  1.00  0.00     0.031 A 
ATOM     41  C   UNL A   1      41.956  27.786  29.834  1.00  0.00     0.074 A 
ATOM     42  C   UNL A   1      39.781  28.821  29.271  1.00  0.00     0.049 A 
ATOM     43  N   UNL A   1      42.466  28.690  30.629  1.00  0.00    -0.248 NA
ATOM     44  C   UNL A   1      42.814  26.605  29.643  1.00  0.00     0.031 C 
ATOM     45  C   UNL A   1      38.442  28.911  28.685  1.00  0.00     0.029 A 
ATOM     46  N   UNL A   1      39.920  29.999  29.963  1.00  0.00    -0.354 N 
ATOM     47  C   UNL A   1      43.690  28.182  31.047  1.00  0.00     0.074 A 
ATOM     48  C   UNL A   1      43.825  26.868  30.459  1.00  0.00     0.031 C 
ATOM     49  C   UNL A   1      37.893  30.090  29.021  1.00  0.00     0.029 A 
ATOM     50  C   UNL A   1      38.823  30.824  29.873  1.00  0.00     0.049 A 
ATOM     51  H   UNL A   1      40.728  30.230  30.474  1.00  0.00     0.167 HD
ATOM     52  C   UNL A   1      44.628  28.767  31.830  1.00  0.00     0.037 A 
ATOM     53  C   UNL A   1      38.592  32.034  30.418  1.00  0.00     0.037 A 
ATOM     54  C   UNL A   1      44.505  30.090  32.386  1.00  0.00     0.049 A 
ATOM     55  C   UNL A   1      39.658  32.673  31.265  1.00  0.00     0.074 A 
ATOM     56  C   UNL A   1      45.427  30.795  33.140  1.00  0.00     0.029 A 
ATOM     57  N   UNL A   1      43.394  30.907  32.244  1.00  0.00    -0.354 N 
ATOM     58  N   UNL A   1      40.835  32.203  31.600  1.00  0.00    -0.248 NA
ATOM     59  C   UNL A   1      39.369  34.010  31.799  1.00  0.00     0.031 C 
ATOM     60  C   UNL A   1      44.858  32.028  33.482  1.00  0.00     0.029 A 
ATOM     61  C   UNL A   1      43.600  32.106  32.907  1.00  0.00     0.049 A 
ATOM     62  H   UNL A   1      42.578  30.670  31.745  1.00  0.00     0.167 HD
ATOM     63  C   UNL A   1      41.437  33.195  32.365  1.00  0.00     0.074 A 
ATOM     64  C   UNL A   1      40.498  34.297  32.433  1.00  0.00     0.031 C 
ATOM     65  C   UNL A   1      42.657  33.194  32.958  1.00  0.00     0.037 A 
BRANCH  52  66
ATOM     66  C   UNL A   1      45.877  27.980  32.122  1.00  0.00     0.058 A 
ATOM     67  C   UNL A   1      47.013  28.074  31.302  1.00  0.00     0.135 A 
ATOM     68  C   UNL A   1      45.950  27.146  33.249  1.00  0.00     0.135 A 
ATOM     69  F   UNL A   1      46.991  28.844  30.203  1.00  0.00    -0.206 F 
ATOM     70  C   UNL A   1      48.166  27.343  31.569  1.00  0.00     0.059 A 
ATOM     71  C   UNL A   1      47.103  26.426  33.551  1.00  0.00     0.059 A 
ATOM     72  F   UNL A   1      44.894  27.021  34.068  1.00  0.00    -0.206 F 
ATOM     73  C   UNL A   1      48.200  26.519  32.695  1.00  0.00     0.060 A 
BRANCH  73  74
ATOM     74  S   UNL A   1      49.703  25.577  33.029  1.00  0.00     0.124 S 
ATOM     75  O   UNL A   1      50.652  26.644  33.335  1.00  0.00    -0.237 OA
ATOM     76  O   UNL A   1      49.305  24.742  34.158  1.00  0.00    -0.237 OA
ATOM     77  O   UNL A   1      49.942  24.863  31.779  1.00  0.00    -0.744 OA
ENDBRANCH  73  74
ENDBRANCH  52  66
BRANCH  53  78
ATOM     78  C   UNL A   1      37.308  32.734  30.151  1.00  0.00     0.058 A 
ATOM     79  C   UNL A   1      37.184  33.624  29.076  1.00  0.00     0.135 A 
ATOM     80  C   UNL A   1      36.177  32.514  30.952  1.00  0.00     0.135 A 
ATOM     81  F   UNL A   1      38.240  33.871  28.285  1.00  0.00    -0.206 F 
ATOM     82  C   UNL A   1      35.989  34.284  28.810  1.00  0.00     0.059 A 
ATOM     83  C   UNL A   1      34.964  33.144  30.694  1.00  0.00     0.059 A 
ATOM     84  F   UNL A   1      36.239  31.656  31.984  1.00  0.00    -0.206 F 
ATOM     85  C   UNL A   1      34.883  34.036  29.624  1.00  0.00     0.060 A 
BRANCH  85  86
ATOM     86  S   UNL A   1      33.321  34.856  29.238  1.00  0.00     0.124 S 
ATOM     87  O   UNL A   1      32.697  34.933  30.553  1.00  0.00    -0.237 OA
ATOM     88  O   UNL A   1      33.771  36.123  28.669  1.00  0.00    -0.237 OA
ATOM     89  O   UNL A   1      32.689  33.942  28.290  1.00  0.00    -0.744 OA
ENDBRANCH  85  86
ENDBRANCH  53  78
BRANCH  65  90
ATOM     90  C   UNL A   1      43.060  34.435  33.704  1.00  0.00     0.058 A 
ATOM     91  C   UNL A   1      42.952  34.522  35.101  1.00  0.00     0.135 A 
ATOM     92  C   UNL A   1      43.602  35.533  33.017  1.00  0.00     0.135 A 
ATOM     93  F   UNL A   1      42.435  33.501  35.803  1.00  0.00    -0.206 F 
ATOM     94  C   UNL A   1      43.344  35.666  35.789  1.00  0.00     0.059 A 
ATOM     95  C   UNL A   1      44.023  36.677  33.687  1.00  0.00     0.059 A 
ATOM     96  F   UNL A   1      43.736  35.496  31.682  1.00  0.00    -0.206 F 
ATOM     97  C   UNL A   1      43.878  36.739  35.072  1.00  0.00     0.060 A 
BRANCH  97  98
ATOM     98  S   UNL A   1      44.408  38.208  35.977  1.00  0.00     0.124 S 
ATOM     99  O   UNL A   1      45.837  37.958  36.130  1.00  0.00    -0.237 OA
ATOM    100  O   UNL A   1      44.047  39.287  35.064  1.00  0.00    -0.237 OA
ATOM    101  O   UNL A   1      43.625  38.149  37.208  1.00  0.00    -0.744 OA
ENDBRANCH  97  98
ENDBRANCH  65  90
ENDBRANCH  39  40
ENDBRANCH  31  34
ENDBRANCH  29  30
ENDBRANCH  28  29
ENDBRANCH   1  28
TORSDOF 20
ENDMDL
MODEL 3
REMARK VINA RESULT:     -11.6      3.040      8.904
REMARK SMILES CC(C)(C)OC(=O)N1C[C@@H](COCc2ccccc2)O[C@@H](C(=O)NCCCNC(=O)c2ccc(-c3c4nc(c(-c5c(F)cc(S(=O)(=O)[O-])cc5F)c5ccc([nH]5)c(-c5c(F)cc(S(=O)(=O)[O-])cc5F)c5nc(c(-c6c(F)cc(S(=O)(=O)[O-])cc6F)c6ccc3[nH]6)C=C5)C=C4)cc2)C1
REMARK SMILES IDX 25 1 24 2 22 3 23 4 21 6 8 7 9 8 97 9 10 10 20 11 6 12 7 13
REMARK SMILES IDX 5 14 2 15 1 16 3 17 4 18 11 19 12 20 13 21 14 22 15 23 19 24
REMARK SMILES IDX 16 25 18 26 17 27 26 28 27 29 28 30 29 31 30 33 31 34 32 35
REMARK SMILES IDX 96 36 33 37 95 38 34 39 35 40 36 41 89 42 37 43 94 44 88 45
REMARK SMILES IDX 90 46 38 47 93 48 87 49 86 50 39 52 73 53 52 54 72 55 53 56
REMARK SMILES IDX 56 57 71 58 91 59 54 60 55 61 70 63 92 64 57 65 40 66 41 67
REMARK SMILES IDX 50 68 42 69 43 70 49 71 51 72 44 73 45 74 46 75 47 76 48 77
REMARK SMILES IDX 74 78 75 79 84 80 76 81 77 82 83 83 85 84 78 85 79 86 80 87
REMARK SMILES IDX 81 88 82 89 58 90 59 91 68 92 60 93 61 94 67 95 69 96 62 97
REMARK SMILES IDX 63 98 64 99 65 100 66 101
REMARK H PARENT 24 5 28 32 90 51 56 62
REMARK Flexibility Score: inf
ROOT
ATOM      1  C   UNL A   1      34.996  24.099  24.382  1.00  0.00     0.117 C 
ENDROOT
BRANCH   1   2
ATOM      2  N   UNL A   1      34.469  24.011  23.032  1.00  0.00    -0.354 N 
ATOM      3  C   UNL A   1      33.515  24.778  22.425  1.00  0.00     0.251 C 
ATOM      4  O   UNL A   1      33.248  24.541  21.243  1.00  0.00    -0.272 OA
ATOM      5  H   UNL A   1      34.854  23.297  22.475  1.00  0.00     0.163 HD
BRANCH   3   6
ATOM      6  C   UNL A   1      32.768  25.872  23.199  1.00  0.00     0.227 C 
ATOM      7  N   UNL A   1      30.990  27.578  22.948  1.00  0.00    -0.302 N 
ATOM      8  C   UNL A   1      30.353  27.072  24.164  1.00  0.00     0.157 C 
ATOM      9  C   UNL A   1      31.829  26.622  22.240  1.00  0.00     0.165 C 
ATOM     10  C   UNL A   1      31.378  26.363  25.070  1.00  0.00     0.164 C 
ATOM     11  O   UNL A   1      32.098  25.345  24.360  1.00  0.00    -0.359 OA
BRANCH   7  12
ATOM     12  C   UNL A   1      30.629  28.744  22.308  1.00  0.00     0.410 C 
ATOM     13  O   UNL A   1      31.418  29.664  22.114  1.00  0.00    -0.224 OA
BRANCH  12  14
ATOM     14  O   UNL A   1      29.312  28.779  21.992  1.00  0.00    -0.444 OA
BRANCH  14  15
ATOM     15  C   UNL A   1      28.477  29.885  22.435  1.00  0.00     0.106 C 
ATOM     16  C   UNL A   1      27.208  29.221  22.990  1.00  0.00     0.056 C 
ATOM     17  C   UNL A   1      28.108  30.758  21.234  1.00  0.00     0.056 C 
ATOM     18  C   UNL A   1      29.103  30.716  23.566  1.00  0.00     0.056 C 
ENDBRANCH  14  15
ENDBRANCH  12  14
ENDBRANCH   7  12
BRANCH  10  19
ATOM     19  C   UNL A   1      30.735  25.858  26.390  1.00  0.00     0.194 C 
BRANCH  19  20
ATOM     20  O   UNL A   1      31.183  24.723  27.124  1.00  0.00    -0.374 OA
BRANCH  20  21
ATOM     21  C   UNL A   1      30.841  23.404  26.747  1.00  0.00     0.195 C 
BRANCH  21  22
ATOM     22  C   UNL A   1      31.971  22.523  26.267  1.00  0.00    -0.022 A 
ATOM     23  C   UNL A   1      31.901  21.982  24.970  1.00  0.00     0.006 A 
ATOM     24  C   UNL A   1      33.032  22.134  27.090  1.00  0.00     0.006 A 
ATOM     25  C   UNL A   1      32.864  21.078  24.515  1.00  0.00     0.000 A 
ATOM     26  C   UNL A   1      33.986  21.216  26.642  1.00  0.00     0.000 A 
ATOM     27  C   UNL A   1      33.901  20.688  25.356  1.00  0.00     0.000 A 
ENDBRANCH  21  22
ENDBRANCH  20  21
ENDBRANCH  19  20
ENDBRANCH  10  19
ENDBRANCH   3   6
ENDBRANCH   1   2
BRANCH   1  28
ATOM     28  C   UNL A   1      36.372  23.464  24.528  1.00  0.00     0.042 C 
BRANCH  28  29
ATOM     29  C   UNL A   1      36.808  23.239  25.966  1.00  0.00     0.118 C 
BRANCH  29  30
ATOM     30  N   UNL A   1      37.886  22.269  26.083  1.00  0.00    -0.352 N 
ATOM     31  C   UNL A   1      39.213  22.458  26.385  1.00  0.00     0.251 C 
ATOM     32  H   UNL A   1      37.625  21.334  25.920  1.00  0.00     0.163 HD
ATOM     33  O   UNL A   1      39.995  21.519  26.264  1.00  0.00    -0.269 OA
BRANCH  31  34
ATOM     34  C   UNL A   1      39.704  23.784  26.827  1.00  0.00     0.039 A 
ATOM     35  C   UNL A   1      40.003  23.972  28.180  1.00  0.00     0.014 A 
ATOM     36  C   UNL A   1      39.854  24.842  25.928  1.00  0.00     0.014 A 
ATOM     37  C   UNL A   1      40.515  25.198  28.614  1.00  0.00     0.010 A 
ATOM     38  C   UNL A   1      40.445  26.032  26.345  1.00  0.00     0.010 A 
ATOM     39  C   UNL A   1      40.775  26.226  27.694  1.00  0.00    -0.014 A 
BRANCH  39  40
ATOM     40  C   UNL A   1      41.382  27.512  28.123  1.00  0.00     0.031 A 
ATOM     41  C   UNL A   1      42.872  27.710  28.044  1.00  0.00     0.074 A 
ATOM     42  C   UNL A   1      40.599  28.479  28.642  1.00  0.00     0.049 A 
ATOM     43  N   UNL A   1      43.592  28.731  28.432  1.00  0.00    -0.248 NA
ATOM     44  C   UNL A   1      43.660  26.602  27.481  1.00  0.00     0.031 C 
ATOM     45  C   UNL A   1      39.148  28.387  28.825  1.00  0.00     0.029 A 
ATOM     46  N   UNL A   1      40.914  29.725  29.122  1.00  0.00    -0.354 N 
ATOM     47  C   UNL A   1      44.914  28.382  28.179  1.00  0.00     0.074 A 
ATOM     48  C   UNL A   1      44.901  27.035  27.651  1.00  0.00     0.031 C 
ATOM     49  C   UNL A   1      38.697  29.536  29.353  1.00  0.00     0.029 A 
ATOM     50  C   UNL A   1      39.826  30.432  29.580  1.00  0.00     0.049 A 
ATOM     51  H   UNL A   1      41.832  30.080  29.137  1.00  0.00     0.167 HD
ATOM     52  C   UNL A   1      46.034  29.125  28.347  1.00  0.00     0.037 A 
ATOM     53  C   UNL A   1      39.748  31.662  30.122  1.00  0.00     0.037 A 
ATOM     54  C   UNL A   1      46.038  30.478  28.840  1.00  0.00     0.049 A 
ATOM     55  C   UNL A   1      41.003  32.477  30.278  1.00  0.00     0.074 A 
ATOM     56  C   UNL A   1      47.114  31.336  28.988  1.00  0.00     0.029 A 
ATOM     57  N   UNL A   1      44.913  31.170  29.260  1.00  0.00    -0.354 N 
ATOM     58  N   UNL A   1      42.237  32.153  29.977  1.00  0.00    -0.248 NA
ATOM     59  C   UNL A   1      40.853  33.827  30.838  1.00  0.00     0.031 C 
ATOM     60  C   UNL A   1      46.642  32.537  29.529  1.00  0.00     0.029 A 
ATOM     61  C   UNL A   1      45.269  32.442  29.680  1.00  0.00     0.049 A 
ATOM     62  H   UNL A   1      43.995  30.812  29.260  1.00  0.00     0.167 HD
ATOM     63  C   UNL A   1      43.009  33.267  30.289  1.00  0.00     0.074 A 
ATOM     64  C   UNL A   1      42.099  34.278  30.790  1.00  0.00     0.031 C 
ATOM     65  C   UNL A   1      44.349  33.437  30.171  1.00  0.00     0.037 A 
BRANCH  52  66
ATOM     66  C   UNL A   1      47.349  28.490  27.983  1.00  0.00     0.058 A 
ATOM     67  C   UNL A   1      48.119  27.800  28.933  1.00  0.00     0.135 A 
ATOM     68  C   UNL A   1      47.831  28.550  26.666  1.00  0.00     0.135 A 
ATOM     69  F   UNL A   1      47.712  27.727  30.210  1.00  0.00    -0.206 F 
ATOM     70  C   UNL A   1      49.337  27.218  28.597  1.00  0.00     0.059 A 
ATOM     71  C   UNL A   1      49.035  27.951  26.302  1.00  0.00     0.059 A 
ATOM     72  F   UNL A   1      47.135  29.196  25.719  1.00  0.00    -0.206 F 
ATOM     73  C   UNL A   1      49.787  27.301  27.279  1.00  0.00     0.060 A 
BRANCH  73  74
ATOM     74  S   UNL A   1      51.370  26.541  26.859  1.00  0.00     0.124 S 
ATOM     75  O   UNL A   1      51.391  26.699  25.407  1.00  0.00    -0.237 OA
ATOM     76  O   UNL A   1      52.320  27.365  27.598  1.00  0.00    -0.237 OA
ATOM     77  O   UNL A   1      51.227  25.170  27.339  1.00  0.00    -0.744 OA
ENDBRANCH  73  74
ENDBRANCH  52  66
BRANCH  53  78
ATOM     78  C   UNL A   1      38.427  32.210  30.529  1.00  0.00     0.058 A 
ATOM     79  C   UNL A   1      37.882  31.913  31.786  1.00  0.00     0.135 A 
ATOM     80  C   UNL A   1      37.694  33.054  29.680  1.00  0.00     0.135 A 
ATOM     81  F   UNL A   1      38.543  31.106  32.630  1.00  0.00    -0.206 F 
ATOM     82  C   UNL A   1      36.649  32.421  32.184  1.00  0.00     0.059 A 
ATOM     83  C   UNL A   1      36.470  33.593  30.064  1.00  0.00     0.059 A 
ATOM     84  F   UNL A   1      38.183  33.383  28.473  1.00  0.00    -0.206 F 
ATOM     85  C   UNL A   1      35.951  33.262  31.316  1.00  0.00     0.060 A 
BRANCH  85  86
ATOM     86  S   UNL A   1      34.378  33.960  31.862  1.00  0.00     0.124 S 
ATOM     87  O   UNL A   1      33.735  34.267  30.591  1.00  0.00    -0.237 OA
ATOM     88  O   UNL A   1      33.799  32.856  32.621  1.00  0.00    -0.237 OA
ATOM     89  O   UNL A   1      34.783  35.114  32.661  1.00  0.00    -0.744 OA
ENDBRANCH  85  86
ENDBRANCH  53  78
BRANCH  65  90
ATOM     90  C   UNL A   1      44.909  34.777  30.558  1.00  0.00     0.058 A 
ATOM     91  C   UNL A   1      44.994  35.833  29.637  1.00  0.00     0.135 A 
ATOM     92  C   UNL A   1      45.325  35.019  31.877  1.00  0.00     0.135 A 
ATOM     93  F   UNL A   1      44.615  35.650  28.362  1.00  0.00    -0.206 F 
ATOM     94  C   UNL A   1      45.498  37.077  30.005  1.00  0.00     0.059 A 
ATOM     95  C   UNL A   1      45.808  36.262  32.272  1.00  0.00     0.059 A 
ATOM     96  F   UNL A   1      45.254  34.045  32.798  1.00  0.00    -0.206 F 
ATOM     97  C   UNL A   1      45.903  37.281  31.325  1.00  0.00     0.060 A 
BRANCH  97  98
ATOM     98  S   UNL A   1      46.529  38.906  31.798  1.00  0.00     0.124 S 
ATOM     99  O   UNL A   1      47.922  38.820  31.371  1.00  0.00    -0.237 OA
ATOM    100  O   UNL A   1      45.683  39.808  31.023  1.00  0.00    -0.237 OA
ATOM    101  O   UNL A   1      46.316  38.945  33.243  1.00  0.00    -0.744 OA
ENDBRANCH  97  98
ENDBRANCH  65  90
ENDBRANCH  39  40
ENDBRANCH  31  34
ENDBRANCH  29  30
ENDBRANCH  28  29
ENDBRANCH   1  28
TORSDOF 20
ENDMDL
