MODEL 1
REMARK VINA RESULT:     -11.9      0.000      0.000
REMARK SMILES Nc1nc2ccccc2nc1N1CCC(C(=O)NCCCNC(=O)c2ccc(-c3c4nc(c(-c5c(F)cc(S(=O)(=O)[O-])cc5F)c5ccc([nH]5)c(-c5c(F)cc(S(=O)(=O)[O-])cc5F)c5nc(c(-c6c(F)cc(S(=O)(=O)[O-])cc6F)c6ccc3[nH]6)C=C5)C=C4)cc2)CC1
REMARK SMILES IDX 20 1 19 2 18 3 16 4 17 5 15 7 12 8 13 9 92 10 14 11 91 12
REMARK SMILES IDX 11 13 2 14 3 15 4 16 10 17 5 18 9 19 6 20 8 21 7 22 1 23
REMARK SMILES IDX 21 26 22 27 23 28 24 30 25 31 26 32 90 33 27 34 89 35 28 36
REMARK SMILES IDX 29 37 30 38 83 39 31 40 88 41 82 42 84 43 32 44 87 45 81 46
REMARK SMILES IDX 80 47 33 49 67 50 46 51 66 52 47 53 50 54 65 55 85 56 48 57
REMARK SMILES IDX 49 58 64 60 86 61 51 62 34 63 35 64 44 65 36 66 37 67 43 68
REMARK SMILES IDX 45 69 38 70 39 71 40 72 41 73 42 74 68 75 69 76 78 77 70 78
REMARK SMILES IDX 71 79 77 80 79 81 72 82 73 83 74 84 75 85 76 86 52 87 53 88
REMARK SMILES IDX 62 89 54 90 55 91 61 92 63 93 56 94 57 95 58 96 59 97 60 98
REMARK H PARENT 18 6 1 24 1 25 22 29 84 48 50 59
REMARK Flexibility Score: inf
ROOT
ATOM      1  C   UNL A   1      33.241  28.204  25.918  1.00  0.00     0.042 C 
ENDROOT
BRANCH   1   2
ATOM      2  C   UNL A   1      32.532  26.923  25.492  1.00  0.00     0.117 C 
BRANCH   2   3
ATOM      3  N   UNL A   1      31.177  27.170  25.015  1.00  0.00    -0.356 N 
ATOM      4  C   UNL A   1      30.241  26.341  24.479  1.00  0.00     0.223 C 
ATOM      5  O   UNL A   1      29.158  26.836  24.154  1.00  0.00    -0.275 OA
ATOM      6  H   UNL A   1      30.885  28.107  25.097  1.00  0.00     0.163 HD
BRANCH   4   7
ATOM      7  C   UNL A   1      30.481  24.848  24.310  1.00  0.00     0.082 C 
ATOM      8  N   UNL A   1      32.316  22.697  24.467  1.00  0.00    -0.353 N 
ATOM      9  C   UNL A   1      31.950  23.121  23.133  1.00  0.00     0.119 C 
ATOM     10  C   UNL A   1      31.328  22.773  25.523  1.00  0.00     0.119 C 
ATOM     11  C   UNL A   1      31.442  24.552  23.151  1.00  0.00     0.035 C 
ATOM     12  C   UNL A   1      30.841  24.209  25.660  1.00  0.00     0.035 C 
BRANCH   8  13
ATOM     13  C   UNL A   1      33.619  22.329  24.745  1.00  0.00     0.172 A 
ATOM     14  C   UNL A   1      34.039  20.975  24.642  1.00  0.00     0.167 A 
ATOM     15  N   UNL A   1      35.293  20.578  24.920  1.00  0.00    -0.226 NA
ATOM     16  C   UNL A   1      36.163  21.542  25.260  1.00  0.00     0.091 A 
ATOM     17  N   UNL A   1      34.507  23.294  25.080  1.00  0.00    -0.225 NA
ATOM     18  C   UNL A   1      37.479  21.189  25.531  1.00  0.00     0.031 A 
ATOM     19  C   UNL A   1      35.775  22.903  25.341  1.00  0.00     0.091 A 
ATOM     20  C   UNL A   1      38.429  22.145  25.887  1.00  0.00     0.002 A 
ATOM     21  C   UNL A   1      36.733  23.845  25.702  1.00  0.00     0.031 A 
ATOM     22  C   UNL A   1      38.054  23.478  25.975  1.00  0.00     0.002 A 
BRANCH  14  23
ATOM     23  N   UNL A   1      33.170  19.966  24.228  1.00  0.00    -0.381 N 
ATOM     24  H   UNL A   1      33.086  19.140  24.757  1.00  0.00     0.158 HD
ATOM     25  H   UNL A   1      32.641  20.078  23.405  1.00  0.00     0.158 HD
ENDBRANCH  14  23
ENDBRANCH   8  13
ENDBRANCH   4   7
ENDBRANCH   2   3
ENDBRANCH   1   2
BRANCH   1  26
ATOM     26  C   UNL A   1      33.072  28.541  27.392  1.00  0.00     0.118 C 
BRANCH  26  27
ATOM     27  N   UNL A   1      33.158  29.971  27.665  1.00  0.00    -0.352 N 
ATOM     28  C   UNL A   1      34.218  30.717  28.126  1.00  0.00     0.251 C 
ATOM     29  H   UNL A   1      32.332  30.479  27.494  1.00  0.00     0.163 HD
ATOM     30  O   UNL A   1      34.051  31.892  28.440  1.00  0.00    -0.269 OA
BRANCH  28  31
ATOM     31  C   UNL A   1      35.547  30.087  28.282  1.00  0.00     0.039 A 
ATOM     32  C   UNL A   1      35.960  29.592  29.521  1.00  0.00     0.014 A 
ATOM     33  C   UNL A   1      36.407  30.035  27.183  1.00  0.00     0.014 A 
ATOM     34  C   UNL A   1      37.292  29.234  29.710  1.00  0.00     0.010 A 
ATOM     35  C   UNL A   1      37.722  29.593  27.356  1.00  0.00     0.010 A 
ATOM     36  C   UNL A   1      38.192  29.250  28.634  1.00  0.00    -0.014 A 
BRANCH  36  37
ATOM     37  C   UNL A   1      39.634  28.968  28.865  1.00  0.00     0.031 A 
ATOM     38  C   UNL A   1      40.526  30.028  29.461  1.00  0.00     0.074 A 
ATOM     39  C   UNL A   1      40.135  27.750  28.579  1.00  0.00     0.049 A 
ATOM     40  N   UNL A   1      41.822  30.012  29.639  1.00  0.00    -0.248 NA
ATOM     41  C   UNL A   1      39.878  31.271  29.913  1.00  0.00     0.031 C 
ATOM     42  C   UNL A   1      39.372  26.627  28.030  1.00  0.00     0.029 A 
ATOM     43  N   UNL A   1      41.406  27.250  28.719  1.00  0.00    -0.354 N 
ATOM     44  C   UNL A   1      42.150  31.247  30.188  1.00  0.00     0.074 A 
ATOM     45  C   UNL A   1      40.918  31.996  30.307  1.00  0.00     0.031 C 
ATOM     46  C   UNL A   1      40.182  25.564  27.905  1.00  0.00     0.029 A 
ATOM     47  C   UNL A   1      41.533  25.946  28.303  1.00  0.00     0.049 A 
ATOM     48  H   UNL A   1      42.154  27.776  29.082  1.00  0.00     0.167 HD
ATOM     49  C   UNL A   1      43.365  31.711  30.564  1.00  0.00     0.037 A 
ATOM     50  C   UNL A   1      42.619  25.157  28.219  1.00  0.00     0.037 A 
ATOM     51  C   UNL A   1      44.583  30.947  30.489  1.00  0.00     0.049 A 
ATOM     52  C   UNL A   1      43.959  25.706  28.624  1.00  0.00     0.074 A 
ATOM     53  C   UNL A   1      45.863  31.329  30.853  1.00  0.00     0.029 A 
ATOM     54  N   UNL A   1      44.671  29.639  30.037  1.00  0.00    -0.354 N 
ATOM     55  N   UNL A   1      44.255  26.894  29.090  1.00  0.00    -0.248 NA
ATOM     56  C   UNL A   1      45.113  24.809  28.475  1.00  0.00     0.031 C 
ATOM     57  C   UNL A   1      46.729  30.260  30.599  1.00  0.00     0.029 A 
ATOM     58  C   UNL A   1      45.983  29.202  30.109  1.00  0.00     0.049 A 
ATOM     59  H   UNL A   1      43.913  29.102  29.713  1.00  0.00     0.167 HD
ATOM     60  C   UNL A   1      45.630  26.888  29.292  1.00  0.00     0.074 A 
ATOM     61  C   UNL A   1      46.103  25.569  28.924  1.00  0.00     0.031 C 
ATOM     62  C   UNL A   1      46.433  27.888  29.733  1.00  0.00     0.037 A 
BRANCH  49  63
ATOM     63  C   UNL A   1      43.455  33.115  31.091  1.00  0.00     0.058 A 
ATOM     64  C   UNL A   1      43.385  33.391  32.465  1.00  0.00     0.135 A 
ATOM     65  C   UNL A   1      43.706  34.186  30.217  1.00  0.00     0.135 A 
ATOM     66  F   UNL A   1      43.127  32.407  33.339  1.00  0.00    -0.206 F 
ATOM     67  C   UNL A   1      43.564  34.682  32.955  1.00  0.00     0.059 A 
ATOM     68  C   UNL A   1      43.907  35.480  30.687  1.00  0.00     0.059 A 
ATOM     69  F   UNL A   1      43.775  33.974  28.894  1.00  0.00    -0.206 F 
ATOM     70  C   UNL A   1      43.832  35.718  32.058  1.00  0.00     0.060 A 
BRANCH  70  71
ATOM     71  S   UNL A   1      44.112  37.378  32.714  1.00  0.00     0.124 S 
ATOM     72  O   UNL A   1      45.481  37.266  33.211  1.00  0.00    -0.237 OA
ATOM     73  O   UNL A   1      43.933  38.214  31.532  1.00  0.00    -0.237 OA
ATOM     74  O   UNL A   1      43.083  37.516  33.739  1.00  0.00    -0.744 OA
ENDBRANCH  70  71
ENDBRANCH  49  63
BRANCH  50  75
ATOM     75  C   UNL A   1      42.495  23.775  27.690  1.00  0.00     0.058 A 
ATOM     76  C   UNL A   1      42.419  23.531  26.312  1.00  0.00     0.135 A 
ATOM     77  C   UNL A   1      42.444  22.671  28.556  1.00  0.00     0.135 A 
ATOM     78  F   UNL A   1      42.456  24.556  25.446  1.00  0.00    -0.206 F 
ATOM     79  C   UNL A   1      42.276  22.243  25.808  1.00  0.00     0.059 A 
ATOM     80  C   UNL A   1      42.326  21.372  28.076  1.00  0.00     0.059 A 
ATOM     81  F   UNL A   1      42.527  22.853  29.883  1.00  0.00    -0.206 F 
ATOM     82  C   UNL A   1      42.230  21.169  26.700  1.00  0.00     0.060 A 
BRANCH  82  83
ATOM     83  S   UNL A   1      42.079  19.494  26.041  1.00  0.00     0.124 S 
ATOM     84  O   UNL A   1      40.649  19.417  25.765  1.00  0.00    -0.237 OA
ATOM     85  O   UNL A   1      42.953  19.542  24.872  1.00  0.00    -0.237 OA
ATOM     86  O   UNL A   1      42.559  18.661  27.138  1.00  0.00    -0.744 OA
ENDBRANCH  82  83
ENDBRANCH  50  75
BRANCH  62  87
ATOM     87  C   UNL A   1      47.898  27.583  29.848  1.00  0.00     0.058 A 
ATOM     88  C   UNL A   1      48.780  27.835  28.786  1.00  0.00     0.135 A 
ATOM     89  C   UNL A   1      48.426  27.049  31.033  1.00  0.00     0.135 A 
ATOM     90  F   UNL A   1      48.321  28.339  27.631  1.00  0.00    -0.206 F 
ATOM     91  C   UNL A   1      50.135  27.538  28.885  1.00  0.00     0.059 A 
ATOM     92  C   UNL A   1      49.781  26.765  31.161  1.00  0.00     0.059 A 
ATOM     93  F   UNL A   1      47.623  26.801  32.080  1.00  0.00    -0.206 F 
ATOM     94  C   UNL A   1      50.625  26.997  30.075  1.00  0.00     0.060 A 
BRANCH  94  95
ATOM     95  S   UNL A   1      52.386  26.618  30.196  1.00  0.00     0.124 S 
ATOM     96  O   UNL A   1      52.385  25.536  31.174  1.00  0.00    -0.237 OA
ATOM     97  O   UNL A   1      52.721  26.235  28.827  1.00  0.00    -0.237 OA
ATOM     98  O   UNL A   1      52.973  27.875  30.649  1.00  0.00    -0.744 OA
ENDBRANCH  94  95
ENDBRANCH  62  87
ENDBRANCH  36  37
ENDBRANCH  28  31
ENDBRANCH  26  27
ENDBRANCH   1  26
TORSDOF 15
ENDMDL
MODEL 2
REMARK VINA RESULT:     -11.9      1.193      2.211
REMARK SMILES Nc1nc2ccccc2nc1N1CCC(C(=O)NCCCNC(=O)c2ccc(-c3c4nc(c(-c5c(F)cc(S(=O)(=O)[O-])cc5F)c5ccc([nH]5)c(-c5c(F)cc(S(=O)(=O)[O-])cc5F)c5nc(c(-c6c(F)cc(S(=O)(=O)[O-])cc6F)c6ccc3[nH]6)C=C5)C=C4)cc2)CC1
REMARK SMILES IDX 20 1 19 2 18 3 16 4 17 5 15 7 12 8 13 9 92 10 14 11 91 12
REMARK SMILES IDX 11 13 2 14 3 15 4 16 10 17 5 18 9 19 6 20 8 21 7 22 1 23
REMARK SMILES IDX 21 26 22 27 23 28 24 30 25 31 26 32 90 33 27 34 89 35 28 36
REMARK SMILES IDX 29 37 30 38 83 39 31 40 88 41 82 42 84 43 32 44 87 45 81 46
REMARK SMILES IDX 80 47 33 49 67 50 46 51 66 52 47 53 50 54 65 55 85 56 48 57
REMARK SMILES IDX 49 58 64 60 86 61 51 62 34 63 35 64 44 65 36 66 37 67 43 68
REMARK SMILES IDX 45 69 38 70 39 71 40 72 41 73 42 74 68 75 69 76 78 77 70 78
REMARK SMILES IDX 71 79 77 80 79 81 72 82 73 83 74 84 75 85 76 86 52 87 53 88
REMARK SMILES IDX 62 89 54 90 55 91 61 92 63 93 56 94 57 95 58 96 59 97 60 98
REMARK H PARENT 18 6 1 24 1 25 22 29 84 48 50 59
REMARK Flexibility Score: inf
ROOT
ATOM      1  C   UNL A   1      31.783  28.136  27.168  1.00  0.00     0.042 C 
ENDROOT
BRANCH   1   2
ATOM      2  C   UNL A   1      31.386  27.890  25.716  1.00  0.00     0.117 C 
BRANCH   2   3
ATOM      3  N   UNL A   1      32.514  27.464  24.896  1.00  0.00    -0.356 N 
ATOM      4  C   UNL A   1      32.885  26.238  24.435  1.00  0.00     0.223 C 
ATOM      5  O   UNL A   1      33.911  26.172  23.753  1.00  0.00    -0.275 OA
ATOM      6  H   UNL A   1      33.117  28.195  24.627  1.00  0.00     0.163 HD
BRANCH   4   7
ATOM      7  C   UNL A   1      32.062  24.988  24.704  1.00  0.00     0.082 C 
ATOM      8  N   UNL A   1      32.018  22.165  24.924  1.00  0.00    -0.353 N 
ATOM      9  C   UNL A   1      31.395  22.717  23.741  1.00  0.00     0.119 C 
ATOM     10  C   UNL A   1      31.943  22.905  26.167  1.00  0.00     0.119 C 
ATOM     11  C   UNL A   1      31.938  24.106  23.453  1.00  0.00     0.035 C 
ATOM     12  C   UNL A   1      32.559  24.284  25.975  1.00  0.00     0.035 C 
BRANCH   8  13
ATOM     13  C   UNL A   1      32.763  21.003  24.838  1.00  0.00     0.172 A 
ATOM     14  C   UNL A   1      34.174  21.046  24.669  1.00  0.00     0.167 A 
ATOM     15  N   UNL A   1      34.929  19.938  24.565  1.00  0.00    -0.226 NA
ATOM     16  C   UNL A   1      34.285  18.764  24.677  1.00  0.00     0.091 A 
ATOM     17  N   UNL A   1      32.127  19.815  24.958  1.00  0.00    -0.225 NA
ATOM     18  C   UNL A   1      35.022  17.589  24.603  1.00  0.00     0.031 A 
ATOM     19  C   UNL A   1      32.883  18.698  24.875  1.00  0.00     0.091 A 
ATOM     20  C   UNL A   1      34.412  16.341  24.714  1.00  0.00     0.002 A 
ATOM     21  C   UNL A   1      32.287  17.445  24.979  1.00  0.00     0.031 A 
ATOM     22  C   UNL A   1      33.038  16.268  24.901  1.00  0.00     0.002 A 
BRANCH  14  23
ATOM     23  N   UNL A   1      34.872  22.252  24.615  1.00  0.00    -0.381 N 
ATOM     24  H   UNL A   1      35.856  22.252  24.624  1.00  0.00     0.158 HD
ATOM     25  H   UNL A   1      34.380  23.104  24.569  1.00  0.00     0.158 HD
ENDBRANCH  14  23
ENDBRANCH   8  13
ENDBRANCH   4   7
ENDBRANCH   2   3
ENDBRANCH   1   2
BRANCH   1  26
ATOM     26  C   UNL A   1      33.210  28.636  27.341  1.00  0.00     0.118 C 
BRANCH  26  27
ATOM     27  N   UNL A   1      33.279  30.043  27.718  1.00  0.00    -0.352 N 
ATOM     28  C   UNL A   1      34.325  30.761  28.251  1.00  0.00     0.251 C 
ATOM     29  H   UNL A   1      32.452  30.556  27.569  1.00  0.00     0.163 HD
ATOM     30  O   UNL A   1      34.143  31.909  28.646  1.00  0.00    -0.269 OA
BRANCH  28  31
ATOM     31  C   UNL A   1      35.656  30.130  28.386  1.00  0.00     0.039 A 
ATOM     32  C   UNL A   1      36.078  29.612  29.612  1.00  0.00     0.014 A 
ATOM     33  C   UNL A   1      36.508  30.100  27.280  1.00  0.00     0.014 A 
ATOM     34  C   UNL A   1      37.412  29.253  29.785  1.00  0.00     0.010 A 
ATOM     35  C   UNL A   1      37.825  29.658  27.435  1.00  0.00     0.010 A 
ATOM     36  C   UNL A   1      38.305  29.291  28.703  1.00  0.00    -0.014 A 
BRANCH  36  37
ATOM     37  C   UNL A   1      39.749  29.006  28.918  1.00  0.00     0.031 A 
ATOM     38  C   UNL A   1      40.646  30.062  29.513  1.00  0.00     0.074 A 
ATOM     39  C   UNL A   1      40.247  27.791  28.618  1.00  0.00     0.049 A 
ATOM     40  N   UNL A   1      41.944  30.045  29.679  1.00  0.00    -0.248 NA
ATOM     41  C   UNL A   1      40.003  31.303  29.980  1.00  0.00     0.031 C 
ATOM     42  C   UNL A   1      39.477  26.672  28.069  1.00  0.00     0.029 A 
ATOM     43  N   UNL A   1      41.518  27.290  28.743  1.00  0.00    -0.354 N 
ATOM     44  C   UNL A   1      42.277  31.276  30.233  1.00  0.00     0.074 A 
ATOM     45  C   UNL A   1      41.047  32.024  30.369  1.00  0.00     0.031 C 
ATOM     46  C   UNL A   1      40.286  25.610  27.929  1.00  0.00     0.029 A 
ATOM     47  C   UNL A   1      41.641  25.989  28.317  1.00  0.00     0.049 A 
ATOM     48  H   UNL A   1      42.270  27.812  29.103  1.00  0.00     0.167 HD
ATOM     49  C   UNL A   1      43.496  31.737  30.601  1.00  0.00     0.037 A 
ATOM     50  C   UNL A   1      42.726  25.200  28.217  1.00  0.00     0.037 A 
ATOM     51  C   UNL A   1      44.713  30.973  30.509  1.00  0.00     0.049 A 
ATOM     52  C   UNL A   1      44.069  25.745  28.613  1.00  0.00     0.074 A 
ATOM     53  C   UNL A   1      45.997  31.352  30.863  1.00  0.00     0.029 A 
ATOM     54  N   UNL A   1      44.796  29.668  30.047  1.00  0.00    -0.354 N 
ATOM     55  N   UNL A   1      44.371  26.930  29.085  1.00  0.00    -0.248 NA
ATOM     56  C   UNL A   1      45.222  24.848  28.447  1.00  0.00     0.031 C 
ATOM     57  C   UNL A   1      46.860  30.284  30.594  1.00  0.00     0.029 A 
ATOM     58  C   UNL A   1      46.109  29.230  30.103  1.00  0.00     0.049 A 
ATOM     59  H   UNL A   1      44.035  29.133  29.727  1.00  0.00     0.167 HD
ATOM     60  C   UNL A   1      45.747  26.922  29.273  1.00  0.00     0.074 A 
ATOM     61  C   UNL A   1      46.216  25.606  28.892  1.00  0.00     0.031 C 
ATOM     62  C   UNL A   1      46.555  27.918  29.714  1.00  0.00     0.037 A 
BRANCH  49  63
ATOM     63  C   UNL A   1      43.592  33.137  31.137  1.00  0.00     0.058 A 
ATOM     64  C   UNL A   1      43.589  33.399  32.515  1.00  0.00     0.135 A 
ATOM     65  C   UNL A   1      43.781  34.220  30.262  1.00  0.00     0.135 A 
ATOM     66  F   UNL A   1      43.391  32.403  33.392  1.00  0.00    -0.206 F 
ATOM     67  C   UNL A   1      43.773  34.687  33.009  1.00  0.00     0.059 A 
ATOM     68  C   UNL A   1      43.986  35.513  30.734  1.00  0.00     0.059 A 
ATOM     69  F   UNL A   1      43.784  34.022  28.935  1.00  0.00    -0.206 F 
ATOM     70  C   UNL A   1      43.978  35.736  32.110  1.00  0.00     0.060 A 
BRANCH  70  71
ATOM     71  S   UNL A   1      44.266  37.394  32.767  1.00  0.00     0.124 S 
ATOM     72  O   UNL A   1      43.156  37.530  33.706  1.00  0.00    -0.237 OA
ATOM     73  O   UNL A   1      45.591  37.266  33.366  1.00  0.00    -0.237 OA
ATOM     74  O   UNL A   1      44.194  38.246  31.585  1.00  0.00    -0.744 OA
ENDBRANCH  70  71
ENDBRANCH  49  63
BRANCH  50  75
ATOM     75  C   UNL A   1      42.596  23.821  27.679  1.00  0.00     0.058 A 
ATOM     76  C   UNL A   1      42.470  22.719  28.535  1.00  0.00     0.135 A 
ATOM     77  C   UNL A   1      42.604  23.582  26.296  1.00  0.00     0.135 A 
ATOM     78  F   UNL A   1      42.467  22.899  29.865  1.00  0.00    -0.206 F 
ATOM     79  C   UNL A   1      42.375  21.422  28.041  1.00  0.00     0.059 A 
ATOM     80  C   UNL A   1      42.485  22.297  25.777  1.00  0.00     0.059 A 
ATOM     81  F   UNL A   1      42.708  24.606  25.436  1.00  0.00    -0.206 F 
ATOM     82  C   UNL A   1      42.384  21.222  26.660  1.00  0.00     0.060 A 
BRANCH  82  83
ATOM     83  S   UNL A   1      42.226  19.540  26.021  1.00  0.00     0.124 S 
ATOM     84  O   UNL A   1      43.076  19.596  24.838  1.00  0.00    -0.237 OA
ATOM     85  O   UNL A   1      42.730  18.739  27.133  1.00  0.00    -0.237 OA
ATOM     86  O   UNL A   1      40.794  19.414  25.768  1.00  0.00    -0.744 OA
ENDBRANCH  82  83
ENDBRANCH  50  75
BRANCH  62  87
ATOM     87  C   UNL A   1      48.021  27.612  29.813  1.00  0.00     0.058 A 
ATOM     88  C   UNL A   1      48.891  27.857  28.739  1.00  0.00     0.135 A 
ATOM     89  C   UNL A   1      48.563  27.084  30.994  1.00  0.00     0.135 A 
ATOM     90  F   UNL A   1      48.418  28.356  27.587  1.00  0.00    -0.206 F 
ATOM     91  C   UNL A   1      50.246  27.559  28.823  1.00  0.00     0.059 A 
ATOM     92  C   UNL A   1      49.919  26.800  31.108  1.00  0.00     0.059 A 
ATOM     93  F   UNL A   1      47.771  26.843  32.052  1.00  0.00    -0.206 F 
ATOM     94  C   UNL A   1      50.750  27.025  30.011  1.00  0.00     0.060 A 
BRANCH  94  95
ATOM     95  S   UNL A   1      52.511  26.644  30.112  1.00  0.00     0.124 S 
ATOM     96  O   UNL A   1      53.060  27.919  30.562  1.00  0.00    -0.237 OA
ATOM     97  O   UNL A   1      52.544  25.559  31.089  1.00  0.00    -0.237 OA
ATOM     98  O   UNL A   1      52.854  26.259  28.746  1.00  0.00    -0.744 OA
ENDBRANCH  94  95
ENDBRANCH  62  87
ENDBRANCH  36  37
ENDBRANCH  28  31
ENDBRANCH  26  27
ENDBRANCH   1  26
TORSDOF 15
ENDMDL
MODEL 3
REMARK VINA RESULT:     -11.8      1.289      2.549
REMARK SMILES Nc1nc2ccccc2nc1N1CCC(C(=O)NCCCNC(=O)c2ccc(-c3c4nc(c(-c5c(F)cc(S(=O)(=O)[O-])cc5F)c5ccc([nH]5)c(-c5c(F)cc(S(=O)(=O)[O-])cc5F)c5nc(c(-c6c(F)cc(S(=O)(=O)[O-])cc6F)c6ccc3[nH]6)C=C5)C=C4)cc2)CC1
REMARK SMILES IDX 20 1 19 2 18 3 16 4 17 5 15 7 12 8 13 9 92 10 14 11 91 12
REMARK SMILES IDX 11 13 2 14 3 15 4 16 10 17 5 18 9 19 6 20 8 21 7 22 1 23
REMARK SMILES IDX 21 26 22 27 23 28 24 30 25 31 26 32 90 33 27 34 89 35 28 36
REMARK SMILES IDX 29 37 30 38 83 39 31 40 88 41 82 42 84 43 32 44 87 45 81 46
REMARK SMILES IDX 80 47 33 49 67 50 46 51 66 52 47 53 50 54 65 55 85 56 48 57
REMARK SMILES IDX 49 58 64 60 86 61 51 62 34 63 35 64 44 65 36 66 37 67 43 68
REMARK SMILES IDX 45 69 38 70 39 71 40 72 41 73 42 74 68 75 69 76 78 77 70 78
REMARK SMILES IDX 71 79 77 80 79 81 72 82 73 83 74 84 75 85 76 86 52 87 53 88
REMARK SMILES IDX 62 89 54 90 55 91 61 92 63 93 56 94 57 95 58 96 59 97 60 98
REMARK H PARENT 18 6 1 24 1 25 22 29 84 48 50 59
REMARK Flexibility Score: inf
ROOT
ATOM      1  C   UNL A   1      32.961  29.265  25.855  1.00  0.00     0.042 C 
ENDROOT
BRANCH   1   2
ATOM      2  C   UNL A   1      33.481  28.218  24.875  1.00  0.00     0.117 C 
BRANCH   2   3
ATOM      3  N   UNL A   1      32.502  27.171  24.609  1.00  0.00    -0.356 N 
ATOM      4  C   UNL A   1      32.609  25.814  24.600  1.00  0.00     0.223 C 
ATOM      5  O   UNL A   1      31.595  25.164  24.330  1.00  0.00    -0.275 OA
ATOM      6  H   UNL A   1      31.600  27.505  24.398  1.00  0.00     0.163 HD
BRANCH   4   7
ATOM      7  C   UNL A   1      33.907  25.100  24.944  1.00  0.00     0.082 C 
ATOM      8  N   UNL A   1      35.301  22.642  25.123  1.00  0.00    -0.353 N 
ATOM      9  C   UNL A   1      34.918  23.246  26.381  1.00  0.00     0.119 C 
ATOM     10  C   UNL A   1      35.659  23.500  24.013  1.00  0.00     0.119 C 
ATOM     11  C   UNL A   1      33.756  24.203  26.179  1.00  0.00     0.035 C 
ATOM     12  C   UNL A   1      34.495  24.429  23.694  1.00  0.00     0.035 C 
BRANCH   8  13
ATOM     13  C   UNL A   1      35.220  21.271  24.959  1.00  0.00     0.172 A 
ATOM     14  C   UNL A   1      36.385  20.458  24.982  1.00  0.00     0.167 A 
ATOM     15  N   UNL A   1      36.347  19.125  24.810  1.00  0.00    -0.226 NA
ATOM     16  C   UNL A   1      35.130  18.577  24.658  1.00  0.00     0.091 A 
ATOM     17  N   UNL A   1      33.998  20.708  24.814  1.00  0.00    -0.225 NA
ATOM     18  C   UNL A   1      35.032  17.200  24.502  1.00  0.00     0.031 A 
ATOM     19  C   UNL A   1      33.952  19.366  24.660  1.00  0.00     0.091 A 
ATOM     20  C   UNL A   1      33.797  16.573  24.343  1.00  0.00     0.002 A 
ATOM     21  C   UNL A   1      32.726  18.726  24.495  1.00  0.00     0.031 A 
ATOM     22  C   UNL A   1      32.640  17.340  24.337  1.00  0.00     0.002 A 
BRANCH  14  23
ATOM     23  N   UNL A   1      37.653  20.995  25.203  1.00  0.00    -0.381 N 
ATOM     24  H   UNL A   1      38.454  20.507  24.905  1.00  0.00     0.158 HD
ATOM     25  H   UNL A   1      37.746  21.864  25.658  1.00  0.00     0.158 HD
ENDBRANCH  14  23
ENDBRANCH   8  13
ENDBRANCH   4   7
ENDBRANCH   2   3
ENDBRANCH   1   2
BRANCH   1  26
ATOM     26  C   UNL A   1      33.548  29.145  27.254  1.00  0.00     0.118 C 
BRANCH  26  27
ATOM     27  N   UNL A   1      33.601  30.419  27.962  1.00  0.00    -0.352 N 
ATOM     28  C   UNL A   1      34.625  30.979  28.689  1.00  0.00     0.251 C 
ATOM     29  H   UNL A   1      32.779  30.958  27.912  1.00  0.00     0.163 HD
ATOM     30  O   UNL A   1      34.427  31.999  29.343  1.00  0.00    -0.269 OA
BRANCH  28  31
ATOM     31  C   UNL A   1      35.951  30.325  28.715  1.00  0.00     0.039 A 
ATOM     32  C   UNL A   1      36.475  29.822  29.908  1.00  0.00     0.014 A 
ATOM     33  C   UNL A   1      36.699  30.259  27.537  1.00  0.00     0.014 A 
ATOM     34  C   UNL A   1      37.812  29.440  29.966  1.00  0.00     0.010 A 
ATOM     35  C   UNL A   1      38.016  29.794  27.581  1.00  0.00     0.010 A 
ATOM     36  C   UNL A   1      38.603  29.441  28.807  1.00  0.00    -0.014 A 
BRANCH  36  37
ATOM     37  C   UNL A   1      40.055  29.132  28.896  1.00  0.00     0.031 A 
ATOM     38  C   UNL A   1      41.024  30.185  29.372  1.00  0.00     0.074 A 
ATOM     39  C   UNL A   1      40.501  27.898  28.589  1.00  0.00     0.049 A 
ATOM     40  N   UNL A   1      42.331  30.146  29.417  1.00  0.00    -0.248 NA
ATOM     41  C   UNL A   1      40.450  31.453  29.858  1.00  0.00     0.031 C 
ATOM     42  C   UNL A   1      39.663  26.780  28.148  1.00  0.00     0.029 A 
ATOM     43  N   UNL A   1      41.769  27.374  28.610  1.00  0.00    -0.354 N 
ATOM     44  C   UNL A   1      42.737  31.385  29.900  1.00  0.00     0.074 A 
ATOM     45  C   UNL A   1      41.539  32.163  30.126  1.00  0.00     0.031 C 
ATOM     46  C   UNL A   1      40.436  25.698  27.967  1.00  0.00     0.029 A 
ATOM     47  C   UNL A   1      41.827  26.059  28.215  1.00  0.00     0.049 A 
ATOM     48  H   UNL A   1      42.561  27.891  28.882  1.00  0.00     0.167 HD
ATOM     49  C   UNL A   1      43.993  31.831  30.138  1.00  0.00     0.037 A 
ATOM     50  C   UNL A   1      42.884  25.245  28.039  1.00  0.00     0.037 A 
ATOM     51  C   UNL A   1      45.182  31.039  29.956  1.00  0.00     0.049 A 
ATOM     52  C   UNL A   1      44.268  25.773  28.291  1.00  0.00     0.074 A 
ATOM     53  C   UNL A   1      46.500  31.401  30.178  1.00  0.00     0.029 A 
ATOM     54  N   UNL A   1      45.197  29.720  29.529  1.00  0.00    -0.354 N 
ATOM     55  N   UNL A   1      44.634  26.965  28.696  1.00  0.00    -0.248 NA
ATOM     56  C   UNL A   1      45.384  24.848  28.047  1.00  0.00     0.031 C 
ATOM     57  C   UNL A   1      47.315  30.308  29.863  1.00  0.00     0.029 A 
ATOM     58  C   UNL A   1      46.502  29.256  29.477  1.00  0.00     0.049 A 
ATOM     59  H   UNL A   1      44.400  29.192  29.298  1.00  0.00     0.167 HD
ATOM     60  C   UNL A   1      46.022  26.933  28.756  1.00  0.00     0.074 A 
ATOM     61  C   UNL A   1      46.429  25.596  28.373  1.00  0.00     0.031 C 
ATOM     62  C   UNL A   1      46.885  27.924  29.088  1.00  0.00     0.037 A 
BRANCH  49  63
ATOM     63  C   UNL A   1      44.164  33.243  30.619  1.00  0.00     0.058 A 
ATOM     64  C   UNL A   1      44.253  34.320  29.723  1.00  0.00     0.135 A 
ATOM     65  C   UNL A   1      44.148  33.532  31.994  1.00  0.00     0.135 A 
ATOM     66  F   UNL A   1      44.293  34.096  28.401  1.00  0.00    -0.206 F 
ATOM     67  C   UNL A   1      44.315  35.635  30.174  1.00  0.00     0.059 A 
ATOM     68  C   UNL A   1      44.191  34.841  32.466  1.00  0.00     0.059 A 
ATOM     69  F   UNL A   1      44.072  32.537  32.890  1.00  0.00    -0.206 F 
ATOM     70  C   UNL A   1      44.276  35.885  31.547  1.00  0.00     0.060 A 
BRANCH  70  71
ATOM     71  S   UNL A   1      44.307  37.600  32.114  1.00  0.00     0.124 S 
ATOM     72  O   UNL A   1      43.384  37.548  33.245  1.00  0.00    -0.237 OA
ATOM     73  O   UNL A   1      45.714  37.791  32.452  1.00  0.00    -0.237 OA
ATOM     74  O   UNL A   1      43.836  38.351  30.955  1.00  0.00    -0.744 OA
ENDBRANCH  70  71
ENDBRANCH  49  63
BRANCH  50  75
ATOM     75  C   UNL A   1      42.679  23.854  27.559  1.00  0.00     0.058 A 
ATOM     76  C   UNL A   1      42.579  23.568  26.191  1.00  0.00     0.135 A 
ATOM     77  C   UNL A   1      42.573  22.785  28.463  1.00  0.00     0.135 A 
ATOM     78  F   UNL A   1      42.667  24.559  25.290  1.00  0.00    -0.206 F 
ATOM     79  C   UNL A   1      42.361  22.273  25.732  1.00  0.00     0.059 A 
ATOM     80  C   UNL A   1      42.380  21.479  28.029  1.00  0.00     0.059 A 
ATOM     81  F   UNL A   1      42.677  23.007  29.782  1.00  0.00    -0.206 F 
ATOM     82  C   UNL A   1      42.262  21.235  26.660  1.00  0.00     0.060 A 
BRANCH  82  83
ATOM     83  S   UNL A   1      42.013  19.550  26.061  1.00  0.00     0.124 S 
ATOM     84  O   UNL A   1      42.919  19.510  24.919  1.00  0.00    -0.237 OA
ATOM     85  O   UNL A   1      42.407  18.749  27.217  1.00  0.00    -0.237 OA
ATOM     86  O   UNL A   1      40.590  19.517  25.742  1.00  0.00    -0.744 OA
ENDBRANCH  82  83
ENDBRANCH  50  75
BRANCH  62  87
ATOM     87  C   UNL A   1      48.348  27.590  29.060  1.00  0.00     0.058 A 
ATOM     88  C   UNL A   1      48.998  27.065  30.187  1.00  0.00     0.135 A 
ATOM     89  C   UNL A   1      49.103  27.783  27.893  1.00  0.00     0.135 A 
ATOM     90  F   UNL A   1      48.319  26.869  31.328  1.00  0.00    -0.206 F 
ATOM     91  C   UNL A   1      50.356  26.770  30.168  1.00  0.00     0.059 A 
ATOM     92  C   UNL A   1      50.457  27.475  27.845  1.00  0.00     0.059 A 
ATOM     93  F   UNL A   1      48.522  28.274  26.786  1.00  0.00    -0.206 F 
ATOM     94  C   UNL A   1      51.079  26.985  28.993  1.00  0.00     0.060 A 
BRANCH  94  95
ATOM     95  S   UNL A   1      52.842  26.596  28.976  1.00  0.00     0.124 S 
ATOM     96  O   UNL A   1      52.948  25.772  27.776  1.00  0.00    -0.237 OA
ATOM     97  O   UNL A   1      53.456  27.918  28.893  1.00  0.00    -0.237 OA
ATOM     98  O   UNL A   1      53.047  25.896  30.240  1.00  0.00    -0.744 OA
ENDBRANCH  94  95
ENDBRANCH  62  87
ENDBRANCH  36  37
ENDBRANCH  28  31
ENDBRANCH  26  27
ENDBRANCH   1  26
TORSDOF 15
ENDMDL
