MODEL 1
REMARK VINA RESULT:     -11.3      0.000      0.000
REMARK SMILES O=C(NCCCNC(=O)C1CCN(S(=O)(=O)C2CC2)CC1)c1ccc(-c2c3nc(c(-c4c(F)cc(S(=O)(=O)[O-])cc4F)c4ccc([nH]4)c(-c4c(F)cc(S(=O)(=O)[O-])cc4F)c4nc(c(-c5c(F)cc(S(=O)(=O)[O-])cc5F)c5ccc2[nH]5)C=C4)C=C3)cc1
REMARK SMILES IDX 4 1 3 2 1 3 2 4 22 6 23 7 87 8 24 9 86 10 25 11 26 12 27 13
REMARK SMILES IDX 80 14 28 15 85 16 79 17 81 18 29 19 84 20 78 21 77 22 30 24
REMARK SMILES IDX 64 25 43 26 63 27 44 28 47 29 62 30 82 31 45 32 46 33 61 35
REMARK SMILES IDX 83 36 48 37 31 38 32 39 41 40 33 41 34 42 40 43 42 44 35 45
REMARK SMILES IDX 36 46 37 47 38 48 39 49 65 50 66 51 75 52 67 53 68 54 74 55
REMARK SMILES IDX 76 56 69 57 70 58 71 59 72 60 73 61 49 62 50 63 59 64 51 65
REMARK SMILES IDX 52 66 58 67 60 68 53 69 54 70 55 71 56 72 57 73 5 74 6 75
REMARK SMILES IDX 7 76 8 77 9 79 10 80 11 81 21 82 12 83 20 84 13 85 14 86
REMARK SMILES IDX 15 87 16 88 17 89 18 90 19 91
REMARK H PARENT 3 5 81 23 47 34 7 78
REMARK Flexibility Score: inf
ROOT
ATOM      1  C   UNL A   1      33.742  28.325  26.957  1.00  0.00     0.118 C 
ENDROOT
BRANCH   1   2
ATOM      2  N   UNL A   1      33.574  29.710  27.373  1.00  0.00    -0.352 N 
ATOM      3  O   UNL A   1      34.048  31.607  28.489  1.00  0.00    -0.269 OA
ATOM      4  C   UNL A   1      34.442  30.528  28.057  1.00  0.00     0.251 C 
ATOM      5  H   UNL A   1      32.713  30.122  27.130  1.00  0.00     0.163 HD
BRANCH   4   6
ATOM      6  C   UNL A   1      35.838  30.095  28.282  1.00  0.00     0.039 A 
ATOM      7  C   UNL A   1      36.790  30.227  27.270  1.00  0.00     0.014 A 
ATOM      8  C   UNL A   1      36.205  29.574  29.526  1.00  0.00     0.014 A 
ATOM      9  C   UNL A   1      38.065  29.709  27.446  1.00  0.00     0.010 A 
ATOM     10  C   UNL A   1      37.521  29.150  29.739  1.00  0.00     0.010 A 
ATOM     11  C   UNL A   1      38.457  29.202  28.695  1.00  0.00    -0.014 A 
BRANCH  11  12
ATOM     12  C   UNL A   1      39.886  28.872  28.915  1.00  0.00     0.031 A 
ATOM     13  C   UNL A   1      40.459  27.542  28.518  1.00  0.00     0.074 A 
ATOM     14  C   UNL A   1      40.666  29.814  29.485  1.00  0.00     0.049 A 
ATOM     15  N   UNL A   1      41.684  27.106  28.658  1.00  0.00    -0.248 NA
ATOM     16  C   UNL A   1      39.547  26.572  27.891  1.00  0.00     0.031 C 
ATOM     17  C   UNL A   1      40.201  31.134  29.931  1.00  0.00     0.029 A 
ATOM     18  N   UNL A   1      42.003  29.821  29.783  1.00  0.00    -0.354 N 
ATOM     19  C   UNL A   1      41.690  25.810  28.161  1.00  0.00     0.074 A 
ATOM     20  C   UNL A   1      40.342  25.521  27.721  1.00  0.00     0.031 C 
ATOM     21  C   UNL A   1      41.238  31.829  30.414  1.00  0.00     0.029 A 
ATOM     22  C   UNL A   1      42.424  30.984  30.385  1.00  0.00     0.049 A 
ATOM     23  H   UNL A   1      42.604  29.067  29.586  1.00  0.00     0.167 HD
ATOM     24  C   UNL A   1      42.732  24.947  28.081  1.00  0.00     0.037 A 
ATOM     25  C   UNL A   1      43.621  31.322  30.897  1.00  0.00     0.037 A 
ATOM     26  C   UNL A   1      44.075  25.263  28.503  1.00  0.00     0.049 A 
ATOM     27  C   UNL A   1      44.745  30.331  30.815  1.00  0.00     0.074 A 
ATOM     28  C   UNL A   1      45.213  24.482  28.391  1.00  0.00     0.029 A 
ATOM     29  N   UNL A   1      44.458  26.440  29.127  1.00  0.00    -0.354 N 
ATOM     30  N   UNL A   1      44.749  29.136  30.273  1.00  0.00    -0.248 NA
ATOM     31  C   UNL A   1      46.023  30.725  31.419  1.00  0.00     0.031 C 
ATOM     32  C   UNL A   1      46.271  25.162  29.003  1.00  0.00     0.029 A 
ATOM     33  C   UNL A   1      45.806  26.389  29.447  1.00  0.00     0.049 A 
ATOM     34  H   UNL A   1      43.862  27.200  29.317  1.00  0.00     0.167 HD
ATOM     35  C   UNL A   1      46.030  28.639  30.468  1.00  0.00     0.074 A 
ATOM     36  C   UNL A   1      46.783  29.674  31.146  1.00  0.00     0.031 C 
ATOM     37  C   UNL A   1      46.536  27.429  30.127  1.00  0.00     0.037 A 
BRANCH  24  38
ATOM     38  C   UNL A   1      42.485  23.568  27.535  1.00  0.00     0.058 A 
ATOM     39  C   UNL A   1      42.550  23.293  26.161  1.00  0.00     0.135 A 
ATOM     40  C   UNL A   1      42.303  22.484  28.411  1.00  0.00     0.135 A 
ATOM     41  F   UNL A   1      42.709  24.291  25.278  1.00  0.00    -0.206 F 
ATOM     42  C   UNL A   1      42.450  21.992  25.675  1.00  0.00     0.059 A 
ATOM     43  C   UNL A   1      42.221  21.174  27.950  1.00  0.00     0.059 A 
ATOM     44  F   UNL A   1      42.231  22.692  29.736  1.00  0.00    -0.206 F 
ATOM     45  C   UNL A   1      42.296  20.937  26.578  1.00  0.00     0.060 A 
BRANCH  45  46
ATOM     46  S   UNL A   1      42.227  19.253  25.932  1.00  0.00     0.124 S 
ATOM     47  O   UNL A   1      42.746  18.486  27.061  1.00  0.00    -0.237 OA
ATOM     48  O   UNL A   1      40.805  19.084  25.653  1.00  0.00    -0.237 OA
ATOM     49  O   UNL A   1      43.094  19.302  24.758  1.00  0.00    -0.744 OA
ENDBRANCH  45  46
ENDBRANCH  24  38
BRANCH  25  50
ATOM     50  C   UNL A   1      43.798  32.631  31.578  1.00  0.00     0.058 A 
ATOM     51  C   UNL A   1      44.228  33.766  30.876  1.00  0.00     0.135 A 
ATOM     52  C   UNL A   1      43.552  32.767  32.954  1.00  0.00     0.135 A 
ATOM     53  F   UNL A   1      44.477  33.687  29.560  1.00  0.00    -0.206 F 
ATOM     54  C   UNL A   1      44.440  34.981  31.519  1.00  0.00     0.059 A 
ATOM     55  C   UNL A   1      43.724  33.979  33.612  1.00  0.00     0.059 A 
ATOM     56  F   UNL A   1      43.118  31.717  33.668  1.00  0.00    -0.206 F 
ATOM     57  C   UNL A   1      44.190  35.075  32.889  1.00  0.00     0.060 A 
BRANCH  57  58
ATOM     58  S   UNL A   1      44.466  36.654  33.718  1.00  0.00     0.124 S 
ATOM     59  O   UNL A   1      43.128  37.231  33.696  1.00  0.00    -0.237 OA
ATOM     60  O   UNL A   1      44.960  36.234  35.026  1.00  0.00    -0.237 OA
ATOM     61  O   UNL A   1      45.452  37.312  32.865  1.00  0.00    -0.744 OA
ENDBRANCH  57  58
ENDBRANCH  25  50
BRANCH  37  62
ATOM     62  C   UNL A   1      47.974  27.165  30.476  1.00  0.00     0.058 A 
ATOM     63  C   UNL A   1      49.016  27.555  29.622  1.00  0.00     0.135 A 
ATOM     64  C   UNL A   1      48.313  26.554  31.693  1.00  0.00     0.135 A 
ATOM     65  F   UNL A   1      48.743  28.132  28.441  1.00  0.00    -0.206 F 
ATOM     66  C   UNL A   1      50.348  27.329  29.953  1.00  0.00     0.059 A 
ATOM     67  C   UNL A   1      49.639  26.345  32.059  1.00  0.00     0.059 A 
ATOM     68  F   UNL A   1      47.353  26.168  32.548  1.00  0.00    -0.206 F 
ATOM     69  C   UNL A   1      50.649  26.726  31.176  1.00  0.00     0.060 A 
BRANCH  69  70
ATOM     70  S   UNL A   1      52.382  26.474  31.609  1.00  0.00     0.124 S 
ATOM     71  O   UNL A   1      52.316  25.234  32.377  1.00  0.00    -0.237 OA
ATOM     72  O   UNL A   1      53.021  26.376  30.300  1.00  0.00    -0.237 OA
ATOM     73  O   UNL A   1      52.719  27.670  32.376  1.00  0.00    -0.744 OA
ENDBRANCH  69  70
ENDBRANCH  37  62
ENDBRANCH  11  12
ENDBRANCH   4   6
ENDBRANCH   1   2
BRANCH   1  74
ATOM     74  C   UNL A   1      32.434  27.549  26.961  1.00  0.00     0.042 C 
BRANCH  74  75
ATOM     75  C   UNL A   1      32.444  26.324  26.065  1.00  0.00     0.117 C 
BRANCH  75  76
ATOM     76  N   UNL A   1      31.896  25.157  26.732  1.00  0.00    -0.356 N 
ATOM     77  C   UNL A   1      32.367  23.884  26.804  1.00  0.00     0.223 C 
ATOM     78  H   UNL A   1      31.048  25.313  27.210  1.00  0.00     0.163 HD
ATOM     79  O   UNL A   1      31.626  23.027  27.281  1.00  0.00    -0.275 OA
BRANCH  77  80
ATOM     80  C   UNL A   1      33.780  23.573  26.316  1.00  0.00     0.081 C 
ATOM     81  C   UNL A   1      33.804  23.311  24.803  1.00  0.00     0.030 C 
ATOM     82  C   UNL A   1      34.369  22.352  27.023  1.00  0.00     0.030 C 
ATOM     83  C   UNL A   1      33.150  21.980  24.414  1.00  0.00     0.103 C 
ATOM     84  C   UNL A   1      33.609  21.087  26.658  1.00  0.00     0.103 C 
ATOM     85  N   UNL A   1      33.732  20.834  25.198  1.00  0.00    -0.202 NA
BRANCH  85  86
ATOM     86  S   UNL A   1      33.049  19.330  24.686  1.00  0.00     0.216 S 
ATOM     87  O   UNL A   1      32.322  18.776  25.810  1.00  0.00    -0.212 OA
ATOM     88  O   UNL A   1      32.378  19.578  23.427  1.00  0.00    -0.212 OA
BRANCH  86  89
ATOM     89  C   UNL A   1      34.318  18.102  24.257  1.00  0.00     0.124 C 
ATOM     90  C   UNL A   1      34.067  16.680  24.660  1.00  0.00     0.022 C 
ATOM     91  C   UNL A   1      33.934  17.089  23.215  1.00  0.00     0.022 C 
ENDBRANCH  86  89
ENDBRANCH  85  86
ENDBRANCH  77  80
ENDBRANCH  75  76
ENDBRANCH  74  75
ENDBRANCH   1  74
TORSDOF 15
ENDMDL
MODEL 2
REMARK VINA RESULT:     -11.3      4.959     10.521
REMARK SMILES O=C(NCCCNC(=O)C1CCN(S(=O)(=O)C2CC2)CC1)c1ccc(-c2c3nc(c(-c4c(F)cc(S(=O)(=O)[O-])cc4F)c4ccc([nH]4)c(-c4c(F)cc(S(=O)(=O)[O-])cc4F)c4nc(c(-c5c(F)cc(S(=O)(=O)[O-])cc5F)c5ccc2[nH]5)C=C4)C=C3)cc1
REMARK SMILES IDX 4 1 3 2 1 3 2 4 22 6 23 7 87 8 24 9 86 10 25 11 26 12 27 13
REMARK SMILES IDX 80 14 28 15 85 16 79 17 81 18 29 19 84 20 78 21 77 22 30 24
REMARK SMILES IDX 64 25 43 26 63 27 44 28 47 29 62 30 82 31 45 32 46 33 61 35
REMARK SMILES IDX 83 36 48 37 31 38 32 39 41 40 33 41 34 42 40 43 42 44 35 45
REMARK SMILES IDX 36 46 37 47 38 48 39 49 65 50 66 51 75 52 67 53 68 54 74 55
REMARK SMILES IDX 76 56 69 57 70 58 71 59 72 60 73 61 49 62 50 63 59 64 51 65
REMARK SMILES IDX 52 66 58 67 60 68 53 69 54 70 55 71 56 72 57 73 5 74 6 75
REMARK SMILES IDX 7 76 8 77 9 79 10 80 11 81 21 82 12 83 20 84 13 85 14 86
REMARK SMILES IDX 15 87 16 88 17 89 18 90 19 91
REMARK H PARENT 3 5 81 23 47 34 7 78
REMARK Flexibility Score: inf
ROOT
ATOM      1  C   UNL A   1      41.557  23.294  27.486  1.00  0.00     0.118 C 
ENDROOT
BRANCH   1   2
ATOM      2  N   UNL A   1      41.582  24.123  26.290  1.00  0.00    -0.352 N 
ATOM      3  O   UNL A   1      41.183  25.941  25.023  1.00  0.00    -0.269 OA
ATOM      4  C   UNL A   1      41.295  25.460  26.146  1.00  0.00     0.251 C 
ATOM      5  H   UNL A   1      41.842  23.659  25.461  1.00  0.00     0.163 HD
BRANCH   4   6
ATOM      6  C   UNL A   1      41.107  26.304  27.346  1.00  0.00     0.039 A 
ATOM      7  C   UNL A   1      41.873  27.458  27.525  1.00  0.00     0.014 A 
ATOM      8  C   UNL A   1      40.138  25.953  28.289  1.00  0.00     0.014 A 
ATOM      9  C   UNL A   1      41.777  28.176  28.708  1.00  0.00     0.010 A 
ATOM     10  C   UNL A   1      39.966  26.740  29.432  1.00  0.00     0.010 A 
ATOM     11  C   UNL A   1      40.794  27.851  29.656  1.00  0.00    -0.014 A 
BRANCH  11  12
ATOM     12  C   UNL A   1      40.566  28.775  30.794  1.00  0.00     0.031 A 
ATOM     13  C   UNL A   1      39.481  29.812  30.761  1.00  0.00     0.074 A 
ATOM     14  C   UNL A   1      41.366  28.650  31.872  1.00  0.00     0.049 A 
ATOM     15  N   UNL A   1      39.170  30.697  31.673  1.00  0.00    -0.248 NA
ATOM     16  C   UNL A   1      38.641  29.878  29.554  1.00  0.00     0.031 C 
ATOM     17  C   UNL A   1      42.468  27.687  31.996  1.00  0.00     0.029 A 
ATOM     18  N   UNL A   1      41.383  29.321  33.067  1.00  0.00    -0.354 N 
ATOM     19  C   UNL A   1      38.118  31.437  31.149  1.00  0.00     0.074 A 
ATOM     20  C   UNL A   1      37.846  30.905  29.830  1.00  0.00     0.031 C 
ATOM     21  C   UNL A   1      43.029  27.808  33.205  1.00  0.00     0.029 A 
ATOM     22  C   UNL A   1      42.383  28.903  33.915  1.00  0.00     0.049 A 
ATOM     23  H   UNL A   1      40.742  30.031  33.296  1.00  0.00     0.167 HD
ATOM     24  C   UNL A   1      37.446  32.463  31.723  1.00  0.00     0.037 A 
ATOM     25  C   UNL A   1      42.767  29.374  35.115  1.00  0.00     0.037 A 
ATOM     26  C   UNL A   1      37.717  32.962  33.050  1.00  0.00     0.049 A 
ATOM     27  C   UNL A   1      42.017  30.530  35.709  1.00  0.00     0.074 A 
ATOM     28  C   UNL A   1      37.039  33.947  33.748  1.00  0.00     0.029 A 
ATOM     29  N   UNL A   1      38.749  32.531  33.869  1.00  0.00    -0.354 N 
ATOM     30  N   UNL A   1      40.976  31.168  35.228  1.00  0.00    -0.248 NA
ATOM     31  C   UNL A   1      42.493  31.037  37.001  1.00  0.00     0.031 C 
ATOM     32  C   UNL A   1      37.699  34.154  34.964  1.00  0.00     0.029 A 
ATOM     33  C   UNL A   1      38.754  33.261  35.047  1.00  0.00     0.049 A 
ATOM     34  H   UNL A   1      39.385  31.814  33.646  1.00  0.00     0.167 HD
ATOM     35  C   UNL A   1      40.672  32.150  36.162  1.00  0.00     0.074 A 
ATOM     36  C   UNL A   1      41.615  31.998  37.250  1.00  0.00     0.031 C 
ATOM     37  C   UNL A   1      39.705  33.098  36.118  1.00  0.00     0.037 A 
BRANCH  24  38
ATOM     38  C   UNL A   1      36.358  33.142  30.938  1.00  0.00     0.058 A 
ATOM     39  C   UNL A   1      35.006  33.024  31.290  1.00  0.00     0.135 A 
ATOM     40  C   UNL A   1      36.688  34.023  29.892  1.00  0.00     0.135 A 
ATOM     41  F   UNL A   1      34.633  32.188  32.272  1.00  0.00    -0.206 F 
ATOM     42  C   UNL A   1      34.018  33.758  30.639  1.00  0.00     0.059 A 
ATOM     43  C   UNL A   1      35.721  34.781  29.241  1.00  0.00     0.059 A 
ATOM     44  F   UNL A   1      37.967  34.170  29.513  1.00  0.00    -0.206 F 
ATOM     45  C   UNL A   1      34.387  34.643  29.622  1.00  0.00     0.060 A 
BRANCH  45  46
ATOM     46  S   UNL A   1      33.099  35.630  28.830  1.00  0.00     0.124 S 
ATOM     47  O   UNL A   1      32.423  34.626  28.014  1.00  0.00    -0.237 OA
ATOM     48  O   UNL A   1      32.343  36.130  29.974  1.00  0.00    -0.237 OA
ATOM     49  O   UNL A   1      33.849  36.638  28.088  1.00  0.00    -0.744 OA
ENDBRANCH  45  46
ENDBRANCH  24  38
BRANCH  25  50
ATOM     50  C   UNL A   1      43.950  28.790  35.801  1.00  0.00     0.058 A 
ATOM     51  C   UNL A   1      43.817  27.724  36.702  1.00  0.00     0.135 A 
ATOM     52  C   UNL A   1      45.239  29.300  35.576  1.00  0.00     0.135 A 
ATOM     53  F   UNL A   1      42.606  27.202  36.951  1.00  0.00    -0.206 F 
ATOM     54  C   UNL A   1      44.914  27.207  37.382  1.00  0.00     0.059 A 
ATOM     55  C   UNL A   1      46.355  28.778  36.218  1.00  0.00     0.059 A 
ATOM     56  F   UNL A   1      45.423  30.306  34.706  1.00  0.00    -0.206 F 
ATOM     57  C   UNL A   1      46.179  27.745  37.136  1.00  0.00     0.060 A 
BRANCH  57  58
ATOM     58  S   UNL A   1      47.599  27.068  38.020  1.00  0.00     0.124 S 
ATOM     59  O   UNL A   1      48.359  26.467  36.931  1.00  0.00    -0.237 OA
ATOM     60  O   UNL A   1      48.183  28.261  38.625  1.00  0.00    -0.237 OA
ATOM     61  O   UNL A   1      46.992  26.130  38.961  1.00  0.00    -0.744 OA
ENDBRANCH  57  58
ENDBRANCH  25  50
BRANCH  37  62
ATOM     62  C   UNL A   1      39.619  34.040  37.285  1.00  0.00     0.058 A 
ATOM     63  C   UNL A   1      38.937  33.687  38.460  1.00  0.00     0.135 A 
ATOM     64  C   UNL A   1      40.254  35.291  37.243  1.00  0.00     0.135 A 
ATOM     65  F   UNL A   1      38.302  32.507  38.544  1.00  0.00    -0.206 F 
ATOM     66  C   UNL A   1      38.872  34.550  39.548  1.00  0.00     0.059 A 
ATOM     67  C   UNL A   1      40.228  36.159  38.331  1.00  0.00     0.059 A 
ATOM     68  F   UNL A   1      40.924  35.673  36.145  1.00  0.00    -0.206 F 
ATOM     69  C   UNL A   1      39.524  35.783  39.474  1.00  0.00     0.060 A 
BRANCH  69  70
ATOM     70  S   UNL A   1      39.463  36.877  40.908  1.00  0.00     0.124 S 
ATOM     71  O   UNL A   1      38.690  36.079  41.854  1.00  0.00    -0.237 OA
ATOM     72  O   UNL A   1      40.876  37.049  41.230  1.00  0.00    -0.237 OA
ATOM     73  O   UNL A   1      38.793  38.070  40.398  1.00  0.00    -0.744 OA
ENDBRANCH  69  70
ENDBRANCH  37  62
ENDBRANCH  11  12
ENDBRANCH   4   6
ENDBRANCH   1   2
BRANCH   1  74
ATOM     74  C   UNL A   1      40.425  22.279  27.472  1.00  0.00     0.042 C 
BRANCH  74  75
ATOM     75  C   UNL A   1      39.579  22.318  26.212  1.00  0.00     0.117 C 
BRANCH  75  76
ATOM     76  N   UNL A   1      38.355  23.075  26.402  1.00  0.00    -0.356 N 
ATOM     77  C   UNL A   1      37.235  23.138  25.635  1.00  0.00     0.223 C 
ATOM     78  H   UNL A   1      38.333  23.630  27.214  1.00  0.00     0.163 HD
ATOM     79  O   UNL A   1      36.399  23.995  25.914  1.00  0.00    -0.275 OA
BRANCH  77  80
ATOM     80  C   UNL A   1      37.048  22.148  24.487  1.00  0.00     0.081 C 
ATOM     81  C   UNL A   1      36.142  22.728  23.390  1.00  0.00     0.030 C 
ATOM     82  C   UNL A   1      36.436  20.832  24.966  1.00  0.00     0.030 C 
ATOM     83  C   UNL A   1      34.674  22.833  23.818  1.00  0.00     0.103 C 
ATOM     84  C   UNL A   1      35.013  21.036  25.460  1.00  0.00     0.103 C 
ATOM     85  N   UNL A   1      34.160  21.519  24.342  1.00  0.00    -0.202 NA
BRANCH  85  86
ATOM     86  S   UNL A   1      32.480  21.629  24.736  1.00  0.00     0.216 S 
ATOM     87  O   UNL A   1      31.856  22.486  23.749  1.00  0.00    -0.212 OA
ATOM     88  O   UNL A   1      32.005  20.277  24.942  1.00  0.00    -0.212 OA
BRANCH  86  89
ATOM     89  C   UNL A   1      32.197  22.429  26.343  1.00  0.00     0.124 C 
ATOM     90  C   UNL A   1      32.476  23.899  26.442  1.00  0.00     0.022 C 
ATOM     91  C   UNL A   1      31.053  23.402  26.406  1.00  0.00     0.022 C 
ENDBRANCH  86  89
ENDBRANCH  85  86
ENDBRANCH  77  80
ENDBRANCH  75  76
ENDBRANCH  74  75
ENDBRANCH   1  74
TORSDOF 15
ENDMDL
MODEL 3
REMARK VINA RESULT:     -11.3      4.794      9.744
REMARK SMILES O=C(NCCCNC(=O)C1CCN(S(=O)(=O)C2CC2)CC1)c1ccc(-c2c3nc(c(-c4c(F)cc(S(=O)(=O)[O-])cc4F)c4ccc([nH]4)c(-c4c(F)cc(S(=O)(=O)[O-])cc4F)c4nc(c(-c5c(F)cc(S(=O)(=O)[O-])cc5F)c5ccc2[nH]5)C=C4)C=C3)cc1
REMARK SMILES IDX 4 1 3 2 1 3 2 4 22 6 23 7 87 8 24 9 86 10 25 11 26 12 27 13
REMARK SMILES IDX 80 14 28 15 85 16 79 17 81 18 29 19 84 20 78 21 77 22 30 24
REMARK SMILES IDX 64 25 43 26 63 27 44 28 47 29 62 30 82 31 45 32 46 33 61 35
REMARK SMILES IDX 83 36 48 37 31 38 32 39 41 40 33 41 34 42 40 43 42 44 35 45
REMARK SMILES IDX 36 46 37 47 38 48 39 49 65 50 66 51 75 52 67 53 68 54 74 55
REMARK SMILES IDX 76 56 69 57 70 58 71 59 72 60 73 61 49 62 50 63 59 64 51 65
REMARK SMILES IDX 52 66 58 67 60 68 53 69 54 70 55 71 56 72 57 73 5 74 6 75
REMARK SMILES IDX 7 76 8 77 9 79 10 80 11 81 21 82 12 83 20 84 13 85 14 86
REMARK SMILES IDX 15 87 16 88 17 89 18 90 19 91
REMARK H PARENT 3 5 81 23 47 34 7 78
REMARK Flexibility Score: inf
ROOT
ATOM      1  C   UNL A   1      40.414  23.268  27.039  1.00  0.00     0.118 C 
ENDROOT
BRANCH   1   2
ATOM      2  N   UNL A   1      41.137  24.002  26.011  1.00  0.00    -0.352 N 
ATOM      3  O   UNL A   1      41.948  25.810  24.942  1.00  0.00    -0.269 OA
ATOM      4  C   UNL A   1      41.514  25.324  25.982  1.00  0.00     0.251 C 
ATOM      5  H   UNL A   1      41.395  23.475  25.220  1.00  0.00     0.163 HD
BRANCH   4   6
ATOM      6  C   UNL A   1      41.377  26.155  27.198  1.00  0.00     0.039 A 
ATOM      7  C   UNL A   1      42.345  27.109  27.514  1.00  0.00     0.014 A 
ATOM      8  C   UNL A   1      40.257  25.995  28.018  1.00  0.00     0.014 A 
ATOM      9  C   UNL A   1      42.274  27.798  28.716  1.00  0.00     0.010 A 
ATOM     10  C   UNL A   1      40.130  26.769  29.176  1.00  0.00     0.010 A 
ATOM     11  C   UNL A   1      41.145  27.666  29.540  1.00  0.00    -0.014 A 
BRANCH  11  12
ATOM     12  C   UNL A   1      40.993  28.585  30.695  1.00  0.00     0.031 A 
ATOM     13  C   UNL A   1      41.855  28.462  31.919  1.00  0.00     0.074 A 
ATOM     14  C   UNL A   1      40.051  29.547  30.611  1.00  0.00     0.049 A 
ATOM     15  N   UNL A   1      41.830  29.183  33.010  1.00  0.00    -0.248 NA
ATOM     16  C   UNL A   1      42.868  27.395  31.931  1.00  0.00     0.031 C 
ATOM     17  C   UNL A   1      39.144  29.738  29.472  1.00  0.00     0.029 A 
ATOM     18  N   UNL A   1      39.699  30.545  31.480  1.00  0.00    -0.354 N 
ATOM     19  C   UNL A   1      42.802  28.649  33.846  1.00  0.00     0.074 A 
ATOM     20  C   UNL A   1      43.397  27.534  33.141  1.00  0.00     0.031 C 
ATOM     21  C   UNL A   1      38.364  30.802  29.700  1.00  0.00     0.029 A 
ATOM     22  C   UNL A   1      38.660  31.325  31.027  1.00  0.00     0.049 A 
ATOM     23  H   UNL A   1      40.146  30.691  32.345  1.00  0.00     0.167 HD
ATOM     24  C   UNL A   1      43.159  29.060  35.087  1.00  0.00     0.037 A 
ATOM     25  C   UNL A   1      37.988  32.325  31.626  1.00  0.00     0.037 A 
ATOM     26  C   UNL A   1      42.570  30.191  35.762  1.00  0.00     0.049 A 
ATOM     27  C   UNL A   1      38.394  32.735  33.011  1.00  0.00     0.074 A 
ATOM     28  C   UNL A   1      42.918  30.732  36.988  1.00  0.00     0.029 A 
ATOM     29  N   UNL A   1      41.507  30.941  35.283  1.00  0.00    -0.354 N 
ATOM     30  N   UNL A   1      39.366  32.265  33.756  1.00  0.00    -0.248 NA
ATOM     31  C   UNL A   1      37.611  33.803  33.643  1.00  0.00     0.031 C 
ATOM     32  C   UNL A   1      42.027  31.770  37.278  1.00  0.00     0.029 A 
ATOM     33  C   UNL A   1      41.158  31.912  36.209  1.00  0.00     0.049 A 
ATOM     34  H   UNL A   1      41.065  30.804  34.414  1.00  0.00     0.167 HD
ATOM     35  C   UNL A   1      39.313  32.984  34.943  1.00  0.00     0.074 A 
ATOM     36  C   UNL A   1      38.237  33.943  34.803  1.00  0.00     0.031 C 
ATOM     37  C   UNL A   1      40.079  32.855  36.053  1.00  0.00     0.037 A 
BRANCH  24  38
ATOM     38  C   UNL A   1      44.223  28.293  35.822  1.00  0.00     0.058 A 
ATOM     39  C   UNL A   1      43.910  27.229  36.679  1.00  0.00     0.135 A 
ATOM     40  C   UNL A   1      45.582  28.551  35.566  1.00  0.00     0.135 A 
ATOM     41  F   UNL A   1      42.630  26.948  36.969  1.00  0.00    -0.206 F 
ATOM     42  C   UNL A   1      44.905  26.442  37.254  1.00  0.00     0.059 A 
ATOM     43  C   UNL A   1      46.591  27.765  36.112  1.00  0.00     0.059 A 
ATOM     44  F   UNL A   1      45.936  29.560  34.755  1.00  0.00    -0.206 F 
ATOM     45  C   UNL A   1      46.243  26.711  36.956  1.00  0.00     0.060 A 
BRANCH  45  46
ATOM     46  S   UNL A   1      47.515  25.642  37.663  1.00  0.00     0.124 S 
ATOM     47  O   UNL A   1      47.048  25.505  39.040  1.00  0.00    -0.237 OA
ATOM     48  O   UNL A   1      47.410  24.445  36.836  1.00  0.00    -0.237 OA
ATOM     49  O   UNL A   1      48.742  26.414  37.493  1.00  0.00    -0.744 OA
ENDBRANCH  45  46
ENDBRANCH  24  38
BRANCH  25  50
ATOM     50  C   UNL A   1      36.833  32.962  30.942  1.00  0.00     0.058 A 
ATOM     51  C   UNL A   1      37.018  33.950  29.966  1.00  0.00     0.135 A 
ATOM     52  C   UNL A   1      35.514  32.599  31.265  1.00  0.00     0.135 A 
ATOM     53  F   UNL A   1      38.258  34.331  29.622  1.00  0.00    -0.206 F 
ATOM     54  C   UNL A   1      35.938  34.582  29.358  1.00  0.00     0.059 A 
ATOM     55  C   UNL A   1      34.421  33.192  30.647  1.00  0.00     0.059 A 
ATOM     56  F   UNL A   1      35.283  31.642  32.178  1.00  0.00    -0.206 F 
ATOM     57  C   UNL A   1      34.643  34.199  29.710  1.00  0.00     0.060 A 
BRANCH  57  58
ATOM     58  S   UNL A   1      33.246  35.022  28.917  1.00  0.00     0.124 S 
ATOM     59  O   UNL A   1      32.777  33.984  28.007  1.00  0.00    -0.237 OA
ATOM     60  O   UNL A   1      32.377  35.317  30.052  1.00  0.00    -0.237 OA
ATOM     61  O   UNL A   1      33.858  36.187  28.286  1.00  0.00    -0.744 OA
ENDBRANCH  57  58
ENDBRANCH  25  50
BRANCH  37  62
ATOM     62  C   UNL A   1      39.781  33.779  37.200  1.00  0.00     0.058 A 
ATOM     63  C   UNL A   1      38.862  33.428  38.200  1.00  0.00     0.135 A 
ATOM     64  C   UNL A   1      40.450  35.007  37.321  1.00  0.00     0.135 A 
ATOM     65  F   UNL A   1      38.188  32.271  38.123  1.00  0.00    -0.206 F 
ATOM     66  C   UNL A   1      38.599  34.274  39.272  1.00  0.00     0.059 A 
ATOM     67  C   UNL A   1      40.225  35.856  38.400  1.00  0.00     0.059 A 
ATOM     68  F   UNL A   1      41.344  35.385  36.394  1.00  0.00    -0.206 F 
ATOM     69  C   UNL A   1      39.289  35.485  39.364  1.00  0.00     0.060 A 
BRANCH  69  70
ATOM     70  S   UNL A   1      38.967  36.555  40.781  1.00  0.00     0.124 S 
ATOM     71  O   UNL A   1      38.476  37.765  40.130  1.00  0.00    -0.237 OA
ATOM     72  O   UNL A   1      37.974  35.791  41.530  1.00  0.00    -0.237 OA
ATOM     73  O   UNL A   1      40.273  36.673  41.423  1.00  0.00    -0.744 OA
ENDBRANCH  69  70
ENDBRANCH  37  62
ENDBRANCH  11  12
ENDBRANCH   4   6
ENDBRANCH   1   2
BRANCH   1  74
ATOM     74  C   UNL A   1      39.170  22.577  26.502  1.00  0.00     0.042 C 
BRANCH  74  75
ATOM     75  C   UNL A   1      38.072  23.534  26.075  1.00  0.00     0.117 C 
BRANCH  75  76
ATOM     76  N   UNL A   1      37.604  23.258  24.729  1.00  0.00    -0.356 N 
ATOM     77  C   UNL A   1      36.348  23.019  24.268  1.00  0.00     0.223 C 
ATOM     78  H   UNL A   1      38.308  23.242  24.040  1.00  0.00     0.163 HD
ATOM     79  O   UNL A   1      36.229  22.633  23.107  1.00  0.00    -0.275 OA
BRANCH  77  80
ATOM     80  C   UNL A   1      35.149  23.254  25.185  1.00  0.00     0.081 C 
ATOM     81  C   UNL A   1      35.068  22.185  26.284  1.00  0.00     0.030 C 
ATOM     82  C   UNL A   1      33.831  23.244  24.411  1.00  0.00     0.030 C 
ATOM     83  C   UNL A   1      34.660  20.806  25.752  1.00  0.00     0.103 C 
ATOM     84  C   UNL A   1      33.542  21.866  23.837  1.00  0.00     0.103 C 
ATOM     85  N   UNL A   1      33.392  20.885  24.944  1.00  0.00    -0.202 NA
BRANCH  85  86
ATOM     86  S   UNL A   1      32.895  19.312  24.426  1.00  0.00     0.216 S 
ATOM     87  O   UNL A   1      32.092  18.737  25.486  1.00  0.00    -0.212 OA
ATOM     88  O   UNL A   1      32.355  19.457  23.091  1.00  0.00    -0.212 OA
BRANCH  86  89
ATOM     89  C   UNL A   1      34.300  18.182  24.196  1.00  0.00     0.124 C 
ATOM     90  C   UNL A   1      34.161  16.788  24.732  1.00  0.00     0.022 C 
ATOM     91  C   UNL A   1      34.080  17.037  23.247  1.00  0.00     0.022 C 
ENDBRANCH  86  89
ENDBRANCH  85  86
ENDBRANCH  77  80
ENDBRANCH  75  76
ENDBRANCH  74  75
ENDBRANCH   1  74
TORSDOF 15
ENDMDL
