MODEL 1
REMARK VINA RESULT:     -10.2      0.000      0.000
REMARK SMILES CCc1nc(COC)cc(OCC(=O)NCCCNC(=O)c2ccc(-c3c4nc(c(-c5c(F)cc(S(=O)(=O)[O-])cc5F)c5ccc([nH]5)c(-c5c(F)cc(S(=O)(=O)[O-])cc5F)c5nc(c(-c6c(F)cc(S(=O)(=O)[O-])cc6F)c6ccc3[nH]6)C=C5)C=C4)cc2)n1
REMARK SMILES IDX 16 1 15 2 13 3 14 4 12 6 11 7 10 8 3 9 4 10 88 11 5 12 9 13
REMARK SMILES IDX 2 14 1 15 6 16 7 17 8 18 17 19 18 20 19 21 20 22 21 24 22 25
REMARK SMILES IDX 23 26 87 27 24 28 86 29 25 30 26 31 27 32 80 33 28 34 85 35
REMARK SMILES IDX 79 36 81 37 29 38 84 39 78 40 77 41 30 43 64 44 43 45 63 46
REMARK SMILES IDX 44 47 47 48 62 49 82 50 45 51 46 52 61 54 83 55 48 56 31 57
REMARK SMILES IDX 32 58 41 59 33 60 34 61 40 62 42 63 35 64 36 65 37 66 38 67
REMARK SMILES IDX 39 68 65 69 66 70 75 71 67 72 68 73 74 74 76 75 69 76 70 77
REMARK SMILES IDX 71 78 72 79 73 80 49 81 50 82 59 83 51 84 52 85 58 86 60 87
REMARK SMILES IDX 53 88 54 89 55 90 56 91 57 92
REMARK H PARENT 15 5 19 23 81 42 47 53
REMARK Flexibility Score: inf
ROOT
ATOM      1  C   UNL A   1      32.076  30.812  26.844  1.00  0.00     0.117 C 
ENDROOT
BRANCH   1   2
ATOM      2  N   UNL A   1      33.284  30.415  27.545  1.00  0.00    -0.353 N 
ATOM      3  C   UNL A   1      34.200  29.471  27.188  1.00  0.00     0.258 C 
ATOM      4  O   UNL A   1      35.174  29.277  27.919  1.00  0.00    -0.271 OA
ATOM      5  H   UNL A   1      33.465  30.890  28.388  1.00  0.00     0.163 HD
BRANCH   3   6
ATOM      6  C   UNL A   1      34.018  28.682  25.887  1.00  0.00     0.331 C 
BRANCH   6   7
ATOM      7  O   UNL A   1      32.999  27.702  25.880  1.00  0.00    -0.467 OA
BRANCH   7   8
ATOM      8  C   UNL A   1      32.464  27.331  24.682  1.00  0.00     0.217 A 
ATOM      9  C   UNL A   1      30.543  27.388  23.427  1.00  0.00     0.132 A 
ATOM     10  N   UNL A   1      31.094  26.681  22.427  1.00  0.00    -0.235 NA
ATOM     11  N   UNL A   1      31.183  27.716  24.563  1.00  0.00    -0.198 NA
ATOM     12  C   UNL A   1      32.374  26.288  22.582  1.00  0.00     0.074 A 
ATOM     13  C   UNL A   1      33.116  26.627  23.697  1.00  0.00     0.094 A 
BRANCH   9  14
ATOM     14  C   UNL A   1      29.100  27.789  23.286  1.00  0.00     0.074 C 
ATOM     15  C   UNL A   1      28.939  29.108  22.548  1.00  0.00     0.012 C 
ENDBRANCH   9  14
BRANCH  12  16
ATOM     16  C   UNL A   1      32.975  25.394  21.516  1.00  0.00     0.216 C 
BRANCH  16  17
ATOM     17  O   UNL A   1      33.778  24.331  22.039  1.00  0.00    -0.378 OA
ATOM     18  C   UNL A   1      33.055  23.125  22.250  1.00  0.00     0.195 C 
ENDBRANCH  16  17
ENDBRANCH  12  16
ENDBRANCH   7   8
ENDBRANCH   6   7
ENDBRANCH   3   6
ENDBRANCH   1   2
BRANCH   1  19
ATOM     19  C   UNL A   1      31.759  32.297  27.003  1.00  0.00     0.042 C 
BRANCH  19  20
ATOM     20  C   UNL A   1      32.972  33.198  27.239  1.00  0.00     0.118 C 
BRANCH  20  21
ATOM     21  N   UNL A   1      32.635  34.461  27.879  1.00  0.00    -0.352 N 
ATOM     22  C   UNL A   1      33.137  35.061  29.008  1.00  0.00     0.251 C 
ATOM     23  H   UNL A   1      31.926  34.972  27.427  1.00  0.00     0.163 HD
ATOM     24  O   UNL A   1      32.583  36.076  29.432  1.00  0.00    -0.269 OA
BRANCH  22  25
ATOM     25  C   UNL A   1      34.305  34.506  29.732  1.00  0.00     0.039 A 
ATOM     26  C   UNL A   1      34.096  33.951  31.000  1.00  0.00     0.014 A 
ATOM     27  C   UNL A   1      35.600  34.565  29.210  1.00  0.00     0.014 A 
ATOM     28  C   UNL A   1      35.166  33.395  31.707  1.00  0.00     0.010 A 
ATOM     29  C   UNL A   1      36.656  33.951  29.889  1.00  0.00     0.010 A 
ATOM     30  C   UNL A   1      36.450  33.354  31.141  1.00  0.00    -0.014 A 
BRANCH  30  31
ATOM     31  C   UNL A   1      37.566  32.657  31.835  1.00  0.00     0.031 A 
ATOM     32  C   UNL A   1      38.097  33.166  33.149  1.00  0.00     0.074 A 
ATOM     33  C   UNL A   1      38.135  31.581  31.253  1.00  0.00     0.049 A 
ATOM     34  N   UNL A   1      39.086  32.706  33.873  1.00  0.00    -0.248 NA
ATOM     35  C   UNL A   1      37.447  34.358  33.715  1.00  0.00     0.031 C 
ATOM     36  C   UNL A   1      37.749  31.020  29.956  1.00  0.00     0.029 A 
ATOM     37  N   UNL A   1      39.163  30.772  31.669  1.00  0.00    -0.354 N 
ATOM     38  C   UNL A   1      39.179  33.549  34.974  1.00  0.00     0.074 A 
ATOM     39  C   UNL A   1      38.177  34.579  34.799  1.00  0.00     0.031 C 
ATOM     40  C   UNL A   1      38.514  29.948  29.693  1.00  0.00     0.029 A 
ATOM     41  C   UNL A   1      39.467  29.765  30.783  1.00  0.00     0.049 A 
ATOM     42  H   UNL A   1      39.639  30.902  32.521  1.00  0.00     0.167 HD
ATOM     43  C   UNL A   1      40.009  33.461  36.043  1.00  0.00     0.037 A 
ATOM     44  C   UNL A   1      40.410  28.804  30.837  1.00  0.00     0.037 A 
ATOM     45  C   UNL A   1      40.992  32.423  36.225  1.00  0.00     0.049 A 
ATOM     46  C   UNL A   1      41.315  28.728  32.036  1.00  0.00     0.074 A 
ATOM     47  C   UNL A   1      41.845  32.225  37.298  1.00  0.00     0.029 A 
ATOM     48  N   UNL A   1      41.257  31.410  35.315  1.00  0.00    -0.354 N 
ATOM     49  N   UNL A   1      41.347  29.502  33.095  1.00  0.00    -0.248 NA
ATOM     50  C   UNL A   1      42.306  27.643  32.053  1.00  0.00     0.031 C 
ATOM     51  C   UNL A   1      42.648  31.112  37.021  1.00  0.00     0.029 A 
ATOM     52  C   UNL A   1      42.268  30.593  35.795  1.00  0.00     0.049 A 
ATOM     53  H   UNL A   1      40.793  31.289  34.455  1.00  0.00     0.167 HD
ATOM     54  C   UNL A   1      42.347  28.986  33.911  1.00  0.00     0.074 A 
ATOM     55  C   UNL A   1      42.879  27.821  33.235  1.00  0.00     0.031 C 
ATOM     56  C   UNL A   1      42.787  29.435  35.112  1.00  0.00     0.037 A 
BRANCH  43  57
ATOM     57  C   UNL A   1      39.882  34.508  37.117  1.00  0.00     0.058 A 
ATOM     58  C   UNL A   1      40.500  35.762  36.991  1.00  0.00     0.135 A 
ATOM     59  C   UNL A   1      39.082  34.283  38.248  1.00  0.00     0.135 A 
ATOM     60  F   UNL A   1      41.287  36.026  35.935  1.00  0.00    -0.206 F 
ATOM     61  C   UNL A   1      40.343  36.751  37.957  1.00  0.00     0.059 A 
ATOM     62  C   UNL A   1      38.891  35.266  39.216  1.00  0.00     0.059 A 
ATOM     63  F   UNL A   1      38.468  33.102  38.419  1.00  0.00    -0.206 F 
ATOM     64  C   UNL A   1      39.534  36.494  39.065  1.00  0.00     0.060 A 
BRANCH  64  65
ATOM     65  S   UNL A   1      39.319  37.797  40.296  1.00  0.00     0.124 S 
ATOM     66  O   UNL A   1      40.642  38.417  40.299  1.00  0.00    -0.237 OA
ATOM     67  O   UNL A   1      38.247  38.603  39.714  1.00  0.00    -0.237 OA
ATOM     68  O   UNL A   1      38.964  37.069  41.507  1.00  0.00    -0.744 OA
ENDBRANCH  64  65
ENDBRANCH  43  57
BRANCH  44  69
ATOM     69  C   UNL A   1      40.543  27.824  29.726  1.00  0.00     0.058 A 
ATOM     70  C   UNL A   1      41.545  27.966  28.754  1.00  0.00     0.135 A 
ATOM     71  C   UNL A   1      39.664  26.737  29.605  1.00  0.00     0.135 A 
ATOM     72  F   UNL A   1      42.407  28.992  28.824  1.00  0.00    -0.206 F 
ATOM     73  C   UNL A   1      41.654  27.082  27.685  1.00  0.00     0.059 A 
ATOM     74  C   UNL A   1      39.769  25.825  28.560  1.00  0.00     0.059 A 
ATOM     75  F   UNL A   1      38.700  26.547  30.519  1.00  0.00    -0.206 F 
ATOM     76  C   UNL A   1      40.758  26.016  27.596  1.00  0.00     0.060 A 
BRANCH  76  77
ATOM     77  S   UNL A   1      40.920  24.858  26.219  1.00  0.00     0.124 S 
ATOM     78  O   UNL A   1      41.352  25.743  25.143  1.00  0.00    -0.237 OA
ATOM     79  O   UNL A   1      41.923  23.923  26.719  1.00  0.00    -0.237 OA
ATOM     80  O   UNL A   1      39.574  24.310  26.085  1.00  0.00    -0.744 OA
ENDBRANCH  76  77
ENDBRANCH  44  69
BRANCH  56  81
ATOM     81  C   UNL A   1      43.881  28.649  35.781  1.00  0.00     0.058 A 
ATOM     82  C   UNL A   1      43.596  27.587  36.654  1.00  0.00     0.135 A 
ATOM     83  C   UNL A   1      45.229  28.951  35.532  1.00  0.00     0.135 A 
ATOM     84  F   UNL A   1      42.324  27.262  36.930  1.00  0.00    -0.206 F 
ATOM     85  C   UNL A   1      44.610  26.875  37.285  1.00  0.00     0.059 A 
ATOM     86  C   UNL A   1      46.260  28.235  36.132  1.00  0.00     0.059 A 
ATOM     87  F   UNL A   1      45.557  29.950  34.697  1.00  0.00    -0.206 F 
ATOM     88  C   UNL A   1      45.941  27.209  37.021  1.00  0.00     0.060 A 
BRANCH  88  89
ATOM     89  S   UNL A   1      47.249  26.274  37.841  1.00  0.00     0.124 S 
ATOM     90  O   UNL A   1      48.326  26.353  36.860  1.00  0.00    -0.237 OA
ATOM     91  O   UNL A   1      47.454  27.031  39.071  1.00  0.00    -0.237 OA
ATOM     92  O   UNL A   1      46.658  24.950  38.020  1.00  0.00    -0.744 OA
ENDBRANCH  88  89
ENDBRANCH  56  81
ENDBRANCH  30  31
ENDBRANCH  22  25
ENDBRANCH  20  21
ENDBRANCH  19  20
ENDBRANCH   1  19
TORSDOF 18
ENDMDL
MODEL 2
REMARK VINA RESULT:     -10.0      4.343     10.609
REMARK SMILES CCc1nc(COC)cc(OCC(=O)NCCCNC(=O)c2ccc(-c3c4nc(c(-c5c(F)cc(S(=O)(=O)[O-])cc5F)c5ccc([nH]5)c(-c5c(F)cc(S(=O)(=O)[O-])cc5F)c5nc(c(-c6c(F)cc(S(=O)(=O)[O-])cc6F)c6ccc3[nH]6)C=C5)C=C4)cc2)n1
REMARK SMILES IDX 16 1 15 2 13 3 14 4 12 6 11 7 10 8 3 9 4 10 88 11 5 12 9 13
REMARK SMILES IDX 2 14 1 15 6 16 7 17 8 18 17 19 18 20 19 21 20 22 21 24 22 25
REMARK SMILES IDX 23 26 87 27 24 28 86 29 25 30 26 31 27 32 80 33 28 34 85 35
REMARK SMILES IDX 79 36 81 37 29 38 84 39 78 40 77 41 30 43 64 44 43 45 63 46
REMARK SMILES IDX 44 47 47 48 62 49 82 50 45 51 46 52 61 54 83 55 48 56 31 57
REMARK SMILES IDX 32 58 41 59 33 60 34 61 40 62 42 63 35 64 36 65 37 66 38 67
REMARK SMILES IDX 39 68 65 69 66 70 75 71 67 72 68 73 74 74 76 75 69 76 70 77
REMARK SMILES IDX 71 78 72 79 73 80 49 81 50 82 59 83 51 84 52 85 58 86 60 87
REMARK SMILES IDX 53 88 54 89 55 90 56 91 57 92
REMARK H PARENT 15 5 19 23 81 42 47 53
REMARK Flexibility Score: inf
ROOT
ATOM      1  C   UNL A   1      42.697  22.034  27.732  1.00  0.00     0.117 C 
ENDROOT
BRANCH   1   2
ATOM      2  N   UNL A   1      43.161  22.198  29.099  1.00  0.00    -0.353 N 
ATOM      3  C   UNL A   1      43.935  23.192  29.618  1.00  0.00     0.258 C 
ATOM      4  O   UNL A   1      44.223  23.160  30.818  1.00  0.00    -0.271 OA
ATOM      5  H   UNL A   1      42.879  21.499  29.733  1.00  0.00     0.163 HD
BRANCH   3   6
ATOM      6  C   UNL A   1      44.416  24.336  28.719  1.00  0.00     0.331 C 
BRANCH   6   7
ATOM      7  O   UNL A   1      45.759  24.271  28.283  1.00  0.00    -0.467 OA
BRANCH   7   8
ATOM      8  C   UNL A   1      46.003  23.948  26.980  1.00  0.00     0.217 A 
ATOM      9  C   UNL A   1      46.884  24.748  25.018  1.00  0.00     0.132 A 
ATOM     10  N   UNL A   1      46.564  23.634  24.341  1.00  0.00    -0.235 NA
ATOM     11  N   UNL A   1      46.610  24.946  26.320  1.00  0.00    -0.198 NA
ATOM     12  C   UNL A   1      45.935  22.656  25.022  1.00  0.00     0.074 A 
ATOM     13  C   UNL A   1      45.662  22.762  26.372  1.00  0.00     0.094 A 
BRANCH   9  14
ATOM     14  C   UNL A   1      47.542  25.865  24.255  1.00  0.00     0.074 C 
ATOM     15  C   UNL A   1      47.763  27.099  25.116  1.00  0.00     0.012 C 
ENDBRANCH   9  14
BRANCH  12  16
ATOM     16  C   UNL A   1      45.465  21.442  24.248  1.00  0.00     0.216 C 
BRANCH  16  17
ATOM     17  O   UNL A   1      44.171  20.973  24.638  1.00  0.00    -0.378 OA
ATOM     18  C   UNL A   1      44.150  19.597  24.996  1.00  0.00     0.195 C 
ENDBRANCH  16  17
ENDBRANCH  12  16
ENDBRANCH   7   8
ENDBRANCH   6   7
ENDBRANCH   3   6
ENDBRANCH   1   2
BRANCH   1  19
ATOM     19  C   UNL A   1      41.194  21.781  27.643  1.00  0.00     0.042 C 
BRANCH  19  20
ATOM     20  C   UNL A   1      40.357  22.987  27.218  1.00  0.00     0.118 C 
BRANCH  20  21
ATOM     21  N   UNL A   1      40.993  23.796  26.188  1.00  0.00    -0.352 N 
ATOM     22  C   UNL A   1      41.340  25.125  26.173  1.00  0.00     0.251 C 
ATOM     23  H   UNL A   1      41.211  23.308  25.362  1.00  0.00     0.163 HD
ATOM     24  O   UNL A   1      41.743  25.616  25.118  1.00  0.00    -0.269 OA
BRANCH  22  25
ATOM     25  C   UNL A   1      41.218  25.976  27.380  1.00  0.00     0.039 A 
ATOM     26  C   UNL A   1      42.179  26.971  27.589  1.00  0.00     0.014 A 
ATOM     27  C   UNL A   1      40.210  25.782  28.327  1.00  0.00     0.014 A 
ATOM     28  C   UNL A   1      42.088  27.812  28.702  1.00  0.00     0.010 A 
ATOM     29  C   UNL A   1      40.081  26.664  29.404  1.00  0.00     0.010 A 
ATOM     30  C   UNL A   1      41.015  27.692  29.600  1.00  0.00    -0.014 A 
BRANCH  30  31
ATOM     31  C   UNL A   1      40.846  28.660  30.717  1.00  0.00     0.031 A 
ATOM     32  C   UNL A   1      41.707  28.576  31.949  1.00  0.00     0.074 A 
ATOM     33  C   UNL A   1      39.875  29.594  30.638  1.00  0.00     0.049 A 
ATOM     34  N   UNL A   1      41.672  29.311  33.031  1.00  0.00    -0.248 NA
ATOM     35  C   UNL A   1      42.729  27.517  31.979  1.00  0.00     0.031 C 
ATOM     36  C   UNL A   1      38.938  29.747  29.523  1.00  0.00     0.029 A 
ATOM     37  N   UNL A   1      39.509  30.585  31.514  1.00  0.00    -0.354 N 
ATOM     38  C   UNL A   1      42.659  28.806  33.870  1.00  0.00     0.074 A 
ATOM     39  C   UNL A   1      43.244  27.670  33.191  1.00  0.00     0.031 C 
ATOM     40  C   UNL A   1      38.121  30.782  29.771  1.00  0.00     0.029 A 
ATOM     41  C   UNL A   1      38.450  31.346  31.077  1.00  0.00     0.049 A 
ATOM     42  H   UNL A   1      39.962  30.737  32.376  1.00  0.00     0.167 HD
ATOM     43  C   UNL A   1      43.055  29.260  35.085  1.00  0.00     0.037 A 
ATOM     44  C   UNL A   1      37.811  32.378  31.661  1.00  0.00     0.037 A 
ATOM     45  C   UNL A   1      42.485  30.404  35.750  1.00  0.00     0.049 A 
ATOM     46  C   UNL A   1      38.274  32.863  33.007  1.00  0.00     0.074 A 
ATOM     47  C   UNL A   1      42.854  30.968  36.960  1.00  0.00     0.029 A 
ATOM     48  N   UNL A   1      41.427  31.160  35.266  1.00  0.00    -0.354 N 
ATOM     49  N   UNL A   1      39.248  32.406  33.758  1.00  0.00    -0.248 NA
ATOM     50  C   UNL A   1      37.556  34.009  33.583  1.00  0.00     0.031 C 
ATOM     51  C   UNL A   1      41.997  32.043  37.224  1.00  0.00     0.029 A 
ATOM     52  C   UNL A   1      41.121  32.175  36.159  1.00  0.00     0.049 A 
ATOM     53  H   UNL A   1      40.962  30.999  34.413  1.00  0.00     0.167 HD
ATOM     54  C   UNL A   1      39.273  33.221  34.883  1.00  0.00     0.074 A 
ATOM     55  C   UNL A   1      38.232  34.212  34.706  1.00  0.00     0.031 C 
ATOM     56  C   UNL A   1      40.083  33.156  35.969  1.00  0.00     0.037 A 
BRANCH  43  57
ATOM     57  C   UNL A   1      44.176  28.530  35.774  1.00  0.00     0.058 A 
ATOM     58  C   UNL A   1      43.933  27.391  36.559  1.00  0.00     0.135 A 
ATOM     59  C   UNL A   1      45.510  28.929  35.596  1.00  0.00     0.135 A 
ATOM     60  F   UNL A   1      42.675  26.973  36.773  1.00  0.00    -0.206 F 
ATOM     61  C   UNL A   1      44.971  26.683  37.156  1.00  0.00     0.059 A 
ATOM     62  C   UNL A   1      46.567  28.222  36.164  1.00  0.00     0.059 A 
ATOM     63  F   UNL A   1      45.800  30.010  34.856  1.00  0.00    -0.206 F 
ATOM     64  C   UNL A   1      46.286  27.105  36.950  1.00  0.00     0.060 A 
BRANCH  64  65
ATOM     65  S   UNL A   1      47.623  26.159  37.710  1.00  0.00     0.124 S 
ATOM     66  O   UNL A   1      47.181  26.096  39.101  1.00  0.00    -0.237 OA
ATOM     67  O   UNL A   1      47.570  24.898  36.974  1.00  0.00    -0.237 OA
ATOM     68  O   UNL A   1      48.803  26.977  37.462  1.00  0.00    -0.744 OA
ENDBRANCH  64  65
ENDBRANCH  43  57
BRANCH  44  69
ATOM     69  C   UNL A   1      36.667  33.035  30.973  1.00  0.00     0.058 A 
ATOM     70  C   UNL A   1      36.870  33.840  29.842  1.00  0.00     0.135 A 
ATOM     71  C   UNL A   1      35.353  32.883  31.441  1.00  0.00     0.135 A 
ATOM     72  F   UNL A   1      38.109  34.019  29.360  1.00  0.00    -0.206 F 
ATOM     73  C   UNL A   1      35.815  34.496  29.216  1.00  0.00     0.059 A 
ATOM     74  C   UNL A   1      34.278  33.507  30.816  1.00  0.00     0.059 A 
ATOM     75  F   UNL A   1      35.104  32.109  32.509  1.00  0.00    -0.206 F 
ATOM     76  C   UNL A   1      34.522  34.325  29.713  1.00  0.00     0.060 A 
BRANCH  76  77
ATOM     77  S   UNL A   1      33.154  35.159  28.880  1.00  0.00     0.124 S 
ATOM     78  O   UNL A   1      32.211  35.341  29.977  1.00  0.00    -0.237 OA
ATOM     79  O   UNL A   1      33.792  36.372  28.378  1.00  0.00    -0.237 OA
ATOM     80  O   UNL A   1      32.754  34.201  27.854  1.00  0.00    -0.744 OA
ENDBRANCH  76  77
ENDBRANCH  44  69
BRANCH  56  81
ATOM     81  C   UNL A   1      39.890  34.199  37.034  1.00  0.00     0.058 A 
ATOM     82  C   UNL A   1      39.007  34.000  38.108  1.00  0.00     0.135 A 
ATOM     83  C   UNL A   1      40.607  35.404  36.989  1.00  0.00     0.135 A 
ATOM     84  F   UNL A   1      38.292  32.867  38.193  1.00  0.00    -0.206 F 
ATOM     85  C   UNL A   1      38.816  34.975  39.081  1.00  0.00     0.059 A 
ATOM     86  C   UNL A   1      40.453  36.383  37.967  1.00  0.00     0.059 A 
ATOM     87  F   UNL A   1      41.473  35.641  35.990  1.00  0.00    -0.206 F 
ATOM     88  C   UNL A   1      39.541  36.167  39.000  1.00  0.00     0.060 A 
BRANCH  88  89
ATOM     89  S   UNL A   1      39.290  37.422  40.271  1.00  0.00     0.124 S 
ATOM     90  O   UNL A   1      40.643  37.943  40.440  1.00  0.00    -0.237 OA
ATOM     91  O   UNL A   1      38.336  38.327  39.638  1.00  0.00    -0.237 OA
ATOM     92  O   UNL A   1      38.764  36.661  41.401  1.00  0.00    -0.744 OA
ENDBRANCH  88  89
ENDBRANCH  56  81
ENDBRANCH  30  31
ENDBRANCH  22  25
ENDBRANCH  20  21
ENDBRANCH  19  20
ENDBRANCH   1  19
TORSDOF 18
ENDMDL
MODEL 3
REMARK VINA RESULT:     -10.0      4.865     10.069
REMARK SMILES CCc1nc(COC)cc(OCC(=O)NCCCNC(=O)c2ccc(-c3c4nc(c(-c5c(F)cc(S(=O)(=O)[O-])cc5F)c5ccc([nH]5)c(-c5c(F)cc(S(=O)(=O)[O-])cc5F)c5nc(c(-c6c(F)cc(S(=O)(=O)[O-])cc6F)c6ccc3[nH]6)C=C5)C=C4)cc2)n1
REMARK SMILES IDX 16 1 15 2 13 3 14 4 12 6 11 7 10 8 3 9 4 10 88 11 5 12 9 13
REMARK SMILES IDX 2 14 1 15 6 16 7 17 8 18 17 19 18 20 19 21 20 22 21 24 22 25
REMARK SMILES IDX 23 26 87 27 24 28 86 29 25 30 26 31 27 32 80 33 28 34 85 35
REMARK SMILES IDX 79 36 81 37 29 38 84 39 78 40 77 41 30 43 64 44 43 45 63 46
REMARK SMILES IDX 44 47 47 48 62 49 82 50 45 51 46 52 61 54 83 55 48 56 31 57
REMARK SMILES IDX 32 58 41 59 33 60 34 61 40 62 42 63 35 64 36 65 37 66 38 67
REMARK SMILES IDX 39 68 65 69 66 70 75 71 67 72 68 73 74 74 76 75 69 76 70 77
REMARK SMILES IDX 71 78 72 79 73 80 49 81 50 82 59 83 51 84 52 85 58 86 60 87
REMARK SMILES IDX 53 88 54 89 55 90 56 91 57 92
REMARK H PARENT 15 5 19 23 81 42 47 53
REMARK Flexibility Score: inf
ROOT
ATOM      1  C   UNL A   1      33.057  29.169  24.736  1.00  0.00     0.117 C 
ENDROOT
BRANCH   1   2
ATOM      2  N   UNL A   1      31.747  29.775  24.578  1.00  0.00    -0.353 N 
ATOM      3  C   UNL A   1      30.778  29.474  23.668  1.00  0.00     0.258 C 
ATOM      4  O   UNL A   1      29.717  30.104  23.695  1.00  0.00    -0.271 OA
ATOM      5  H   UNL A   1      31.530  30.497  25.211  1.00  0.00     0.163 HD
BRANCH   3   6
ATOM      6  C   UNL A   1      31.009  28.356  22.645  1.00  0.00     0.331 C 
BRANCH   6   7
ATOM      7  O   UNL A   1      30.272  27.165  22.836  1.00  0.00    -0.467 OA
BRANCH   7   8
ATOM      8  C   UNL A   1      30.934  26.057  23.277  1.00  0.00     0.217 A 
ATOM      9  C   UNL A   1      31.049  24.546  25.000  1.00  0.00     0.132 A 
ATOM     10  N   UNL A   1      32.091  23.899  24.454  1.00  0.00    -0.235 NA
ATOM     11  N   UNL A   1      30.459  25.624  24.455  1.00  0.00    -0.198 NA
ATOM     12  C   UNL A   1      32.563  24.368  23.282  1.00  0.00     0.074 A 
ATOM     13  C   UNL A   1      31.982  25.441  22.634  1.00  0.00     0.094 A 
BRANCH   9  14
ATOM     14  C   UNL A   1      30.547  24.061  26.332  1.00  0.00     0.074 C 
ATOM     15  C   UNL A   1      30.360  22.552  26.363  1.00  0.00     0.012 C 
ENDBRANCH   9  14
BRANCH  12  16
ATOM     16  C   UNL A   1      33.808  23.723  22.710  1.00  0.00     0.216 C 
BRANCH  16  17
ATOM     17  O   UNL A   1      34.984  23.938  23.497  1.00  0.00    -0.378 OA
ATOM     18  C   UNL A   1      35.893  22.846  23.470  1.00  0.00     0.195 C 
ENDBRANCH  16  17
ENDBRANCH  12  16
ENDBRANCH   7   8
ENDBRANCH   6   7
ENDBRANCH   3   6
ENDBRANCH   1   2
BRANCH   1  19
ATOM     19  C   UNL A   1      33.058  28.011  25.731  1.00  0.00     0.042 C 
BRANCH  19  20
ATOM     20  C   UNL A   1      33.832  28.267  27.025  1.00  0.00     0.118 C 
BRANCH  20  21
ATOM     21  N   UNL A   1      33.734  29.643  27.491  1.00  0.00    -0.352 N 
ATOM     22  C   UNL A   1      34.643  30.439  28.144  1.00  0.00     0.251 C 
ATOM     23  H   UNL A   1      32.869  30.076  27.309  1.00  0.00     0.163 HD
ATOM     24  O   UNL A   1      34.270  31.535  28.565  1.00  0.00    -0.269 OA
BRANCH  22  25
ATOM     25  C   UNL A   1      36.040  30.003  28.372  1.00  0.00     0.039 A 
ATOM     26  C   UNL A   1      36.944  30.088  27.307  1.00  0.00     0.014 A 
ATOM     27  C   UNL A   1      36.463  29.469  29.592  1.00  0.00     0.014 A 
ATOM     28  C   UNL A   1      38.277  29.709  27.485  1.00  0.00     0.010 A 
ATOM     29  C   UNL A   1      37.809  29.152  29.789  1.00  0.00     0.010 A 
ATOM     30  C   UNL A   1      38.732  29.274  28.741  1.00  0.00    -0.014 A 
BRANCH  30  31
ATOM     31  C   UNL A   1      40.174  28.985  28.969  1.00  0.00     0.031 A 
ATOM     32  C   UNL A   1      40.756  27.639  28.628  1.00  0.00     0.074 A 
ATOM     33  C   UNL A   1      40.954  29.931  29.532  1.00  0.00     0.049 A 
ATOM     34  N   UNL A   1      41.979  27.203  28.794  1.00  0.00    -0.248 NA
ATOM     35  C   UNL A   1      39.842  26.647  28.040  1.00  0.00     0.031 C 
ATOM     36  C   UNL A   1      40.501  31.257  29.958  1.00  0.00     0.029 A 
ATOM     37  N   UNL A   1      42.290  29.922  29.850  1.00  0.00    -0.354 N 
ATOM     38  C   UNL A   1      41.983  25.890  28.337  1.00  0.00     0.074 A 
ATOM     39  C   UNL A   1      40.628  25.584  27.931  1.00  0.00     0.031 C 
ATOM     40  C   UNL A   1      41.542  31.939  30.461  1.00  0.00     0.029 A 
ATOM     41  C   UNL A   1      42.729  31.091  30.426  1.00  0.00     0.049 A 
ATOM     42  H   UNL A   1      42.878  29.150  29.682  1.00  0.00     0.167 HD
ATOM     43  C   UNL A   1      43.024  25.026  28.245  1.00  0.00     0.037 A 
ATOM     44  C   UNL A   1      43.947  31.441  30.881  1.00  0.00     0.037 A 
ATOM     45  C   UNL A   1      44.377  25.340  28.632  1.00  0.00     0.049 A 
ATOM     46  C   UNL A   1      45.085  30.464  30.763  1.00  0.00     0.074 A 
ATOM     47  C   UNL A   1      45.506  24.546  28.530  1.00  0.00     0.029 A 
ATOM     48  N   UNL A   1      44.785  26.541  29.193  1.00  0.00    -0.354 N 
ATOM     49  N   UNL A   1      45.079  29.247  30.275  1.00  0.00    -0.248 NA
ATOM     50  C   UNL A   1      46.397  30.911  31.251  1.00  0.00     0.031 C 
ATOM     51  C   UNL A   1      46.591  25.254  29.061  1.00  0.00     0.029 A 
ATOM     52  C   UNL A   1      46.145  26.505  29.456  1.00  0.00     0.049 A 
ATOM     53  H   UNL A   1      44.195  27.308  29.377  1.00  0.00     0.167 HD
ATOM     54  C   UNL A   1      46.388  28.791  30.377  1.00  0.00     0.074 A 
ATOM     55  C   UNL A   1      47.163  29.871  30.954  1.00  0.00     0.031 C 
ATOM     56  C   UNL A   1      46.904  27.587  30.029  1.00  0.00     0.037 A 
BRANCH  43  57
ATOM     57  C   UNL A   1      42.750  23.656  27.688  1.00  0.00     0.058 A 
ATOM     58  C   UNL A   1      42.831  23.398  26.310  1.00  0.00     0.135 A 
ATOM     59  C   UNL A   1      42.472  22.576  28.540  1.00  0.00     0.135 A 
ATOM     60  F   UNL A   1      43.082  24.397  25.448  1.00  0.00    -0.206 F 
ATOM     61  C   UNL A   1      42.630  22.122  25.795  1.00  0.00     0.059 A 
ATOM     62  C   UNL A   1      42.290  21.285  28.050  1.00  0.00     0.059 A 
ATOM     63  F   UNL A   1      42.383  22.766  29.865  1.00  0.00    -0.206 F 
ATOM     64  C   UNL A   1      42.362  21.070  26.673  1.00  0.00     0.060 A 
BRANCH  64  65
ATOM     65  S   UNL A   1      42.129  19.415  25.992  1.00  0.00     0.124 S 
ATOM     66  O   UNL A   1      40.678  19.364  25.839  1.00  0.00    -0.237 OA
ATOM     67  O   UNL A   1      42.892  19.480  24.747  1.00  0.00    -0.237 OA
ATOM     68  O   UNL A   1      42.684  18.542  27.018  1.00  0.00    -0.744 OA
ENDBRANCH  64  65
ENDBRANCH  43  57
BRANCH  44  69
ATOM     69  C   UNL A   1      44.164  32.785  31.482  1.00  0.00     0.058 A 
ATOM     70  C   UNL A   1      44.053  32.983  32.867  1.00  0.00     0.135 A 
ATOM     71  C   UNL A   1      44.469  33.898  30.684  1.00  0.00     0.135 A 
ATOM     72  F   UNL A   1      43.758  31.950  33.670  1.00  0.00    -0.206 F 
ATOM     73  C   UNL A   1      44.209  34.242  33.437  1.00  0.00     0.059 A 
ATOM     74  C   UNL A   1      44.656  35.161  31.234  1.00  0.00     0.059 A 
ATOM     75  F   UNL A   1      44.603  33.757  29.356  1.00  0.00    -0.206 F 
ATOM     76  C   UNL A   1      44.508  35.327  32.610  1.00  0.00     0.060 A 
BRANCH  76  77
ATOM     77  S   UNL A   1      44.733  36.954  33.360  1.00  0.00     0.124 S 
ATOM     78  O   UNL A   1      46.137  37.219  33.067  1.00  0.00    -0.237 OA
ATOM     79  O   UNL A   1      43.764  37.767  32.632  1.00  0.00    -0.237 OA
ATOM     80  O   UNL A   1      44.414  36.721  34.766  1.00  0.00    -0.744 OA
ENDBRANCH  76  77
ENDBRANCH  44  69
BRANCH  56  81
ATOM     81  C   UNL A   1      48.380  27.385  30.239  1.00  0.00     0.058 A 
ATOM     82  C   UNL A   1      48.889  26.886  31.448  1.00  0.00     0.135 A 
ATOM     83  C   UNL A   1      49.292  27.678  29.213  1.00  0.00     0.135 A 
ATOM     84  F   UNL A   1      48.059  26.596  32.462  1.00  0.00    -0.206 F 
ATOM     85  C   UNL A   1      50.256  26.719  31.646  1.00  0.00     0.059 A 
ATOM     86  C   UNL A   1      50.661  27.493  29.379  1.00  0.00     0.059 A 
ATOM     87  F   UNL A   1      48.857  28.147  28.033  1.00  0.00    -0.206 F 
ATOM     88  C   UNL A   1      51.135  27.029  30.607  1.00  0.00     0.060 A 
BRANCH  88  89
ATOM     89  S   UNL A   1      52.906  26.802  30.871  1.00  0.00     0.124 S 
ATOM     90  O   UNL A   1      52.948  25.457  31.436  1.00  0.00    -0.237 OA
ATOM     91  O   UNL A   1      53.447  26.941  29.523  1.00  0.00    -0.237 OA
ATOM     92  O   UNL A   1      53.252  27.881  31.792  1.00  0.00    -0.744 OA
ENDBRANCH  88  89
ENDBRANCH  56  81
ENDBRANCH  30  31
ENDBRANCH  22  25
ENDBRANCH  20  21
ENDBRANCH  19  20
ENDBRANCH   1  19
TORSDOF 18
ENDMDL
