MODEL 1
REMARK VINA RESULT:     -11.5      0.000      0.000
REMARK SMILES CCC(CC)COc1cc2c(cc1Cl)C=C(C(=O)NCCCNC(=O)c1ccc(-c3c4nc(c(-c5c(F)cc(S(=O)(=O)[O-])cc5F)c5ccc([nH]5)c(-c5c(F)cc(S(=O)(=O)[O-])cc5F)c5nc(c(-c6c(F)cc(S(=O)(=O)[O-])cc6F)c6ccc3[nH]6)C=C5)C=C4)cc1)[C@@H](C(F)(F)F)O2
REMARK SMILES IDX 20 1 19 2 17 3 18 4 16 6 8 7 9 8 13 9 10 10 12 11 14 12
REMARK SMILES IDX 11 13 97 14 15 15 92 16 7 17 6 18 3 19 2 20 1 21 4 22 5 23
REMARK SMILES IDX 93 24 94 25 95 26 96 27 21 28 22 29 23 30 24 31 25 33 26 34
REMARK SMILES IDX 27 35 91 36 28 37 90 38 29 39 30 40 31 41 84 42 32 43 89 44
REMARK SMILES IDX 83 45 85 46 33 47 88 48 82 49 81 50 34 52 68 53 47 54 67 55
REMARK SMILES IDX 48 56 51 57 66 58 86 59 49 60 50 61 65 63 87 64 52 65 35 66
REMARK SMILES IDX 36 67 45 68 37 69 38 70 44 71 46 72 39 73 40 74 41 75 42 76
REMARK SMILES IDX 43 77 69 78 70 79 79 80 71 81 72 82 78 83 80 84 73 85 74 86
REMARK SMILES IDX 75 87 76 88 77 89 53 90 54 91 63 92 55 93 56 94 62 95 64 96
REMARK SMILES IDX 57 97 58 98 59 99 60 100 61 101
REMARK H PARENT 19 5 23 32 85 51 51 62
REMARK Flexibility Score: inf
ROOT
ATOM      1  C   UNL A   1      31.942  30.631  26.714  1.00  0.00     0.118 C 
ENDROOT
BRANCH   1   2
ATOM      2  N   UNL A   1      33.331  30.229  26.853  1.00  0.00    -0.352 N 
ATOM      3  C   UNL A   1      34.067  29.141  26.537  1.00  0.00     0.251 C 
ATOM      4  O   UNL A   1      35.276  29.227  26.775  1.00  0.00    -0.270 OA
ATOM      5  H   UNL A   1      33.874  30.926  27.287  1.00  0.00     0.163 HD
BRANCH   3   6
ATOM      6  C   UNL A   1      33.520  27.891  25.951  1.00  0.00     0.067 C 
ATOM      7  C   UNL A   1      33.000  23.820  23.096  1.00  0.00     0.141 A 
ATOM      8  C   UNL A   1      32.966  24.027  24.475  1.00  0.00     0.095 A 
ATOM      9  C   UNL A   1      33.086  24.912  22.219  1.00  0.00     0.083 A 
ATOM     10  C   UNL A   1      33.149  25.314  24.963  1.00  0.00     0.131 A 
ATOM     11  C   UNL A   1      33.365  26.184  22.718  1.00  0.00     0.036 A 
ATOM     12  Cl  UNL A   1      32.936  24.721  20.510  1.00  0.00    -0.080 Cl
ATOM     13  C   UNL A   1      33.437  26.376  24.094  1.00  0.00     0.019 A 
ATOM     14  O   UNL A   1      33.050  25.506  26.318  1.00  0.00    -0.475 OA
ATOM     15  C   UNL A   1      33.856  27.648  24.671  1.00  0.00     0.025 C 
ATOM     16  C   UNL A   1      32.690  26.874  26.684  1.00  0.00     0.314 C 
BRANCH   7  17
ATOM     17  O   UNL A   1      32.967  22.542  22.603  1.00  0.00    -0.492 OA
BRANCH  17  18
ATOM     18  C   UNL A   1      32.362  21.614  23.536  1.00  0.00     0.233 C 
BRANCH  18  19
ATOM     19  C   UNL A   1      33.277  20.391  23.802  1.00  0.00     0.026 C 
BRANCH  19  20
ATOM     20  C   UNL A   1      34.169  20.597  25.048  1.00  0.00     0.003 C 
ATOM     21  C   UNL A   1      35.514  21.228  24.712  1.00  0.00     0.004 C 
ENDBRANCH  19  20
BRANCH  19  22
ATOM     22  C   UNL A   1      32.465  19.080  23.889  1.00  0.00     0.003 C 
ATOM     23  C   UNL A   1      32.364  18.283  22.597  1.00  0.00     0.004 C 
ENDBRANCH  19  22
ENDBRANCH  18  19
ENDBRANCH  17  18
ENDBRANCH   7  17
BRANCH  16  24
ATOM     24  C   UNL A   1      31.173  27.122  26.484  1.00  0.00     0.429 C 
ATOM     25  F   UNL A   1      30.500  25.948  26.402  1.00  0.00    -0.167 F 
ATOM     26  F   UNL A   1      30.627  27.811  27.516  1.00  0.00    -0.167 F 
ATOM     27  F   UNL A   1      30.884  27.830  25.368  1.00  0.00    -0.167 F 
ENDBRANCH  16  24
ENDBRANCH   3   6
ENDBRANCH   1   2
BRANCH   1  28
ATOM     28  C   UNL A   1      31.780  32.138  26.817  1.00  0.00     0.042 C 
BRANCH  28  29
ATOM     29  C   UNL A   1      32.948  32.801  27.533  1.00  0.00     0.118 C 
BRANCH  29  30
ATOM     30  N   UNL A   1      32.701  34.216  27.797  1.00  0.00    -0.352 N 
ATOM     31  C   UNL A   1      33.171  35.021  28.808  1.00  0.00     0.251 C 
ATOM     32  H   UNL A   1      32.106  34.662  27.152  1.00  0.00     0.163 HD
ATOM     33  O   UNL A   1      32.670  36.129  28.988  1.00  0.00    -0.269 OA
BRANCH  31  34
ATOM     34  C   UNL A   1      34.259  34.542  29.684  1.00  0.00     0.039 A 
ATOM     35  C   UNL A   1      35.583  34.611  29.255  1.00  0.00     0.014 A 
ATOM     36  C   UNL A   1      33.953  34.000  30.935  1.00  0.00     0.014 A 
ATOM     37  C   UNL A   1      36.572  33.955  29.974  1.00  0.00     0.010 A 
ATOM     38  C   UNL A   1      34.972  33.442  31.714  1.00  0.00     0.010 A 
ATOM     39  C   UNL A   1      36.281  33.364  31.213  1.00  0.00    -0.014 A 
BRANCH  39  40
ATOM     40  C   UNL A   1      37.370  32.676  31.954  1.00  0.00     0.031 A 
ATOM     41  C   UNL A   1      38.129  31.536  31.332  1.00  0.00     0.074 A 
ATOM     42  C   UNL A   1      37.719  33.137  33.171  1.00  0.00     0.049 A 
ATOM     43  N   UNL A   1      39.131  30.850  31.823  1.00  0.00    -0.248 NA
ATOM     44  C   UNL A   1      37.710  31.101  29.991  1.00  0.00     0.031 C 
ATOM     45  C   UNL A   1      37.056  34.239  33.873  1.00  0.00     0.029 A 
ATOM     46  N   UNL A   1      38.733  32.769  34.016  1.00  0.00    -0.354 N 
ATOM     47  C   UNL A   1      39.436  29.885  30.871  1.00  0.00     0.074 A 
ATOM     48  C   UNL A   1      38.503  30.060  29.780  1.00  0.00     0.031 C 
ATOM     49  C   UNL A   1      37.724  34.506  35.003  1.00  0.00     0.029 A 
ATOM     50  C   UNL A   1      38.815  33.547  35.145  1.00  0.00     0.049 A 
ATOM     51  H   UNL A   1      39.345  32.019  33.831  1.00  0.00     0.167 HD
ATOM     52  C   UNL A   1      40.411  28.944  30.903  1.00  0.00     0.037 A 
ATOM     53  C   UNL A   1      39.663  33.493  36.189  1.00  0.00     0.037 A 
ATOM     54  C   UNL A   1      41.358  28.799  31.978  1.00  0.00     0.049 A 
ATOM     55  C   UNL A   1      40.729  32.441  36.207  1.00  0.00     0.074 A 
ATOM     56  C   UNL A   1      42.408  27.906  32.086  1.00  0.00     0.029 A 
ATOM     57  N   UNL A   1      41.370  29.569  33.133  1.00  0.00    -0.354 N 
ATOM     58  N   UNL A   1      41.004  31.537  35.297  1.00  0.00    -0.248 NA
ATOM     59  C   UNL A   1      41.586  32.385  37.397  1.00  0.00     0.031 C 
ATOM     60  C   UNL A   1      43.031  28.109  33.323  1.00  0.00     0.029 A 
ATOM     61  C   UNL A   1      42.393  29.155  33.970  1.00  0.00     0.049 A 
ATOM     62  H   UNL A   1      40.743  30.303  33.329  1.00  0.00     0.167 HD
ATOM     63  C   UNL A   1      42.062  30.796  35.806  1.00  0.00     0.074 A 
ATOM     64  C   UNL A   1      42.393  31.375  37.094  1.00  0.00     0.031 C 
ATOM     65  C   UNL A   1      42.693  29.729  35.260  1.00  0.00     0.037 A 
BRANCH  52  66
ATOM     66  C   UNL A   1      40.480  27.979  29.750  1.00  0.00     0.058 A 
ATOM     67  C   UNL A   1      41.450  28.096  28.741  1.00  0.00     0.135 A 
ATOM     68  C   UNL A   1      39.566  26.917  29.659  1.00  0.00     0.135 A 
ATOM     69  F   UNL A   1      42.339  29.101  28.770  1.00  0.00    -0.206 F 
ATOM     70  C   UNL A   1      41.486  27.216  27.663  1.00  0.00     0.059 A 
ATOM     71  C   UNL A   1      39.599  26.012  28.601  1.00  0.00     0.059 A 
ATOM     72  F   UNL A   1      38.619  26.758  30.597  1.00  0.00    -0.206 F 
ATOM     73  C   UNL A   1      40.551  26.182  27.598  1.00  0.00     0.060 A 
BRANCH  73  74
ATOM     74  S   UNL A   1      40.590  25.071  26.176  1.00  0.00     0.124 S 
ATOM     75  O   UNL A   1      39.194  24.652  26.098  1.00  0.00    -0.237 OA
ATOM     76  O   UNL A   1      41.048  25.949  25.104  1.00  0.00    -0.237 OA
ATOM     77  O   UNL A   1      41.535  24.034  26.579  1.00  0.00    -0.744 OA
ENDBRANCH  73  74
ENDBRANCH  52  66
BRANCH  53  78
ATOM     78  C   UNL A   1      39.512  34.481  37.287  1.00  0.00     0.058 A 
ATOM     79  C   UNL A   1      38.859  34.140  38.479  1.00  0.00     0.135 A 
ATOM     80  C   UNL A   1      40.121  35.745  37.209  1.00  0.00     0.135 A 
ATOM     81  F   UNL A   1      38.257  32.946  38.596  1.00  0.00    -0.206 F 
ATOM     82  C   UNL A   1      38.839  35.005  39.568  1.00  0.00     0.059 A 
ATOM     83  C   UNL A   1      40.133  36.617  38.291  1.00  0.00     0.059 A 
ATOM     84  F   UNL A   1      40.771  36.109  36.093  1.00  0.00    -0.206 F 
ATOM     85  C   UNL A   1      39.494  36.234  39.470  1.00  0.00     0.060 A 
BRANCH  85  86
ATOM     86  S   UNL A   1      39.579  37.289  40.934  1.00  0.00     0.124 S 
ATOM     87  O   UNL A   1      38.934  36.451  41.938  1.00  0.00    -0.237 OA
ATOM     88  O   UNL A   1      41.018  37.480  41.090  1.00  0.00    -0.237 OA
ATOM     89  O   UNL A   1      38.837  38.481  40.532  1.00  0.00    -0.744 OA
ENDBRANCH  85  86
ENDBRANCH  53  78
BRANCH  65  90
ATOM     90  C   UNL A   1      43.799  29.103  36.060  1.00  0.00     0.058 A 
ATOM     91  C   UNL A   1      45.088  29.658  36.077  1.00  0.00     0.135 A 
ATOM     92  C   UNL A   1      43.555  27.977  36.862  1.00  0.00     0.135 A 
ATOM     93  F   UNL A   1      45.372  30.729  35.321  1.00  0.00    -0.206 F 
ATOM     94  C   UNL A   1      46.103  29.109  36.853  1.00  0.00     0.059 A 
ATOM     95  C   UNL A   1      44.549  27.424  37.661  1.00  0.00     0.059 A 
ATOM     96  F   UNL A   1      42.336  27.415  36.885  1.00  0.00    -0.206 F 
ATOM     97  C   UNL A   1      45.823  27.993  37.645  1.00  0.00     0.060 A 
BRANCH  97  98
ATOM     98  S   UNL A   1      47.139  27.316  38.678  1.00  0.00     0.124 S 
ATOM     99  O   UNL A   1      46.379  26.540  39.652  1.00  0.00    -0.237 OA
ATOM    100  O   UNL A   1      47.921  26.541  37.720  1.00  0.00    -0.237 OA
ATOM    101  O   UNL A   1      47.803  28.505  39.204  1.00  0.00    -0.744 OA
ENDBRANCH  97  98
ENDBRANCH  65  90
ENDBRANCH  39  40
ENDBRANCH  31  34
ENDBRANCH  29  30
ENDBRANCH  28  29
ENDBRANCH   1  28
TORSDOF 19
ENDMDL
MODEL 2
REMARK VINA RESULT:     -11.3      0.987      8.145
REMARK SMILES CCC(CC)COc1cc2c(cc1Cl)C=C(C(=O)NCCCNC(=O)c1ccc(-c3c4nc(c(-c5c(F)cc(S(=O)(=O)[O-])cc5F)c5ccc([nH]5)c(-c5c(F)cc(S(=O)(=O)[O-])cc5F)c5nc(c(-c6c(F)cc(S(=O)(=O)[O-])cc6F)c6ccc3[nH]6)C=C5)C=C4)cc1)[C@@H](C(F)(F)F)O2
REMARK SMILES IDX 20 1 19 2 17 3 18 4 16 6 8 7 9 8 13 9 10 10 12 11 14 12
REMARK SMILES IDX 11 13 97 14 15 15 92 16 7 17 6 18 3 19 2 20 1 21 4 22 5 23
REMARK SMILES IDX 93 24 94 25 95 26 96 27 21 28 22 29 23 30 24 31 25 33 26 34
REMARK SMILES IDX 27 35 91 36 28 37 90 38 29 39 30 40 31 41 84 42 32 43 89 44
REMARK SMILES IDX 83 45 85 46 33 47 88 48 82 49 81 50 34 52 68 53 47 54 67 55
REMARK SMILES IDX 48 56 51 57 66 58 86 59 49 60 50 61 65 63 87 64 52 65 35 66
REMARK SMILES IDX 36 67 45 68 37 69 38 70 44 71 46 72 39 73 40 74 41 75 42 76
REMARK SMILES IDX 43 77 69 78 70 79 79 80 71 81 72 82 78 83 80 84 73 85 74 86
REMARK SMILES IDX 75 87 76 88 77 89 53 90 54 91 63 92 55 93 56 94 62 95 64 96
REMARK SMILES IDX 57 97 58 98 59 99 60 100 61 101
REMARK H PARENT 19 5 23 32 85 51 51 62
REMARK Flexibility Score: inf
ROOT
ATOM      1  C   UNL A   1      31.735  31.005  26.815  1.00  0.00     0.118 C 
ENDROOT
BRANCH   1   2
ATOM      2  N   UNL A   1      33.078  30.482  26.997  1.00  0.00    -0.352 N 
ATOM      3  C   UNL A   1      33.740  29.354  26.655  1.00  0.00     0.251 C 
ATOM      4  O   UNL A   1      34.937  29.327  26.954  1.00  0.00    -0.270 OA
ATOM      5  H   UNL A   1      33.652  31.107  27.496  1.00  0.00     0.163 HD
BRANCH   3   6
ATOM      6  C   UNL A   1      33.126  28.188  25.972  1.00  0.00     0.067 C 
ATOM      7  C   UNL A   1      32.337  23.543  24.299  1.00  0.00     0.141 A 
ATOM      8  C   UNL A   1      31.542  24.452  24.997  1.00  0.00     0.095 A 
ATOM      9  C   UNL A   1      33.598  23.929  23.819  1.00  0.00     0.083 A 
ATOM     10  C   UNL A   1      32.071  25.695  25.318  1.00  0.00     0.131 A 
ATOM     11  C   UNL A   1      34.157  25.140  24.229  1.00  0.00     0.036 A 
ATOM     12  Cl  UNL A   1      34.532  22.907  22.788  1.00  0.00    -0.080 Cl
ATOM     13  C   UNL A   1      33.404  26.007  25.015  1.00  0.00     0.019 A 
ATOM     14  O   UNL A   1      31.252  26.596  25.950  1.00  0.00    -0.475 OA
ATOM     15  C   UNL A   1      33.977  27.221  25.583  1.00  0.00     0.025 C 
ATOM     16  C   UNL A   1      31.654  27.987  25.743  1.00  0.00     0.314 C 
BRANCH   7  17
ATOM     17  O   UNL A   1      31.887  22.264  24.101  1.00  0.00    -0.492 OA
BRANCH  17  18
ATOM     18  C   UNL A   1      32.399  21.346  25.097  1.00  0.00     0.233 C 
BRANCH  18  19
ATOM     19  C   UNL A   1      32.500  19.901  24.546  1.00  0.00     0.026 C 
BRANCH  19  20
ATOM     20  C   UNL A   1      32.110  19.825  23.051  1.00  0.00     0.003 C 
ATOM     21  C   UNL A   1      32.408  18.465  22.434  1.00  0.00     0.004 C 
ENDBRANCH  19  20
BRANCH  19  22
ATOM     22  C   UNL A   1      33.892  19.287  24.808  1.00  0.00     0.003 C 
ATOM     23  C   UNL A   1      35.034  20.283  24.946  1.00  0.00     0.004 C 
ENDBRANCH  19  22
ENDBRANCH  18  19
ENDBRANCH  17  18
ENDBRANCH   7  17
BRANCH  16  24
ATOM     24  C   UNL A   1      31.217  28.488  24.343  1.00  0.00     0.429 C 
ATOM     25  F   UNL A   1      30.585  27.507  23.655  1.00  0.00    -0.167 F 
ATOM     26  F   UNL A   1      30.350  29.529  24.421  1.00  0.00    -0.167 F 
ATOM     27  F   UNL A   1      32.248  28.917  23.578  1.00  0.00    -0.167 F 
ENDBRANCH  16  24
ENDBRANCH   3   6
ENDBRANCH   1   2
BRANCH   1  28
ATOM     28  C   UNL A   1      31.725  32.523  26.757  1.00  0.00     0.042 C 
BRANCH  28  29
ATOM     29  C   UNL A   1      32.840  33.143  27.587  1.00  0.00     0.118 C 
BRANCH  29  30
ATOM     30  N   UNL A   1      32.559  34.533  27.935  1.00  0.00    -0.352 N 
ATOM     31  C   UNL A   1      33.063  35.308  28.954  1.00  0.00     0.251 C 
ATOM     32  H   UNL A   1      31.908  34.986  27.352  1.00  0.00     0.163 HD
ATOM     33  O   UNL A   1      32.534  36.385  29.220  1.00  0.00    -0.269 OA
BRANCH  31  34
ATOM     34  C   UNL A   1      34.221  34.831  29.736  1.00  0.00     0.039 A 
ATOM     35  C   UNL A   1      35.503  34.891  29.191  1.00  0.00     0.014 A 
ATOM     36  C   UNL A   1      34.024  34.301  31.014  1.00  0.00     0.014 A 
ATOM     37  C   UNL A   1      36.549  34.238  29.827  1.00  0.00     0.010 A 
ATOM     38  C   UNL A   1      35.105  33.745  31.705  1.00  0.00     0.010 A 
ATOM     39  C   UNL A   1      36.365  33.657  31.092  1.00  0.00    -0.014 A 
BRANCH  39  40
ATOM     40  C   UNL A   1      37.512  32.971  31.741  1.00  0.00     0.031 A 
ATOM     41  C   UNL A   1      37.973  33.367  33.118  1.00  0.00     0.074 A 
ATOM     42  C   UNL A   1      38.092  31.934  31.106  1.00  0.00     0.049 A 
ATOM     43  N   UNL A   1      38.931  32.849  33.844  1.00  0.00    -0.248 NA
ATOM     44  C   UNL A   1      37.278  34.492  33.762  1.00  0.00     0.031 C 
ATOM     45  C   UNL A   1      37.727  31.458  29.769  1.00  0.00     0.029 A 
ATOM     46  N   UNL A   1      39.079  31.072  31.506  1.00  0.00    -0.354 N 
ATOM     47  C   UNL A   1      38.977  33.604  35.010  1.00  0.00     0.074 A 
ATOM     48  C   UNL A   1      37.964  34.628  34.889  1.00  0.00     0.031 C 
ATOM     49  C   UNL A   1      38.424  30.349  29.492  1.00  0.00     0.029 A 
ATOM     50  C   UNL A   1      39.339  30.077  30.595  1.00  0.00     0.049 A 
ATOM     51  H   UNL A   1      39.555  31.156  32.365  1.00  0.00     0.167 HD
ATOM     52  C   UNL A   1      39.788  33.451  36.086  1.00  0.00     0.037 A 
ATOM     53  C   UNL A   1      40.225  29.063  30.630  1.00  0.00     0.037 A 
ATOM     54  C   UNL A   1      40.771  32.406  36.213  1.00  0.00     0.049 A 
ATOM     55  C   UNL A   1      41.115  28.917  31.827  1.00  0.00     0.074 A 
ATOM     56  C   UNL A   1      41.612  32.141  37.279  1.00  0.00     0.029 A 
ATOM     57  N   UNL A   1      41.046  31.455  35.241  1.00  0.00    -0.354 N 
ATOM     58  N   UNL A   1      41.144  29.639  32.921  1.00  0.00    -0.248 NA
ATOM     59  C   UNL A   1      42.105  27.834  31.788  1.00  0.00     0.031 C 
ATOM     60  C   UNL A   1      42.423  31.053  36.936  1.00  0.00     0.029 A 
ATOM     61  C   UNL A   1      42.061  30.616  35.672  1.00  0.00     0.049 A 
ATOM     62  H   UNL A   1      40.588  31.385  34.373  1.00  0.00     0.167 HD
ATOM     63  C   UNL A   1      42.161  29.106  33.700  1.00  0.00     0.074 A 
ATOM     64  C   UNL A   1      42.706  27.983  32.963  1.00  0.00     0.031 C 
ATOM     65  C   UNL A   1      42.607  29.516  34.913  1.00  0.00     0.037 A 
BRANCH  52  66
ATOM     66  C   UNL A   1      39.661  34.457  37.197  1.00  0.00     0.058 A 
ATOM     67  C   UNL A   1      40.182  35.756  37.087  1.00  0.00     0.135 A 
ATOM     68  C   UNL A   1      39.000  34.117  38.389  1.00  0.00     0.135 A 
ATOM     69  F   UNL A   1      40.837  36.130  35.976  1.00  0.00    -0.206 F 
ATOM     70  C   UNL A   1      40.087  36.669  38.133  1.00  0.00     0.059 A 
ATOM     71  C   UNL A   1      38.872  35.023  39.439  1.00  0.00     0.059 A 
ATOM     72  F   UNL A   1      38.481  32.889  38.547  1.00  0.00    -0.206 F 
ATOM     73  C   UNL A   1      39.436  36.290  39.308  1.00  0.00     0.060 A 
BRANCH  73  74
ATOM     74  S   UNL A   1      39.350  37.475  40.668  1.00  0.00     0.124 S 
ATOM     75  O   UNL A   1      40.749  37.872  40.795  1.00  0.00    -0.237 OA
ATOM     76  O   UNL A   1      38.448  38.492  40.140  1.00  0.00    -0.237 OA
ATOM     77  O   UNL A   1      38.820  36.685  41.775  1.00  0.00    -0.744 OA
ENDBRANCH  73  74
ENDBRANCH  52  66
BRANCH  53  78
ATOM     78  C   UNL A   1      40.286  28.124  29.482  1.00  0.00     0.058 A 
ATOM     79  C   UNL A   1      41.213  28.309  28.449  1.00  0.00     0.135 A 
ATOM     80  C   UNL A   1      39.498  26.961  29.459  1.00  0.00     0.135 A 
ATOM     81  F   UNL A   1      41.982  29.409  28.427  1.00  0.00    -0.206 F 
ATOM     82  C   UNL A   1      41.380  27.361  27.445  1.00  0.00     0.059 A 
ATOM     83  C   UNL A   1      39.662  25.988  28.479  1.00  0.00     0.059 A 
ATOM     84  F   UNL A   1      38.607  26.734  30.436  1.00  0.00    -0.206 F 
ATOM     85  C   UNL A   1      40.612  26.195  27.480  1.00  0.00     0.060 A 
BRANCH  85  86
ATOM     86  S   UNL A   1      40.933  24.909  26.251  1.00  0.00     0.124 S 
ATOM     87  O   UNL A   1      39.617  24.297  26.116  1.00  0.00    -0.237 OA
ATOM     88  O   UNL A   1      41.395  25.690  25.107  1.00  0.00    -0.237 OA
ATOM     89  O   UNL A   1      41.953  24.083  26.889  1.00  0.00    -0.744 OA
ENDBRANCH  85  86
ENDBRANCH  53  78
BRANCH  65  90
ATOM     90  C   UNL A   1      43.755  28.756  35.513  1.00  0.00     0.058 A 
ATOM     91  C   UNL A   1      43.537  27.654  36.353  1.00  0.00     0.135 A 
ATOM     92  C   UNL A   1      45.081  29.095  35.201  1.00  0.00     0.135 A 
ATOM     93  F   UNL A   1      42.288  27.296  36.688  1.00  0.00    -0.206 F 
ATOM     94  C   UNL A   1      44.596  26.919  36.874  1.00  0.00     0.059 A 
ATOM     95  C   UNL A   1      46.154  28.362  35.694  1.00  0.00     0.059 A 
ATOM     96  F   UNL A   1      45.340  30.138  34.396  1.00  0.00    -0.206 F 
ATOM     97  C   UNL A   1      45.902  27.279  36.536  1.00  0.00     0.060 A 
BRANCH  97  98
ATOM     98  S   UNL A   1      47.266  26.292  37.187  1.00  0.00     0.124 S 
ATOM     99  O   UNL A   1      48.087  27.313  37.830  1.00  0.00    -0.237 OA
ATOM    100  O   UNL A   1      46.582  25.369  38.087  1.00  0.00    -0.237 OA
ATOM    101  O   UNL A   1      47.843  25.682  35.993  1.00  0.00    -0.744 OA
ENDBRANCH  97  98
ENDBRANCH  65  90
ENDBRANCH  39  40
ENDBRANCH  31  34
ENDBRANCH  29  30
ENDBRANCH  28  29
ENDBRANCH   1  28
TORSDOF 19
ENDMDL
MODEL 3
REMARK VINA RESULT:     -10.8      2.734      8.740
REMARK SMILES CCC(CC)COc1cc2c(cc1Cl)C=C(C(=O)NCCCNC(=O)c1ccc(-c3c4nc(c(-c5c(F)cc(S(=O)(=O)[O-])cc5F)c5ccc([nH]5)c(-c5c(F)cc(S(=O)(=O)[O-])cc5F)c5nc(c(-c6c(F)cc(S(=O)(=O)[O-])cc6F)c6ccc3[nH]6)C=C5)C=C4)cc1)[C@@H](C(F)(F)F)O2
REMARK SMILES IDX 20 1 19 2 17 3 18 4 16 6 8 7 9 8 13 9 10 10 12 11 14 12
REMARK SMILES IDX 11 13 97 14 15 15 92 16 7 17 6 18 3 19 2 20 1 21 4 22 5 23
REMARK SMILES IDX 93 24 94 25 95 26 96 27 21 28 22 29 23 30 24 31 25 33 26 34
REMARK SMILES IDX 27 35 91 36 28 37 90 38 29 39 30 40 31 41 84 42 32 43 89 44
REMARK SMILES IDX 83 45 85 46 33 47 88 48 82 49 81 50 34 52 68 53 47 54 67 55
REMARK SMILES IDX 48 56 51 57 66 58 86 59 49 60 50 61 65 63 87 64 52 65 35 66
REMARK SMILES IDX 36 67 45 68 37 69 38 70 44 71 46 72 39 73 40 74 41 75 42 76
REMARK SMILES IDX 43 77 69 78 70 79 79 80 71 81 72 82 78 83 80 84 73 85 74 86
REMARK SMILES IDX 75 87 76 88 77 89 53 90 54 91 63 92 55 93 56 94 62 95 64 96
REMARK SMILES IDX 57 97 58 98 59 99 60 100 61 101
REMARK H PARENT 19 5 23 32 85 51 51 62
REMARK Flexibility Score: inf
ROOT
ATOM      1  C   UNL A   1      37.749  22.875  25.602  1.00  0.00     0.118 C 
ENDROOT
BRANCH   1   2
ATOM      2  N   UNL A   1      36.925  21.701  25.368  1.00  0.00    -0.352 N 
ATOM      3  C   UNL A   1      35.653  21.464  24.979  1.00  0.00     0.251 C 
ATOM      4  O   UNL A   1      35.352  20.276  24.834  1.00  0.00    -0.270 OA
ATOM      5  H   UNL A   1      37.419  20.866  25.536  1.00  0.00     0.163 HD
BRANCH   3   6
ATOM      6  C   UNL A   1      34.634  22.516  24.735  1.00  0.00     0.067 C 
ATOM      7  C   UNL A   1      31.994  26.145  22.530  1.00  0.00     0.141 A 
ATOM      8  C   UNL A   1      31.636  24.943  23.142  1.00  0.00     0.095 A 
ATOM      9  C   UNL A   1      33.325  26.589  22.569  1.00  0.00     0.083 A 
ATOM     10  C   UNL A   1      32.636  24.139  23.673  1.00  0.00     0.131 A 
ATOM     11  C   UNL A   1      34.331  25.733  23.016  1.00  0.00     0.036 A 
ATOM     12  Cl  UNL A   1      33.779  28.153  21.999  1.00  0.00    -0.080 Cl
ATOM     13  C   UNL A   1      33.986  24.487  23.532  1.00  0.00     0.019 A 
ATOM     14  O   UNL A   1      32.257  22.992  24.324  1.00  0.00    -0.475 OA
ATOM     15  C   UNL A   1      34.997  23.499  23.891  1.00  0.00     0.025 C 
ATOM     16  C   UNL A   1      33.241  22.530  25.302  1.00  0.00     0.314 C 
BRANCH   7  17
ATOM     17  O   UNL A   1      31.041  26.879  21.874  1.00  0.00    -0.492 OA
BRANCH  17  18
ATOM     18  C   UNL A   1      30.072  27.452  22.786  1.00  0.00     0.233 C 
BRANCH  18  19
ATOM     19  C   UNL A   1      30.239  28.989  22.907  1.00  0.00     0.026 C 
BRANCH  19  20
ATOM     20  C   UNL A   1      28.874  29.714  22.972  1.00  0.00     0.003 C 
ATOM     21  C   UNL A   1      27.696  28.749  23.002  1.00  0.00     0.004 C 
ENDBRANCH  19  20
BRANCH  19  22
ATOM     22  C   UNL A   1      31.149  29.371  24.095  1.00  0.00     0.003 C 
ATOM     23  C   UNL A   1      31.199  28.364  25.234  1.00  0.00     0.004 C 
ENDBRANCH  19  22
ENDBRANCH  18  19
ENDBRANCH  17  18
ENDBRANCH   7  17
BRANCH  16  24
ATOM     24  C   UNL A   1      33.162  23.363  26.606  1.00  0.00     0.429 C 
ATOM     25  F   UNL A   1      33.284  22.566  27.695  1.00  0.00    -0.167 F 
ATOM     26  F   UNL A   1      34.155  24.284  26.686  1.00  0.00    -0.167 F 
ATOM     27  F   UNL A   1      32.004  24.051  26.738  1.00  0.00    -0.167 F 
ENDBRANCH  16  24
ENDBRANCH   3   6
ENDBRANCH   1   2
BRANCH   1  28
ATOM     28  C   UNL A   1      39.057  22.516  26.286  1.00  0.00     0.042 C 
BRANCH  28  29
ATOM     29  C   UNL A   1      39.786  23.739  26.825  1.00  0.00     0.118 C 
BRANCH  29  30
ATOM     30  N   UNL A   1      40.856  24.179  25.933  1.00  0.00    -0.352 N 
ATOM     31  C   UNL A   1      41.641  25.307  25.985  1.00  0.00     0.251 C 
ATOM     32  H   UNL A   1      41.044  23.576  25.179  1.00  0.00     0.163 HD
ATOM     33  O   UNL A   1      42.333  25.613  25.016  1.00  0.00    -0.269 OA
BRANCH  31  34
ATOM     34  C   UNL A   1      41.629  26.155  27.193  1.00  0.00     0.039 A 
ATOM     35  C   UNL A   1      41.455  25.578  28.450  1.00  0.00     0.014 A 
ATOM     36  C   UNL A   1      41.774  27.540  27.070  1.00  0.00     0.014 A 
ATOM     37  C   UNL A   1      41.215  26.389  29.550  1.00  0.00     0.010 A 
ATOM     38  C   UNL A   1      41.647  28.351  28.202  1.00  0.00     0.010 A 
ATOM     39  C   UNL A   1      41.310  27.786  29.442  1.00  0.00    -0.014 A 
BRANCH  39  40
ATOM     40  C   UNL A   1      41.050  28.618  30.645  1.00  0.00     0.031 A 
ATOM     41  C   UNL A   1      41.948  28.539  31.850  1.00  0.00     0.074 A 
ATOM     42  C   UNL A   1      40.036  29.505  30.615  1.00  0.00     0.049 A 
ATOM     43  N   UNL A   1      41.888  29.220  32.966  1.00  0.00    -0.248 NA
ATOM     44  C   UNL A   1      43.051  27.567  31.803  1.00  0.00     0.031 C 
ATOM     45  C   UNL A   1      39.101  29.673  29.499  1.00  0.00     0.029 A 
ATOM     46  N   UNL A   1      39.642  30.452  31.522  1.00  0.00    -0.354 N 
ATOM     47  C   UNL A   1      42.918  28.736  33.765  1.00  0.00     0.074 A 
ATOM     48  C   UNL A   1      43.577  27.691  33.014  1.00  0.00     0.031 C 
ATOM     49  C   UNL A   1      38.293  30.709  29.755  1.00  0.00     0.029 A 
ATOM     50  C   UNL A   1      38.599  31.231  31.083  1.00  0.00     0.049 A 
ATOM     51  H   UNL A   1      40.066  30.565  32.405  1.00  0.00     0.167 HD
ATOM     52  C   UNL A   1      43.282  29.134  35.008  1.00  0.00     0.037 A 
ATOM     53  C   UNL A   1      37.947  32.246  31.682  1.00  0.00     0.037 A 
ATOM     54  C   UNL A   1      42.642  30.201  35.734  1.00  0.00     0.049 A 
ATOM     55  C   UNL A   1      38.362  32.665  33.059  1.00  0.00     0.074 A 
ATOM     56  C   UNL A   1      42.963  30.707  36.980  1.00  0.00     0.029 A 
ATOM     57  N   UNL A   1      41.549  30.925  35.278  1.00  0.00    -0.354 N 
ATOM     58  N   UNL A   1      39.339  32.197  33.799  1.00  0.00    -0.248 NA
ATOM     59  C   UNL A   1      37.579  33.732  33.692  1.00  0.00     0.031 C 
ATOM     60  C   UNL A   1      42.040  31.711  37.296  1.00  0.00     0.029 A 
ATOM     61  C   UNL A   1      41.167  31.857  36.229  1.00  0.00     0.049 A 
ATOM     62  H   UNL A   1      41.109  30.796  34.407  1.00  0.00     0.167 HD
ATOM     63  C   UNL A   1      39.285  32.906  34.991  1.00  0.00     0.074 A 
ATOM     64  C   UNL A   1      38.195  33.853  34.862  1.00  0.00     0.031 C 
ATOM     65  C   UNL A   1      40.063  32.777  36.093  1.00  0.00     0.037 A 
BRANCH  52  66
ATOM     66  C   UNL A   1      44.410  28.390  35.670  1.00  0.00     0.058 A 
ATOM     67  C   UNL A   1      44.183  27.274  36.491  1.00  0.00     0.135 A 
ATOM     68  C   UNL A   1      45.739  28.797  35.474  1.00  0.00     0.135 A 
ATOM     69  F   UNL A   1      42.930  26.851  36.726  1.00  0.00    -0.206 F 
ATOM     70  C   UNL A   1      45.230  26.612  37.124  1.00  0.00     0.059 A 
ATOM     71  C   UNL A   1      46.805  28.135  36.078  1.00  0.00     0.059 A 
ATOM     72  F   UNL A   1      46.014  29.857  34.697  1.00  0.00    -0.206 F 
ATOM     73  C   UNL A   1      46.537  27.055  36.917  1.00  0.00     0.060 A 
BRANCH  73  74
ATOM     74  S   UNL A   1      47.882  26.206  37.772  1.00  0.00     0.124 S 
ATOM     75  O   UNL A   1      48.981  26.380  36.827  1.00  0.00    -0.237 OA
ATOM     76  O   UNL A   1      47.990  26.963  39.015  1.00  0.00    -0.237 OA
ATOM     77  O   UNL A   1      47.387  24.840  37.914  1.00  0.00    -0.744 OA
ENDBRANCH  73  74
ENDBRANCH  52  66
BRANCH  53  78
ATOM     78  C   UNL A   1      36.839  32.915  30.954  1.00  0.00     0.058 A 
ATOM     79  C   UNL A   1      37.102  33.854  29.949  1.00  0.00     0.135 A 
ATOM     80  C   UNL A   1      35.503  32.538  31.171  1.00  0.00     0.135 A 
ATOM     81  F   UNL A   1      38.363  34.248  29.711  1.00  0.00    -0.206 F 
ATOM     82  C   UNL A   1      36.082  34.378  29.162  1.00  0.00     0.059 A 
ATOM     83  C   UNL A   1      34.470  33.031  30.383  1.00  0.00     0.059 A 
ATOM     84  F   UNL A   1      35.206  31.631  32.113  1.00  0.00    -0.206 F 
ATOM     85  C   UNL A   1      34.771  33.946  29.375  1.00  0.00     0.060 A 
BRANCH  85  86
ATOM     86  S   UNL A   1      33.475  34.528  28.258  1.00  0.00     0.124 S 
ATOM     87  O   UNL A   1      32.988  33.275  27.695  1.00  0.00    -0.237 OA
ATOM     88  O   UNL A   1      32.567  35.211  29.175  1.00  0.00    -0.237 OA
ATOM     89  O   UNL A   1      34.194  35.401  27.335  1.00  0.00    -0.744 OA
ENDBRANCH  85  86
ENDBRANCH  53  78
BRANCH  65  90
ATOM     90  C   UNL A   1      39.753  33.671  37.259  1.00  0.00     0.058 A 
ATOM     91  C   UNL A   1      38.863  33.269  38.267  1.00  0.00     0.135 A 
ATOM     92  C   UNL A   1      40.393  34.913  37.401  1.00  0.00     0.135 A 
ATOM     93  F   UNL A   1      38.220  32.095  38.172  1.00  0.00    -0.206 F 
ATOM     94  C   UNL A   1      38.608  34.073  39.371  1.00  0.00     0.059 A 
ATOM     95  C   UNL A   1      40.168  35.724  38.507  1.00  0.00     0.059 A 
ATOM     96  F   UNL A   1      41.258  35.338  36.466  1.00  0.00    -0.206 F 
ATOM     97  C   UNL A   1      39.269  35.299  39.485  1.00  0.00     0.060 A 
BRANCH  97  98
ATOM     98  S   UNL A   1      38.959  36.315  40.944  1.00  0.00     0.124 S 
ATOM     99  O   UNL A   1      37.875  35.581  41.589  1.00  0.00    -0.237 OA
ATOM    100  O   UNL A   1      40.246  36.278  41.630  1.00  0.00    -0.237 OA
ATOM    101  O   UNL A   1      38.591  37.612  40.383  1.00  0.00    -0.744 OA
ENDBRANCH  97  98
ENDBRANCH  65  90
ENDBRANCH  39  40
ENDBRANCH  31  34
ENDBRANCH  29  30
ENDBRANCH  28  29
ENDBRANCH   1  28
TORSDOF 19
ENDMDL
