MODEL 1
REMARK VINA RESULT:     -11.6      0.000      0.000
REMARK SMILES C[N@@H+]1CCC[C@@H](NC(=O)N(CC(=O)NCCCNC(=O)c2ccc(-c3c4nc(c(-c5c(F)cc(S(=O)(=O)[O-])cc5F)c5ccc([nH]5)c(-c5c(F)cc(S(=O)(=O)[O-])cc5F)c5nc(c(-c6c(F)cc(S(=O)(=O)[O-])cc6F)c6ccc3[nH]6)C=C5)C=C4)cc2)C(C)(C)C)C1
REMARK SMILES IDX 16 1 15 2 14 3 12 4 13 5 11 7 10 8 8 9 7 10 9 12 6 13 1 14
REMARK SMILES IDX 2 15 3 16 91 17 4 19 5 20 87 21 88 22 89 23 90 24 17 25
REMARK SMILES IDX 18 26 19 27 20 29 21 30 22 31 86 32 23 33 85 34 24 35 25 36
REMARK SMILES IDX 26 37 79 38 27 39 84 40 78 41 80 42 28 43 83 44 77 45 76 46
REMARK SMILES IDX 29 48 63 49 42 50 62 51 43 52 46 53 61 54 81 55 44 56 45 57
REMARK SMILES IDX 60 59 82 60 47 61 30 62 31 63 40 64 32 65 33 66 39 67 41 68
REMARK SMILES IDX 34 69 35 70 36 71 37 72 38 73 64 74 65 75 74 76 66 77 67 78
REMARK SMILES IDX 73 79 75 80 68 81 69 82 70 83 71 84 72 85 48 86 49 87 58 88
REMARK SMILES IDX 50 89 51 90 57 91 59 92 52 93 53 94 54 95 55 96 56 97
REMARK H PARENT 14 6 7 11 2 18 18 28 80 47 46 58
REMARK Flexibility Score: inf
ROOT
ATOM      1  C   UNL A   1      40.783  22.120  27.580  1.00  0.00     0.042 C 
ENDROOT
BRANCH   1   2
ATOM      2  C   UNL A   1      39.579  22.619  26.808  1.00  0.00     0.117 C 
BRANCH   2   3
ATOM      3  N   UNL A   1      38.868  21.640  26.023  1.00  0.00    -0.354 N 
ATOM      4  C   UNL A   1      37.633  21.734  25.452  1.00  0.00     0.239 C 
ATOM      5  O   UNL A   1      37.432  21.030  24.455  1.00  0.00    -0.273 OA
ATOM      6  H   UNL A   1      39.338  20.786  25.879  1.00  0.00     0.163 HD
BRANCH   4   7
ATOM      7  C   UNL A   1      36.555  22.749  25.895  1.00  0.00     0.221 C 
BRANCH   7   8
ATOM      8  N   UNL A   1      35.143  22.395  25.733  1.00  0.00    -0.311 N 
BRANCH   8   9
ATOM      9  C   UNL A   1      34.494  21.374  26.401  1.00  0.00     0.318 C 
ATOM     10  N   UNL A   1      34.100  20.201  25.859  1.00  0.00    -0.330 N 
ATOM     11  H   UNL A   1      33.688  19.646  26.560  1.00  0.00     0.165 HD
ATOM     12  O   UNL A   1      34.197  21.470  27.596  1.00  0.00    -0.249 OA
BRANCH  10  13
ATOM     13  C   UNL A   1      34.074  19.462  24.580  1.00  0.00     0.139 C 
ATOM     14  C   UNL A   1      35.410  15.975  25.370  1.00  0.00     0.332 C 
ATOM     15  N   UNL A   1      34.460  17.087  25.356  1.00  0.00    -0.336 N 
ATOM     16  C   UNL A   1      33.195  16.657  24.749  1.00  0.00     0.262 C 
ATOM     17  C   UNL A   1      35.027  18.243  24.633  1.00  0.00     0.287 C 
ATOM     18  H   UNL A   1      34.274  17.379  26.315  1.00  0.00     0.347 HD
ATOM     19  C   UNL A   1      32.163  17.768  24.862  1.00  0.00     0.064 C 
ATOM     20  C   UNL A   1      32.645  19.036  24.179  1.00  0.00     0.037 C 
ENDBRANCH  10  13
ENDBRANCH   8   9
BRANCH   8  21
ATOM     21  C   UNL A   1      34.331  23.284  24.778  1.00  0.00     0.037 C 
ATOM     22  C   UNL A   1      34.600  24.783  25.022  1.00  0.00     0.034 C 
ATOM     23  C   UNL A   1      34.640  22.939  23.301  1.00  0.00     0.034 C 
ATOM     24  C   UNL A   1      32.785  23.132  24.911  1.00  0.00     0.034 C 
ENDBRANCH   8  21
ENDBRANCH   7   8
ENDBRANCH   4   7
ENDBRANCH   2   3
ENDBRANCH   1   2
BRANCH   1  25
ATOM     25  C   UNL A   1      41.897  23.142  27.702  1.00  0.00     0.118 C 
BRANCH  25  26
ATOM     26  N   UNL A   1      42.118  23.858  26.454  1.00  0.00    -0.352 N 
ATOM     27  C   UNL A   1      41.902  25.183  26.162  1.00  0.00     0.251 C 
ATOM     28  H   UNL A   1      42.474  23.315  25.713  1.00  0.00     0.163 HD
ATOM     29  O   UNL A   1      41.933  25.557  24.994  1.00  0.00    -0.269 OA
BRANCH  27  30
ATOM     30  C   UNL A   1      41.619  26.146  27.250  1.00  0.00     0.039 A 
ATOM     31  C   UNL A   1      40.502  25.943  28.063  1.00  0.00     0.014 A 
ATOM     32  C   UNL A   1      42.447  27.252  27.465  1.00  0.00     0.014 A 
ATOM     33  C   UNL A   1      40.250  26.816  29.124  1.00  0.00     0.010 A 
ATOM     34  C   UNL A   1      42.251  28.061  28.579  1.00  0.00     0.010 A 
ATOM     35  C   UNL A   1      41.142  27.863  29.413  1.00  0.00    -0.014 A 
BRANCH  35  36
ATOM     36  C   UNL A   1      40.923  28.770  30.570  1.00  0.00     0.031 A 
ATOM     37  C   UNL A   1      41.746  28.608  31.821  1.00  0.00     0.074 A 
ATOM     38  C   UNL A   1      39.947  29.698  30.516  1.00  0.00     0.049 A 
ATOM     39  N   UNL A   1      41.666  29.259  32.953  1.00  0.00    -0.248 NA
ATOM     40  C   UNL A   1      42.775  27.554  31.810  1.00  0.00     0.031 C 
ATOM     41  C   UNL A   1      39.047  29.915  29.380  1.00  0.00     0.029 A 
ATOM     42  N   UNL A   1      39.542  30.628  31.439  1.00  0.00    -0.354 N 
ATOM     43  C   UNL A   1      42.620  28.689  33.787  1.00  0.00     0.074 A 
ATOM     44  C   UNL A   1      43.224  27.598  33.056  1.00  0.00     0.031 C 
ATOM     45  C   UNL A   1      38.218  30.931  29.663  1.00  0.00     0.029 A 
ATOM     46  C   UNL A   1      38.494  31.411  31.013  1.00  0.00     0.049 A 
ATOM     47  H   UNL A   1      39.961  30.726  32.325  1.00  0.00     0.167 HD
ATOM     48  C   UNL A   1      42.980  29.058  35.040  1.00  0.00     0.037 A 
ATOM     49  C   UNL A   1      37.828  32.399  31.641  1.00  0.00     0.037 A 
ATOM     50  C   UNL A   1      42.390  30.161  35.752  1.00  0.00     0.049 A 
ATOM     51  C   UNL A   1      38.244  32.788  33.035  1.00  0.00     0.074 A 
ATOM     52  C   UNL A   1      42.722  30.654  37.001  1.00  0.00     0.029 A 
ATOM     53  N   UNL A   1      41.346  30.943  35.279  1.00  0.00    -0.354 N 
ATOM     54  N   UNL A   1      39.195  32.283  33.784  1.00  0.00    -0.248 NA
ATOM     55  C   UNL A   1      37.502  33.888  33.667  1.00  0.00     0.031 C 
ATOM     56  C   UNL A   1      41.845  31.700  37.307  1.00  0.00     0.029 A 
ATOM     57  C   UNL A   1      41.005  31.899  36.222  1.00  0.00     0.049 A 
ATOM     58  H   UNL A   1      40.909  30.834  34.403  1.00  0.00     0.167 HD
ATOM     59  C   UNL A   1      39.185  33.023  34.962  1.00  0.00     0.074 A 
ATOM     60  C   UNL A   1      38.144  34.018  34.820  1.00  0.00     0.031 C 
ATOM     61  C   UNL A   1      39.969  32.889  36.061  1.00  0.00     0.037 A 
BRANCH  48  62
ATOM     62  C   UNL A   1      44.066  28.267  35.719  1.00  0.00     0.058 A 
ATOM     63  C   UNL A   1      45.424  28.590  35.561  1.00  0.00     0.135 A 
ATOM     64  C   UNL A   1      43.745  27.195  36.569  1.00  0.00     0.135 A 
ATOM     65  F   UNL A   1      45.791  29.594  34.748  1.00  0.00    -0.206 F 
ATOM     66  C   UNL A   1      46.425  27.863  36.198  1.00  0.00     0.059 A 
ATOM     67  C   UNL A   1      44.729  26.474  37.240  1.00  0.00     0.059 A 
ATOM     68  F   UNL A   1      42.464  26.841  36.756  1.00  0.00    -0.206 F 
ATOM     69  C   UNL A   1      46.067  26.807  37.037  1.00  0.00     0.060 A 
BRANCH  69  70
ATOM     70  S   UNL A   1      47.379  25.882  37.863  1.00  0.00     0.124 S 
ATOM     71  O   UNL A   1      47.621  24.806  36.908  1.00  0.00    -0.237 OA
ATOM     72  O   UNL A   1      48.439  26.880  37.977  1.00  0.00    -0.237 OA
ATOM     73  O   UNL A   1      46.768  25.476  39.124  1.00  0.00    -0.744 OA
ENDBRANCH  69  70
ENDBRANCH  48  62
BRANCH  49  74
ATOM     74  C   UNL A   1      36.713  33.103  30.951  1.00  0.00     0.058 A 
ATOM     75  C   UNL A   1      36.969  34.054  29.952  1.00  0.00     0.135 A 
ATOM     76  C   UNL A   1      35.373  32.836  31.269  1.00  0.00     0.135 A 
ATOM     77  F   UNL A   1      38.234  34.350  29.615  1.00  0.00    -0.206 F 
ATOM     78  C   UNL A   1      35.938  34.731  29.308  1.00  0.00     0.059 A 
ATOM     79  C   UNL A   1      34.324  33.478  30.618  1.00  0.00     0.059 A 
ATOM     80  F   UNL A   1      35.072  31.922  32.205  1.00  0.00    -0.206 F 
ATOM     81  C   UNL A   1      34.617  34.434  29.648  1.00  0.00     0.060 A 
BRANCH  81  82
ATOM     82  S   UNL A   1      33.288  35.293  28.778  1.00  0.00     0.124 S 
ATOM     83  O   UNL A   1      32.528  35.860  29.887  1.00  0.00    -0.237 OA
ATOM     84  O   UNL A   1      34.026  36.247  27.956  1.00  0.00    -0.237 OA
ATOM     85  O   UNL A   1      32.623  34.223  28.040  1.00  0.00    -0.744 OA
ENDBRANCH  81  82
ENDBRANCH  49  74
BRANCH  61  86
ATOM     86  C   UNL A   1      39.758  33.867  37.185  1.00  0.00     0.058 A 
ATOM     87  C   UNL A   1      40.331  35.148  37.170  1.00  0.00     0.135 A 
ATOM     88  C   UNL A   1      38.930  33.532  38.270  1.00  0.00     0.135 A 
ATOM     89  F   UNL A   1      41.135  35.517  36.161  1.00  0.00    -0.206 F 
ATOM     90  C   UNL A   1      40.112  36.053  38.203  1.00  0.00     0.059 A 
ATOM     91  C   UNL A   1      38.673  34.433  39.298  1.00  0.00     0.059 A 
ATOM     92  F   UNL A   1      38.348  32.324  38.329  1.00  0.00    -0.206 F 
ATOM     93  C   UNL A   1      39.279  35.687  39.262  1.00  0.00     0.060 A 
BRANCH  93  94
ATOM     94  S   UNL A   1      38.979  36.883  40.581  1.00  0.00     0.124 S 
ATOM     95  O   UNL A   1      40.339  37.193  41.012  1.00  0.00    -0.237 OA
ATOM     96  O   UNL A   1      38.278  37.953  39.878  1.00  0.00    -0.237 OA
ATOM     97  O   UNL A   1      38.172  36.136  41.541  1.00  0.00    -0.744 OA
ENDBRANCH  93  94
ENDBRANCH  61  86
ENDBRANCH  35  36
ENDBRANCH  27  30
ENDBRANCH  25  26
ENDBRANCH   1  25
TORSDOF 17
ENDMDL
MODEL 2
REMARK VINA RESULT:     -11.4      3.987      9.856
REMARK SMILES C[N@@H+]1CCC[C@@H](NC(=O)N(CC(=O)NCCCNC(=O)c2ccc(-c3c4nc(c(-c5c(F)cc(S(=O)(=O)[O-])cc5F)c5ccc([nH]5)c(-c5c(F)cc(S(=O)(=O)[O-])cc5F)c5nc(c(-c6c(F)cc(S(=O)(=O)[O-])cc6F)c6ccc3[nH]6)C=C5)C=C4)cc2)C(C)(C)C)C1
REMARK SMILES IDX 16 1 15 2 14 3 12 4 13 5 11 7 10 8 8 9 7 10 9 12 6 13 1 14
REMARK SMILES IDX 2 15 3 16 91 17 4 19 5 20 87 21 88 22 89 23 90 24 17 25
REMARK SMILES IDX 18 26 19 27 20 29 21 30 22 31 86 32 23 33 85 34 24 35 25 36
REMARK SMILES IDX 26 37 79 38 27 39 84 40 78 41 80 42 28 43 83 44 77 45 76 46
REMARK SMILES IDX 29 48 63 49 42 50 62 51 43 52 46 53 61 54 81 55 44 56 45 57
REMARK SMILES IDX 60 59 82 60 47 61 30 62 31 63 40 64 32 65 33 66 39 67 41 68
REMARK SMILES IDX 34 69 35 70 36 71 37 72 38 73 64 74 65 75 74 76 66 77 67 78
REMARK SMILES IDX 73 79 75 80 68 81 69 82 70 83 71 84 72 85 48 86 49 87 58 88
REMARK SMILES IDX 50 89 51 90 57 91 59 92 52 93 53 94 54 95 55 96 56 97
REMARK H PARENT 14 6 7 11 2 18 18 28 80 47 46 58
REMARK Flexibility Score: inf
ROOT
ATOM      1  C   UNL A   1      31.693  32.381  26.723  1.00  0.00     0.042 C 
ENDROOT
BRANCH   1   2
ATOM      2  C   UNL A   1      31.607  30.870  26.645  1.00  0.00     0.117 C 
BRANCH   2   3
ATOM      3  N   UNL A   1      32.858  30.152  26.688  1.00  0.00    -0.354 N 
ATOM      4  C   UNL A   1      33.167  28.942  26.140  1.00  0.00     0.239 C 
ATOM      5  O   UNL A   1      34.359  28.751  25.867  1.00  0.00    -0.273 OA
ATOM      6  H   UNL A   1      33.587  30.596  27.179  1.00  0.00     0.163 HD
BRANCH   4   7
ATOM      7  C   UNL A   1      32.116  27.887  25.730  1.00  0.00     0.221 C 
BRANCH   7   8
ATOM      8  N   UNL A   1      31.708  27.806  24.326  1.00  0.00    -0.311 N 
BRANCH   8   9
ATOM      9  C   UNL A   1      31.787  28.837  23.410  1.00  0.00     0.318 C 
ATOM     10  N   UNL A   1      30.790  29.693  23.096  1.00  0.00    -0.330 N 
ATOM     11  H   UNL A   1      31.121  30.345  22.437  1.00  0.00     0.165 HD
ATOM     12  O   UNL A   1      32.819  29.054  22.768  1.00  0.00    -0.249 OA
BRANCH  10  13
ATOM     13  C   UNL A   1      29.375  29.990  23.399  1.00  0.00     0.139 C 
ATOM     14  C   UNL A   1      29.046  33.788  23.201  1.00  0.00     0.332 C 
ATOM     15  N   UNL A   1      29.205  32.417  22.714  1.00  0.00    -0.336 N 
ATOM     16  C   UNL A   1      28.137  32.099  21.759  1.00  0.00     0.262 C 
ATOM     17  C   UNL A   1      29.207  31.464  23.841  1.00  0.00     0.287 C 
ATOM     18  H   UNL A   1      30.101  32.336  22.235  1.00  0.00     0.347 HD
ATOM     19  C   UNL A   1      28.383  30.729  21.147  1.00  0.00     0.064 C 
ATOM     20  C   UNL A   1      28.440  29.653  22.218  1.00  0.00     0.037 C 
ENDBRANCH  10  13
ENDBRANCH   8   9
BRANCH   8  21
ATOM     21  C   UNL A   1      31.208  26.433  23.849  1.00  0.00     0.037 C 
ATOM     22  C   UNL A   1      29.675  26.308  23.967  1.00  0.00     0.034 C 
ATOM     23  C   UNL A   1      31.636  26.165  22.386  1.00  0.00     0.034 C 
ATOM     24  C   UNL A   1      31.768  25.224  24.659  1.00  0.00     0.034 C 
ENDBRANCH   8  21
ENDBRANCH   7   8
ENDBRANCH   4   7
ENDBRANCH   2   3
ENDBRANCH   1   2
BRANCH   1  25
ATOM     25  C   UNL A   1      32.879  32.884  27.523  1.00  0.00     0.118 C 
BRANCH  25  26
ATOM     26  N   UNL A   1      32.777  34.308  27.809  1.00  0.00    -0.352 N 
ATOM     27  C   UNL A   1      33.405  35.046  28.783  1.00  0.00     0.251 C 
ATOM     28  H   UNL A   1      32.172  34.815  27.220  1.00  0.00     0.163 HD
ATOM     29  O   UNL A   1      33.025  36.189  29.015  1.00  0.00    -0.269 OA
BRANCH  27  30
ATOM     30  C   UNL A   1      34.522  34.457  29.556  1.00  0.00     0.039 A 
ATOM     31  C   UNL A   1      34.241  33.765  30.736  1.00  0.00     0.014 A 
ATOM     32  C   UNL A   1      35.845  34.593  29.125  1.00  0.00     0.014 A 
ATOM     33  C   UNL A   1      35.280  33.161  31.449  1.00  0.00     0.010 A 
ATOM     34  C   UNL A   1      36.864  33.911  29.781  1.00  0.00     0.010 A 
ATOM     35  C   UNL A   1      36.597  33.199  30.959  1.00  0.00    -0.014 A 
BRANCH  35  36
ATOM     36  C   UNL A   1      37.708  32.518  31.672  1.00  0.00     0.031 A 
ATOM     37  C   UNL A   1      38.188  33.045  32.999  1.00  0.00     0.074 A 
ATOM     38  C   UNL A   1      38.322  31.464  31.100  1.00  0.00     0.049 A 
ATOM     39  N   UNL A   1      39.179  32.627  33.745  1.00  0.00    -0.248 NA
ATOM     40  C   UNL A   1      37.482  34.217  33.546  1.00  0.00     0.031 C 
ATOM     41  C   UNL A   1      37.983  30.894  29.792  1.00  0.00     0.029 A 
ATOM     42  N   UNL A   1      39.364  30.686  31.537  1.00  0.00    -0.354 N 
ATOM     43  C   UNL A   1      39.221  33.487  34.836  1.00  0.00     0.074 A 
ATOM     44  C   UNL A   1      38.200  34.488  34.627  1.00  0.00     0.031 C 
ATOM     45  C   UNL A   1      38.782  29.843  29.549  1.00  0.00     0.029 A 
ATOM     46  C   UNL A   1      39.716  29.687  30.659  1.00  0.00     0.049 A 
ATOM     47  H   UNL A   1      39.818  30.829  32.400  1.00  0.00     0.167 HD
ATOM     48  C   UNL A   1      40.021  33.431  35.928  1.00  0.00     0.037 A 
ATOM     49  C   UNL A   1      40.687  28.756  30.736  1.00  0.00     0.037 A 
ATOM     50  C   UNL A   1      41.019  32.416  36.141  1.00  0.00     0.049 A 
ATOM     51  C   UNL A   1      41.565  28.717  31.959  1.00  0.00     0.074 A 
ATOM     52  C   UNL A   1      41.841  32.236  37.239  1.00  0.00     0.029 A 
ATOM     53  N   UNL A   1      41.333  31.410  35.238  1.00  0.00    -0.354 N 
ATOM     54  N   UNL A   1      41.546  29.496  33.014  1.00  0.00    -0.248 NA
ATOM     55  C   UNL A   1      42.592  27.667  32.006  1.00  0.00     0.031 C 
ATOM     56  C   UNL A   1      42.688  31.153  36.979  1.00  0.00     0.029 A 
ATOM     57  C   UNL A   1      42.353  30.621  35.744  1.00  0.00     0.049 A 
ATOM     58  H   UNL A   1      40.895  31.278  34.366  1.00  0.00     0.167 HD
ATOM     59  C   UNL A   1      42.536  29.012  33.863  1.00  0.00     0.074 A 
ATOM     60  C   UNL A   1      43.125  27.866  33.204  1.00  0.00     0.031 C 
ATOM     61  C   UNL A   1      42.922  29.476  35.077  1.00  0.00     0.037 A 
BRANCH  48  62
ATOM     62  C   UNL A   1      39.845  34.494  36.980  1.00  0.00     0.058 A 
ATOM     63  C   UNL A   1      40.531  35.718  36.915  1.00  0.00     0.135 A 
ATOM     64  C   UNL A   1      38.952  34.302  38.048  1.00  0.00     0.135 A 
ATOM     65  F   UNL A   1      41.409  35.951  35.927  1.00  0.00    -0.206 F 
ATOM     66  C   UNL A   1      40.359  36.702  37.884  1.00  0.00     0.059 A 
ATOM     67  C   UNL A   1      38.741  35.285  39.010  1.00  0.00     0.059 A 
ATOM     68  F   UNL A   1      38.271  33.151  38.161  1.00  0.00    -0.206 F 
ATOM     69  C   UNL A   1      39.460  36.476  38.928  1.00  0.00     0.060 A 
BRANCH  69  70
ATOM     70  S   UNL A   1      39.243  37.768  40.170  1.00  0.00     0.124 S 
ATOM     71  O   UNL A   1      40.550  38.415  40.149  1.00  0.00    -0.237 OA
ATOM     72  O   UNL A   1      38.140  38.549  39.617  1.00  0.00    -0.237 OA
ATOM     73  O   UNL A   1      38.931  37.024  41.386  1.00  0.00    -0.744 OA
ENDBRANCH  69  70
ENDBRANCH  48  62
BRANCH  49  74
ATOM     74  C   UNL A   1      40.865  27.772  29.635  1.00  0.00     0.058 A 
ATOM     75  C   UNL A   1      39.961  26.714  29.458  1.00  0.00     0.135 A 
ATOM     76  C   UNL A   1      41.936  27.871  28.733  1.00  0.00     0.135 A 
ATOM     77  F   UNL A   1      38.923  26.571  30.297  1.00  0.00    -0.206 F 
ATOM     78  C   UNL A   1      40.122  25.777  28.442  1.00  0.00     0.059 A 
ATOM     79  C   UNL A   1      42.102  26.964  27.691  1.00  0.00     0.059 A 
ATOM     80  F   UNL A   1      42.821  28.874  28.847  1.00  0.00    -0.206 F 
ATOM     81  C   UNL A   1      41.197  25.913  27.561  1.00  0.00     0.060 A 
BRANCH  81  82
ATOM     82  S   UNL A   1      41.374  24.712  26.224  1.00  0.00     0.124 S 
ATOM     83  O   UNL A   1      41.503  25.583  25.061  1.00  0.00    -0.237 OA
ATOM     84  O   UNL A   1      42.579  23.990  26.618  1.00  0.00    -0.237 OA
ATOM     85  O   UNL A   1      40.137  23.940  26.300  1.00  0.00    -0.744 OA
ENDBRANCH  81  82
ENDBRANCH  49  74
BRANCH  61  86
ATOM     86  C   UNL A   1      44.008  28.720  35.795  1.00  0.00     0.058 A 
ATOM     87  C   UNL A   1      45.364  29.050  35.645  1.00  0.00     0.135 A 
ATOM     88  C   UNL A   1      43.680  27.681  36.682  1.00  0.00     0.135 A 
ATOM     89  F   UNL A   1      45.732  30.030  34.805  1.00  0.00    -0.206 F 
ATOM     90  C   UNL A   1      46.359  28.360  36.330  1.00  0.00     0.059 A 
ATOM     91  C   UNL A   1      44.656  26.999  37.401  1.00  0.00     0.059 A 
ATOM     92  F   UNL A   1      42.397  27.333  36.871  1.00  0.00    -0.206 F 
ATOM     93  C   UNL A   1      45.994  27.337  37.208  1.00  0.00     0.060 A 
BRANCH  93  94
ATOM     94  S   UNL A   1      47.293  26.470  38.113  1.00  0.00     0.124 S 
ATOM     95  O   UNL A   1      47.965  25.744  37.040  1.00  0.00    -0.237 OA
ATOM     96  O   UNL A   1      48.049  27.571  38.704  1.00  0.00    -0.237 OA
ATOM     97  O   UNL A   1      46.554  25.644  39.063  1.00  0.00    -0.744 OA
ENDBRANCH  93  94
ENDBRANCH  61  86
ENDBRANCH  35  36
ENDBRANCH  27  30
ENDBRANCH  25  26
ENDBRANCH   1  25
TORSDOF 17
ENDMDL
MODEL 3
REMARK VINA RESULT:     -11.3      6.332     11.029
REMARK SMILES C[N@@H+]1CCC[C@@H](NC(=O)N(CC(=O)NCCCNC(=O)c2ccc(-c3c4nc(c(-c5c(F)cc(S(=O)(=O)[O-])cc5F)c5ccc([nH]5)c(-c5c(F)cc(S(=O)(=O)[O-])cc5F)c5nc(c(-c6c(F)cc(S(=O)(=O)[O-])cc6F)c6ccc3[nH]6)C=C5)C=C4)cc2)C(C)(C)C)C1
REMARK SMILES IDX 16 1 15 2 14 3 12 4 13 5 11 7 10 8 8 9 7 10 9 12 6 13 1 14
REMARK SMILES IDX 2 15 3 16 91 17 4 19 5 20 87 21 88 22 89 23 90 24 17 25
REMARK SMILES IDX 18 26 19 27 20 29 21 30 22 31 86 32 23 33 85 34 24 35 25 36
REMARK SMILES IDX 26 37 79 38 27 39 84 40 78 41 80 42 28 43 83 44 77 45 76 46
REMARK SMILES IDX 29 48 63 49 42 50 62 51 43 52 46 53 61 54 81 55 44 56 45 57
REMARK SMILES IDX 60 59 82 60 47 61 30 62 31 63 40 64 32 65 33 66 39 67 41 68
REMARK SMILES IDX 34 69 35 70 36 71 37 72 38 73 64 74 65 75 74 76 66 77 67 78
REMARK SMILES IDX 73 79 75 80 68 81 69 82 70 83 71 84 72 85 48 86 49 87 58 88
REMARK SMILES IDX 50 89 51 90 57 91 59 92 52 93 53 94 54 95 55 96 56 97
REMARK H PARENT 14 6 7 11 2 18 18 28 80 47 46 58
REMARK Flexibility Score: inf
ROOT
ATOM      1  C   UNL A   1      38.383  19.698  25.025  1.00  0.00     0.042 C 
ENDROOT
BRANCH   1   2
ATOM      2  C   UNL A   1      37.403  20.775  24.605  1.00  0.00     0.117 C 
BRANCH   2   3
ATOM      3  N   UNL A   1      37.544  22.059  25.249  1.00  0.00    -0.354 N 
ATOM      4  C   UNL A   1      36.589  22.999  25.498  1.00  0.00     0.239 C 
ATOM      5  O   UNL A   1      36.798  23.755  26.455  1.00  0.00    -0.273 OA
ATOM      6  H   UNL A   1      38.454  22.286  25.550  1.00  0.00     0.163 HD
BRANCH   4   7
ATOM      7  C   UNL A   1      35.238  23.074  24.752  1.00  0.00     0.221 C 
BRANCH   7   8
ATOM      8  N   UNL A   1      34.085  22.362  25.307  1.00  0.00    -0.311 N 
BRANCH   8   9
ATOM      9  C   UNL A   1      34.150  21.259  26.137  1.00  0.00     0.318 C 
ATOM     10  N   UNL A   1      34.105  19.969  25.740  1.00  0.00    -0.330 N 
ATOM     11  H   UNL A   1      34.200  19.386  26.528  1.00  0.00     0.165 HD
ATOM     12  O   UNL A   1      34.243  21.376  27.363  1.00  0.00    -0.249 OA
BRANCH  10  13
ATOM     13  C   UNL A   1      33.966  19.128  24.533  1.00  0.00     0.139 C 
ATOM     14  C   UNL A   1      35.621  15.797  25.390  1.00  0.00     0.332 C 
ATOM     15  N   UNL A   1      34.605  16.850  25.420  1.00  0.00    -0.336 N 
ATOM     16  C   UNL A   1      33.304  16.301  25.020  1.00  0.00     0.262 C 
ATOM     17  C   UNL A   1      34.996  17.973  24.547  1.00  0.00     0.287 C 
ATOM     18  H   UNL A   1      34.525  17.207  26.372  1.00  0.00     0.347 HD
ATOM     19  C   UNL A   1      32.223  17.357  25.188  1.00  0.00     0.064 C 
ATOM     20  C   UNL A   1      32.529  18.591  24.357  1.00  0.00     0.037 C 
ENDBRANCH  10  13
ENDBRANCH   8   9
BRANCH   8  21
ATOM     21  C   UNL A   1      32.705  22.947  24.967  1.00  0.00     0.037 C 
ATOM     22  C   UNL A   1      32.711  24.489  25.005  1.00  0.00     0.034 C 
ATOM     23  C   UNL A   1      32.227  22.468  23.575  1.00  0.00     0.034 C 
ATOM     24  C   UNL A   1      31.567  22.530  25.948  1.00  0.00     0.034 C 
ENDBRANCH   8  21
ENDBRANCH   7   8
ENDBRANCH   4   7
ENDBRANCH   2   3
ENDBRANCH   1   2
BRANCH   1  25
ATOM     25  C   UNL A   1      39.554  20.220  25.834  1.00  0.00     0.118 C 
BRANCH  25  26
ATOM     26  N   UNL A   1      40.523  19.174  26.125  1.00  0.00    -0.352 N 
ATOM     27  C   UNL A   1      41.874  19.279  26.353  1.00  0.00     0.251 C 
ATOM     28  H   UNL A   1      40.158  18.260  26.166  1.00  0.00     0.163 HD
ATOM     29  O   UNL A   1      42.567  18.266  26.358  1.00  0.00    -0.269 OA
BRANCH  27  30
ATOM     30  C   UNL A   1      42.489  20.608  26.574  1.00  0.00     0.039 A 
ATOM     31  C   UNL A   1      43.015  21.302  25.483  1.00  0.00     0.014 A 
ATOM     32  C   UNL A   1      42.553  21.166  27.854  1.00  0.00     0.014 A 
ATOM     33  C   UNL A   1      43.552  22.579  25.668  1.00  0.00     0.010 A 
ATOM     34  C   UNL A   1      42.998  22.473  28.021  1.00  0.00     0.010 A 
ATOM     35  C   UNL A   1      43.517  23.190  26.933  1.00  0.00    -0.014 A 
BRANCH  35  36
ATOM     36  C   UNL A   1      44.033  24.567  27.143  1.00  0.00     0.031 A 
ATOM     37  C   UNL A   1      43.089  25.675  27.532  1.00  0.00     0.074 A 
ATOM     38  C   UNL A   1      45.337  24.833  26.926  1.00  0.00     0.049 A 
ATOM     39  N   UNL A   1      43.335  26.949  27.702  1.00  0.00    -0.248 NA
ATOM     40  C   UNL A   1      41.675  25.309  27.724  1.00  0.00     0.031 C 
ATOM     41  C   UNL A   1      46.339  23.854  26.494  1.00  0.00     0.029 A 
ATOM     42  N   UNL A   1      46.044  26.003  27.033  1.00  0.00    -0.354 N 
ATOM     43  C   UNL A   1      42.113  27.534  28.009  1.00  0.00     0.074 A 
ATOM     44  C   UNL A   1      41.115  26.491  27.940  1.00  0.00     0.031 C 
ATOM     45  C   UNL A   1      47.533  24.460  26.400  1.00  0.00     0.029 A 
ATOM     46  C   UNL A   1      47.378  25.874  26.723  1.00  0.00     0.049 A 
ATOM     47  H   UNL A   1      45.634  26.857  27.304  1.00  0.00     0.167 HD
ATOM     48  C   UNL A   1      41.849  28.819  28.345  1.00  0.00     0.037 A 
ATOM     49  C   UNL A   1      48.363  26.793  26.696  1.00  0.00     0.037 A 
ATOM     50  C   UNL A   1      42.853  29.847  28.436  1.00  0.00     0.049 A 
ATOM     51  C   UNL A   1      48.044  28.216  27.070  1.00  0.00     0.074 A 
ATOM     52  C   UNL A   1      42.700  31.166  28.824  1.00  0.00     0.029 A 
ATOM     53  N   UNL A   1      44.196  29.673  28.135  1.00  0.00    -0.354 N 
ATOM     54  N   UNL A   1      46.894  28.739  27.424  1.00  0.00    -0.248 NA
ATOM     55  C   UNL A   1      49.158  29.174  27.049  1.00  0.00     0.031 C 
ATOM     56  C   UNL A   1      43.939  31.804  28.708  1.00  0.00     0.029 A 
ATOM     57  C   UNL A   1      44.878  30.867  28.305  1.00  0.00     0.049 A 
ATOM     58  H   UNL A   1      44.604  28.826  27.841  1.00  0.00     0.167 HD
ATOM     59  C   UNL A   1      47.152  30.078  27.697  1.00  0.00     0.074 A 
ATOM     60  C   UNL A   1      48.569  30.281  27.480  1.00  0.00     0.031 C 
ATOM     61  C   UNL A   1      46.293  31.050  28.092  1.00  0.00     0.037 A 
BRANCH  48  62
ATOM     62  C   UNL A   1      40.420  29.186  28.646  1.00  0.00     0.058 A 
ATOM     63  C   UNL A   1      39.487  29.421  27.622  1.00  0.00     0.135 A 
ATOM     64  C   UNL A   1      39.967  29.267  29.973  1.00  0.00     0.135 A 
ATOM     65  F   UNL A   1      39.867  29.375  26.336  1.00  0.00    -0.206 F 
ATOM     66  C   UNL A   1      38.164  29.751  27.903  1.00  0.00     0.059 A 
ATOM     67  C   UNL A   1      38.641  29.564  30.276  1.00  0.00     0.059 A 
ATOM     68  F   UNL A   1      40.815  29.053  30.991  1.00  0.00    -0.206 F 
ATOM     69  C   UNL A   1      37.751  29.819  29.235  1.00  0.00     0.060 A 
BRANCH  69  70
ATOM     70  S   UNL A   1      36.029  30.237  29.580  1.00  0.00     0.124 S 
ATOM     71  O   UNL A   1      35.868  29.712  30.932  1.00  0.00    -0.237 OA
ATOM     72  O   UNL A   1      36.032  31.692  29.460  1.00  0.00    -0.237 OA
ATOM     73  O   UNL A   1      35.291  29.528  28.540  1.00  0.00    -0.744 OA
ENDBRANCH  69  70
ENDBRANCH  48  62
BRANCH  49  74
ATOM     74  C   UNL A   1      49.746  26.392  26.322  1.00  0.00     0.058 A 
ATOM     75  C   UNL A   1      50.651  25.930  27.290  1.00  0.00     0.135 A 
ATOM     76  C   UNL A   1      50.191  26.456  24.993  1.00  0.00     0.135 A 
ATOM     77  F   UNL A   1      50.277  25.856  28.577  1.00  0.00    -0.206 F 
ATOM     78  C   UNL A   1      51.952  25.566  26.958  1.00  0.00     0.059 A 
ATOM     79  C   UNL A   1      51.478  26.069  24.631  1.00  0.00     0.059 A 
ATOM     80  F   UNL A   1      49.361  26.874  24.025  1.00  0.00    -0.206 F 
ATOM     81  C   UNL A   1      52.356  25.637  25.624  1.00  0.00     0.060 A 
BRANCH  81  82
ATOM     82  S   UNL A   1      54.036  25.126  25.201  1.00  0.00     0.124 S 
ATOM     83  O   UNL A   1      53.850  23.706  24.924  1.00  0.00    -0.237 OA
ATOM     84  O   UNL A   1      54.331  25.969  24.048  1.00  0.00    -0.237 OA
ATOM     85  O   UNL A   1      54.795  25.438  26.409  1.00  0.00    -0.744 OA
ENDBRANCH  81  82
ENDBRANCH  49  74
BRANCH  61  86
ATOM     86  C   UNL A   1      46.866  32.417  28.355  1.00  0.00     0.058 A 
ATOM     87  C   UNL A   1      46.886  33.414  27.368  1.00  0.00     0.135 A 
ATOM     88  C   UNL A   1      47.359  32.745  29.629  1.00  0.00     0.135 A 
ATOM     89  F   UNL A   1      46.433  33.152  26.132  1.00  0.00    -0.206 F 
ATOM     90  C   UNL A   1      47.397  34.682  27.627  1.00  0.00     0.059 A 
ATOM     91  C   UNL A   1      47.846  34.016  29.919  1.00  0.00     0.059 A 
ATOM     92  F   UNL A   1      47.353  31.832  30.613  1.00  0.00    -0.206 F 
ATOM     93  C   UNL A   1      47.873  34.973  28.907  1.00  0.00     0.060 A 
BRANCH  93  94
ATOM     94  S   UNL A   1      48.506  36.631  29.238  1.00  0.00     0.124 S 
ATOM     95  O   UNL A   1      49.086  36.464  30.567  1.00  0.00    -0.237 OA
ATOM     96  O   UNL A   1      49.459  36.824  28.149  1.00  0.00    -0.237 OA
ATOM     97  O   UNL A   1      47.313  37.470  29.175  1.00  0.00    -0.744 OA
ENDBRANCH  93  94
ENDBRANCH  61  86
ENDBRANCH  35  36
ENDBRANCH  27  30
ENDBRANCH  25  26
ENDBRANCH   1  25
TORSDOF 17
ENDMDL
