MODEL 1
REMARK VINA RESULT:     -12.7      0.000      0.000
REMARK SMILES O=C(Nc1ccc2c(c1)OCO2)N[C@H]1C=C[C@@H](C(=O)NCCCNC(=O)c2ccc(-c3c4nc(c(-c5c(F)cc(S(=O)(=O)[O-])cc5F)c5ccc([nH]5)c(-c5c(F)cc(S(=O)(=O)[O-])cc5F)c5nc(c(-c6c(F)cc(S(=O)(=O)[O-])cc6F)c6ccc3[nH]6)C=C5)C=C4)cc2)C1
REMARK SMILES IDX 22 1 21 2 20 3 18 4 19 5 17 7 14 8 15 9 93 10 16 11 13 12
REMARK SMILES IDX 1 13 2 14 3 15 4 18 5 19 9 20 6 21 8 22 7 23 10 24 12 25
REMARK SMILES IDX 11 26 23 27 24 28 25 29 26 31 27 32 28 33 92 34 29 35 91 36
REMARK SMILES IDX 30 37 31 38 32 39 85 40 33 41 90 42 84 43 86 44 34 45 89 46
REMARK SMILES IDX 83 47 82 48 35 50 69 51 48 52 68 53 49 54 52 55 67 56 87 57
REMARK SMILES IDX 50 58 51 59 66 61 88 62 53 63 36 64 37 65 46 66 38 67 39 68
REMARK SMILES IDX 45 69 47 70 40 71 41 72 42 73 43 74 44 75 70 76 71 77 80 78
REMARK SMILES IDX 72 79 73 80 79 81 81 82 74 83 75 84 76 85 77 86 78 87 54 88
REMARK SMILES IDX 55 89 64 90 56 91 57 92 63 93 65 94 58 95 59 96 60 97 61 98
REMARK SMILES IDX 62 99
REMARK H PARENT 20 6 3 16 13 17 24 30 86 49 52 60
REMARK Flexibility Score: inf
ROOT
ATOM      1  C   UNL A   1      38.931  22.647  26.477  1.00  0.00     0.042 C 
ENDROOT
BRANCH   1   2
ATOM      2  C   UNL A   1      37.946  23.753  26.132  1.00  0.00     0.117 C 
BRANCH   2   3
ATOM      3  N   UNL A   1      37.504  23.673  24.753  1.00  0.00    -0.356 N 
ATOM      4  C   UNL A   1      36.404  23.095  24.199  1.00  0.00     0.227 C 
ATOM      5  O   UNL A   1      36.276  23.195  22.975  1.00  0.00    -0.274 OA
ATOM      6  H   UNL A   1      38.104  24.110  24.107  1.00  0.00     0.163 HD
BRANCH   4   7
ATOM      7  C   UNL A   1      35.345  22.356  25.023  1.00  0.00     0.103 C 
ATOM      8  C   UNL A   1      33.131  22.797  25.985  1.00  0.00     0.107 C 
ATOM      9  C   UNL A   1      33.046  22.004  24.722  1.00  0.00    -0.006 C 
ATOM     10  C   UNL A   1      34.609  23.213  26.058  1.00  0.00     0.047 C 
ATOM     11  C   UNL A   1      34.250  21.755  24.196  1.00  0.00    -0.016 C 
BRANCH   8  12
ATOM     12  N   UNL A   1      32.248  23.928  25.874  1.00  0.00    -0.332 N 
ATOM     13  O   UNL A   1      30.781  23.232  27.476  1.00  0.00    -0.248 OA
ATOM     14  C   UNL A   1      31.117  24.051  26.628  1.00  0.00     0.319 C 
ATOM     15  N   UNL A   1      30.421  25.216  26.490  1.00  0.00    -0.308 N 
ATOM     16  H   UNL A   1      29.803  25.417  27.227  1.00  0.00     0.171 HD
ATOM     17  H   UNL A   1      32.467  24.640  25.230  1.00  0.00     0.165 HD
BRANCH  15  18
ATOM     18  C   UNL A   1      30.444  26.173  25.466  1.00  0.00     0.046 A 
ATOM     19  C   UNL A   1      29.426  26.279  24.492  1.00  0.00     0.030 A 
ATOM     20  C   UNL A   1      31.527  27.050  25.452  1.00  0.00     0.076 A 
ATOM     21  C   UNL A   1      29.525  27.209  23.451  1.00  0.00     0.053 A 
ATOM     22  C   UNL A   1      31.616  27.919  24.394  1.00  0.00     0.167 A 
ATOM     23  C   UNL A   1      30.656  27.986  23.410  1.00  0.00     0.165 A 
ATOM     24  O   UNL A   1      32.650  28.768  24.170  1.00  0.00    -0.454 OA
ATOM     25  O   UNL A   1      30.985  28.870  22.433  1.00  0.00    -0.454 OA
ATOM     26  C   UNL A   1      32.344  29.162  22.825  1.00  0.00     0.468 C 
ENDBRANCH  15  18
ENDBRANCH   8  12
ENDBRANCH   4   7
ENDBRANCH   2   3
ENDBRANCH   1   2
BRANCH   1  27
ATOM     27  C   UNL A   1      40.243  23.133  27.080  1.00  0.00     0.118 C 
BRANCH  27  28
ATOM     28  N   UNL A   1      41.087  23.819  26.111  1.00  0.00    -0.352 N 
ATOM     29  C   UNL A   1      41.600  25.094  26.099  1.00  0.00     0.251 C 
ATOM     30  H   UNL A   1      41.332  23.275  25.329  1.00  0.00     0.163 HD
ATOM     31  O   UNL A   1      42.134  25.500  25.070  1.00  0.00    -0.269 OA
BRANCH  29  32
ATOM     32  C   UNL A   1      41.514  25.982  27.285  1.00  0.00     0.039 A 
ATOM     33  C   UNL A   1      42.599  26.814  27.585  1.00  0.00     0.014 A 
ATOM     34  C   UNL A   1      40.410  25.969  28.138  1.00  0.00     0.014 A 
ATOM     35  C   UNL A   1      42.548  27.670  28.693  1.00  0.00     0.010 A 
ATOM     36  C   UNL A   1      40.316  26.897  29.175  1.00  0.00     0.010 A 
ATOM     37  C   UNL A   1      41.386  27.757  29.472  1.00  0.00    -0.014 A 
BRANCH  37  38
ATOM     38  C   UNL A   1      41.240  28.729  30.596  1.00  0.00     0.031 A 
ATOM     39  C   UNL A   1      42.016  28.536  31.861  1.00  0.00     0.074 A 
ATOM     40  C   UNL A   1      40.329  29.721  30.530  1.00  0.00     0.049 A 
ATOM     41  N   UNL A   1      41.932  29.205  32.981  1.00  0.00    -0.248 NA
ATOM     42  C   UNL A   1      43.018  27.459  31.874  1.00  0.00     0.031 C 
ATOM     43  C   UNL A   1      39.560  30.049  29.341  1.00  0.00     0.029 A 
ATOM     44  N   UNL A   1      39.861  30.611  31.464  1.00  0.00    -0.354 N 
ATOM     45  C   UNL A   1      42.887  28.653  33.820  1.00  0.00     0.074 A 
ATOM     46  C   UNL A   1      43.473  27.532  33.116  1.00  0.00     0.031 C 
ATOM     47  C   UNL A   1      38.648  30.991  29.624  1.00  0.00     0.029 A 
ATOM     48  C   UNL A   1      38.795  31.366  31.020  1.00  0.00     0.049 A 
ATOM     49  H   UNL A   1      40.249  30.703  32.364  1.00  0.00     0.167 HD
ATOM     50  C   UNL A   1      43.272  29.077  35.044  1.00  0.00     0.037 A 
ATOM     51  C   UNL A   1      38.025  32.272  31.653  1.00  0.00     0.037 A 
ATOM     52  C   UNL A   1      42.679  30.195  35.731  1.00  0.00     0.049 A 
ATOM     53  C   UNL A   1      38.401  32.662  33.050  1.00  0.00     0.074 A 
ATOM     54  C   UNL A   1      43.027  30.734  36.956  1.00  0.00     0.029 A 
ATOM     55  N   UNL A   1      41.604  30.938  35.259  1.00  0.00    -0.354 N 
ATOM     56  N   UNL A   1      39.365  32.182  33.799  1.00  0.00    -0.248 NA
ATOM     57  C   UNL A   1      37.634  33.748  33.672  1.00  0.00     0.031 C 
ATOM     58  C   UNL A   1      42.129  31.763  37.252  1.00  0.00     0.029 A 
ATOM     59  C   UNL A   1      41.255  31.909  36.185  1.00  0.00     0.049 A 
ATOM     60  H   UNL A   1      41.156  30.796  34.395  1.00  0.00     0.167 HD
ATOM     61  C   UNL A   1      39.362  32.945  34.956  1.00  0.00     0.074 A 
ATOM     62  C   UNL A   1      38.291  33.913  34.812  1.00  0.00     0.031 C 
ATOM     63  C   UNL A   1      40.185  32.864  36.030  1.00  0.00     0.037 A 
BRANCH  50  64
ATOM     64  C   UNL A   1      44.393  28.328  35.706  1.00  0.00     0.058 A 
ATOM     65  C   UNL A   1      45.738  28.662  35.474  1.00  0.00     0.135 A 
ATOM     66  C   UNL A   1      44.124  27.264  36.582  1.00  0.00     0.135 A 
ATOM     67  F   UNL A   1      46.053  29.657  34.629  1.00  0.00    -0.206 F 
ATOM     68  C   UNL A   1      46.777  27.946  36.058  1.00  0.00     0.059 A 
ATOM     69  C   UNL A   1      45.147  26.554  37.201  1.00  0.00     0.059 A 
ATOM     70  F   UNL A   1      42.857  26.900  36.833  1.00  0.00    -0.206 F 
ATOM     71  C   UNL A   1      46.470  26.892  36.920  1.00  0.00     0.060 A 
BRANCH  71  72
ATOM     72  S   UNL A   1      47.831  25.967  37.662  1.00  0.00     0.124 S 
ATOM     73  O   UNL A   1      48.980  26.526  36.956  1.00  0.00    -0.237 OA
ATOM     74  O   UNL A   1      47.717  26.325  39.072  1.00  0.00    -0.237 OA
ATOM     75  O   UNL A   1      47.512  24.580  37.342  1.00  0.00    -0.744 OA
ENDBRANCH  71  72
ENDBRANCH  50  64
BRANCH  51  76
ATOM     76  C   UNL A   1      36.884  32.916  30.945  1.00  0.00     0.058 A 
ATOM     77  C   UNL A   1      35.566  32.484  31.153  1.00  0.00     0.135 A 
ATOM     78  C   UNL A   1      37.084  33.989  30.062  1.00  0.00     0.135 A 
ATOM     79  F   UNL A   1      35.321  31.466  31.993  1.00  0.00    -0.206 F 
ATOM     80  C   UNL A   1      34.490  33.073  30.495  1.00  0.00     0.059 A 
ATOM     81  C   UNL A   1      36.022  34.609  29.407  1.00  0.00     0.059 A 
ATOM     82  F   UNL A   1      38.323  34.460  29.845  1.00  0.00    -0.206 F 
ATOM     83  C   UNL A   1      34.728  34.137  29.624  1.00  0.00     0.060 A 
BRANCH  83  84
ATOM     84  S   UNL A   1      33.317  34.908  28.800  1.00  0.00     0.124 S 
ATOM     85  O   UNL A   1      32.462  35.242  29.933  1.00  0.00    -0.237 OA
ATOM     86  O   UNL A   1      33.945  36.037  28.119  1.00  0.00    -0.237 OA
ATOM     87  O   UNL A   1      32.821  33.853  27.922  1.00  0.00    -0.744 OA
ENDBRANCH  83  84
ENDBRANCH  51  76
BRANCH  63  88
ATOM     88  C   UNL A   1      39.985  33.874  37.123  1.00  0.00     0.058 A 
ATOM     89  C   UNL A   1      40.702  35.080  37.156  1.00  0.00     0.135 A 
ATOM     90  C   UNL A   1      39.028  33.650  38.126  1.00  0.00     0.135 A 
ATOM     91  F   UNL A   1      41.637  35.337  36.228  1.00  0.00    -0.206 F 
ATOM     92  C   UNL A   1      40.490  36.020  38.157  1.00  0.00     0.059 A 
ATOM     93  C   UNL A   1      38.777  34.591  39.118  1.00  0.00     0.059 A 
ATOM     94  F   UNL A   1      38.312  32.514  38.137  1.00  0.00    -0.206 F 
ATOM     95  C   UNL A   1      39.522  35.769  39.130  1.00  0.00     0.060 A 
BRANCH  95  96
ATOM     96  S   UNL A   1      39.227  37.020  40.396  1.00  0.00     0.124 S 
ATOM     97  O   UNL A   1      38.375  37.966  39.683  1.00  0.00    -0.237 OA
ATOM     98  O   UNL A   1      38.576  36.249  41.450  1.00  0.00    -0.237 OA
ATOM     99  O   UNL A   1      40.568  37.501  40.717  1.00  0.00    -0.744 OA
ENDBRANCH  95  96
ENDBRANCH  63  88
ENDBRANCH  37  38
ENDBRANCH  29  32
ENDBRANCH  27  28
ENDBRANCH   1  27
TORSDOF 15
ENDMDL
MODEL 2
REMARK VINA RESULT:     -12.7      4.528     10.272
REMARK SMILES O=C(Nc1ccc2c(c1)OCO2)N[C@H]1C=C[C@@H](C(=O)NCCCNC(=O)c2ccc(-c3c4nc(c(-c5c(F)cc(S(=O)(=O)[O-])cc5F)c5ccc([nH]5)c(-c5c(F)cc(S(=O)(=O)[O-])cc5F)c5nc(c(-c6c(F)cc(S(=O)(=O)[O-])cc6F)c6ccc3[nH]6)C=C5)C=C4)cc2)C1
REMARK SMILES IDX 22 1 21 2 20 3 18 4 19 5 17 7 14 8 15 9 93 10 16 11 13 12
REMARK SMILES IDX 1 13 2 14 3 15 4 18 5 19 9 20 6 21 8 22 7 23 10 24 12 25
REMARK SMILES IDX 11 26 23 27 24 28 25 29 26 31 27 32 28 33 92 34 29 35 91 36
REMARK SMILES IDX 30 37 31 38 32 39 85 40 33 41 90 42 84 43 86 44 34 45 89 46
REMARK SMILES IDX 83 47 82 48 35 50 69 51 48 52 68 53 49 54 52 55 67 56 87 57
REMARK SMILES IDX 50 58 51 59 66 61 88 62 53 63 36 64 37 65 46 66 38 67 39 68
REMARK SMILES IDX 45 69 47 70 40 71 41 72 42 73 43 74 44 75 70 76 71 77 80 78
REMARK SMILES IDX 72 79 73 80 79 81 81 82 74 83 75 84 76 85 77 86 78 87 54 88
REMARK SMILES IDX 55 89 64 90 56 91 57 92 63 93 65 94 58 95 59 96 60 97 61 98
REMARK SMILES IDX 62 99
REMARK H PARENT 20 6 3 16 13 17 24 30 86 49 52 60
REMARK Flexibility Score: inf
ROOT
ATOM      1  C   UNL A   1      34.143  28.216  24.401  1.00  0.00     0.042 C 
ENDROOT
BRANCH   1   2
ATOM      2  C   UNL A   1      33.378  27.072  23.751  1.00  0.00     0.117 C 
BRANCH   2   3
ATOM      3  N   UNL A   1      32.396  27.551  22.799  1.00  0.00    -0.356 N 
ATOM      4  C   UNL A   1      31.036  27.566  22.847  1.00  0.00     0.227 C 
ATOM      5  O   UNL A   1      30.446  28.056  21.879  1.00  0.00    -0.274 OA
ATOM      6  H   UNL A   1      32.778  27.931  21.975  1.00  0.00     0.163 HD
BRANCH   4   7
ATOM      7  C   UNL A   1      30.238  27.018  24.034  1.00  0.00     0.103 C 
ATOM      8  C   UNL A   1      30.405  25.204  25.679  1.00  0.00     0.107 C 
ATOM      9  C   UNL A   1      30.812  26.522  26.253  1.00  0.00    -0.006 C 
ATOM     10  C   UNL A   1      30.244  25.493  24.177  1.00  0.00     0.047 C 
ATOM     11  C   UNL A   1      30.717  27.516  25.363  1.00  0.00    -0.016 C 
BRANCH   8  12
ATOM     12  N   UNL A   1      31.446  24.249  25.946  1.00  0.00    -0.332 N 
ATOM     13  O   UNL A   1      30.272  23.055  27.494  1.00  0.00    -0.248 OA
ATOM     14  C   UNL A   1      31.302  23.244  26.857  1.00  0.00     0.319 C 
ATOM     15  N   UNL A   1      32.331  22.353  26.944  1.00  0.00    -0.308 N 
ATOM     16  H   UNL A   1      32.100  21.495  27.366  1.00  0.00     0.171 HD
ATOM     17  H   UNL A   1      32.295  24.322  25.452  1.00  0.00     0.165 HD
BRANCH  15  18
ATOM     18  C   UNL A   1      33.665  22.461  26.529  1.00  0.00     0.046 A 
ATOM     19  C   UNL A   1      34.345  23.698  26.447  1.00  0.00     0.030 A 
ATOM     20  C   UNL A   1      34.321  21.275  26.207  1.00  0.00     0.076 A 
ATOM     21  C   UNL A   1      35.657  23.763  25.966  1.00  0.00     0.053 A 
ATOM     22  C   UNL A   1      35.590  21.377  25.698  1.00  0.00     0.167 A 
ATOM     23  C   UNL A   1      36.236  22.585  25.560  1.00  0.00     0.165 A 
ATOM     24  O   UNL A   1      36.332  20.337  25.241  1.00  0.00    -0.454 OA
ATOM     25  O   UNL A   1      37.454  22.452  24.976  1.00  0.00    -0.454 OA
ATOM     26  C   UNL A   1      37.376  21.065  24.579  1.00  0.00     0.468 C 
ENDBRANCH  15  18
ENDBRANCH   8  12
ENDBRANCH   4   7
ENDBRANCH   2   3
ENDBRANCH   1   2
BRANCH   1  27
ATOM     27  C   UNL A   1      34.237  28.133  25.919  1.00  0.00     0.118 C 
BRANCH  27  28
ATOM     28  N   UNL A   1      33.806  29.358  26.578  1.00  0.00    -0.352 N 
ATOM     29  C   UNL A   1      34.406  30.123  27.550  1.00  0.00     0.251 C 
ATOM     30  H   UNL A   1      32.934  29.697  26.275  1.00  0.00     0.163 HD
ATOM     31  O   UNL A   1      33.749  31.016  28.079  1.00  0.00    -0.269 OA
BRANCH  29  32
ATOM     32  C   UNL A   1      35.808  29.888  27.973  1.00  0.00     0.039 A 
ATOM     33  C   UNL A   1      36.059  29.519  29.301  1.00  0.00     0.014 A 
ATOM     34  C   UNL A   1      36.884  30.079  27.106  1.00  0.00     0.014 A 
ATOM     35  C   UNL A   1      37.370  29.283  29.733  1.00  0.00     0.010 A 
ATOM     36  C   UNL A   1      38.175  29.739  27.507  1.00  0.00     0.010 A 
ATOM     37  C   UNL A   1      38.439  29.341  28.829  1.00  0.00    -0.014 A 
BRANCH  37  38
ATOM     38  C   UNL A   1      39.839  28.993  29.211  1.00  0.00     0.031 A 
ATOM     39  C   UNL A   1      40.761  30.052  29.731  1.00  0.00     0.074 A 
ATOM     40  C   UNL A   1      40.323  27.754  28.987  1.00  0.00     0.049 A 
ATOM     41  N   UNL A   1      42.036  29.963  30.002  1.00  0.00    -0.248 NA
ATOM     42  C   UNL A   1      40.179  31.379  29.987  1.00  0.00     0.031 C 
ATOM     43  C   UNL A   1      39.519  26.629  28.544  1.00  0.00     0.029 A 
ATOM     44  N   UNL A   1      41.589  27.228  29.060  1.00  0.00    -0.354 N 
ATOM     45  C   UNL A   1      42.404  31.209  30.487  1.00  0.00     0.074 A 
ATOM     46  C   UNL A   1      41.241  32.064  30.384  1.00  0.00     0.031 C 
ATOM     47  C   UNL A   1      40.302  25.572  28.285  1.00  0.00     0.029 A 
ATOM     48  C   UNL A   1      41.677  25.937  28.584  1.00  0.00     0.049 A 
ATOM     49  H   UNL A   1      42.360  27.726  29.417  1.00  0.00     0.167 HD
ATOM     50  C   UNL A   1      43.590  31.585  31.016  1.00  0.00     0.037 A 
ATOM     51  C   UNL A   1      42.737  25.123  28.418  1.00  0.00     0.037 A 
ATOM     52  C   UNL A   1      44.737  30.721  31.112  1.00  0.00     0.049 A 
ATOM     53  C   UNL A   1      44.070  25.592  28.917  1.00  0.00     0.074 A 
ATOM     54  C   UNL A   1      45.973  30.992  31.672  1.00  0.00     0.029 A 
ATOM     55  N   UNL A   1      44.797  29.422  30.623  1.00  0.00    -0.354 N 
ATOM     56  N   UNL A   1      44.379  26.750  29.450  1.00  0.00    -0.248 NA
ATOM     57  C   UNL A   1      45.183  24.638  28.851  1.00  0.00     0.031 C 
ATOM     58  C   UNL A   1      46.797  29.881  31.472  1.00  0.00     0.029 A 
ATOM     59  C   UNL A   1      46.060  28.891  30.839  1.00  0.00     0.049 A 
ATOM     60  H   UNL A   1      44.053  28.949  30.187  1.00  0.00     0.167 HD
ATOM     61  C   UNL A   1      45.706  26.646  29.839  1.00  0.00     0.074 A 
ATOM     62  C   UNL A   1      46.143  25.313  29.469  1.00  0.00     0.031 C 
ATOM     63  C   UNL A   1      46.483  27.564  30.464  1.00  0.00     0.037 A 
BRANCH  50  64
ATOM     64  C   UNL A   1      43.691  32.991  31.536  1.00  0.00     0.058 A 
ATOM     65  C   UNL A   1      43.442  33.295  32.885  1.00  0.00     0.135 A 
ATOM     66  C   UNL A   1      44.040  34.047  30.680  1.00  0.00     0.135 A 
ATOM     67  F   UNL A   1      43.084  32.326  33.743  1.00  0.00    -0.206 F 
ATOM     68  C   UNL A   1      43.501  34.600  33.359  1.00  0.00     0.059 A 
ATOM     69  C   UNL A   1      44.135  35.357  31.139  1.00  0.00     0.059 A 
ATOM     70  F   UNL A   1      44.282  33.812  29.381  1.00  0.00    -0.206 F 
ATOM     71  C   UNL A   1      43.847  35.625  32.477  1.00  0.00     0.060 A 
BRANCH  71  72
ATOM     72  S   UNL A   1      43.909  37.315  33.107  1.00  0.00     0.124 S 
ATOM     73  O   UNL A   1      45.197  37.321  33.793  1.00  0.00    -0.237 OA
ATOM     74  O   UNL A   1      43.838  38.105  31.883  1.00  0.00    -0.237 OA
ATOM     75  O   UNL A   1      42.737  37.397  33.972  1.00  0.00    -0.744 OA
ENDBRANCH  71  72
ENDBRANCH  50  64
BRANCH  51  76
ATOM     76  C   UNL A   1      42.560  23.769  27.825  1.00  0.00     0.058 A 
ATOM     77  C   UNL A   1      42.487  22.626  28.635  1.00  0.00     0.135 A 
ATOM     78  C   UNL A   1      42.438  23.589  26.437  1.00  0.00     0.135 A 
ATOM     79  F   UNL A   1      42.591  22.744  29.968  1.00  0.00    -0.206 F 
ATOM     80  C   UNL A   1      42.327  21.353  28.094  1.00  0.00     0.059 A 
ATOM     81  C   UNL A   1      42.256  22.329  25.872  1.00  0.00     0.059 A 
ATOM     82  F   UNL A   1      42.475  24.651  25.616  1.00  0.00    -0.206 F 
ATOM     83  C   UNL A   1      42.211  21.215  26.710  1.00  0.00     0.060 A 
BRANCH  83  84
ATOM     84  S   UNL A   1      41.974  19.559  26.027  1.00  0.00     0.124 S 
ATOM     85  O   UNL A   1      40.542  19.555  25.755  1.00  0.00    -0.237 OA
ATOM     86  O   UNL A   1      42.846  19.588  24.857  1.00  0.00    -0.237 OA
ATOM     87  O   UNL A   1      42.415  18.683  27.107  1.00  0.00    -0.744 OA
ENDBRANCH  83  84
ENDBRANCH  51  76
BRANCH  63  88
ATOM     88  C   UNL A   1      47.880  27.148  30.823  1.00  0.00     0.058 A 
ATOM     89  C   UNL A   1      48.153  26.386  31.969  1.00  0.00     0.135 A 
ATOM     90  C   UNL A   1      48.954  27.478  29.981  1.00  0.00     0.135 A 
ATOM     91  F   UNL A   1      47.163  26.055  32.813  1.00  0.00    -0.206 F 
ATOM     92  C   UNL A   1      49.446  25.982  32.278  1.00  0.00     0.059 A 
ATOM     93  C   UNL A   1      50.251  27.056  30.254  1.00  0.00     0.059 A 
ATOM     94  F   UNL A   1      48.745  28.201  28.869  1.00  0.00    -0.206 F 
ATOM     95  C   UNL A   1      50.487  26.318  31.411  1.00  0.00     0.060 A 
BRANCH  95  96
ATOM     96  S   UNL A   1      52.153  25.747  31.804  1.00  0.00     0.124 S 
ATOM     97  O   UNL A   1      52.525  26.648  32.889  1.00  0.00    -0.237 OA
ATOM     98  O   UNL A   1      51.923  24.357  32.184  1.00  0.00    -0.237 OA
ATOM     99  O   UNL A   1      52.881  25.936  30.552  1.00  0.00    -0.744 OA
ENDBRANCH  95  96
ENDBRANCH  63  88
ENDBRANCH  37  38
ENDBRANCH  29  32
ENDBRANCH  27  28
ENDBRANCH   1  27
TORSDOF 15
ENDMDL
MODEL 3
REMARK VINA RESULT:     -12.7      6.234     10.781
REMARK SMILES O=C(Nc1ccc2c(c1)OCO2)N[C@H]1C=C[C@@H](C(=O)NCCCNC(=O)c2ccc(-c3c4nc(c(-c5c(F)cc(S(=O)(=O)[O-])cc5F)c5ccc([nH]5)c(-c5c(F)cc(S(=O)(=O)[O-])cc5F)c5nc(c(-c6c(F)cc(S(=O)(=O)[O-])cc6F)c6ccc3[nH]6)C=C5)C=C4)cc2)C1
REMARK SMILES IDX 22 1 21 2 20 3 18 4 19 5 17 7 14 8 15 9 93 10 16 11 13 12
REMARK SMILES IDX 1 13 2 14 3 15 4 18 5 19 9 20 6 21 8 22 7 23 10 24 12 25
REMARK SMILES IDX 11 26 23 27 24 28 25 29 26 31 27 32 28 33 92 34 29 35 91 36
REMARK SMILES IDX 30 37 31 38 32 39 85 40 33 41 90 42 84 43 86 44 34 45 89 46
REMARK SMILES IDX 83 47 82 48 35 50 69 51 48 52 68 53 49 54 52 55 67 56 87 57
REMARK SMILES IDX 50 58 51 59 66 61 88 62 53 63 36 64 37 65 46 66 38 67 39 68
REMARK SMILES IDX 45 69 47 70 40 71 41 72 42 73 43 74 44 75 70 76 71 77 80 78
REMARK SMILES IDX 72 79 73 80 79 81 81 82 74 83 75 84 76 85 77 86 78 87 54 88
REMARK SMILES IDX 55 89 64 90 56 91 57 92 63 93 65 94 58 95 59 96 60 97 61 98
REMARK SMILES IDX 62 99
REMARK H PARENT 20 6 3 16 13 17 24 30 86 49 52 60
REMARK Flexibility Score: inf
ROOT
ATOM      1  C   UNL A   1      38.365  19.866  24.769  1.00  0.00     0.042 C 
ENDROOT
BRANCH   1   2
ATOM      2  C   UNL A   1      36.936  20.309  25.050  1.00  0.00     0.117 C 
BRANCH   2   3
ATOM      3  N   UNL A   1      36.853  21.732  25.313  1.00  0.00    -0.356 N 
ATOM      4  C   UNL A   1      35.898  22.472  25.938  1.00  0.00     0.227 C 
ATOM      5  O   UNL A   1      36.101  23.687  26.031  1.00  0.00    -0.274 OA
ATOM      6  H   UNL A   1      37.620  22.254  24.981  1.00  0.00     0.163 HD
BRANCH   4   7
ATOM      7  C   UNL A   1      34.620  21.863  26.522  1.00  0.00     0.103 C 
ATOM      8  C   UNL A   1      32.288  22.518  26.919  1.00  0.00     0.107 C 
ATOM      9  C   UNL A   1      32.431  21.656  25.707  1.00  0.00    -0.006 C 
ATOM     10  C   UNL A   1      33.740  22.831  27.318  1.00  0.00     0.047 C 
ATOM     11  C   UNL A   1      33.698  21.290  25.489  1.00  0.00    -0.016 C 
BRANCH   8  12
ATOM     12  N   UNL A   1      31.552  23.699  26.556  1.00  0.00    -0.332 N 
ATOM     13  O   UNL A   1      29.561  23.004  27.424  1.00  0.00    -0.248 OA
ATOM     14  C   UNL A   1      30.223  23.845  26.826  1.00  0.00     0.319 C 
ATOM     15  N   UNL A   1      29.670  25.052  26.512  1.00  0.00    -0.308 N 
ATOM     16  H   UNL A   1      28.822  25.249  26.969  1.00  0.00     0.171 HD
ATOM     17  H   UNL A   1      32.024  24.429  26.095  1.00  0.00     0.165 HD
BRANCH  15  18
ATOM     18  C   UNL A   1      30.115  26.056  25.642  1.00  0.00     0.046 A 
ATOM     19  C   UNL A   1      29.680  26.159  24.301  1.00  0.00     0.030 A 
ATOM     20  C   UNL A   1      31.013  26.985  26.164  1.00  0.00     0.076 A 
ATOM     21  C   UNL A   1      30.201  27.141  23.452  1.00  0.00     0.053 A 
ATOM     22  C   UNL A   1      31.538  27.907  25.294  1.00  0.00     0.167 A 
ATOM     23  C   UNL A   1      31.161  27.974  23.972  1.00  0.00     0.165 A 
ATOM     24  O   UNL A   1      32.496  28.815  25.608  1.00  0.00    -0.454 OA
ATOM     25  O   UNL A   1      31.857  28.918  23.288  1.00  0.00    -0.454 OA
ATOM     26  C   UNL A   1      32.842  29.258  24.288  1.00  0.00     0.468 C 
ENDBRANCH  15  18
ENDBRANCH   8  12
ENDBRANCH   4   7
ENDBRANCH   2   3
ENDBRANCH   1   2
BRANCH   1  27
ATOM     27  C   UNL A   1      39.356  20.186  25.881  1.00  0.00     0.118 C 
BRANCH  27  28
ATOM     28  N   UNL A   1      40.419  19.196  25.989  1.00  0.00    -0.352 N 
ATOM     29  C   UNL A   1      41.776  19.338  26.152  1.00  0.00     0.251 C 
ATOM     30  H   UNL A   1      40.111  18.263  25.936  1.00  0.00     0.163 HD
ATOM     31  O   UNL A   1      42.487  18.344  26.026  1.00  0.00    -0.269 OA
BRANCH  29  32
ATOM     32  C   UNL A   1      42.391  20.652  26.461  1.00  0.00     0.039 A 
ATOM     33  C   UNL A   1      42.965  21.390  25.419  1.00  0.00     0.014 A 
ATOM     34  C   UNL A   1      42.466  21.145  27.764  1.00  0.00     0.014 A 
ATOM     35  C   UNL A   1      43.548  22.638  25.674  1.00  0.00     0.010 A 
ATOM     36  C   UNL A   1      42.949  22.431  28.000  1.00  0.00     0.010 A 
ATOM     37  C   UNL A   1      43.503  23.195  26.959  1.00  0.00    -0.014 A 
BRANCH  37  38
ATOM     38  C   UNL A   1      44.012  24.565  27.262  1.00  0.00     0.031 A 
ATOM     39  C   UNL A   1      43.051  25.679  27.540  1.00  0.00     0.074 A 
ATOM     40  C   UNL A   1      45.329  24.842  27.178  1.00  0.00     0.049 A 
ATOM     41  N   UNL A   1      43.301  26.950  27.707  1.00  0.00    -0.248 NA
ATOM     42  C   UNL A   1      41.628  25.323  27.652  1.00  0.00     0.031 C 
ATOM     43  C   UNL A   1      46.364  23.842  26.976  1.00  0.00     0.029 A 
ATOM     44  N   UNL A   1      46.032  26.020  27.214  1.00  0.00    -0.354 N 
ATOM     45  C   UNL A   1      42.075  27.542  27.972  1.00  0.00     0.074 A 
ATOM     46  C   UNL A   1      41.070  26.507  27.850  1.00  0.00     0.031 C 
ATOM     47  C   UNL A   1      47.554  24.435  26.805  1.00  0.00     0.029 A 
ATOM     48  C   UNL A   1      47.372  25.872  26.925  1.00  0.00     0.049 A 
ATOM     49  H   UNL A   1      45.618  26.889  27.425  1.00  0.00     0.167 HD
ATOM     50  C   UNL A   1      41.822  28.819  28.333  1.00  0.00     0.037 A 
ATOM     51  C   UNL A   1      48.356  26.781  26.785  1.00  0.00     0.037 A 
ATOM     52  C   UNL A   1      42.834  29.837  28.452  1.00  0.00     0.049 A 
ATOM     53  C   UNL A   1      48.038  28.214  27.091  1.00  0.00     0.074 A 
ATOM     54  C   UNL A   1      42.687  31.152  28.856  1.00  0.00     0.029 A 
ATOM     55  N   UNL A   1      44.179  29.658  28.153  1.00  0.00    -0.354 N 
ATOM     56  N   UNL A   1      46.883  28.740  27.421  1.00  0.00    -0.248 NA
ATOM     57  C   UNL A   1      49.154  29.167  27.066  1.00  0.00     0.031 C 
ATOM     58  C   UNL A   1      43.930  31.783  28.746  1.00  0.00     0.029 A 
ATOM     59  C   UNL A   1      44.867  30.849  28.331  1.00  0.00     0.049 A 
ATOM     60  H   UNL A   1      44.583  28.811  27.858  1.00  0.00     0.167 HD
ATOM     61  C   UNL A   1      47.141  30.073  27.701  1.00  0.00     0.074 A 
ATOM     62  C   UNL A   1      48.562  30.275  27.492  1.00  0.00     0.031 C 
ATOM     63  C   UNL A   1      46.281  31.036  28.116  1.00  0.00     0.037 A 
BRANCH  50  64
ATOM     64  C   UNL A   1      40.393  29.175  28.633  1.00  0.00     0.058 A 
ATOM     65  C   UNL A   1      39.919  29.259  29.953  1.00  0.00     0.135 A 
ATOM     66  C   UNL A   1      39.487  29.435  27.594  1.00  0.00     0.135 A 
ATOM     67  F   UNL A   1      40.738  28.999  30.985  1.00  0.00    -0.206 F 
ATOM     68  C   UNL A   1      38.589  29.552  30.231  1.00  0.00     0.059 A 
ATOM     69  C   UNL A   1      38.159  29.761  27.849  1.00  0.00     0.059 A 
ATOM     70  F   UNL A   1      39.887  29.362  26.315  1.00  0.00    -0.206 F 
ATOM     71  C   UNL A   1      37.716  29.801  29.170  1.00  0.00     0.060 A 
BRANCH  71  72
ATOM     72  S   UNL A   1      35.991  30.171  29.548  1.00  0.00     0.124 S 
ATOM     73  O   UNL A   1      35.850  29.576  30.873  1.00  0.00    -0.237 OA
ATOM     74  O   UNL A   1      35.969  31.629  29.501  1.00  0.00    -0.237 OA
ATOM     75  O   UNL A   1      35.258  29.501  28.479  1.00  0.00    -0.744 OA
ENDBRANCH  71  72
ENDBRANCH  50  64
BRANCH  51  76
ATOM     76  C   UNL A   1      49.731  26.351  26.412  1.00  0.00     0.058 A 
ATOM     77  C   UNL A   1      50.633  25.888  27.381  1.00  0.00     0.135 A 
ATOM     78  C   UNL A   1      50.166  26.372  25.077  1.00  0.00     0.135 A 
ATOM     79  F   UNL A   1      50.264  25.841  28.670  1.00  0.00    -0.206 F 
ATOM     80  C   UNL A   1      51.924  25.486  27.047  1.00  0.00     0.059 A 
ATOM     81  C   UNL A   1      51.446  25.956  24.714  1.00  0.00     0.059 A 
ATOM     82  F   UNL A   1      49.335  26.782  24.105  1.00  0.00    -0.206 F 
ATOM     83  C   UNL A   1      52.321  25.524  25.710  1.00  0.00     0.060 A 
BRANCH  83  84
ATOM     84  S   UNL A   1      53.990  24.972  25.291  1.00  0.00     0.124 S 
ATOM     85  O   UNL A   1      54.688  25.158  26.558  1.00  0.00    -0.237 OA
ATOM     86  O   UNL A   1      53.758  23.588  24.887  1.00  0.00    -0.237 OA
ATOM     87  O   UNL A   1      54.383  25.875  24.214  1.00  0.00    -0.744 OA
ENDBRANCH  83  84
ENDBRANCH  51  76
BRANCH  63  88
ATOM     88  C   UNL A   1      46.859  32.391  28.406  1.00  0.00     0.058 A 
ATOM     89  C   UNL A   1      46.924  33.392  27.425  1.00  0.00     0.135 A 
ATOM     90  C   UNL A   1      47.313  32.704  29.698  1.00  0.00     0.135 A 
ATOM     91  F   UNL A   1      46.515  33.140  26.172  1.00  0.00    -0.206 F 
ATOM     92  C   UNL A   1      47.436  34.652  27.711  1.00  0.00     0.059 A 
ATOM     93  C   UNL A   1      47.798  33.968  30.014  1.00  0.00     0.059 A 
ATOM     94  F   UNL A   1      47.268  31.782  30.673  1.00  0.00    -0.206 F 
ATOM     95  C   UNL A   1      47.866  34.932  29.010  1.00  0.00     0.060 A 
BRANCH  95  96
ATOM     96  S   UNL A   1      48.485  36.587  29.375  1.00  0.00     0.124 S 
ATOM     97  O   UNL A   1      47.363  37.166  30.105  1.00  0.00    -0.237 OA
ATOM     98  O   UNL A   1      49.678  36.304  30.166  1.00  0.00    -0.237 OA
ATOM     99  O   UNL A   1      48.736  37.154  28.053  1.00  0.00    -0.744 OA
ENDBRANCH  95  96
ENDBRANCH  63  88
ENDBRANCH  37  38
ENDBRANCH  29  32
ENDBRANCH  27  28
ENDBRANCH   1  27
TORSDOF 15
ENDMDL
