MODEL 1
REMARK VINA RESULT:     -13.7      0.000      0.000
REMARK SMILES O=C1CCCC2=C1[C@H](c1ccc([N+](=O)[O-])cc1)CC(=O)N2c1ccccc1C(=O)NCCCNC(=O)c1ccc(-c2c3nc(c(-c4c(F)cc(S(=O)(=O)[O-])cc4F)c4ccc([nH]4)c(-c4c(F)cc(S(=O)(=O)[O-])cc4F)c4nc(c(-c5c(F)cc(S(=O)(=O)[O-])cc5F)c5ccc2[nH]5)C=C4)C=C3)cc1
REMARK SMILES IDX 32 1 31 2 30 3 28 4 29 5 27 7 22 8 23 9 24 10 26 11 25 12
REMARK SMILES IDX 21 13 1 14 2 15 3 16 7 17 4 18 6 19 8 20 5 21 18 22 19 23
REMARK SMILES IDX 20 24 9 25 10 26 17 27 11 28 16 29 12 30 13 31 14 32 15 33
REMARK SMILES IDX 33 34 34 35 35 36 36 38 37 39 38 40 102 41 39 42 101 43
REMARK SMILES IDX 40 44 41 45 42 46 95 47 43 48 100 49 94 50 96 51 44 52 99 53
REMARK SMILES IDX 93 54 92 55 45 57 79 58 58 59 78 60 59 61 62 62 77 63 97 64
REMARK SMILES IDX 60 65 61 66 76 68 98 69 63 70 46 71 47 72 56 73 48 74 49 75
REMARK SMILES IDX 55 76 57 77 50 78 51 79 52 80 53 81 54 82 80 83 81 84 90 85
REMARK SMILES IDX 82 86 83 87 89 88 91 89 84 90 85 91 86 92 87 93 88 94 64 95
REMARK SMILES IDX 65 96 74 97 66 98 67 99 73 100 75 101 68 102 69 103 70 104
REMARK SMILES IDX 71 105 72 106
REMARK H PARENT 30 6 34 37 96 56 62 67
REMARK Flexibility Score: inf
ROOT
ATOM      1  C   UNL A   1      34.902  31.364  27.671  1.00  0.00     0.042 C 
ENDROOT
BRANCH   1   2
ATOM      2  C   UNL A   1      33.639  30.502  27.536  1.00  0.00     0.118 C 
BRANCH   2   3
ATOM      3  N   UNL A   1      33.858  29.111  27.197  1.00  0.00    -0.352 N 
ATOM      4  C   UNL A   1      33.390  28.219  26.261  1.00  0.00     0.253 C 
ATOM      5  O   UNL A   1      34.079  27.184  26.264  1.00  0.00    -0.269 OA
ATOM      6  H   UNL A   1      34.517  28.692  27.796  1.00  0.00     0.163 HD
BRANCH   4   7
ATOM      7  C   UNL A   1      32.236  28.267  25.257  1.00  0.00     0.063 A 
ATOM      8  C   UNL A   1      31.588  27.327  24.421  1.00  0.00     0.061 A 
ATOM      9  C   UNL A   1      30.495  27.747  23.595  1.00  0.00     0.027 A 
ATOM     10  C   UNL A   1      30.055  29.058  23.516  1.00  0.00     0.002 A 
ATOM     11  C   UNL A   1      31.742  29.608  25.128  1.00  0.00     0.016 A 
ATOM     12  C   UNL A   1      30.693  30.001  24.282  1.00  0.00     0.001 A 
BRANCH   8  13
ATOM     13  N   UNL A   1      31.877  25.933  24.246  1.00  0.00    -0.284 N 
ATOM     14  O   UNL A   1      31.437  21.410  25.515  1.00  0.00    -0.294 OA
ATOM     15  C   UNL A   1      31.193  22.594  25.751  1.00  0.00     0.161 C 
ATOM     16  C   UNL A   1      30.332  23.011  26.927  1.00  0.00     0.081 C 
ATOM     17  C   UNL A   1      31.793  23.662  24.899  1.00  0.00     0.023 C 
ATOM     18  C   UNL A   1      29.372  24.110  26.530  1.00  0.00     0.015 C 
ATOM     19  C   UNL A   1      31.280  24.911  24.993  1.00  0.00     0.033 C 
ATOM     20  C   UNL A   1      32.881  23.293  23.880  1.00  0.00     0.064 C 
ATOM     21  C   UNL A   1      30.081  25.280  25.854  1.00  0.00     0.055 C 
ATOM     22  C   UNL A   1      32.643  24.179  22.672  1.00  0.00     0.114 C 
ATOM     23  C   UNL A   1      32.673  25.626  23.110  1.00  0.00     0.232 C 
ATOM     24  O   UNL A   1      33.303  26.451  22.444  1.00  0.00    -0.274 OA
BRANCH  20  25
ATOM     25  C   UNL A   1      34.333  23.364  24.379  1.00  0.00    -0.039 A 
ATOM     26  C   UNL A   1      34.746  23.808  25.664  1.00  0.00     0.011 A 
ATOM     27  C   UNL A   1      35.338  22.985  23.503  1.00  0.00     0.011 A 
ATOM     28  C   UNL A   1      36.072  23.702  26.119  1.00  0.00     0.086 A 
ATOM     29  C   UNL A   1      36.653  22.903  23.954  1.00  0.00     0.086 A 
ATOM     30  C   UNL A   1      37.016  23.181  25.263  1.00  0.00     0.269 A 
BRANCH  30  31
ATOM     31  N   UNL A   1      38.321  22.730  25.751  1.00  0.00     0.062 N 
ATOM     32  O   UNL A   1      38.677  21.581  25.468  1.00  0.00    -0.258 OA
ATOM     33  O   UNL A   1      39.019  23.566  26.351  1.00  0.00    -0.258 OA
ENDBRANCH  30  31
ENDBRANCH  20  25
ENDBRANCH   8  13
ENDBRANCH   4   7
ENDBRANCH   2   3
ENDBRANCH   1   2
BRANCH   1  34
ATOM     34  C   UNL A   1      35.189  32.212  28.939  1.00  0.00     0.118 C 
BRANCH  34  35
ATOM     35  N   UNL A   1      35.359  31.576  30.255  1.00  0.00    -0.352 N 
ATOM     36  C   UNL A   1      36.403  31.076  31.023  1.00  0.00     0.251 C 
ATOM     37  H   UNL A   1      34.496  31.480  30.720  1.00  0.00     0.163 HD
ATOM     38  O   UNL A   1      36.153  30.862  32.212  1.00  0.00    -0.269 OA
BRANCH  36  39
ATOM     39  C   UNL A   1      37.760  30.702  30.521  1.00  0.00     0.039 A 
ATOM     40  C   UNL A   1      38.740  30.258  31.444  1.00  0.00     0.014 A 
ATOM     41  C   UNL A   1      38.089  30.676  29.178  1.00  0.00     0.014 A 
ATOM     42  C   UNL A   1      39.973  29.695  31.018  1.00  0.00     0.010 A 
ATOM     43  C   UNL A   1      39.263  30.012  28.762  1.00  0.00     0.010 A 
ATOM     44  C   UNL A   1      40.250  29.522  29.655  1.00  0.00    -0.014 A 
BRANCH  44  45
ATOM     45  C   UNL A   1      41.556  28.966  29.103  1.00  0.00     0.031 A 
ATOM     46  C   UNL A   1      42.728  29.931  28.943  1.00  0.00     0.074 A 
ATOM     47  C   UNL A   1      41.755  27.703  28.647  1.00  0.00     0.049 A 
ATOM     48  N   UNL A   1      43.834  29.810  28.250  1.00  0.00    -0.248 NA
ATOM     49  C   UNL A   1      42.565  31.259  29.556  1.00  0.00     0.031 C 
ATOM     50  C   UNL A   1      40.774  26.618  28.607  1.00  0.00     0.029 A 
ATOM     51  N   UNL A   1      42.887  27.120  28.094  1.00  0.00    -0.354 N 
ATOM     52  C   UNL A   1      44.412  31.076  28.266  1.00  0.00     0.074 A 
ATOM     53  C   UNL A   1      43.448  31.964  28.874  1.00  0.00     0.031 C 
ATOM     54  C   UNL A   1      41.347  25.512  28.087  1.00  0.00     0.029 A 
ATOM     55  C   UNL A   1      42.738  25.796  27.733  1.00  0.00     0.049 A 
ATOM     56  H   UNL A   1      43.730  27.614  27.968  1.00  0.00     0.167 HD
ATOM     57  C   UNL A   1      45.661  31.477  27.927  1.00  0.00     0.037 A 
ATOM     58  C   UNL A   1      43.614  24.911  27.195  1.00  0.00     0.037 A 
ATOM     59  C   UNL A   1      46.700  30.592  27.485  1.00  0.00     0.049 A 
ATOM     60  C   UNL A   1      45.046  25.330  26.911  1.00  0.00     0.074 A 
ATOM     61  C   UNL A   1      48.029  30.882  27.234  1.00  0.00     0.029 A 
ATOM     62  N   UNL A   1      46.537  29.234  27.274  1.00  0.00    -0.354 N 
ATOM     63  N   UNL A   1      45.599  26.515  27.013  1.00  0.00    -0.248 NA
ATOM     64  C   UNL A   1      45.980  24.280  26.463  1.00  0.00     0.031 C 
ATOM     65  C   UNL A   1      48.670  29.697  26.855  1.00  0.00     0.029 A 
ATOM     66  C   UNL A   1      47.746  28.666  26.913  1.00  0.00     0.049 A 
ATOM     67  H   UNL A   1      45.688  28.745  27.367  1.00  0.00     0.167 HD
ATOM     68  C   UNL A   1      46.948  26.340  26.697  1.00  0.00     0.074 A 
ATOM     69  C   UNL A   1      47.130  24.938  26.397  1.00  0.00     0.031 C 
ATOM     70  C   UNL A   1      47.943  27.262  26.666  1.00  0.00     0.037 A 
BRANCH  57  71
ATOM     71  C   UNL A   1      45.985  32.937  28.121  1.00  0.00     0.058 A 
ATOM     72  C   UNL A   1      45.829  33.868  27.077  1.00  0.00     0.135 A 
ATOM     73  C   UNL A   1      46.492  33.405  29.342  1.00  0.00     0.135 A 
ATOM     74  F   UNL A   1      45.356  33.476  25.883  1.00  0.00    -0.206 F 
ATOM     75  C   UNL A   1      46.248  35.185  27.208  1.00  0.00     0.059 A 
ATOM     76  C   UNL A   1      46.868  34.736  29.512  1.00  0.00     0.059 A 
ATOM     77  F   UNL A   1      46.643  32.568  30.380  1.00  0.00    -0.206 F 
ATOM     78  C   UNL A   1      46.773  35.608  28.429  1.00  0.00     0.060 A 
BRANCH  78  79
ATOM     79  S   UNL A   1      47.332  37.317  28.570  1.00  0.00     0.124 S 
ATOM     80  O   UNL A   1      48.752  37.184  28.262  1.00  0.00    -0.237 OA
ATOM     81  O   UNL A   1      46.526  37.994  27.559  1.00  0.00    -0.237 OA
ATOM     82  O   UNL A   1      47.018  37.663  29.953  1.00  0.00    -0.744 OA
ENDBRANCH  78  79
ENDBRANCH  57  71
BRANCH  58  83
ATOM     83  C   UNL A   1      43.214  23.489  26.949  1.00  0.00     0.058 A 
ATOM     84  C   UNL A   1      43.088  22.582  28.016  1.00  0.00     0.135 A 
ATOM     85  C   UNL A   1      42.996  22.991  25.656  1.00  0.00     0.135 A 
ATOM     86  F   UNL A   1      43.315  22.994  29.273  1.00  0.00    -0.206 F 
ATOM     87  C   UNL A   1      42.774  21.239  27.813  1.00  0.00     0.059 A 
ATOM     88  C   UNL A   1      42.657  21.656  25.428  1.00  0.00     0.059 A 
ATOM     89  F   UNL A   1      43.108  23.806  24.595  1.00  0.00    -0.206 F 
ATOM     90  C   UNL A   1      42.553  20.786  26.513  1.00  0.00     0.060 A 
BRANCH  90  91
ATOM     91  S   UNL A   1      42.074  19.058  26.270  1.00  0.00     0.124 S 
ATOM     92  O   UNL A   1      42.995  18.637  25.221  1.00  0.00    -0.237 OA
ATOM     93  O   UNL A   1      42.310  18.487  27.592  1.00  0.00    -0.237 OA
ATOM     94  O   UNL A   1      40.670  19.151  25.878  1.00  0.00    -0.744 OA
ENDBRANCH  90  91
ENDBRANCH  58  83
BRANCH  70  95
ATOM     95  C   UNL A   1      49.350  26.795  26.393  1.00  0.00     0.058 A 
ATOM     96  C   UNL A   1      50.175  26.266  27.396  1.00  0.00     0.135 A 
ATOM     97  C   UNL A   1      49.850  26.809  25.078  1.00  0.00     0.135 A 
ATOM     98  F   UNL A   1      49.748  26.221  28.668  1.00  0.00    -0.206 F 
ATOM     99  C   UNL A   1      51.456  25.796  27.114  1.00  0.00     0.059 A 
ATOM    100  C   UNL A   1      51.115  26.319  24.768  1.00  0.00     0.059 A 
ATOM    101  F   UNL A   1      49.097  27.285  24.074  1.00  0.00    -0.206 F 
ATOM    102  C   UNL A   1      51.917  25.827  25.796  1.00  0.00     0.060 A 
BRANCH 102 103
ATOM    103  S   UNL A   1      53.572  25.197  25.437  1.00  0.00     0.124 S 
ATOM    104  O   UNL A   1      54.323  25.666  26.597  1.00  0.00    -0.237 OA
ATOM    105  O   UNL A   1      53.350  23.757  25.366  1.00  0.00    -0.237 OA
ATOM    106  O   UNL A   1      53.912  25.835  24.169  1.00  0.00    -0.744 OA
ENDBRANCH 102 103
ENDBRANCH  70  95
ENDBRANCH  44  45
ENDBRANCH  36  39
ENDBRANCH  34  35
ENDBRANCH   1  34
TORSDOF 16
ENDMDL
MODEL 2
REMARK VINA RESULT:     -13.5      5.772     11.544
REMARK SMILES O=C1CCCC2=C1[C@H](c1ccc([N+](=O)[O-])cc1)CC(=O)N2c1ccccc1C(=O)NCCCNC(=O)c1ccc(-c2c3nc(c(-c4c(F)cc(S(=O)(=O)[O-])cc4F)c4ccc([nH]4)c(-c4c(F)cc(S(=O)(=O)[O-])cc4F)c4nc(c(-c5c(F)cc(S(=O)(=O)[O-])cc5F)c5ccc2[nH]5)C=C4)C=C3)cc1
REMARK SMILES IDX 32 1 31 2 30 3 28 4 29 5 27 7 22 8 23 9 24 10 26 11 25 12
REMARK SMILES IDX 21 13 1 14 2 15 3 16 7 17 4 18 6 19 8 20 5 21 18 22 19 23
REMARK SMILES IDX 20 24 9 25 10 26 17 27 11 28 16 29 12 30 13 31 14 32 15 33
REMARK SMILES IDX 33 34 34 35 35 36 36 38 37 39 38 40 102 41 39 42 101 43
REMARK SMILES IDX 40 44 41 45 42 46 95 47 43 48 100 49 94 50 96 51 44 52 99 53
REMARK SMILES IDX 93 54 92 55 45 57 79 58 58 59 78 60 59 61 62 62 77 63 97 64
REMARK SMILES IDX 60 65 61 66 76 68 98 69 63 70 46 71 47 72 56 73 48 74 49 75
REMARK SMILES IDX 55 76 57 77 50 78 51 79 52 80 53 81 54 82 80 83 81 84 90 85
REMARK SMILES IDX 82 86 83 87 89 88 91 89 84 90 85 91 86 92 87 93 88 94 64 95
REMARK SMILES IDX 65 96 74 97 66 98 67 99 73 100 75 101 68 102 69 103 70 104
REMARK SMILES IDX 71 105 72 106
REMARK H PARENT 30 6 34 37 96 56 62 67
REMARK Flexibility Score: inf
ROOT
ATOM      1  C   UNL A   1      39.528  22.520  26.838  1.00  0.00     0.042 C 
ENDROOT
BRANCH   1   2
ATOM      2  C   UNL A   1      38.519  22.146  25.742  1.00  0.00     0.118 C 
BRANCH   2   3
ATOM      3  N   UNL A   1      37.571  23.179  25.377  1.00  0.00    -0.352 N 
ATOM      4  C   UNL A   1      36.223  23.260  25.121  1.00  0.00     0.253 C 
ATOM      5  O   UNL A   1      35.861  24.448  25.067  1.00  0.00    -0.269 OA
ATOM      6  H   UNL A   1      38.009  24.056  25.290  1.00  0.00     0.163 HD
BRANCH   4   7
ATOM      7  C   UNL A   1      35.135  22.206  24.907  1.00  0.00     0.063 A 
ATOM      8  C   UNL A   1      33.743  22.231  24.652  1.00  0.00     0.061 A 
ATOM      9  C   UNL A   1      33.029  21.000  24.489  1.00  0.00     0.027 A 
ATOM     10  C   UNL A   1      33.613  19.752  24.625  1.00  0.00     0.002 A 
ATOM     11  C   UNL A   1      35.684  20.887  25.043  1.00  0.00     0.016 A 
ATOM     12  C   UNL A   1      34.954  19.695  24.917  1.00  0.00     0.001 A 
BRANCH   8  13
ATOM     13  N   UNL A   1      32.873  23.366  24.534  1.00  0.00    -0.284 N 
ATOM     14  O   UNL A   1      31.048  26.963  22.088  1.00  0.00    -0.294 OA
ATOM     15  C   UNL A   1      31.853  26.033  22.141  1.00  0.00     0.161 C 
ATOM     16  C   UNL A   1      32.742  25.681  20.965  1.00  0.00     0.081 C 
ATOM     17  C   UNL A   1      32.009  25.254  23.404  1.00  0.00     0.023 C 
ATOM     18  C   UNL A   1      32.815  24.182  20.773  1.00  0.00     0.015 C 
ATOM     19  C   UNL A   1      32.667  24.073  23.344  1.00  0.00     0.033 C 
ATOM     20  C   UNL A   1      31.330  25.755  24.688  1.00  0.00     0.064 C 
ATOM     21  C   UNL A   1      33.193  23.452  22.059  1.00  0.00     0.055 C 
ATOM     22  C   UNL A   1      30.870  24.516  25.431  1.00  0.00     0.114 C 
ATOM     23  C   UNL A   1      32.060  23.615  25.673  1.00  0.00     0.232 C 
ATOM     24  O   UNL A   1      32.222  23.103  26.782  1.00  0.00    -0.274 OA
BRANCH  20  25
ATOM     25  C   UNL A   1      32.165  26.691  25.577  1.00  0.00    -0.039 A 
ATOM     26  C   UNL A   1      33.539  27.002  25.392  1.00  0.00     0.011 A 
ATOM     27  C   UNL A   1      31.539  27.274  26.668  1.00  0.00     0.011 A 
ATOM     28  C   UNL A   1      34.207  27.986  26.141  1.00  0.00     0.086 A 
ATOM     29  C   UNL A   1      32.215  28.233  27.420  1.00  0.00     0.086 A 
ATOM     30  C   UNL A   1      33.505  28.648  27.124  1.00  0.00     0.269 A 
BRANCH  30  31
ATOM     31  N   UNL A   1      34.006  29.891  27.712  1.00  0.00     0.062 N 
ATOM     32  O   UNL A   1      35.114  29.864  28.261  1.00  0.00    -0.258 OA
ATOM     33  O   UNL A   1      33.317  30.912  27.547  1.00  0.00    -0.258 OA
ENDBRANCH  30  31
ENDBRANCH  20  25
ENDBRANCH   8  13
ENDBRANCH   4   7
ENDBRANCH   2   3
ENDBRANCH   1   2
BRANCH   1  34
ATOM     34  C   UNL A   1      41.061  22.435  26.611  1.00  0.00     0.118 C 
BRANCH  34  35
ATOM     35  N   UNL A   1      41.759  23.415  25.763  1.00  0.00    -0.352 N 
ATOM     36  C   UNL A   1      42.380  24.647  25.924  1.00  0.00     0.251 C 
ATOM     37  H   UNL A   1      41.797  23.115  24.827  1.00  0.00     0.163 HD
ATOM     38  O   UNL A   1      43.092  25.026  24.990  1.00  0.00    -0.269 OA
BRANCH  36  39
ATOM     39  C   UNL A   1      42.198  25.579  27.078  1.00  0.00     0.039 A 
ATOM     40  C   UNL A   1      42.790  26.865  27.028  1.00  0.00     0.014 A 
ATOM     41  C   UNL A   1      41.395  25.286  28.166  1.00  0.00     0.014 A 
ATOM     42  C   UNL A   1      42.489  27.869  27.989  1.00  0.00     0.010 A 
ATOM     43  C   UNL A   1      41.013  26.321  29.047  1.00  0.00     0.010 A 
ATOM     44  C   UNL A   1      41.557  27.631  29.008  1.00  0.00    -0.014 A 
BRANCH  44  45
ATOM     45  C   UNL A   1      41.200  28.628  30.102  1.00  0.00     0.031 A 
ATOM     46  C   UNL A   1      42.006  28.580  31.397  1.00  0.00     0.074 A 
ATOM     47  C   UNL A   1      40.163  29.504  30.075  1.00  0.00     0.049 A 
ATOM     48  N   UNL A   1      41.746  29.095  32.574  1.00  0.00    -0.248 NA
ATOM     49  C   UNL A   1      43.210  27.733  31.383  1.00  0.00     0.031 C 
ATOM     50  C   UNL A   1      39.192  29.684  28.995  1.00  0.00     0.029 A 
ATOM     51  N   UNL A   1      39.738  30.415  31.032  1.00  0.00    -0.354 N 
ATOM     52  C   UNL A   1      42.688  28.533  33.432  1.00  0.00     0.074 A 
ATOM     53  C   UNL A   1      43.386  27.521  32.674  1.00  0.00     0.031 C 
ATOM     54  C   UNL A   1      38.312  30.649  29.337  1.00  0.00     0.029 A 
ATOM     55  C   UNL A   1      38.632  31.158  30.672  1.00  0.00     0.049 A 
ATOM     56  H   UNL A   1      40.190  30.522  31.900  1.00  0.00     0.167 HD
ATOM     57  C   UNL A   1      43.046  28.878  34.692  1.00  0.00     0.037 A 
ATOM     58  C   UNL A   1      37.962  32.140  31.324  1.00  0.00     0.037 A 
ATOM     59  C   UNL A   1      42.496  29.990  35.411  1.00  0.00     0.049 A 
ATOM     60  C   UNL A   1      38.425  32.600  32.695  1.00  0.00     0.074 A 
ATOM     61  C   UNL A   1      42.876  30.493  36.642  1.00  0.00     0.029 A 
ATOM     62  N   UNL A   1      41.476  30.800  34.942  1.00  0.00    -0.354 N 
ATOM     63  N   UNL A   1      39.375  32.112  33.457  1.00  0.00    -0.248 NA
ATOM     64  C   UNL A   1      37.740  33.766  33.283  1.00  0.00     0.031 C 
ATOM     65  C   UNL A   1      42.075  31.604  36.926  1.00  0.00     0.029 A 
ATOM     66  C   UNL A   1      41.226  31.813  35.851  1.00  0.00     0.049 A 
ATOM     67  H   UNL A   1      41.001  30.676  34.089  1.00  0.00     0.167 HD
ATOM     68  C   UNL A   1      39.434  32.940  34.579  1.00  0.00     0.074 A 
ATOM     69  C   UNL A   1      38.426  33.959  34.402  1.00  0.00     0.031 C 
ATOM     70  C   UNL A   1      40.259  32.861  35.654  1.00  0.00     0.037 A 
BRANCH  57  71
ATOM     71  C   UNL A   1      44.161  28.085  35.325  1.00  0.00     0.058 A 
ATOM     72  C   UNL A   1      43.897  26.965  36.136  1.00  0.00     0.135 A 
ATOM     73  C   UNL A   1      45.501  28.465  35.156  1.00  0.00     0.135 A 
ATOM     74  F   UNL A   1      42.633  26.559  36.341  1.00  0.00    -0.206 F 
ATOM     75  C   UNL A   1      44.908  26.311  36.827  1.00  0.00     0.059 A 
ATOM     76  C   UNL A   1      46.536  27.789  35.797  1.00  0.00     0.059 A 
ATOM     77  F   UNL A   1      45.817  29.511  34.378  1.00  0.00    -0.206 F 
ATOM     78  C   UNL A   1      46.225  26.735  36.656  1.00  0.00     0.060 A 
BRANCH  78  79
ATOM     79  S   UNL A   1      47.520  25.886  37.579  1.00  0.00     0.124 S 
ATOM     80  O   UNL A   1      46.744  24.912  38.340  1.00  0.00    -0.237 OA
ATOM     81  O   UNL A   1      48.354  25.335  36.515  1.00  0.00    -0.237 OA
ATOM     82  O   UNL A   1      48.133  26.952  38.363  1.00  0.00    -0.744 OA
ENDBRANCH  78  79
ENDBRANCH  57  71
BRANCH  58  83
ATOM     83  C   UNL A   1      36.807  32.842  30.677  1.00  0.00     0.058 A 
ATOM     84  C   UNL A   1      37.024  33.857  29.728  1.00  0.00     0.135 A 
ATOM     85  C   UNL A   1      35.477  32.557  31.019  1.00  0.00     0.135 A 
ATOM     86  F   UNL A   1      38.276  34.195  29.385  1.00  0.00    -0.206 F 
ATOM     87  C   UNL A   1      35.972  34.568  29.153  1.00  0.00     0.059 A 
ATOM     88  C   UNL A   1      34.405  33.238  30.439  1.00  0.00     0.059 A 
ATOM     89  F   UNL A   1      35.206  31.604  31.924  1.00  0.00    -0.206 F 
ATOM     90  C   UNL A   1      34.663  34.246  29.510  1.00  0.00     0.060 A 
BRANCH  90  91
ATOM     91  S   UNL A   1      33.305  35.126  28.701  1.00  0.00     0.124 S 
ATOM     92  O   UNL A   1      34.018  36.163  27.963  1.00  0.00    -0.237 OA
ATOM     93  O   UNL A   1      32.698  34.073  27.892  1.00  0.00    -0.237 OA
ATOM     94  O   UNL A   1      32.492  35.592  29.821  1.00  0.00    -0.744 OA
ENDBRANCH  90  91
ENDBRANCH  58  83
BRANCH  70  95
ATOM     95  C   UNL A   1      40.194  33.950  36.694  1.00  0.00     0.058 A 
ATOM     96  C   UNL A   1      40.986  35.105  36.625  1.00  0.00     0.135 A 
ATOM     97  C   UNL A   1      39.256  33.865  37.740  1.00  0.00     0.135 A 
ATOM     98  F   UNL A   1      41.892  35.246  35.644  1.00  0.00    -0.206 F 
ATOM     99  C   UNL A   1      40.875  36.123  37.571  1.00  0.00     0.059 A 
ATOM    100  C   UNL A   1      39.109  34.880  38.680  1.00  0.00     0.059 A 
ATOM    101  F   UNL A   1      38.457  32.791  37.845  1.00  0.00    -0.206 F 
ATOM    102  C   UNL A   1      39.934  36.001  38.595  1.00  0.00     0.060 A 
BRANCH 102 103
ATOM    103  S   UNL A   1      39.785  37.334  39.805  1.00  0.00     0.124 S 
ATOM    104  O   UNL A   1      39.718  36.588  41.058  1.00  0.00    -0.237 OA
ATOM    105  O   UNL A   1      41.011  38.094  39.586  1.00  0.00    -0.237 OA
ATOM    106  O   UNL A   1      38.555  38.015  39.413  1.00  0.00    -0.744 OA
ENDBRANCH 102 103
ENDBRANCH  70  95
ENDBRANCH  44  45
ENDBRANCH  36  39
ENDBRANCH  34  35
ENDBRANCH   1  34
TORSDOF 16
ENDMDL
MODEL 3
REMARK VINA RESULT:     -12.9      6.162     11.450
REMARK SMILES O=C1CCCC2=C1[C@H](c1ccc([N+](=O)[O-])cc1)CC(=O)N2c1ccccc1C(=O)NCCCNC(=O)c1ccc(-c2c3nc(c(-c4c(F)cc(S(=O)(=O)[O-])cc4F)c4ccc([nH]4)c(-c4c(F)cc(S(=O)(=O)[O-])cc4F)c4nc(c(-c5c(F)cc(S(=O)(=O)[O-])cc5F)c5ccc2[nH]5)C=C4)C=C3)cc1
REMARK SMILES IDX 32 1 31 2 30 3 28 4 29 5 27 7 22 8 23 9 24 10 26 11 25 12
REMARK SMILES IDX 21 13 1 14 2 15 3 16 7 17 4 18 6 19 8 20 5 21 18 22 19 23
REMARK SMILES IDX 20 24 9 25 10 26 17 27 11 28 16 29 12 30 13 31 14 32 15 33
REMARK SMILES IDX 33 34 34 35 35 36 36 38 37 39 38 40 102 41 39 42 101 43
REMARK SMILES IDX 40 44 41 45 42 46 95 47 43 48 100 49 94 50 96 51 44 52 99 53
REMARK SMILES IDX 93 54 92 55 45 57 79 58 58 59 78 60 59 61 62 62 77 63 97 64
REMARK SMILES IDX 60 65 61 66 76 68 98 69 63 70 46 71 47 72 56 73 48 74 49 75
REMARK SMILES IDX 55 76 57 77 50 78 51 79 52 80 53 81 54 82 80 83 81 84 90 85
REMARK SMILES IDX 82 86 83 87 89 88 91 89 84 90 85 91 86 92 87 93 88 94 64 95
REMARK SMILES IDX 65 96 74 97 66 98 67 99 73 100 75 101 68 102 69 103 70 104
REMARK SMILES IDX 71 105 72 106
REMARK H PARENT 30 6 34 37 96 56 62 67
REMARK Flexibility Score: inf
ROOT
ATOM      1  C   UNL A   1      39.272  21.837  25.959  1.00  0.00     0.042 C 
ENDROOT
BRANCH   1   2
ATOM      2  C   UNL A   1      37.766  21.578  25.816  1.00  0.00     0.118 C 
BRANCH   2   3
ATOM      3  N   UNL A   1      36.945  22.745  25.567  1.00  0.00    -0.352 N 
ATOM      4  C   UNL A   1      35.626  23.002  25.277  1.00  0.00     0.253 C 
ATOM      5  O   UNL A   1      35.388  24.219  25.379  1.00  0.00    -0.269 OA
ATOM      6  H   UNL A   1      37.471  23.575  25.619  1.00  0.00     0.163 HD
BRANCH   4   7
ATOM      7  C   UNL A   1      34.450  22.108  24.880  1.00  0.00     0.063 A 
ATOM      8  C   UNL A   1      33.104  22.324  24.498  1.00  0.00     0.061 A 
ATOM      9  C   UNL A   1      32.271  21.204  24.172  1.00  0.00     0.027 A 
ATOM     10  C   UNL A   1      32.688  19.887  24.264  1.00  0.00     0.002 A 
ATOM     11  C   UNL A   1      34.824  20.725  24.963  1.00  0.00     0.016 A 
ATOM     12  C   UNL A   1      33.976  19.644  24.675  1.00  0.00     0.001 A 
BRANCH   8  13
ATOM     13  N   UNL A   1      32.389  23.563  24.389  1.00  0.00    -0.284 N 
ATOM     14  O   UNL A   1      31.099  27.415  21.990  1.00  0.00    -0.294 OA
ATOM     15  C   UNL A   1      31.777  26.388  22.039  1.00  0.00     0.161 C 
ATOM     16  C   UNL A   1      32.642  25.949  20.874  1.00  0.00     0.081 C 
ATOM     17  C   UNL A   1      31.801  25.570  23.286  1.00  0.00     0.023 C 
ATOM     18  C   UNL A   1      32.526  24.457  20.648  1.00  0.00     0.015 C 
ATOM     19  C   UNL A   1      32.304  24.315  23.212  1.00  0.00     0.033 C 
ATOM     20  C   UNL A   1      31.162  26.127  24.566  1.00  0.00     0.064 C 
ATOM     21  C   UNL A   1      32.778  23.659  21.924  1.00  0.00     0.055 C 
ATOM     22  C   UNL A   1      30.529  24.941  25.270  1.00  0.00     0.114 C 
ATOM     23  C   UNL A   1      31.588  23.891  25.515  1.00  0.00     0.232 C 
ATOM     24  O   UNL A   1      31.656  23.339  26.615  1.00  0.00    -0.274 OA
BRANCH  20  25
ATOM     25  C   UNL A   1      32.088  26.929  25.495  1.00  0.00    -0.039 A 
ATOM     26  C   UNL A   1      33.503  27.000  25.393  1.00  0.00     0.011 A 
ATOM     27  C   UNL A   1      31.505  27.634  26.537  1.00  0.00     0.011 A 
ATOM     28  C   UNL A   1      34.282  27.874  26.171  1.00  0.00     0.086 A 
ATOM     29  C   UNL A   1      32.287  28.483  27.318  1.00  0.00     0.086 A 
ATOM     30  C   UNL A   1      33.644  28.667  27.099  1.00  0.00     0.269 A 
BRANCH  30  31
ATOM     31  N   UNL A   1      34.312  29.821  27.703  1.00  0.00     0.062 N 
ATOM     32  O   UNL A   1      35.517  29.721  27.961  1.00  0.00    -0.258 OA
ATOM     33  O   UNL A   1      33.637  30.857  27.839  1.00  0.00    -0.258 OA
ENDBRANCH  30  31
ENDBRANCH  20  25
ENDBRANCH   8  13
ENDBRANCH   4   7
ENDBRANCH   2   3
ENDBRANCH   1   2
BRANCH   1  34
ATOM     34  C   UNL A   1      39.828  23.118  26.637  1.00  0.00     0.118 C 
BRANCH  34  35
ATOM     35  N   UNL A   1      40.311  24.253  25.836  1.00  0.00    -0.352 N 
ATOM     36  C   UNL A   1      40.956  25.464  26.061  1.00  0.00     0.251 C 
ATOM     37  H   UNL A   1      40.129  24.118  24.878  1.00  0.00     0.163 HD
ATOM     38  O   UNL A   1      41.431  26.021  25.069  1.00  0.00    -0.269 OA
BRANCH  36  39
ATOM     39  C   UNL A   1      41.049  26.179  27.370  1.00  0.00     0.039 A 
ATOM     40  C   UNL A   1      41.946  27.267  27.500  1.00  0.00     0.014 A 
ATOM     41  C   UNL A   1      40.229  25.893  28.447  1.00  0.00     0.014 A 
ATOM     42  C   UNL A   1      41.938  28.116  28.640  1.00  0.00     0.010 A 
ATOM     43  C   UNL A   1      40.148  26.806  29.520  1.00  0.00     0.010 A 
ATOM     44  C   UNL A   1      41.005  27.927  29.669  1.00  0.00    -0.014 A 
BRANCH  44  45
ATOM     45  C   UNL A   1      40.945  28.758  30.943  1.00  0.00     0.031 A 
ATOM     46  C   UNL A   1      39.832  29.795  31.064  1.00  0.00     0.074 A 
ATOM     47  C   UNL A   1      41.851  28.732  31.955  1.00  0.00     0.049 A 
ATOM     48  N   UNL A   1      39.710  30.813  31.880  1.00  0.00    -0.248 NA
ATOM     49  C   UNL A   1      38.775  29.736  30.041  1.00  0.00     0.031 C 
ATOM     50  C   UNL A   1      43.050  27.897  32.040  1.00  0.00     0.029 A 
ATOM     51  N   UNL A   1      41.903  29.473  33.127  1.00  0.00    -0.354 N 
ATOM     52  C   UNL A   1      38.640  31.551  31.383  1.00  0.00     0.074 A 
ATOM     53  C   UNL A   1      38.284  30.959  30.114  1.00  0.00     0.031 C 
ATOM     54  C   UNL A   1      43.696  28.154  33.198  1.00  0.00     0.029 A 
ATOM     55  C   UNL A   1      42.977  29.188  33.945  1.00  0.00     0.049 A 
ATOM     56  H   UNL A   1      41.226  30.151  33.356  1.00  0.00     0.167 HD
ATOM     57  C   UNL A   1      37.922  32.551  31.949  1.00  0.00     0.037 A 
ATOM     58  C   UNL A   1      43.338  29.683  35.155  1.00  0.00     0.037 A 
ATOM     59  C   UNL A   1      38.136  33.045  33.278  1.00  0.00     0.049 A 
ATOM     60  C   UNL A   1      42.477  30.730  35.839  1.00  0.00     0.074 A 
ATOM     61  C   UNL A   1      37.388  33.969  33.985  1.00  0.00     0.029 A 
ATOM     62  N   UNL A   1      39.150  32.619  34.119  1.00  0.00    -0.354 N 
ATOM     63  N   UNL A   1      41.417  31.357  35.387  1.00  0.00    -0.248 NA
ATOM     64  C   UNL A   1      42.849  31.117  37.213  1.00  0.00     0.031 C 
ATOM     65  C   UNL A   1      37.959  34.114  35.254  1.00  0.00     0.029 A 
ATOM     66  C   UNL A   1      39.036  33.248  35.347  1.00  0.00     0.049 A 
ATOM     67  H   UNL A   1      39.847  31.967  33.881  1.00  0.00     0.167 HD
ATOM     68  C   UNL A   1      40.970  32.164  36.435  1.00  0.00     0.074 A 
ATOM     69  C   UNL A   1      41.872  31.952  37.543  1.00  0.00     0.031 C 
ATOM     70  C   UNL A   1      39.901  33.000  36.471  1.00  0.00     0.037 A 
BRANCH  57  71
ATOM     71  C   UNL A   1      36.771  33.103  31.146  1.00  0.00     0.058 A 
ATOM     72  C   UNL A   1      36.986  33.944  30.038  1.00  0.00     0.135 A 
ATOM     73  C   UNL A   1      35.444  32.825  31.506  1.00  0.00     0.135 A 
ATOM     74  F   UNL A   1      38.235  34.253  29.652  1.00  0.00    -0.206 F 
ATOM     75  C   UNL A   1      35.933  34.560  29.377  1.00  0.00     0.059 A 
ATOM     76  C   UNL A   1      34.371  33.390  30.822  1.00  0.00     0.059 A 
ATOM     77  F   UNL A   1      35.177  32.013  32.540  1.00  0.00    -0.206 F 
ATOM     78  C   UNL A   1      34.627  34.281  29.781  1.00  0.00     0.060 A 
BRANCH  78  79
ATOM     79  S   UNL A   1      33.274  35.109  28.922  1.00  0.00     0.124 S 
ATOM     80  O   UNL A   1      32.315  35.298  30.006  1.00  0.00    -0.237 OA
ATOM     81  O   UNL A   1      33.914  36.324  28.427  1.00  0.00    -0.237 OA
ATOM     82  O   UNL A   1      32.884  34.147  27.897  1.00  0.00    -0.744 OA
ENDBRANCH  78  79
ENDBRANCH  57  71
BRANCH  58  83
ATOM     83  C   UNL A   1      44.540  29.152  35.874  1.00  0.00     0.058 A 
ATOM     84  C   UNL A   1      45.803  29.746  35.700  1.00  0.00     0.135 A 
ATOM     85  C   UNL A   1      44.472  28.023  36.704  1.00  0.00     0.135 A 
ATOM     86  F   UNL A   1      45.934  30.810  34.892  1.00  0.00    -0.206 F 
ATOM     87  C   UNL A   1      46.949  29.239  36.309  1.00  0.00     0.059 A 
ATOM     88  C   UNL A   1      45.601  27.510  37.344  1.00  0.00     0.059 A 
ATOM     89  F   UNL A   1      43.297  27.407  36.904  1.00  0.00    -0.206 F 
ATOM     90  C   UNL A   1      46.838  28.122  37.137  1.00  0.00     0.060 A 
BRANCH  90  91
ATOM     91  S   UNL A   1      48.321  27.520  37.979  1.00  0.00     0.124 S 
ATOM     92  O   UNL A   1      49.343  27.709  36.957  1.00  0.00    -0.237 OA
ATOM     93  O   UNL A   1      48.400  28.411  39.132  1.00  0.00    -0.237 OA
ATOM     94  O   UNL A   1      47.989  26.132  38.292  1.00  0.00    -0.744 OA
ENDBRANCH  90  91
ENDBRANCH  58  83
BRANCH  70  95
ATOM     95  C   UNL A   1      39.567  33.688  37.769  1.00  0.00     0.058 A 
ATOM     96  C   UNL A   1      38.693  33.129  38.713  1.00  0.00     0.135 A 
ATOM     97  C   UNL A   1      40.202  34.898  38.104  1.00  0.00     0.135 A 
ATOM     98  F   UNL A   1      38.065  31.973  38.452  1.00  0.00    -0.206 F 
ATOM     99  C   UNL A   1      38.435  33.760  39.930  1.00  0.00     0.059 A 
ATOM    100  C   UNL A   1      39.981  35.530  39.324  1.00  0.00     0.059 A 
ATOM    101  F   UNL A   1      41.064  35.468  37.248  1.00  0.00    -0.206 F 
ATOM    102  C   UNL A   1      39.084  34.960  40.226  1.00  0.00     0.060 A 
BRANCH 102 103
ATOM    103  S   UNL A   1      38.757  35.758  41.812  1.00  0.00     0.124 S 
ATOM    104  O   UNL A   1      39.807  35.189  42.651  1.00  0.00    -0.237 OA
ATOM    105  O   UNL A   1      38.904  37.174  41.488  1.00  0.00    -0.237 OA
ATOM    106  O   UNL A   1      37.398  35.334  42.134  1.00  0.00    -0.744 OA
ENDBRANCH 102 103
ENDBRANCH  70  95
ENDBRANCH  44  45
ENDBRANCH  36  39
ENDBRANCH  34  35
ENDBRANCH   1  34
TORSDOF 16
ENDMDL
