MODEL 1
REMARK VINA RESULT:     -12.0      0.000      0.000
REMARK SMILES CCC(=O)Nc1ccc(NC(=O)[C@@H]2CC=CC[C@@H]2C(=O)NCCCNC(=O)c2ccc(-c3c4nc(c(-c5c(F)cc(S(=O)(=O)[O-])cc5F)c5ccc([nH]5)c(-c5c(F)cc(S(=O)(=O)[O-])cc5F)c5nc(c(-c6c(F)cc(S(=O)(=O)[O-])cc6F)c6ccc3[nH]6)C=C5)C=C4)cc2)cc1
REMARK SMILES IDX 22 1 21 2 19 3 20 4 18 6 13 7 14 8 15 9 17 10 16 11 11 12
REMARK SMILES IDX 10 13 12 15 9 16 6 17 7 18 95 19 8 20 94 21 5 22 3 23 4 24
REMARK SMILES IDX 2 26 1 27 23 28 24 29 25 30 26 31 27 33 28 34 29 35 93 36
REMARK SMILES IDX 30 37 92 38 31 39 32 40 33 41 86 42 34 43 91 44 85 45 87 46
REMARK SMILES IDX 35 47 90 48 84 49 83 50 36 52 70 53 49 54 69 55 50 56 53 57
REMARK SMILES IDX 68 58 88 59 51 60 52 61 67 63 89 64 54 65 37 66 38 67 47 68
REMARK SMILES IDX 39 69 40 70 46 71 48 72 41 73 42 74 43 75 44 76 45 77 71 78
REMARK SMILES IDX 72 79 81 80 73 81 74 82 80 83 82 84 75 85 76 86 77 87 78 88
REMARK SMILES IDX 79 89 55 90 56 91 65 92 57 93 58 94 64 95 66 96 59 97 60 98
REMARK SMILES IDX 61 99 62 100 63 101
REMARK H PARENT 21 5 10 14 5 25 25 32 87 51 53 62
REMARK Flexibility Score: inf
ROOT
ATOM      1  C   UNL A   1      33.692  24.474  26.146  1.00  0.00     0.117 C 
ENDROOT
BRANCH   1   2
ATOM      2  N   UNL A   1      33.973  25.731  25.461  1.00  0.00    -0.356 N 
ATOM      3  C   UNL A   1      33.469  26.340  24.341  1.00  0.00     0.224 C 
ATOM      4  O   UNL A   1      33.634  27.566  24.301  1.00  0.00    -0.275 OA
ATOM      5  H   UNL A   1      34.681  26.257  25.899  1.00  0.00     0.163 HD
BRANCH   3   6
ATOM      6  C   UNL A   1      32.707  25.611  23.209  1.00  0.00     0.095 C 
ATOM      7  C   UNL A   1      31.227  25.198  23.425  1.00  0.00     0.095 C 
ATOM      8  C   UNL A   1      30.795  23.720  23.380  1.00  0.00     0.041 C 
ATOM      9  C   UNL A   1      31.879  22.715  23.233  1.00  0.00    -0.030 C 
ATOM     10  C   UNL A   1      33.566  24.450  22.619  1.00  0.00     0.041 C 
ATOM     11  C   UNL A   1      33.131  23.045  22.912  1.00  0.00    -0.030 C 
BRANCH   7  12
ATOM     12  C   UNL A   1      30.466  25.841  24.558  1.00  0.00     0.228 C 
ATOM     13  N   UNL A   1      29.799  27.018  24.484  1.00  0.00    -0.326 N 
ATOM     14  H   UNL A   1      29.329  27.242  25.320  1.00  0.00     0.169 HD
ATOM     15  O   UNL A   1      30.419  25.240  25.640  1.00  0.00    -0.274 OA
BRANCH  13  16
ATOM     16  C   UNL A   1      29.626  27.987  23.490  1.00  0.00     0.041 A 
ATOM     17  C   UNL A   1      28.955  30.072  21.751  1.00  0.00     0.041 A 
ATOM     18  C   UNL A   1      30.292  29.727  21.941  1.00  0.00     0.028 A 
ATOM     19  C   UNL A   1      27.968  29.266  22.278  1.00  0.00     0.028 A 
ATOM     20  C   UNL A   1      30.627  28.675  22.816  1.00  0.00     0.028 A 
ATOM     21  C   UNL A   1      28.301  28.303  23.206  1.00  0.00     0.028 A 
BRANCH  17  22
ATOM     22  N   UNL A   1      28.593  31.242  21.081  1.00  0.00    -0.326 N 
ATOM     23  C   UNL A   1      28.174  32.420  21.662  1.00  0.00     0.224 C 
ATOM     24  O   UNL A   1      27.651  33.286  20.956  1.00  0.00    -0.275 OA
ATOM     25  H   UNL A   1      28.642  31.224  20.099  1.00  0.00     0.169 HD
BRANCH  23  26
ATOM     26  C   UNL A   1      28.489  32.694  23.137  1.00  0.00     0.097 C 
ATOM     27  C   UNL A   1      29.494  33.808  23.398  1.00  0.00     0.014 C 
ENDBRANCH  23  26
ENDBRANCH  17  22
ENDBRANCH  13  16
ENDBRANCH   7  12
ENDBRANCH   3   6
ENDBRANCH   1   2
BRANCH   1  28
ATOM     28  C   UNL A   1      34.778  23.378  26.144  1.00  0.00     0.042 C 
BRANCH  28  29
ATOM     29  C   UNL A   1      36.273  23.702  26.201  1.00  0.00     0.118 C 
BRANCH  29  30
ATOM     30  N   UNL A   1      37.194  22.601  26.032  1.00  0.00    -0.352 N 
ATOM     31  C   UNL A   1      38.559  22.608  26.260  1.00  0.00     0.251 C 
ATOM     32  H   UNL A   1      36.806  21.752  25.719  1.00  0.00     0.163 HD
ATOM     33  O   UNL A   1      39.215  21.596  26.060  1.00  0.00    -0.269 OA
BRANCH  31  34
ATOM     34  C   UNL A   1      39.240  23.849  26.719  1.00  0.00     0.039 A 
ATOM     35  C   UNL A   1      39.265  24.129  28.089  1.00  0.00     0.014 A 
ATOM     36  C   UNL A   1      39.809  24.756  25.818  1.00  0.00     0.014 A 
ATOM     37  C   UNL A   1      39.883  25.297  28.558  1.00  0.00     0.010 A 
ATOM     38  C   UNL A   1      40.459  25.906  26.295  1.00  0.00     0.010 A 
ATOM     39  C   UNL A   1      40.498  26.196  27.670  1.00  0.00    -0.014 A 
BRANCH  39  40
ATOM     40  C   UNL A   1      41.152  27.441  28.183  1.00  0.00     0.031 A 
ATOM     41  C   UNL A   1      42.652  27.601  28.127  1.00  0.00     0.074 A 
ATOM     42  C   UNL A   1      40.404  28.435  28.706  1.00  0.00     0.049 A 
ATOM     43  N   UNL A   1      43.394  28.612  28.508  1.00  0.00    -0.248 NA
ATOM     44  C   UNL A   1      43.421  26.468  27.589  1.00  0.00     0.031 C 
ATOM     45  C   UNL A   1      38.948  28.404  28.857  1.00  0.00     0.029 A 
ATOM     46  N   UNL A   1      40.760  29.666  29.207  1.00  0.00    -0.354 N 
ATOM     47  C   UNL A   1      44.711  28.238  28.260  1.00  0.00     0.074 A 
ATOM     48  C   UNL A   1      44.670  26.885  27.748  1.00  0.00     0.031 C 
ATOM     49  C   UNL A   1      38.536  29.567  29.390  1.00  0.00     0.029 A 
ATOM     50  C   UNL A   1      39.694  30.418  29.646  1.00  0.00     0.049 A 
ATOM     51  H   UNL A   1      41.693  29.979  29.248  1.00  0.00     0.167 HD
ATOM     52  C   UNL A   1      45.849  28.959  28.420  1.00  0.00     0.037 A 
ATOM     53  C   UNL A   1      39.649  31.651  30.194  1.00  0.00     0.037 A 
ATOM     54  C   UNL A   1      45.891  30.314  28.911  1.00  0.00     0.049 A 
ATOM     55  C   UNL A   1      40.927  32.431  30.371  1.00  0.00     0.074 A 
ATOM     56  C   UNL A   1      46.991  31.142  29.057  1.00  0.00     0.029 A 
ATOM     57  N   UNL A   1      44.789  31.038  29.342  1.00  0.00    -0.354 N 
ATOM     58  N   UNL A   1      42.155  32.083  30.065  1.00  0.00    -0.248 NA
ATOM     59  C   UNL A   1      40.814  33.775  30.956  1.00  0.00     0.031 C 
ATOM     60  C   UNL A   1      46.561  32.348  29.621  1.00  0.00     0.029 A 
ATOM     61  C   UNL A   1      45.185  32.293  29.774  1.00  0.00     0.049 A 
ATOM     62  H   UNL A   1      43.861  30.709  29.339  1.00  0.00     0.167 HD
ATOM     63  C   UNL A   1      42.954  33.174  30.395  1.00  0.00     0.074 A 
ATOM     64  C   UNL A   1      42.070  34.198  30.909  1.00  0.00     0.031 C 
ATOM     65  C   UNL A   1      44.298  33.313  30.278  1.00  0.00     0.037 A 
BRANCH  52  66
ATOM     66  C   UNL A   1      47.154  28.298  28.054  1.00  0.00     0.058 A 
ATOM     67  C   UNL A   1      47.913  27.591  29.000  1.00  0.00     0.135 A 
ATOM     68  C   UNL A   1      47.631  28.338  26.733  1.00  0.00     0.135 A 
ATOM     69  F   UNL A   1      47.511  27.529  30.280  1.00  0.00    -0.206 F 
ATOM     70  C   UNL A   1      49.114  26.976  28.658  1.00  0.00     0.059 A 
ATOM     71  C   UNL A   1      48.815  27.703  26.362  1.00  0.00     0.059 A 
ATOM     72  F   UNL A   1      46.945  28.993  25.785  1.00  0.00    -0.206 F 
ATOM     73  C   UNL A   1      49.558  27.039  27.337  1.00  0.00     0.060 A 
BRANCH  73  74
ATOM     74  S   UNL A   1      51.118  26.236  26.913  1.00  0.00     0.124 S 
ATOM     75  O   UNL A   1      50.818  24.839  27.215  1.00  0.00    -0.237 OA
ATOM     76  O   UNL A   1      51.262  26.561  25.498  1.00  0.00    -0.237 OA
ATOM     77  O   UNL A   1      52.083  26.876  27.802  1.00  0.00    -0.744 OA
ENDBRANCH  73  74
ENDBRANCH  52  66
BRANCH  53  78
ATOM     78  C   UNL A   1      38.342  32.241  30.599  1.00  0.00     0.058 A 
ATOM     79  C   UNL A   1      37.608  33.053  29.722  1.00  0.00     0.135 A 
ATOM     80  C   UNL A   1      37.801  32.003  31.873  1.00  0.00     0.135 A 
ATOM     81  F   UNL A   1      38.086  33.321  28.498  1.00  0.00    -0.206 F 
ATOM     82  C   UNL A   1      36.394  33.623  30.096  1.00  0.00     0.059 A 
ATOM     83  C   UNL A   1      36.575  32.538  32.260  1.00  0.00     0.059 A 
ATOM     84  F   UNL A   1      38.456  31.224  32.747  1.00  0.00    -0.206 F 
ATOM     85  C   UNL A   1      35.884  33.355  31.368  1.00  0.00     0.060 A 
BRANCH  85  86
ATOM     86  S   UNL A   1      34.283  34.057  31.824  1.00  0.00     0.124 S 
ATOM     87  O   UNL A   1      33.702  34.340  30.517  1.00  0.00    -0.237 OA
ATOM     88  O   UNL A   1      33.672  32.965  32.573  1.00  0.00    -0.237 OA
ATOM     89  O   UNL A   1      34.646  35.227  32.620  1.00  0.00    -0.744 OA
ENDBRANCH  85  86
ENDBRANCH  53  78
BRANCH  65  90
ATOM     90  C   UNL A   1      44.902  34.632  30.681  1.00  0.00     0.058 A 
ATOM     91  C   UNL A   1      45.373  34.865  31.983  1.00  0.00     0.135 A 
ATOM     92  C   UNL A   1      45.063  35.658  29.735  1.00  0.00     0.135 A 
ATOM     93  F   UNL A   1      45.240  33.921  32.930  1.00  0.00    -0.206 F 
ATOM     94  C   UNL A   1      45.959  36.076  32.339  1.00  0.00     0.059 A 
ATOM     95  C   UNL A   1      45.672  36.866  30.061  1.00  0.00     0.059 A 
ATOM     96  F   UNL A   1      44.640  35.486  28.473  1.00  0.00    -0.206 F 
ATOM     97  C   UNL A   1      46.107  37.070  31.370  1.00  0.00     0.060 A 
BRANCH  97  98
ATOM     98  S   UNL A   1      46.900  38.624  31.837  1.00  0.00     0.124 S 
ATOM     99  O   UNL A   1      45.748  39.456  32.164  1.00  0.00    -0.237 OA
ATOM    100  O   UNL A   1      47.734  38.221  32.966  1.00  0.00    -0.237 OA
ATOM    101  O   UNL A   1      47.631  39.009  30.633  1.00  0.00    -0.744 OA
ENDBRANCH  97  98
ENDBRANCH  65  90
ENDBRANCH  39  40
ENDBRANCH  31  34
ENDBRANCH  29  30
ENDBRANCH  28  29
ENDBRANCH   1  28
TORSDOF 17
ENDMDL
MODEL 2
REMARK VINA RESULT:     -11.7      2.201      4.509
REMARK SMILES CCC(=O)Nc1ccc(NC(=O)[C@@H]2CC=CC[C@@H]2C(=O)NCCCNC(=O)c2ccc(-c3c4nc(c(-c5c(F)cc(S(=O)(=O)[O-])cc5F)c5ccc([nH]5)c(-c5c(F)cc(S(=O)(=O)[O-])cc5F)c5nc(c(-c6c(F)cc(S(=O)(=O)[O-])cc6F)c6ccc3[nH]6)C=C5)C=C4)cc2)cc1
REMARK SMILES IDX 22 1 21 2 19 3 20 4 18 6 13 7 14 8 15 9 17 10 16 11 11 12
REMARK SMILES IDX 10 13 12 15 9 16 6 17 7 18 95 19 8 20 94 21 5 22 3 23 4 24
REMARK SMILES IDX 2 26 1 27 23 28 24 29 25 30 26 31 27 33 28 34 29 35 93 36
REMARK SMILES IDX 30 37 92 38 31 39 32 40 33 41 86 42 34 43 91 44 85 45 87 46
REMARK SMILES IDX 35 47 90 48 84 49 83 50 36 52 70 53 49 54 69 55 50 56 53 57
REMARK SMILES IDX 68 58 88 59 51 60 52 61 67 63 89 64 54 65 37 66 38 67 47 68
REMARK SMILES IDX 39 69 40 70 46 71 48 72 41 73 42 74 43 75 44 76 45 77 71 78
REMARK SMILES IDX 72 79 81 80 73 81 74 82 80 83 82 84 75 85 76 86 77 87 78 88
REMARK SMILES IDX 79 89 55 90 56 91 65 92 57 93 58 94 64 95 66 96 59 97 60 98
REMARK SMILES IDX 61 99 62 100 63 101
REMARK H PARENT 21 5 10 14 5 25 25 32 87 51 53 62
REMARK Flexibility Score: inf
ROOT
ATOM      1  C   UNL A   1      35.008  24.114  23.600  1.00  0.00     0.117 C 
ENDROOT
BRANCH   1   2
ATOM      2  N   UNL A   1      34.053  25.144  23.207  1.00  0.00    -0.356 N 
ATOM      3  C   UNL A   1      33.364  26.116  23.886  1.00  0.00     0.224 C 
ATOM      4  O   UNL A   1      32.984  27.063  23.188  1.00  0.00    -0.275 OA
ATOM      5  H   UNL A   1      33.858  25.140  22.242  1.00  0.00     0.163 HD
BRANCH   3   6
ATOM      6  C   UNL A   1      33.095  26.103  25.410  1.00  0.00     0.095 C 
ATOM      7  C   UNL A   1      31.635  26.018  25.929  1.00  0.00     0.095 C 
ATOM      8  C   UNL A   1      31.025  27.143  26.787  1.00  0.00     0.041 C 
ATOM      9  C   UNL A   1      31.864  28.350  26.993  1.00  0.00    -0.030 C 
ATOM     10  C   UNL A   1      33.915  27.220  26.128  1.00  0.00     0.041 C 
ATOM     11  C   UNL A   1      33.159  28.393  26.676  1.00  0.00    -0.030 C 
BRANCH   7  12
ATOM     12  C   UNL A   1      30.562  25.572  24.967  1.00  0.00     0.228 C 
ATOM     13  N   UNL A   1      30.433  24.321  24.463  1.00  0.00    -0.326 N 
ATOM     14  H   UNL A   1      29.640  24.223  23.887  1.00  0.00     0.169 HD
ATOM     15  O   UNL A   1      29.710  26.403  24.623  1.00  0.00    -0.274 OA
BRANCH  13  16
ATOM     16  C   UNL A   1      31.169  23.137  24.576  1.00  0.00     0.041 A 
ATOM     17  C   UNL A   1      32.913  20.950  24.515  1.00  0.00     0.041 A 
ATOM     18  C   UNL A   1      32.315  21.331  25.715  1.00  0.00     0.028 A 
ATOM     19  C   UNL A   1      32.498  21.538  23.338  1.00  0.00     0.028 A 
ATOM     20  C   UNL A   1      31.436  22.432  25.743  1.00  0.00     0.028 A 
ATOM     21  C   UNL A   1      31.715  22.672  23.384  1.00  0.00     0.028 A 
BRANCH  17  22
ATOM     22  N   UNL A   1      33.955  20.023  24.482  1.00  0.00    -0.326 N 
ATOM     23  C   UNL A   1      33.829  18.653  24.397  1.00  0.00     0.224 C 
ATOM     24  O   UNL A   1      34.811  17.944  24.627  1.00  0.00    -0.275 OA
ATOM     25  H   UNL A   1      34.870  20.383  24.523  1.00  0.00     0.169 HD
BRANCH  23  26
ATOM     26  C   UNL A   1      32.519  18.041  23.886  1.00  0.00     0.097 C 
ATOM     27  C   UNL A   1      32.328  18.067  22.376  1.00  0.00     0.014 C 
ENDBRANCH  23  26
ENDBRANCH  17  22
ENDBRANCH  13  16
ENDBRANCH   7  12
ENDBRANCH   3   6
ENDBRANCH   1   2
BRANCH   1  28
ATOM     28  C   UNL A   1      35.094  23.723  25.091  1.00  0.00     0.042 C 
BRANCH  28  29
ATOM     29  C   UNL A   1      36.370  23.906  25.917  1.00  0.00     0.118 C 
BRANCH  29  30
ATOM     30  N   UNL A   1      37.303  22.803  25.942  1.00  0.00    -0.352 N 
ATOM     31  C   UNL A   1      38.618  22.826  26.374  1.00  0.00     0.251 C 
ATOM     32  H   UNL A   1      36.966  21.938  25.614  1.00  0.00     0.163 HD
ATOM     33  O   UNL A   1      39.294  21.810  26.324  1.00  0.00    -0.269 OA
BRANCH  31  34
ATOM     34  C   UNL A   1      39.225  24.091  26.872  1.00  0.00     0.039 A 
ATOM     35  C   UNL A   1      39.873  24.928  25.958  1.00  0.00     0.014 A 
ATOM     36  C   UNL A   1      39.203  24.435  28.229  1.00  0.00     0.014 A 
ATOM     37  C   UNL A   1      40.469  26.119  26.393  1.00  0.00     0.010 A 
ATOM     38  C   UNL A   1      39.770  25.648  28.655  1.00  0.00     0.010 A 
ATOM     39  C   UNL A   1      40.418  26.502  27.745  1.00  0.00    -0.014 A 
BRANCH  39  40
ATOM     40  C   UNL A   1      41.061  27.775  28.198  1.00  0.00     0.031 A 
ATOM     41  C   UNL A   1      42.554  27.965  28.082  1.00  0.00     0.074 A 
ATOM     42  C   UNL A   1      40.311  28.768  28.718  1.00  0.00     0.049 A 
ATOM     43  N   UNL A   1      43.286  29.003  28.406  1.00  0.00    -0.248 NA
ATOM     44  C   UNL A   1      43.329  26.834  27.550  1.00  0.00     0.031 C 
ATOM     45  C   UNL A   1      38.862  28.711  28.924  1.00  0.00     0.029 A 
ATOM     46  N   UNL A   1      40.657  30.021  29.170  1.00  0.00    -0.354 N 
ATOM     47  C   UNL A   1      44.602  28.651  28.121  1.00  0.00     0.074 A 
ATOM     48  C   UNL A   1      44.573  27.282  27.651  1.00  0.00     0.031 C 
ATOM     49  C   UNL A   1      38.443  29.880  29.437  1.00  0.00     0.029 A 
ATOM     50  C   UNL A   1      39.591  30.763  29.626  1.00  0.00     0.049 A 
ATOM     51  H   UNL A   1      41.583  30.355  29.167  1.00  0.00     0.167 HD
ATOM     52  C   UNL A   1      45.728  29.400  28.218  1.00  0.00     0.037 A 
ATOM     53  C   UNL A   1      39.537  32.010  30.138  1.00  0.00     0.037 A 
ATOM     54  C   UNL A   1      45.757  30.769  28.667  1.00  0.00     0.049 A 
ATOM     55  C   UNL A   1      40.803  32.822  30.245  1.00  0.00     0.074 A 
ATOM     56  C   UNL A   1      46.843  31.625  28.749  1.00  0.00     0.029 A 
ATOM     57  N   UNL A   1      44.655  31.482  29.117  1.00  0.00    -0.354 N 
ATOM     58  N   UNL A   1      42.026  32.492  29.905  1.00  0.00    -0.248 NA
ATOM     59  C   UNL A   1      40.680  34.181  30.795  1.00  0.00     0.031 C 
ATOM     60  C   UNL A   1      46.407  32.839  29.292  1.00  0.00     0.029 A 
ATOM     61  C   UNL A   1      45.039  32.758  29.497  1.00  0.00     0.049 A 
ATOM     62  H   UNL A   1      43.736  31.134  29.158  1.00  0.00     0.167 HD
ATOM     63  C   UNL A   1      42.812  33.609  30.173  1.00  0.00     0.074 A 
ATOM     64  C   UNL A   1      41.925  34.629  30.689  1.00  0.00     0.031 C 
ATOM     65  C   UNL A   1      44.148  33.773  30.004  1.00  0.00     0.037 A 
BRANCH  52  66
ATOM     66  C   UNL A   1      47.034  28.757  27.824  1.00  0.00     0.058 A 
ATOM     67  C   UNL A   1      47.484  28.755  26.495  1.00  0.00     0.135 A 
ATOM     68  C   UNL A   1      47.865  28.172  28.794  1.00  0.00     0.135 A 
ATOM     69  F   UNL A   1      46.727  29.290  25.524  1.00  0.00    -0.206 F 
ATOM     70  C   UNL A   1      48.694  28.167  26.135  1.00  0.00     0.059 A 
ATOM     71  C   UNL A   1      49.094  27.605  28.463  1.00  0.00     0.059 A 
ATOM     72  F   UNL A   1      47.490  28.151  30.083  1.00  0.00    -0.206 F 
ATOM     73  C   UNL A   1      49.491  27.593  27.126  1.00  0.00     0.060 A 
BRANCH  73  74
ATOM     74  S   UNL A   1      51.056  26.835  26.641  1.00  0.00     0.124 S 
ATOM     75  O   UNL A   1      50.787  25.423  26.899  1.00  0.00    -0.237 OA
ATOM     76  O   UNL A   1      51.162  27.211  25.235  1.00  0.00    -0.237 OA
ATOM     77  O   UNL A   1      52.029  27.461  27.530  1.00  0.00    -0.744 OA
ENDBRANCH  73  74
ENDBRANCH  52  66
BRANCH  53  78
ATOM     78  C   UNL A   1      38.233  32.584  30.574  1.00  0.00     0.058 A 
ATOM     79  C   UNL A   1      37.805  32.486  31.907  1.00  0.00     0.135 A 
ATOM     80  C   UNL A   1      37.389  33.242  29.666  1.00  0.00     0.135 A 
ATOM     81  F   UNL A   1      38.569  31.857  32.812  1.00  0.00    -0.206 F 
ATOM     82  C   UNL A   1      36.581  33.004  32.321  1.00  0.00     0.059 A 
ATOM     83  C   UNL A   1      36.173  33.794  30.062  1.00  0.00     0.059 A 
ATOM     84  F   UNL A   1      37.755  33.374  28.382  1.00  0.00    -0.206 F 
ATOM     85  C   UNL A   1      35.773  33.661  31.390  1.00  0.00     0.060 A 
BRANCH  85  86
ATOM     86  S   UNL A   1      34.211  34.375  31.950  1.00  0.00     0.124 S 
ATOM     87  O   UNL A   1      33.501  34.555  30.689  1.00  0.00    -0.237 OA
ATOM     88  O   UNL A   1      33.696  33.331  32.830  1.00  0.00    -0.237 OA
ATOM     89  O   UNL A   1      34.626  35.602  32.623  1.00  0.00    -0.744 OA
ENDBRANCH  85  86
ENDBRANCH  53  78
BRANCH  65  90
ATOM     90  C   UNL A   1      44.736  35.117  30.345  1.00  0.00     0.058 A 
ATOM     91  C   UNL A   1      45.258  35.395  31.618  1.00  0.00     0.135 A 
ATOM     92  C   UNL A   1      44.828  36.121  29.368  1.00  0.00     0.135 A 
ATOM     93  F   UNL A   1      45.192  34.474  32.593  1.00  0.00    -0.206 F 
ATOM     94  C   UNL A   1      45.829  36.628  31.916  1.00  0.00     0.059 A 
ATOM     95  C   UNL A   1      45.421  37.352  29.635  1.00  0.00     0.059 A 
ATOM     96  F   UNL A   1      44.354  35.906  28.130  1.00  0.00    -0.206 F 
ATOM     97  C   UNL A   1      45.909  37.600  30.917  1.00  0.00     0.060 A 
BRANCH  97  98
ATOM     98  S   UNL A   1      46.683  39.184  31.308  1.00  0.00     0.124 S 
ATOM     99  O   UNL A   1      45.744  39.739  32.277  1.00  0.00    -0.237 OA
ATOM    100  O   UNL A   1      47.979  38.775  31.842  1.00  0.00    -0.237 OA
ATOM    101  O   UNL A   1      46.731  39.867  30.018  1.00  0.00    -0.744 OA
ENDBRANCH  97  98
ENDBRANCH  65  90
ENDBRANCH  39  40
ENDBRANCH  31  34
ENDBRANCH  29  30
ENDBRANCH  28  29
ENDBRANCH   1  28
TORSDOF 17
ENDMDL
MODEL 3
REMARK VINA RESULT:     -11.7      3.204      5.181
REMARK SMILES CCC(=O)Nc1ccc(NC(=O)[C@@H]2CC=CC[C@@H]2C(=O)NCCCNC(=O)c2ccc(-c3c4nc(c(-c5c(F)cc(S(=O)(=O)[O-])cc5F)c5ccc([nH]5)c(-c5c(F)cc(S(=O)(=O)[O-])cc5F)c5nc(c(-c6c(F)cc(S(=O)(=O)[O-])cc6F)c6ccc3[nH]6)C=C5)C=C4)cc2)cc1
REMARK SMILES IDX 22 1 21 2 19 3 20 4 18 6 13 7 14 8 15 9 17 10 16 11 11 12
REMARK SMILES IDX 10 13 12 15 9 16 6 17 7 18 95 19 8 20 94 21 5 22 3 23 4 24
REMARK SMILES IDX 2 26 1 27 23 28 24 29 25 30 26 31 27 33 28 34 29 35 93 36
REMARK SMILES IDX 30 37 92 38 31 39 32 40 33 41 86 42 34 43 91 44 85 45 87 46
REMARK SMILES IDX 35 47 90 48 84 49 83 50 36 52 70 53 49 54 69 55 50 56 53 57
REMARK SMILES IDX 68 58 88 59 51 60 52 61 67 63 89 64 54 65 37 66 38 67 47 68
REMARK SMILES IDX 39 69 40 70 46 71 48 72 41 73 42 74 43 75 44 76 45 77 71 78
REMARK SMILES IDX 72 79 81 80 73 81 74 82 80 83 82 84 75 85 76 86 77 87 78 88
REMARK SMILES IDX 79 89 55 90 56 91 65 92 57 93 58 94 64 95 66 96 59 97 60 98
REMARK SMILES IDX 61 99 62 100 63 101
REMARK H PARENT 21 5 10 14 5 25 25 32 87 51 53 62
REMARK Flexibility Score: inf
ROOT
ATOM      1  C   UNL A   1      34.834  24.101  23.368  1.00  0.00     0.117 C 
ENDROOT
BRANCH   1   2
ATOM      2  N   UNL A   1      33.849  25.130  23.052  1.00  0.00    -0.356 N 
ATOM      3  C   UNL A   1      33.242  26.123  23.776  1.00  0.00     0.224 C 
ATOM      4  O   UNL A   1      32.797  27.058  23.099  1.00  0.00    -0.275 OA
ATOM      5  H   UNL A   1      33.555  25.105  22.113  1.00  0.00     0.163 HD
BRANCH   3   6
ATOM      6  C   UNL A   1      33.134  26.149  25.319  1.00  0.00     0.095 C 
ATOM      7  C   UNL A   1      31.738  26.062  25.990  1.00  0.00     0.095 C 
ATOM      8  C   UNL A   1      31.206  27.203  26.879  1.00  0.00     0.041 C 
ATOM      9  C   UNL A   1      32.046  28.424  26.965  1.00  0.00    -0.030 C 
ATOM     10  C   UNL A   1      34.010  27.292  25.919  1.00  0.00     0.041 C 
ATOM     11  C   UNL A   1      33.300  28.472  26.514  1.00  0.00    -0.030 C 
BRANCH   7  12
ATOM     12  C   UNL A   1      30.575  25.580  25.158  1.00  0.00     0.228 C 
ATOM     13  N   UNL A   1      30.405  24.312  24.713  1.00  0.00    -0.326 N 
ATOM     14  H   UNL A   1      29.559  24.192  24.223  1.00  0.00     0.169 HD
ATOM     15  O   UNL A   1      29.687  26.395  24.875  1.00  0.00    -0.274 OA
BRANCH  13  16
ATOM     16  C   UNL A   1      31.157  23.135  24.790  1.00  0.00     0.041 A 
ATOM     17  C   UNL A   1      32.896  20.951  24.621  1.00  0.00     0.041 A 
ATOM     18  C   UNL A   1      32.439  21.382  25.865  1.00  0.00     0.028 A 
ATOM     19  C   UNL A   1      32.345  21.487  23.476  1.00  0.00     0.028 A 
ATOM     20  C   UNL A   1      31.561  22.481  25.947  1.00  0.00     0.028 A 
ATOM     21  C   UNL A   1      31.565  22.620  23.564  1.00  0.00     0.028 A 
BRANCH  17  22
ATOM     22  N   UNL A   1      33.935  20.025  24.507  1.00  0.00    -0.326 N 
ATOM     23  C   UNL A   1      33.801  18.665  24.323  1.00  0.00     0.224 C 
ATOM     24  O   UNL A   1      34.782  17.937  24.488  1.00  0.00    -0.275 OA
ATOM     25  H   UNL A   1      34.851  20.378  24.564  1.00  0.00     0.169 HD
BRANCH  23  26
ATOM     26  C   UNL A   1      32.483  18.097  23.783  1.00  0.00     0.097 C 
ATOM     27  C   UNL A   1      32.398  17.962  22.269  1.00  0.00     0.014 C 
ENDBRANCH  23  26
ENDBRANCH  17  22
ENDBRANCH  13  16
ENDBRANCH   7  12
ENDBRANCH   3   6
ENDBRANCH   1   2
BRANCH   1  28
ATOM     28  C   UNL A   1      35.171  23.838  24.852  1.00  0.00     0.042 C 
BRANCH  28  29
ATOM     29  C   UNL A   1      36.546  24.149  25.449  1.00  0.00     0.118 C 
BRANCH  29  30
ATOM     30  N   UNL A   1      37.545  23.107  25.381  1.00  0.00    -0.352 N 
ATOM     31  C   UNL A   1      38.803  23.112  25.958  1.00  0.00     0.251 C 
ATOM     32  H   UNL A   1      37.303  22.303  24.866  1.00  0.00     0.163 HD
ATOM     33  O   UNL A   1      39.549  22.157  25.803  1.00  0.00    -0.269 OA
BRANCH  31  34
ATOM     34  C   UNL A   1      39.266  24.289  26.743  1.00  0.00     0.039 A 
ATOM     35  C   UNL A   1      38.875  24.397  28.081  1.00  0.00     0.014 A 
ATOM     36  C   UNL A   1      40.037  25.305  26.165  1.00  0.00     0.014 A 
ATOM     37  C   UNL A   1      39.278  25.499  28.847  1.00  0.00     0.010 A 
ATOM     38  C   UNL A   1      40.470  26.389  26.946  1.00  0.00     0.010 A 
ATOM     39  C   UNL A   1      40.090  26.506  28.294  1.00  0.00    -0.014 A 
BRANCH  39  40
ATOM     40  C   UNL A   1      40.512  27.679  29.122  1.00  0.00     0.031 A 
ATOM     41  C   UNL A   1      41.856  27.693  29.808  1.00  0.00     0.074 A 
ATOM     42  C   UNL A   1      39.689  28.739  29.266  1.00  0.00     0.049 A 
ATOM     43  N   UNL A   1      42.399  28.626  30.551  1.00  0.00    -0.248 NA
ATOM     44  C   UNL A   1      42.693  26.493  29.655  1.00  0.00     0.031 C 
ATOM     45  C   UNL A   1      38.347  28.849  28.691  1.00  0.00     0.029 A 
ATOM     46  N   UNL A   1      39.856  29.928  29.938  1.00  0.00    -0.354 N 
ATOM     47  C   UNL A   1      43.634  28.127  30.955  1.00  0.00     0.074 A 
ATOM     48  C   UNL A   1      43.735  26.786  30.420  1.00  0.00     0.031 C 
ATOM     49  C   UNL A   1      37.825  30.044  29.014  1.00  0.00     0.029 A 
ATOM     50  C   UNL A   1      38.778  30.779  29.843  1.00  0.00     0.049 A 
ATOM     51  H   UNL A   1      40.673  30.149  30.442  1.00  0.00     0.167 HD
ATOM     52  C   UNL A   1      44.605  28.734  31.682  1.00  0.00     0.037 A 
ATOM     53  C   UNL A   1      38.574  32.008  30.361  1.00  0.00     0.037 A 
ATOM     54  C   UNL A   1      44.514  30.077  32.199  1.00  0.00     0.049 A 
ATOM     55  C   UNL A   1      39.664  32.659  31.174  1.00  0.00     0.074 A 
ATOM     56  C   UNL A   1      45.468  30.794  32.902  1.00  0.00     0.029 A 
ATOM     57  N   UNL A   1      43.406  30.903  32.077  1.00  0.00    -0.354 N 
ATOM     58  N   UNL A   1      40.851  32.195  31.485  1.00  0.00    -0.248 NA
ATOM     59  C   UNL A   1      39.391  34.007  31.698  1.00  0.00     0.031 C 
ATOM     60  C   UNL A   1      44.920  32.034  33.246  1.00  0.00     0.029 A 
ATOM     61  C   UNL A   1      43.644  32.112  32.711  1.00  0.00     0.049 A 
ATOM     62  H   UNL A   1      42.574  30.665  31.609  1.00  0.00     0.167 HD
ATOM     63  C   UNL A   1      41.476  33.203  32.215  1.00  0.00     0.074 A 
ATOM     64  C   UNL A   1      40.542  34.306  32.287  1.00  0.00     0.031 C 
ATOM     65  C   UNL A   1      42.712  33.211  32.772  1.00  0.00     0.037 A 
BRANCH  52  66
ATOM     66  C   UNL A   1      45.862  27.951  31.962  1.00  0.00     0.058 A 
ATOM     67  C   UNL A   1      45.945  27.047  33.033  1.00  0.00     0.135 A 
ATOM     68  C   UNL A   1      46.985  28.077  31.127  1.00  0.00     0.135 A 
ATOM     69  F   UNL A   1      44.907  26.893  33.870  1.00  0.00    -0.206 F 
ATOM     70  C   UNL A   1      47.106  26.320  33.285  1.00  0.00     0.059 A 
ATOM     71  C   UNL A   1      48.146  27.337  31.342  1.00  0.00     0.059 A 
ATOM     72  F   UNL A   1      46.962  28.921  30.084  1.00  0.00    -0.206 F 
ATOM     73  C   UNL A   1      48.202  26.473  32.435  1.00  0.00     0.060 A 
BRANCH  73  74
ATOM     74  S   UNL A   1      49.698  25.523  32.779  1.00  0.00     0.124 S 
ATOM     75  O   UNL A   1      49.186  24.491  33.677  1.00  0.00    -0.237 OA
ATOM     76  O   UNL A   1      50.090  25.066  31.450  1.00  0.00    -0.237 OA
ATOM     77  O   UNL A   1      50.590  26.502  33.391  1.00  0.00    -0.744 OA
ENDBRANCH  73  74
ENDBRANCH  52  66
BRANCH  53  78
ATOM     78  C   UNL A   1      37.290  32.720  30.111  1.00  0.00     0.058 A 
ATOM     79  C   UNL A   1      36.153  32.466  30.894  1.00  0.00     0.135 A 
ATOM     80  C   UNL A   1      37.173  33.670  29.084  1.00  0.00     0.135 A 
ATOM     81  F   UNL A   1      36.208  31.559  31.881  1.00  0.00    -0.206 F 
ATOM     82  C   UNL A   1      34.944  33.114  30.659  1.00  0.00     0.059 A 
ATOM     83  C   UNL A   1      35.982  34.353  28.847  1.00  0.00     0.059 A 
ATOM     84  F   UNL A   1      38.232  33.960  28.312  1.00  0.00    -0.206 F 
ATOM     85  C   UNL A   1      34.870  34.060  29.635  1.00  0.00     0.060 A 
BRANCH  85  86
ATOM     86  S   UNL A   1      33.310  34.932  29.372  1.00  0.00     0.124 S 
ATOM     87  O   UNL A   1      32.642  34.059  28.414  1.00  0.00    -0.237 OA
ATOM     88  O   UNL A   1      32.744  34.958  30.716  1.00  0.00    -0.237 OA
ATOM     89  O   UNL A   1      33.735  36.229  28.854  1.00  0.00    -0.744 OA
ENDBRANCH  85  86
ENDBRANCH  53  78
BRANCH  65  90
ATOM     90  C   UNL A   1      43.150  34.464  33.483  1.00  0.00     0.058 A 
ATOM     91  C   UNL A   1      43.071  34.591  34.879  1.00  0.00     0.135 A 
ATOM     92  C   UNL A   1      43.709  35.532  32.761  1.00  0.00     0.135 A 
ATOM     93  F   UNL A   1      42.541  33.603  35.619  1.00  0.00    -0.206 F 
ATOM     94  C   UNL A   1      43.508  35.740  35.531  1.00  0.00     0.059 A 
ATOM     95  C   UNL A   1      44.179  36.678  33.395  1.00  0.00     0.059 A 
ATOM     96  F   UNL A   1      43.818  35.461  31.425  1.00  0.00    -0.206 F 
ATOM     97  C   UNL A   1      44.063  36.778  34.781  1.00  0.00     0.060 A 
BRANCH  97  98
ATOM     98  S   UNL A   1      44.657  38.249  35.643  1.00  0.00     0.124 S 
ATOM     99  O   UNL A   1      44.350  39.299  34.679  1.00  0.00    -0.237 OA
ATOM    100  O   UNL A   1      43.848  38.246  36.858  1.00  0.00    -0.237 OA
ATOM    101  O   UNL A   1      46.078  37.976  35.843  1.00  0.00    -0.744 OA
ENDBRANCH  97  98
ENDBRANCH  65  90
ENDBRANCH  39  40
ENDBRANCH  31  34
ENDBRANCH  29  30
ENDBRANCH  28  29
ENDBRANCH   1  28
TORSDOF 17
ENDMDL
