MODEL 1
REMARK VINA RESULT:     -12.1      0.000      0.000
REMARK SMILES Cc1nc(Oc2ccc(F)cc2)c(C(=O)NCCCNC(=O)c2ccc(-c3c4nc(c(-c5c(F)cc(S(=O)(=O)[O-])cc5F)c5ccc([nH]5)c(-c5c(F)cc(S(=O)(=O)[O-])cc5F)c5nc(c(-c6c(F)cc(S(=O)(=O)[O-])cc6F)c6ccc3[nH]6)C=C5)C=C4)cc2)c(C)c1Cl
REMARK SMILES IDX 18 1 17 2 16 3 14 4 15 5 13 7 1 8 2 9 3 10 91 11 4 12 89 13
REMARK SMILES IDX 92 14 90 15 5 16 6 17 7 18 12 19 8 20 11 21 9 22 10 23 19 24
REMARK SMILES IDX 20 25 21 26 22 28 23 29 24 30 88 31 25 32 87 33 26 34 27 35
REMARK SMILES IDX 28 36 81 37 29 38 86 39 80 40 82 41 30 42 85 43 79 44 78 45
REMARK SMILES IDX 31 47 65 48 44 49 64 50 45 51 48 52 63 53 83 54 46 55 47 56
REMARK SMILES IDX 62 58 84 59 49 60 32 61 33 62 42 63 34 64 35 65 41 66 43 67
REMARK SMILES IDX 36 68 37 69 38 70 39 71 40 72 66 73 67 74 76 75 68 76 69 77
REMARK SMILES IDX 75 78 77 79 70 80 71 81 72 82 73 83 74 84 50 85 51 86 60 87
REMARK SMILES IDX 52 88 53 89 59 90 61 91 54 92 55 93 56 94 57 95 58 96
REMARK H PARENT 16 6 20 27 82 46 48 57
REMARK Flexibility Score: inf
ROOT
ATOM      1  C   UNL A   1      37.378  23.779  25.419  1.00  0.00     0.042 C 
ENDROOT
BRANCH   1   2
ATOM      2  C   UNL A   1      36.102  23.219  26.031  1.00  0.00     0.118 C 
BRANCH   2   3
ATOM      3  N   UNL A   1      35.161  24.289  26.268  1.00  0.00    -0.352 N 
ATOM      4  C   UNL A   1      33.890  24.197  25.765  1.00  0.00     0.257 C 
ATOM      5  O   UNL A   1      33.125  23.278  26.021  1.00  0.00    -0.269 OA
ATOM      6  H   UNL A   1      35.432  25.080  26.789  1.00  0.00     0.163 HD
BRANCH   4   7
ATOM      7  C   UNL A   1      33.510  25.254  24.812  1.00  0.00     0.106 A 
ATOM      8  C   UNL A   1      31.347  27.909  22.323  1.00  0.00     0.068 C 
ATOM      9  C   UNL A   1      32.222  26.995  23.131  1.00  0.00     0.060 A 
ATOM     10  N   UNL A   1      32.371  27.329  24.439  1.00  0.00    -0.216 NA
ATOM     11  C   UNL A   1      32.788  25.847  22.576  1.00  0.00     0.066 A 
ATOM     12  C   UNL A   1      33.015  26.475  25.273  1.00  0.00     0.232 A 
ATOM     13  C   UNL A   1      33.442  24.942  23.425  1.00  0.00    -0.012 A 
ATOM     14  Cl  UNL A   1      32.614  25.542  20.878  1.00  0.00    -0.082 Cl
ATOM     15  C   UNL A   1      34.028  23.663  22.887  1.00  0.00     0.047 C 
BRANCH  12  16
ATOM     16  O   UNL A   1      32.975  26.943  26.564  1.00  0.00    -0.438 OA
BRANCH  16  17
ATOM     17  C   UNL A   1      33.313  28.230  26.883  1.00  0.00     0.129 A 
ATOM     18  C   UNL A   1      32.263  29.153  26.887  1.00  0.00     0.050 A 
ATOM     19  C   UNL A   1      34.627  28.657  27.095  1.00  0.00     0.050 A 
ATOM     20  C   UNL A   1      32.508  30.493  27.180  1.00  0.00     0.043 A 
ATOM     21  C   UNL A   1      34.870  30.003  27.396  1.00  0.00     0.043 A 
ATOM     22  C   UNL A   1      33.807  30.905  27.445  1.00  0.00     0.123 A 
ATOM     23  F   UNL A   1      34.041  32.187  27.752  1.00  0.00    -0.207 F 
ENDBRANCH  16  17
ENDBRANCH  12  16
ENDBRANCH   4   7
ENDBRANCH   2   3
ENDBRANCH   1   2
BRANCH   1  24
ATOM     24  C   UNL A   1      38.326  24.276  26.490  1.00  0.00     0.118 C 
BRANCH  24  25
ATOM     25  N   UNL A   1      39.711  24.005  26.128  1.00  0.00    -0.352 N 
ATOM     26  C   UNL A   1      40.838  24.724  26.439  1.00  0.00     0.251 C 
ATOM     27  H   UNL A   1      39.858  23.197  25.585  1.00  0.00     0.163 HD
ATOM     28  O   UNL A   1      41.886  24.523  25.842  1.00  0.00    -0.269 OA
BRANCH  26  29
ATOM     29  C   UNL A   1      40.754  25.745  27.500  1.00  0.00     0.039 A 
ATOM     30  C   UNL A   1      41.564  26.879  27.428  1.00  0.00     0.014 A 
ATOM     31  C   UNL A   1      39.854  25.572  28.556  1.00  0.00     0.014 A 
ATOM     32  C   UNL A   1      41.438  27.868  28.404  1.00  0.00     0.010 A 
ATOM     33  C   UNL A   1      39.661  26.596  29.467  1.00  0.00     0.010 A 
ATOM     34  C   UNL A   1      40.476  27.735  29.417  1.00  0.00    -0.014 A 
BRANCH  34  35
ATOM     35  C   UNL A   1      40.365  28.724  30.509  1.00  0.00     0.031 A 
ATOM     36  C   UNL A   1      41.268  28.583  31.702  1.00  0.00     0.074 A 
ATOM     37  C   UNL A   1      39.432  29.692  30.451  1.00  0.00     0.049 A 
ATOM     38  N   UNL A   1      41.295  29.282  32.804  1.00  0.00    -0.248 NA
ATOM     39  C   UNL A   1      42.253  27.487  31.661  1.00  0.00     0.031 C 
ATOM     40  C   UNL A   1      38.487  29.893  29.351  1.00  0.00     0.029 A 
ATOM     41  N   UNL A   1      39.123  30.683  31.344  1.00  0.00    -0.354 N 
ATOM     42  C   UNL A   1      42.292  28.710  33.584  1.00  0.00     0.074 A 
ATOM     43  C   UNL A   1      42.793  27.561  32.866  1.00  0.00     0.031 C 
ATOM     44  C   UNL A   1      37.719  30.961  29.625  1.00  0.00     0.029 A 
ATOM     45  C   UNL A   1      38.095  31.497  30.930  1.00  0.00     0.049 A 
ATOM     46  H   UNL A   1      39.592  30.803  32.200  1.00  0.00     0.167 HD
ATOM     47  C   UNL A   1      42.774  29.131  34.775  1.00  0.00     0.037 A 
ATOM     48  C   UNL A   1      37.526  32.552  31.542  1.00  0.00     0.037 A 
ATOM     49  C   UNL A   1      42.279  30.289  35.465  1.00  0.00     0.049 A 
ATOM     50  C   UNL A   1      38.056  32.983  32.884  1.00  0.00     0.074 A 
ATOM     51  C   UNL A   1      42.716  30.832  36.659  1.00  0.00     0.029 A 
ATOM     52  N   UNL A   1      41.233  31.086  35.020  1.00  0.00    -0.354 N 
ATOM     53  N   UNL A   1      39.033  32.464  33.589  1.00  0.00    -0.248 NA
ATOM     54  C   UNL A   1      37.409  34.142  33.512  1.00  0.00     0.031 C 
ATOM     55  C   UNL A   1      41.904  31.929  36.959  1.00  0.00     0.029 A 
ATOM     56  C   UNL A   1      40.994  32.102  35.927  1.00  0.00     0.049 A 
ATOM     57  H   UNL A   1      40.735  30.948  34.182  1.00  0.00     0.167 HD
ATOM     58  C   UNL A   1      39.135  33.247  34.734  1.00  0.00     0.074 A 
ATOM     59  C   UNL A   1      38.128  34.282  34.618  1.00  0.00     0.031 C 
ATOM     60  C   UNL A   1      39.982  33.120  35.787  1.00  0.00     0.037 A 
BRANCH  47  61
ATOM     61  C   UNL A   1      43.897  28.341  35.388  1.00  0.00     0.058 A 
ATOM     62  C   UNL A   1      43.651  27.301  36.299  1.00  0.00     0.135 A 
ATOM     63  C   UNL A   1      45.232  28.612  35.049  1.00  0.00     0.135 A 
ATOM     64  F   UNL A   1      42.394  27.016  36.678  1.00  0.00    -0.206 F 
ATOM     65  C   UNL A   1      44.689  26.575  36.872  1.00  0.00     0.059 A 
ATOM     66  C   UNL A   1      46.285  27.877  35.586  1.00  0.00     0.059 A 
ATOM     67  F   UNL A   1      45.524  29.602  34.190  1.00  0.00    -0.206 F 
ATOM     68  C   UNL A   1      46.003  26.868  36.506  1.00  0.00     0.060 A 
BRANCH  68  69
ATOM     69  S   UNL A   1      47.334  25.904  37.250  1.00  0.00     0.124 S 
ATOM     70  O   UNL A   1      48.268  25.785  36.135  1.00  0.00    -0.237 OA
ATOM     71  O   UNL A   1      47.764  26.766  38.347  1.00  0.00    -0.237 OA
ATOM     72  O   UNL A   1      46.676  24.665  37.650  1.00  0.00    -0.744 OA
ENDBRANCH  68  69
ENDBRANCH  47  61
BRANCH  48  73
ATOM     73  C   UNL A   1      36.426  33.294  30.869  1.00  0.00     0.058 A 
ATOM     74  C   UNL A   1      35.111  33.218  31.350  1.00  0.00     0.135 A 
ATOM     75  C   UNL A   1      36.670  34.121  29.761  1.00  0.00     0.135 A 
ATOM     76  F   UNL A   1      34.827  32.436  32.403  1.00  0.00    -0.206 F 
ATOM     77  C   UNL A   1      34.075  33.930  30.757  1.00  0.00     0.059 A 
ATOM     78  C   UNL A   1      35.654  34.862  29.164  1.00  0.00     0.059 A 
ATOM     79  F   UNL A   1      37.913  34.241  29.271  1.00  0.00    -0.206 F 
ATOM     80  C   UNL A   1      34.358  34.758  29.668  1.00  0.00     0.060 A 
BRANCH  80  81
ATOM     81  S   UNL A   1      33.014  35.728  28.951  1.00  0.00     0.124 S 
ATOM     82  O   UNL A   1      33.747  36.776  28.251  1.00  0.00    -0.237 OA
ATOM     83  O   UNL A   1      32.347  34.742  28.108  1.00  0.00    -0.237 OA
ATOM     84  O   UNL A   1      32.253  36.162  30.119  1.00  0.00    -0.744 OA
ENDBRANCH  80  81
ENDBRANCH  48  73
BRANCH  60  85
ATOM     85  C   UNL A   1      39.867  34.131  36.894  1.00  0.00     0.058 A 
ATOM     86  C   UNL A   1      40.523  35.369  36.825  1.00  0.00     0.135 A 
ATOM     87  C   UNL A   1      39.029  33.889  37.995  1.00  0.00     0.135 A 
ATOM     88  F   UNL A   1      41.338  35.647  35.796  1.00  0.00    -0.206 F 
ATOM     89  C   UNL A   1      40.366  36.328  37.820  1.00  0.00     0.059 A 
ATOM     90  C   UNL A   1      38.833  34.846  38.985  1.00  0.00     0.059 A 
ATOM     91  F   UNL A   1      38.369  32.725  38.100  1.00  0.00    -0.206 F 
ATOM     92  C   UNL A   1      39.513  36.060  38.893  1.00  0.00     0.060 A 
BRANCH  92  93
ATOM     93  S   UNL A   1      39.288  37.332  40.152  1.00  0.00     0.124 S 
ATOM     94  O   UNL A   1      38.419  38.280  39.461  1.00  0.00    -0.237 OA
ATOM     95  O   UNL A   1      38.671  36.583  41.242  1.00  0.00    -0.237 OA
ATOM     96  O   UNL A   1      40.647  37.801  40.411  1.00  0.00    -0.744 OA
ENDBRANCH  92  93
ENDBRANCH  60  85
ENDBRANCH  34  35
ENDBRANCH  26  29
ENDBRANCH  24  25
ENDBRANCH   1  24
TORSDOF 15
ENDMDL
MODEL 2
REMARK VINA RESULT:     -12.0      6.684     12.100
REMARK SMILES Cc1nc(Oc2ccc(F)cc2)c(C(=O)NCCCNC(=O)c2ccc(-c3c4nc(c(-c5c(F)cc(S(=O)(=O)[O-])cc5F)c5ccc([nH]5)c(-c5c(F)cc(S(=O)(=O)[O-])cc5F)c5nc(c(-c6c(F)cc(S(=O)(=O)[O-])cc6F)c6ccc3[nH]6)C=C5)C=C4)cc2)c(C)c1Cl
REMARK SMILES IDX 18 1 17 2 16 3 14 4 15 5 13 7 1 8 2 9 3 10 91 11 4 12 89 13
REMARK SMILES IDX 92 14 90 15 5 16 6 17 7 18 12 19 8 20 11 21 9 22 10 23 19 24
REMARK SMILES IDX 20 25 21 26 22 28 23 29 24 30 88 31 25 32 87 33 26 34 27 35
REMARK SMILES IDX 28 36 81 37 29 38 86 39 80 40 82 41 30 42 85 43 79 44 78 45
REMARK SMILES IDX 31 47 65 48 44 49 64 50 45 51 48 52 63 53 83 54 46 55 47 56
REMARK SMILES IDX 62 58 84 59 49 60 32 61 33 62 42 63 34 64 35 65 41 66 43 67
REMARK SMILES IDX 36 68 37 69 38 70 39 71 40 72 66 73 67 74 76 75 68 76 69 77
REMARK SMILES IDX 75 78 77 79 70 80 71 81 72 82 73 83 74 84 50 85 51 86 60 87
REMARK SMILES IDX 52 88 53 89 59 90 61 91 54 92 55 93 56 94 57 95 58 96
REMARK H PARENT 16 6 20 27 82 46 48 57
REMARK Flexibility Score: inf
ROOT
ATOM      1  C   UNL A   1      34.149  29.501  26.685  1.00  0.00     0.042 C 
ENDROOT
BRANCH   1   2
ATOM      2  C   UNL A   1      33.219  28.323  26.436  1.00  0.00     0.118 C 
BRANCH   2   3
ATOM      3  N   UNL A   1      33.974  27.198  25.938  1.00  0.00    -0.352 N 
ATOM      4  C   UNL A   1      33.442  26.407  24.953  1.00  0.00     0.257 C 
ATOM      5  O   UNL A   1      33.087  26.830  23.862  1.00  0.00    -0.269 OA
ATOM      6  H   UNL A   1      34.867  27.000  26.304  1.00  0.00     0.163 HD
BRANCH   4   7
ATOM      7  C   UNL A   1      33.246  24.993  25.315  1.00  0.00     0.106 A 
ATOM      8  C   UNL A   1      32.400  20.845  25.232  1.00  0.00     0.068 C 
ATOM      9  C   UNL A   1      32.684  22.311  25.395  1.00  0.00     0.060 A 
ATOM     10  N   UNL A   1      33.926  22.714  25.021  1.00  0.00    -0.216 NA
ATOM     11  C   UNL A   1      31.705  23.198  25.843  1.00  0.00     0.066 A 
ATOM     12  C   UNL A   1      34.212  24.040  24.989  1.00  0.00     0.232 A 
ATOM     13  C   UNL A   1      31.975  24.574  25.800  1.00  0.00    -0.012 A 
ATOM     14  Cl  UNL A   1      30.173  22.586  26.377  1.00  0.00    -0.082 Cl
ATOM     15  C   UNL A   1      30.936  25.579  26.226  1.00  0.00     0.047 C 
BRANCH  12  16
ATOM     16  O   UNL A   1      35.476  24.246  24.494  1.00  0.00    -0.438 OA
BRANCH  16  17
ATOM     17  C   UNL A   1      36.576  23.630  25.025  1.00  0.00     0.129 A 
ATOM     18  C   UNL A   1      36.834  22.337  24.561  1.00  0.00     0.050 A 
ATOM     19  C   UNL A   1      37.358  24.181  26.045  1.00  0.00     0.050 A 
ATOM     20  C   UNL A   1      37.920  21.616  25.056  1.00  0.00     0.043 A 
ATOM     21  C   UNL A   1      38.452  23.458  26.536  1.00  0.00     0.043 A 
ATOM     22  C   UNL A   1      38.727  22.188  26.029  1.00  0.00     0.123 A 
ATOM     23  F   UNL A   1      39.786  21.508  26.488  1.00  0.00    -0.207 F 
ENDBRANCH  16  17
ENDBRANCH  12  16
ENDBRANCH   4   7
ENDBRANCH   2   3
ENDBRANCH   1   2
BRANCH   1  24
ATOM     24  C   UNL A   1      35.285  29.114  27.607  1.00  0.00     0.118 C 
BRANCH  24  25
ATOM     25  N   UNL A   1      35.274  29.925  28.818  1.00  0.00    -0.352 N 
ATOM     26  C   UNL A   1      36.277  30.115  29.736  1.00  0.00     0.251 C 
ATOM     27  H   UNL A   1      34.432  30.400  29.004  1.00  0.00     0.163 HD
ATOM     28  O   UNL A   1      36.031  30.601  30.831  1.00  0.00    -0.269 OA
BRANCH  26  29
ATOM     29  C   UNL A   1      37.650  29.715  29.375  1.00  0.00     0.039 A 
ATOM     30  C   UNL A   1      38.078  29.845  28.054  1.00  0.00     0.014 A 
ATOM     31  C   UNL A   1      38.509  29.224  30.363  1.00  0.00     0.014 A 
ATOM     32  C   UNL A   1      39.395  29.518  27.730  1.00  0.00     0.010 A 
ATOM     33  C   UNL A   1      39.840  28.994  30.061  1.00  0.00     0.010 A 
ATOM     34  C   UNL A   1      40.283  29.106  28.736  1.00  0.00    -0.014 A 
BRANCH  34  35
ATOM     35  C   UNL A   1      41.662  28.681  28.420  1.00  0.00     0.031 A 
ATOM     36  C   UNL A   1      42.754  29.713  28.433  1.00  0.00     0.074 A 
ATOM     37  C   UNL A   1      41.912  27.405  28.074  1.00  0.00     0.049 A 
ATOM     38  N   UNL A   1      44.014  29.585  28.116  1.00  0.00    -0.248 NA
ATOM     39  C   UNL A   1      42.370  31.080  28.828  1.00  0.00     0.031 C 
ATOM     40  C   UNL A   1      40.914  26.336  28.000  1.00  0.00     0.029 A 
ATOM     41  N   UNL A   1      43.083  26.796  27.711  1.00  0.00    -0.354 N 
ATOM     42  C   UNL A   1      44.567  30.850  28.269  1.00  0.00     0.074 A 
ATOM     43  C   UNL A   1      43.494  31.748  28.630  1.00  0.00     0.031 C 
ATOM     44  C   UNL A   1      41.523  25.194  27.640  1.00  0.00     0.029 A 
ATOM     45  C   UNL A   1      42.943  25.458  27.426  1.00  0.00     0.049 A 
ATOM     46  H   UNL A   1      43.944  27.269  27.661  1.00  0.00     0.167 HD
ATOM     47  C   UNL A   1      45.862  31.221  28.156  1.00  0.00     0.037 A 
ATOM     48  C   UNL A   1      43.862  24.555  27.035  1.00  0.00     0.037 A 
ATOM     49  C   UNL A   1      46.921  30.312  27.817  1.00  0.00     0.049 A 
ATOM     50  C   UNL A   1      45.293  24.998  26.883  1.00  0.00     0.074 A 
ATOM     51  C   UNL A   1      48.275  30.568  27.713  1.00  0.00     0.029 A 
ATOM     52  N   UNL A   1      46.742  28.965  27.529  1.00  0.00    -0.354 N 
ATOM     53  N   UNL A   1      45.813  26.187  27.079  1.00  0.00    -0.248 NA
ATOM     54  C   UNL A   1      46.262  23.979  26.460  1.00  0.00     0.031 C 
ATOM     55  C   UNL A   1      48.909  29.387  27.314  1.00  0.00     0.029 A 
ATOM     56  C   UNL A   1      47.958  28.383  27.222  1.00  0.00     0.049 A 
ATOM     57  H   UNL A   1      45.877  28.496  27.541  1.00  0.00     0.167 HD
ATOM     58  C   UNL A   1      47.174  26.055  26.826  1.00  0.00     0.074 A 
ATOM     59  C   UNL A   1      47.397  24.666  26.477  1.00  0.00     0.031 C 
ATOM     60  C   UNL A   1      48.150  26.995  26.875  1.00  0.00     0.037 A 
BRANCH  47  61
ATOM     61  C   UNL A   1      46.197  32.664  28.418  1.00  0.00     0.058 A 
ATOM     62  C   UNL A   1      46.188  33.618  27.388  1.00  0.00     0.135 A 
ATOM     63  C   UNL A   1      46.510  33.103  29.714  1.00  0.00     0.135 A 
ATOM     64  F   UNL A   1      45.920  33.248  26.125  1.00  0.00    -0.206 F 
ATOM     65  C   UNL A   1      46.504  34.951  27.627  1.00  0.00     0.059 A 
ATOM     66  C   UNL A   1      46.798  34.439  29.982  1.00  0.00     0.059 A 
ATOM     67  F   UNL A   1      46.542  32.232  30.734  1.00  0.00    -0.206 F 
ATOM     68  C   UNL A   1      46.804  35.352  28.929  1.00  0.00     0.060 A 
BRANCH  68  69
ATOM     69  S   UNL A   1      47.197  37.089  29.220  1.00  0.00     0.124 S 
ATOM     70  O   UNL A   1      47.997  37.408  28.042  1.00  0.00    -0.237 OA
ATOM     71  O   UNL A   1      45.873  37.701  29.272  1.00  0.00    -0.237 OA
ATOM     72  O   UNL A   1      47.925  37.066  30.484  1.00  0.00    -0.744 OA
ENDBRANCH  68  69
ENDBRANCH  47  61
BRANCH  48  73
ATOM     73  C   UNL A   1      43.460  23.141  26.806  1.00  0.00     0.058 A 
ATOM     74  C   UNL A   1      43.436  22.604  25.511  1.00  0.00     0.135 A 
ATOM     75  C   UNL A   1      43.133  22.290  27.873  1.00  0.00     0.135 A 
ATOM     76  F   UNL A   1      43.736  23.380  24.458  1.00  0.00    -0.206 F 
ATOM     77  C   UNL A   1      43.097  21.276  25.278  1.00  0.00     0.059 A 
ATOM     78  C   UNL A   1      42.812  20.951  27.668  1.00  0.00     0.059 A 
ATOM     79  F   UNL A   1      43.156  22.751  29.133  1.00  0.00    -0.206 F 
ATOM     80  C   UNL A   1      42.795  20.453  26.366  1.00  0.00     0.060 A 
BRANCH  80  81
ATOM     81  S   UNL A   1      42.422  18.714  26.054  1.00  0.00     0.124 S 
ATOM     82  O   UNL A   1      41.012  18.775  25.686  1.00  0.00    -0.237 OA
ATOM     83  O   UNL A   1      43.351  18.395  24.975  1.00  0.00    -0.237 OA
ATOM     84  O   UNL A   1      42.712  18.073  27.333  1.00  0.00    -0.744 OA
ENDBRANCH  80  81
ENDBRANCH  48  73
BRANCH  60  85
ATOM     85  C   UNL A   1      49.553  26.557  26.556  1.00  0.00     0.058 A 
ATOM     86  C   UNL A   1      50.403  26.046  27.548  1.00  0.00     0.135 A 
ATOM     87  C   UNL A   1      50.020  26.574  25.231  1.00  0.00     0.135 A 
ATOM     88  F   UNL A   1      50.005  26.012  28.829  1.00  0.00    -0.206 F 
ATOM     89  C   UNL A   1      51.677  25.581  27.240  1.00  0.00     0.059 A 
ATOM     90  C   UNL A   1      51.279  26.086  24.897  1.00  0.00     0.059 A 
ATOM     91  F   UNL A   1      49.239  27.040  24.244  1.00  0.00    -0.206 F 
ATOM     92  C   UNL A   1      52.103  25.599  25.910  1.00  0.00     0.060 A 
BRANCH  92  93
ATOM     93  S   UNL A   1      53.743  24.953  25.524  1.00  0.00     0.124 S 
ATOM     94  O   UNL A   1      54.463  25.215  26.766  1.00  0.00    -0.237 OA
ATOM     95  O   UNL A   1      53.463  23.550  25.237  1.00  0.00    -0.237 OA
ATOM     96  O   UNL A   1      54.163  25.751  24.376  1.00  0.00    -0.744 OA
ENDBRANCH  92  93
ENDBRANCH  60  85
ENDBRANCH  34  35
ENDBRANCH  26  29
ENDBRANCH  24  25
ENDBRANCH   1  24
TORSDOF 15
ENDMDL
MODEL 3
REMARK VINA RESULT:     -11.7      2.339      3.660
REMARK SMILES Cc1nc(Oc2ccc(F)cc2)c(C(=O)NCCCNC(=O)c2ccc(-c3c4nc(c(-c5c(F)cc(S(=O)(=O)[O-])cc5F)c5ccc([nH]5)c(-c5c(F)cc(S(=O)(=O)[O-])cc5F)c5nc(c(-c6c(F)cc(S(=O)(=O)[O-])cc6F)c6ccc3[nH]6)C=C5)C=C4)cc2)c(C)c1Cl
REMARK SMILES IDX 18 1 17 2 16 3 14 4 15 5 13 7 1 8 2 9 3 10 91 11 4 12 89 13
REMARK SMILES IDX 92 14 90 15 5 16 6 17 7 18 12 19 8 20 11 21 9 22 10 23 19 24
REMARK SMILES IDX 20 25 21 26 22 28 23 29 24 30 88 31 25 32 87 33 26 34 27 35
REMARK SMILES IDX 28 36 81 37 29 38 86 39 80 40 82 41 30 42 85 43 79 44 78 45
REMARK SMILES IDX 31 47 65 48 44 49 64 50 45 51 48 52 63 53 83 54 46 55 47 56
REMARK SMILES IDX 62 58 84 59 49 60 32 61 33 62 42 63 34 64 35 65 41 66 43 67
REMARK SMILES IDX 36 68 37 69 38 70 39 71 40 72 66 73 67 74 76 75 68 76 69 77
REMARK SMILES IDX 75 78 77 79 70 80 71 81 72 82 73 83 74 84 50 85 51 86 60 87
REMARK SMILES IDX 52 88 53 89 59 90 61 91 54 92 55 93 56 94 57 95 58 96
REMARK H PARENT 16 6 20 27 82 46 48 57
REMARK Flexibility Score: inf
ROOT
ATOM      1  C   UNL A   1      38.476  22.817  26.112  1.00  0.00     0.042 C 
ENDROOT
BRANCH   1   2
ATOM      2  C   UNL A   1      37.267  23.738  26.026  1.00  0.00     0.118 C 
BRANCH   2   3
ATOM      3  N   UNL A   1      36.063  22.953  25.884  1.00  0.00    -0.352 N 
ATOM      4  C   UNL A   1      35.036  23.423  25.108  1.00  0.00     0.257 C 
ATOM      5  O   UNL A   1      35.156  23.709  23.925  1.00  0.00    -0.269 OA
ATOM      6  H   UNL A   1      35.981  22.085  26.343  1.00  0.00     0.163 HD
BRANCH   4   7
ATOM      7  C   UNL A   1      33.761  23.642  25.813  1.00  0.00     0.106 A 
ATOM      8  C   UNL A   1      29.661  24.066  26.780  1.00  0.00     0.068 C 
ATOM      9  C   UNL A   1      31.143  23.985  26.549  1.00  0.00     0.060 A 
ATOM     10  N   UNL A   1      31.668  22.732  26.544  1.00  0.00    -0.216 NA
ATOM     11  C   UNL A   1      31.906  25.125  26.295  1.00  0.00     0.066 A 
ATOM     12  C   UNL A   1      32.966  22.559  26.188  1.00  0.00     0.232 A 
ATOM     13  C   UNL A   1      33.244  24.966  25.909  1.00  0.00    -0.012 A 
ATOM     14  Cl  UNL A   1      31.168  26.690  26.404  1.00  0.00    -0.082 Cl
ATOM     15  C   UNL A   1      34.100  26.160  25.576  1.00  0.00     0.047 C 
BRANCH  12  16
ATOM     16  O   UNL A   1      33.278  21.222  26.149  1.00  0.00    -0.438 OA
BRANCH  16  17
ATOM     17  C   UNL A   1      32.927  20.422  25.097  1.00  0.00     0.129 A 
ATOM     18  C   UNL A   1      32.955  19.046  25.340  1.00  0.00     0.050 A 
ATOM     19  C   UNL A   1      32.654  20.904  23.813  1.00  0.00     0.050 A 
ATOM     20  C   UNL A   1      32.634  18.146  24.326  1.00  0.00     0.043 A 
ATOM     21  C   UNL A   1      32.325  19.999  22.796  1.00  0.00     0.043 A 
ATOM     22  C   UNL A   1      32.308  18.630  23.066  1.00  0.00     0.123 A 
ATOM     23  F   UNL A   1      31.974  17.769  22.096  1.00  0.00    -0.207 F 
ENDBRANCH  16  17
ENDBRANCH  12  16
ENDBRANCH   4   7
ENDBRANCH   2   3
ENDBRANCH   1   2
BRANCH   1  24
ATOM     24  C   UNL A   1      39.559  23.418  26.983  1.00  0.00     0.118 C 
BRANCH  24  25
ATOM     25  N   UNL A   1      40.773  23.660  26.215  1.00  0.00    -0.352 N 
ATOM     26  C   UNL A   1      41.582  24.769  26.211  1.00  0.00     0.251 C 
ATOM     27  H   UNL A   1      41.050  22.929  25.615  1.00  0.00     0.163 HD
ATOM     28  O   UNL A   1      42.405  24.932  25.322  1.00  0.00    -0.269 OA
BRANCH  26  29
ATOM     29  C   UNL A   1      41.432  25.757  27.296  1.00  0.00     0.039 A 
ATOM     30  C   UNL A   1      42.199  26.922  27.275  1.00  0.00     0.014 A 
ATOM     31  C   UNL A   1      40.513  25.520  28.323  1.00  0.00     0.014 A 
ATOM     32  C   UNL A   1      42.010  27.878  28.272  1.00  0.00     0.010 A 
ATOM     33  C   UNL A   1      40.257  26.512  29.254  1.00  0.00     0.010 A 
ATOM     34  C   UNL A   1      41.028  27.682  29.256  1.00  0.00    -0.014 A 
BRANCH  34  35
ATOM     35  C   UNL A   1      40.851  28.636  30.370  1.00  0.00     0.031 A 
ATOM     36  C   UNL A   1      41.741  28.508  31.574  1.00  0.00     0.074 A 
ATOM     37  C   UNL A   1      39.873  29.558  30.321  1.00  0.00     0.049 A 
ATOM     38  N   UNL A   1      41.716  29.179  32.694  1.00  0.00    -0.248 NA
ATOM     39  C   UNL A   1      42.780  27.464  31.523  1.00  0.00     0.031 C 
ATOM     40  C   UNL A   1      38.937  29.741  29.210  1.00  0.00     0.029 A 
ATOM     41  N   UNL A   1      39.501  30.510  31.232  1.00  0.00    -0.354 N 
ATOM     42  C   UNL A   1      42.728  28.637  33.476  1.00  0.00     0.074 A 
ATOM     43  C   UNL A   1      43.296  27.532  32.739  1.00  0.00     0.031 C 
ATOM     44  C   UNL A   1      38.113  30.762  29.497  1.00  0.00     0.029 A 
ATOM     45  C   UNL A   1      38.441  31.283  30.821  1.00  0.00     0.049 A 
ATOM     46  H   UNL A   1      39.950  30.630  32.099  1.00  0.00     0.167 HD
ATOM     47  C   UNL A   1      43.169  29.050  34.686  1.00  0.00     0.037 A 
ATOM     48  C   UNL A   1      37.811  32.293  31.449  1.00  0.00     0.037 A 
ATOM     49  C   UNL A   1      42.607  30.165  35.396  1.00  0.00     0.049 A 
ATOM     50  C   UNL A   1      38.297  32.715  32.810  1.00  0.00     0.074 A 
ATOM     51  C   UNL A   1      42.998  30.698  36.610  1.00  0.00     0.029 A 
ATOM     52  N   UNL A   1      41.530  30.921  34.952  1.00  0.00    -0.354 N 
ATOM     53  N   UNL A   1      39.288  32.226  33.519  1.00  0.00    -0.248 NA
ATOM     54  C   UNL A   1      37.584  33.824  33.456  1.00  0.00     0.031 C 
ATOM     55  C   UNL A   1      42.128  31.746  36.923  1.00  0.00     0.029 A 
ATOM     56  C   UNL A   1      41.227  31.900  35.880  1.00  0.00     0.049 A 
ATOM     57  H   UNL A   1      41.053  30.780  34.103  1.00  0.00     0.167 HD
ATOM     58  C   UNL A   1      39.333  32.983  34.685  1.00  0.00     0.074 A 
ATOM     59  C   UNL A   1      38.278  33.971  34.577  1.00  0.00     0.031 C 
ATOM     60  C   UNL A   1      40.168  32.871  35.748  1.00  0.00     0.037 A 
BRANCH  47  61
ATOM     61  C   UNL A   1      44.320  28.301  35.298  1.00  0.00     0.058 A 
ATOM     62  C   UNL A   1      44.111  27.205  36.151  1.00  0.00     0.135 A 
ATOM     63  C   UNL A   1      45.645  28.668  35.015  1.00  0.00     0.135 A 
ATOM     64  F   UNL A   1      42.864  26.828  36.476  1.00  0.00    -0.206 F 
ATOM     65  C   UNL A   1      45.174  26.516  36.724  1.00  0.00     0.059 A 
ATOM     66  C   UNL A   1      46.725  27.971  35.552  1.00  0.00     0.059 A 
ATOM     67  F   UNL A   1      45.902  29.713  34.213  1.00  0.00    -0.206 F 
ATOM     68  C   UNL A   1      46.478  26.905  36.415  1.00  0.00     0.060 A 
BRANCH  68  69
ATOM     69  S   UNL A   1      47.844  25.988  37.157  1.00  0.00     0.124 S 
ATOM     70  O   UNL A   1      48.942  26.320  36.256  1.00  0.00    -0.237 OA
ATOM     71  O   UNL A   1      47.920  26.574  38.492  1.00  0.00    -0.237 OA
ATOM     72  O   UNL A   1      47.390  24.602  37.108  1.00  0.00    -0.744 OA
ENDBRANCH  68  69
ENDBRANCH  47  61
BRANCH  48  73
ATOM     73  C   UNL A   1      36.687  32.997  30.776  1.00  0.00     0.058 A 
ATOM     74  C   UNL A   1      35.359  32.757  31.158  1.00  0.00     0.135 A 
ATOM     75  C   UNL A   1      36.915  33.948  29.769  1.00  0.00     0.135 A 
ATOM     76  F   UNL A   1      35.090  31.852  32.113  1.00  0.00    -0.206 F 
ATOM     77  C   UNL A   1      34.296  33.430  30.567  1.00  0.00     0.059 A 
ATOM     78  C   UNL A   1      35.870  34.651  29.177  1.00  0.00     0.059 A 
ATOM     79  F   UNL A   1      38.168  34.226  29.377  1.00  0.00    -0.206 F 
ATOM     80  C   UNL A   1      34.562  34.383  29.581  1.00  0.00     0.060 A 
BRANCH  80  81
ATOM     81  S   UNL A   1      33.176  35.296  28.869  1.00  0.00     0.124 S 
ATOM     82  O   UNL A   1      32.529  34.269  28.062  1.00  0.00    -0.237 OA
ATOM     83  O   UNL A   1      32.452  35.724  30.061  1.00  0.00    -0.237 OA
ATOM     84  O   UNL A   1      33.828  36.368  28.122  1.00  0.00    -0.744 OA
ENDBRANCH  80  81
ENDBRANCH  48  73
BRANCH  60  85
ATOM     85  C   UNL A   1      39.986  33.847  36.878  1.00  0.00     0.058 A 
ATOM     86  C   UNL A   1      40.582  35.116  36.852  1.00  0.00     0.135 A 
ATOM     87  C   UNL A   1      39.143  33.536  37.958  1.00  0.00     0.135 A 
ATOM     88  F   UNL A   1      41.399  35.460  35.844  1.00  0.00    -0.206 F 
ATOM     89  C   UNL A   1      40.362  36.040  37.867  1.00  0.00     0.059 A 
ATOM     90  C   UNL A   1      38.885  34.457  38.968  1.00  0.00     0.059 A 
ATOM     91  F   UNL A   1      38.539  32.339  38.022  1.00  0.00    -0.206 F 
ATOM     92  C   UNL A   1      39.506  35.704  38.918  1.00  0.00     0.060 A 
BRANCH  92  93
ATOM     93  S   UNL A   1      39.199  36.931  40.204  1.00  0.00     0.124 S 
ATOM     94  O   UNL A   1      40.549  37.191  40.692  1.00  0.00    -0.237 OA
ATOM     95  O   UNL A   1      38.576  38.017  39.453  1.00  0.00    -0.237 OA
ATOM     96  O   UNL A   1      38.318  36.235  41.137  1.00  0.00    -0.744 OA
ENDBRANCH  92  93
ENDBRANCH  60  85
ENDBRANCH  34  35
ENDBRANCH  26  29
ENDBRANCH  24  25
ENDBRANCH   1  24
TORSDOF 15
ENDMDL
