MODEL 1
REMARK VINA RESULT:     -10.6      0.000      0.000
REMARK SMILES C=CCN(CC(=O)NCCCNC(=O)c1ccc(-c2c3nc(c(-c4c(F)cc(S(=O)(=O)[O-])cc4F)c4ccc([nH]4)c(-c4c(F)cc(S(=O)(=O)[O-])cc4F)c4nc(c(-c5c(F)cc(S(=O)(=O)[O-])cc5F)c5ccc2[nH]5)C=C4)C=C3)cc1)C(=O)c1cc(OC)ccc1Br
REMARK SMILES IDX 9 1 8 2 6 3 7 4 5 6 4 7 3 8 2 9 1 10 81 11 82 12 83 13 84 14
REMARK SMILES IDX 90 15 85 16 89 17 91 18 88 19 86 20 87 21 10 22 11 23 12 24
REMARK SMILES IDX 13 25 14 27 15 28 16 29 80 30 17 31 79 32 18 33 19 34 20 35
REMARK SMILES IDX 73 36 21 37 78 38 72 39 74 40 22 41 77 42 71 43 70 44 23 46
REMARK SMILES IDX 57 47 36 48 56 49 37 50 40 51 55 52 75 53 38 54 39 55 54 57
REMARK SMILES IDX 76 58 41 59 24 60 25 61 34 62 26 63 27 64 33 65 35 66 28 67
REMARK SMILES IDX 29 68 30 69 31 70 32 71 58 72 59 73 68 74 60 75 61 76 67 77
REMARK SMILES IDX 69 78 62 79 63 80 64 81 65 82 66 83 42 84 43 85 52 86 44 87
REMARK SMILES IDX 45 88 51 89 53 90 46 91 47 92 48 93 49 94 50 95
REMARK H PARENT 8 5 12 26 74 45 40 56
REMARK Flexibility Score: inf
ROOT
ATOM      1  C   UNL A   1      31.998  26.740  26.118  1.00  0.00     0.117 C 
ENDROOT
BRANCH   1   2
ATOM      2  N   UNL A   1      31.298  26.987  24.872  1.00  0.00    -0.354 N 
ATOM      3  C   UNL A   1      30.509  26.194  24.092  1.00  0.00     0.239 C 
ATOM      4  O   UNL A   1      29.810  26.774  23.249  1.00  0.00    -0.273 OA
ATOM      5  H   UNL A   1      31.413  27.901  24.523  1.00  0.00     0.163 HD
BRANCH   3   6
ATOM      6  C   UNL A   1      30.347  24.676  24.294  1.00  0.00     0.220 C 
BRANCH   6   7
ATOM      7  N   UNL A   1      31.554  23.844  24.237  1.00  0.00    -0.326 N 
BRANCH   7   8
ATOM      8  C   UNL A   1      32.328  23.872  22.997  1.00  0.00     0.147 C 
BRANCH   8   9
ATOM      9  C   UNL A   1      33.553  24.726  23.122  1.00  0.00    -0.014 C 
ATOM     10  C   UNL A   1      33.691  25.889  22.469  1.00  0.00     0.006 C 
ENDBRANCH   8   9
ENDBRANCH   7   8
BRANCH   7  11
ATOM     11  C   UNL A   1      32.063  23.100  25.318  1.00  0.00     0.255 C 
ATOM     12  O   UNL A   1      31.862  23.408  26.491  1.00  0.00    -0.269 OA
BRANCH  11  13
ATOM     13  C   UNL A   1      32.830  21.846  25.086  1.00  0.00     0.057 A 
ATOM     14  C   UNL A   1      32.110  20.656  24.898  1.00  0.00     0.061 A 
ATOM     15  C   UNL A   1      34.216  21.751  25.239  1.00  0.00     0.031 A 
ATOM     16  C   UNL A   1      32.795  19.441  24.769  1.00  0.00     0.119 A 
ATOM     17  C   UNL A   1      34.898  20.583  24.892  1.00  0.00     0.020 A 
ATOM     18  Br  UNL A   1      35.227  22.975  26.255  1.00  0.00    -0.050 Br
ATOM     19  C   UNL A   1      34.181  19.426  24.636  1.00  0.00     0.047 A 
BRANCH  16  20
ATOM     20  O   UNL A   1      32.063  18.284  24.836  1.00  0.00    -0.497 OA
ATOM     21  C   UNL A   1      32.680  17.305  25.686  1.00  0.00     0.278 C 
ENDBRANCH  16  20
ENDBRANCH  11  13
ENDBRANCH   7  11
ENDBRANCH   6   7
ENDBRANCH   3   6
ENDBRANCH   1   2
BRANCH   1  22
ATOM     22  C   UNL A   1      32.086  27.935  27.063  1.00  0.00     0.042 C 
BRANCH  22  23
ATOM     23  C   UNL A   1      33.470  28.564  27.222  1.00  0.00     0.118 C 
BRANCH  23  24
ATOM     24  N   UNL A   1      33.455  29.931  27.705  1.00  0.00    -0.352 N 
ATOM     25  C   UNL A   1      34.449  30.688  28.272  1.00  0.00     0.251 C 
ATOM     26  H   UNL A   1      32.591  30.392  27.611  1.00  0.00     0.163 HD
ATOM     27  O   UNL A   1      34.187  31.834  28.633  1.00  0.00    -0.269 OA
BRANCH  25  28
ATOM     28  C   UNL A   1      35.805  30.138  28.506  1.00  0.00     0.039 A 
ATOM     29  C   UNL A   1      36.698  30.135  27.430  1.00  0.00     0.014 A 
ATOM     30  C   UNL A   1      36.204  29.615  29.740  1.00  0.00     0.014 A 
ATOM     31  C   UNL A   1      38.010  29.690  27.610  1.00  0.00     0.010 A 
ATOM     32  C   UNL A   1      37.533  29.224  29.933  1.00  0.00     0.010 A 
ATOM     33  C   UNL A   1      38.454  29.278  28.876  1.00  0.00    -0.014 A 
BRANCH  33  34
ATOM     34  C   UNL A   1      39.891  28.978  29.117  1.00  0.00     0.031 A 
ATOM     35  C   UNL A   1      40.830  30.036  29.626  1.00  0.00     0.074 A 
ATOM     36  C   UNL A   1      40.363  27.750  28.815  1.00  0.00     0.049 A 
ATOM     37  N   UNL A   1      42.122  29.969  29.820  1.00  0.00    -0.248 NA
ATOM     38  C   UNL A   1      40.242  31.345  29.948  1.00  0.00     0.031 C 
ATOM     39  C   UNL A   1      39.558  26.645  28.288  1.00  0.00     0.029 A 
ATOM     40  N   UNL A   1      41.630  27.227  28.891  1.00  0.00    -0.354 N 
ATOM     41  C   UNL A   1      42.506  31.223  30.277  1.00  0.00     0.074 A 
ATOM     42  C   UNL A   1      41.314  32.044  30.296  1.00  0.00     0.031 C 
ATOM     43  C   UNL A   1      40.347  25.577  28.097  1.00  0.00     0.029 A 
ATOM     44  C   UNL A   1      41.720  25.931  28.438  1.00  0.00     0.049 A 
ATOM     45  H   UNL A   1      42.401  27.732  29.236  1.00  0.00     0.167 HD
ATOM     46  C   UNL A   1      43.737  31.644  30.657  1.00  0.00     0.037 A 
ATOM     47  C   UNL A   1      42.789  25.124  28.286  1.00  0.00     0.037 A 
ATOM     48  C   UNL A   1      44.918  30.817  30.638  1.00  0.00     0.049 A 
ATOM     49  C   UNL A   1      44.152  25.633  28.666  1.00  0.00     0.074 A 
ATOM     50  C   UNL A   1      46.197  31.137  31.062  1.00  0.00     0.029 A 
ATOM     51  N   UNL A   1      44.972  29.517  30.159  1.00  0.00    -0.354 N 
ATOM     52  N   UNL A   1      44.486  26.800  29.165  1.00  0.00    -0.248 NA
ATOM     53  C   UNL A   1      45.286  24.723  28.457  1.00  0.00     0.031 C 
ATOM     54  C   UNL A   1      47.036  30.052  30.782  1.00  0.00     0.029 A 
ATOM     55  C   UNL A   1      46.270  29.035  30.236  1.00  0.00     0.049 A 
ATOM     56  H   UNL A   1      44.202  29.009  29.814  1.00  0.00     0.167 HD
ATOM     57  C   UNL A   1      45.865  26.759  29.340  1.00  0.00     0.074 A 
ATOM     58  C   UNL A   1      46.300  25.443  28.917  1.00  0.00     0.031 C 
ATOM     59  C   UNL A   1      46.695  27.725  29.804  1.00  0.00     0.037 A 
BRANCH  46  60
ATOM     60  C   UNL A   1      43.880  33.070  31.119  1.00  0.00     0.058 A 
ATOM     61  C   UNL A   1      43.733  33.428  32.469  1.00  0.00     0.135 A 
ATOM     62  C   UNL A   1      44.224  34.084  30.209  1.00  0.00     0.135 A 
ATOM     63  F   UNL A   1      43.396  32.502  33.381  1.00  0.00    -0.206 F 
ATOM     64  C   UNL A   1      43.894  34.743  32.896  1.00  0.00     0.059 A 
ATOM     65  C   UNL A   1      44.417  35.401  30.619  1.00  0.00     0.059 A 
ATOM     66  F   UNL A   1      44.381  33.800  28.907  1.00  0.00    -0.206 F 
ATOM     67  C   UNL A   1      44.236  35.723  31.963  1.00  0.00     0.060 A 
BRANCH  67  68
ATOM     68  S   UNL A   1      44.446  37.422  32.536  1.00  0.00     0.124 S 
ATOM     69  O   UNL A   1      43.510  37.469  33.655  1.00  0.00    -0.237 OA
ATOM     70  O   UNL A   1      45.861  37.458  32.892  1.00  0.00    -0.237 OA
ATOM     71  O   UNL A   1      44.073  38.224  31.375  1.00  0.00    -0.744 OA
ENDBRANCH  67  68
ENDBRANCH  46  60
BRANCH  47  72
ATOM     72  C   UNL A   1      42.612  23.754  27.735  1.00  0.00     0.058 A 
ATOM     73  C   UNL A   1      42.628  23.522  26.352  1.00  0.00     0.135 A 
ATOM     74  C   UNL A   1      42.435  22.646  28.580  1.00  0.00     0.135 A 
ATOM     75  F   UNL A   1      42.782  24.549  25.502  1.00  0.00    -0.206 F 
ATOM     76  C   UNL A   1      42.466  22.246  25.824  1.00  0.00     0.059 A 
ATOM     77  C   UNL A   1      42.300  21.356  28.078  1.00  0.00     0.059 A 
ATOM     78  F   UNL A   1      42.424  22.811  29.912  1.00  0.00    -0.206 F 
ATOM     79  C   UNL A   1      42.307  21.167  26.697  1.00  0.00     0.060 A 
BRANCH  79  80
ATOM     80  S   UNL A   1      42.153  19.508  26.001  1.00  0.00     0.124 S 
ATOM     81  O   UNL A   1      40.718  19.422  25.757  1.00  0.00    -0.237 OA
ATOM     82  O   UNL A   1      42.998  19.594  24.814  1.00  0.00    -0.237 OA
ATOM     83  O   UNL A   1      42.666  18.648  27.064  1.00  0.00    -0.744 OA
ENDBRANCH  79  80
ENDBRANCH  47  72
BRANCH  59  84
ATOM     84  C   UNL A   1      48.162  27.401  29.882  1.00  0.00     0.058 A 
ATOM     85  C   UNL A   1      49.008  27.561  28.773  1.00  0.00     0.135 A 
ATOM     86  C   UNL A   1      48.742  26.986  31.091  1.00  0.00     0.135 A 
ATOM     87  F   UNL A   1      48.505  27.945  27.589  1.00  0.00    -0.206 F 
ATOM     88  C   UNL A   1      50.373  27.307  28.856  1.00  0.00     0.059 A 
ATOM     89  C   UNL A   1      50.110  26.754  31.205  1.00  0.00     0.059 A 
ATOM     90  F   UNL A   1      47.981  26.821  32.185  1.00  0.00    -0.206 F 
ATOM     91  C   UNL A   1      50.917  26.911  30.079  1.00  0.00     0.060 A 
BRANCH  91  92
ATOM     92  S   UNL A   1      52.698  26.636  30.184  1.00  0.00     0.124 S 
ATOM     93  O   UNL A   1      52.771  25.532  31.134  1.00  0.00    -0.237 OA
ATOM     94  O   UNL A   1      53.042  26.309  28.803  1.00  0.00    -0.237 OA
ATOM     95  O   UNL A   1      53.213  27.915  30.665  1.00  0.00    -0.744 OA
ENDBRANCH  91  92
ENDBRANCH  59  84
ENDBRANCH  33  34
ENDBRANCH  25  28
ENDBRANCH  23  24
ENDBRANCH  22  23
ENDBRANCH   1  22
TORSDOF 19
ENDMDL
MODEL 2
REMARK VINA RESULT:     -10.5      1.230      2.052
REMARK SMILES C=CCN(CC(=O)NCCCNC(=O)c1ccc(-c2c3nc(c(-c4c(F)cc(S(=O)(=O)[O-])cc4F)c4ccc([nH]4)c(-c4c(F)cc(S(=O)(=O)[O-])cc4F)c4nc(c(-c5c(F)cc(S(=O)(=O)[O-])cc5F)c5ccc2[nH]5)C=C4)C=C3)cc1)C(=O)c1cc(OC)ccc1Br
REMARK SMILES IDX 9 1 8 2 6 3 7 4 5 6 4 7 3 8 2 9 1 10 81 11 82 12 83 13 84 14
REMARK SMILES IDX 90 15 85 16 89 17 91 18 88 19 86 20 87 21 10 22 11 23 12 24
REMARK SMILES IDX 13 25 14 27 15 28 16 29 80 30 17 31 79 32 18 33 19 34 20 35
REMARK SMILES IDX 73 36 21 37 78 38 72 39 74 40 22 41 77 42 71 43 70 44 23 46
REMARK SMILES IDX 57 47 36 48 56 49 37 50 40 51 55 52 75 53 38 54 39 55 54 57
REMARK SMILES IDX 76 58 41 59 24 60 25 61 34 62 26 63 27 64 33 65 35 66 28 67
REMARK SMILES IDX 29 68 30 69 31 70 32 71 58 72 59 73 68 74 60 75 61 76 67 77
REMARK SMILES IDX 69 78 62 79 63 80 64 81 65 82 66 83 42 84 43 85 52 86 44 87
REMARK SMILES IDX 45 88 51 89 53 90 46 91 47 92 48 93 49 94 50 95
REMARK H PARENT 8 5 12 26 74 45 40 56
REMARK Flexibility Score: inf
ROOT
ATOM      1  C   UNL A   1      31.368  27.407  26.546  1.00  0.00     0.117 C 
ENDROOT
BRANCH   1   2
ATOM      2  N   UNL A   1      31.033  25.999  26.454  1.00  0.00    -0.354 N 
ATOM      3  C   UNL A   1      31.127  25.101  25.433  1.00  0.00     0.239 C 
ATOM      4  O   UNL A   1      31.047  23.904  25.744  1.00  0.00    -0.273 OA
ATOM      5  H   UNL A   1      30.669  25.619  27.287  1.00  0.00     0.163 HD
BRANCH   3   6
ATOM      6  C   UNL A   1      31.456  25.483  23.977  1.00  0.00     0.220 C 
BRANCH   6   7
ATOM      7  N   UNL A   1      32.858  25.419  23.552  1.00  0.00    -0.326 N 
BRANCH   7   8
ATOM      8  C   UNL A   1      33.699  26.578  23.848  1.00  0.00     0.147 C 
BRANCH   8   9
ATOM      9  C   UNL A   1      33.626  27.614  22.767  1.00  0.00    -0.014 C 
ATOM     10  C   UNL A   1      33.103  28.832  22.969  1.00  0.00     0.006 C 
ENDBRANCH   8   9
ENDBRANCH   7   8
BRANCH   7  11
ATOM     11  C   UNL A   1      33.466  24.293  22.966  1.00  0.00     0.255 C 
ATOM     12  O   UNL A   1      33.671  24.202  21.758  1.00  0.00    -0.269 OA
BRANCH  11  13
ATOM     13  C   UNL A   1      33.955  23.168  23.807  1.00  0.00     0.057 A 
ATOM     14  C   UNL A   1      35.218  23.289  24.405  1.00  0.00     0.061 A 
ATOM     15  C   UNL A   1      33.319  21.925  23.877  1.00  0.00     0.031 A 
ATOM     16  C   UNL A   1      35.754  22.214  25.127  1.00  0.00     0.119 A 
ATOM     17  C   UNL A   1      33.752  20.946  24.773  1.00  0.00     0.020 A 
ATOM     18  Br  UNL A   1      32.122  21.305  22.559  1.00  0.00    -0.050 Br
ATOM     19  C   UNL A   1      34.968  21.102  25.418  1.00  0.00     0.047 A 
BRANCH  16  20
ATOM     20  O   UNL A   1      37.076  22.278  25.481  1.00  0.00    -0.497 OA
ATOM     21  C   UNL A   1      37.507  23.628  25.712  1.00  0.00     0.278 C 
ENDBRANCH  16  20
ENDBRANCH  11  13
ENDBRANCH   7  11
ENDBRANCH   6   7
ENDBRANCH   3   6
ENDBRANCH   1   2
BRANCH   1  22
ATOM     22  C   UNL A   1      32.675  27.718  27.273  1.00  0.00     0.042 C 
BRANCH  22  23
ATOM     23  C   UNL A   1      33.530  28.830  26.667  1.00  0.00     0.118 C 
BRANCH  23  24
ATOM     24  N   UNL A   1      33.418  30.108  27.341  1.00  0.00    -0.352 N 
ATOM     25  C   UNL A   1      34.325  30.798  28.104  1.00  0.00     0.251 C 
ATOM     26  H   UNL A   1      32.547  30.554  27.236  1.00  0.00     0.163 HD
ATOM     27  O   UNL A   1      33.986  31.870  28.604  1.00  0.00    -0.269 OA
BRANCH  25  28
ATOM     28  C   UNL A   1      35.676  30.256  28.381  1.00  0.00     0.039 A 
ATOM     29  C   UNL A   1      36.619  30.305  27.349  1.00  0.00     0.014 A 
ATOM     30  C   UNL A   1      36.025  29.691  29.612  1.00  0.00     0.014 A 
ATOM     31  C   UNL A   1      37.927  29.869  27.574  1.00  0.00     0.010 A 
ATOM     32  C   UNL A   1      37.348  29.309  29.854  1.00  0.00     0.010 A 
ATOM     33  C   UNL A   1      38.317  29.414  28.844  1.00  0.00    -0.014 A 
BRANCH  33  34
ATOM     34  C   UNL A   1      39.745  29.122  29.142  1.00  0.00     0.031 A 
ATOM     35  C   UNL A   1      40.654  30.183  29.698  1.00  0.00     0.074 A 
ATOM     36  C   UNL A   1      40.238  27.901  28.849  1.00  0.00     0.049 A 
ATOM     37  N   UNL A   1      41.938  30.123  29.945  1.00  0.00    -0.248 NA
ATOM     38  C   UNL A   1      40.043  31.485  30.006  1.00  0.00     0.031 C 
ATOM     39  C   UNL A   1      39.464  26.795  28.279  1.00  0.00     0.029 A 
ATOM     40  N   UNL A   1      41.505  27.387  28.972  1.00  0.00    -0.354 N 
ATOM     41  C   UNL A   1      42.293  31.376  30.428  1.00  0.00     0.074 A 
ATOM     42  C   UNL A   1      41.095  32.188  30.405  1.00  0.00     0.031 C 
ATOM     43  C   UNL A   1      40.268  25.734  28.112  1.00  0.00     0.029 A 
ATOM     44  C   UNL A   1      41.624  26.095  28.512  1.00  0.00     0.049 A 
ATOM     45  H   UNL A   1      42.258  27.894  29.353  1.00  0.00     0.167 HD
ATOM     46  C   UNL A   1      43.504  31.803  30.862  1.00  0.00     0.037 A 
ATOM     47  C   UNL A   1      42.704  25.298  28.397  1.00  0.00     0.037 A 
ATOM     48  C   UNL A   1      44.691  30.984  30.885  1.00  0.00     0.049 A 
ATOM     49  C   UNL A   1      44.047  25.813  28.837  1.00  0.00     0.074 A 
ATOM     50  C   UNL A   1      45.949  31.309  31.363  1.00  0.00     0.029 A 
ATOM     51  N   UNL A   1      44.774  29.689  30.397  1.00  0.00    -0.354 N 
ATOM     52  N   UNL A   1      44.350  26.978  29.360  1.00  0.00    -0.248 NA
ATOM     53  C   UNL A   1      45.195  24.913  28.667  1.00  0.00     0.031 C 
ATOM     54  C   UNL A   1      46.807  30.233  31.108  1.00  0.00     0.029 A 
ATOM     55  C   UNL A   1      46.072  29.215  30.523  1.00  0.00     0.049 A 
ATOM     56  H   UNL A   1      44.023  29.179  30.016  1.00  0.00     0.167 HD
ATOM     57  C   UNL A   1      45.721  26.945  29.591  1.00  0.00     0.074 A 
ATOM     58  C   UNL A   1      46.184  25.636  29.175  1.00  0.00     0.031 C 
ATOM     59  C   UNL A   1      46.525  27.913  30.097  1.00  0.00     0.037 A 
BRANCH  46  60
ATOM     60  C   UNL A   1      43.617  33.226  31.342  1.00  0.00     0.058 A 
ATOM     61  C   UNL A   1      43.448  33.565  32.694  1.00  0.00     0.135 A 
ATOM     62  C   UNL A   1      43.955  34.256  30.448  1.00  0.00     0.135 A 
ATOM     63  F   UNL A   1      43.115  32.623  33.591  1.00  0.00    -0.206 F 
ATOM     64  C   UNL A   1      43.580  34.877  33.138  1.00  0.00     0.059 A 
ATOM     65  C   UNL A   1      44.120  35.571  30.875  1.00  0.00     0.059 A 
ATOM     66  F   UNL A   1      44.132  33.989  29.145  1.00  0.00    -0.206 F 
ATOM     67  C   UNL A   1      43.917  35.874  32.220  1.00  0.00     0.060 A 
BRANCH  67  68
ATOM     68  S   UNL A   1      44.091  37.569  32.816  1.00  0.00     0.124 S 
ATOM     69  O   UNL A   1      45.434  37.541  33.386  1.00  0.00    -0.237 OA
ATOM     70  O   UNL A   1      43.940  38.347  31.590  1.00  0.00    -0.237 OA
ATOM     71  O   UNL A   1      43.004  37.707  33.781  1.00  0.00    -0.744 OA
ENDBRANCH  67  68
ENDBRANCH  46  60
BRANCH  47  72
ATOM     72  C   UNL A   1      42.560  23.931  27.827  1.00  0.00     0.058 A 
ATOM     73  C   UNL A   1      42.510  23.727  26.440  1.00  0.00     0.135 A 
ATOM     74  C   UNL A   1      42.482  22.800  28.656  1.00  0.00     0.135 A 
ATOM     75  F   UNL A   1      42.568  24.776  25.606  1.00  0.00    -0.206 F 
ATOM     76  C   UNL A   1      42.378  22.454  25.895  1.00  0.00     0.059 A 
ATOM     77  C   UNL A   1      42.379  21.515  28.135  1.00  0.00     0.059 A 
ATOM     78  F   UNL A   1      42.537  22.939  29.990  1.00  0.00    -0.206 F 
ATOM     79  C   UNL A   1      42.319  21.353  26.752  1.00  0.00     0.060 A 
BRANCH  79  80
ATOM     80  S   UNL A   1      42.203  19.702  26.030  1.00  0.00     0.124 S 
ATOM     81  O   UNL A   1      40.797  19.644  25.647  1.00  0.00    -0.237 OA
ATOM     82  O   UNL A   1      43.161  19.781  24.931  1.00  0.00    -0.237 OA
ATOM     83  O   UNL A   1      42.595  18.825  27.130  1.00  0.00    -0.744 OA
ENDBRANCH  79  80
ENDBRANCH  47  72
BRANCH  59  84
ATOM     84  C   UNL A   1      47.990  27.599  30.233  1.00  0.00     0.058 A 
ATOM     85  C   UNL A   1      48.499  26.957  31.373  1.00  0.00     0.135 A 
ATOM     86  C   UNL A   1      48.885  27.886  29.190  1.00  0.00     0.135 A 
ATOM     87  F   UNL A   1      47.689  26.670  32.405  1.00  0.00    -0.206 F 
ATOM     88  C   UNL A   1      49.845  26.624  31.481  1.00  0.00     0.059 A 
ATOM     89  C   UNL A   1      50.230  27.536  29.264  1.00  0.00     0.059 A 
ATOM     90  F   UNL A   1      48.451  28.495  28.074  1.00  0.00    -0.206 F 
ATOM     91  C   UNL A   1      50.702  26.911  30.417  1.00  0.00     0.060 A 
BRANCH  91  92
ATOM     92  S   UNL A   1      52.435  26.424  30.550  1.00  0.00     0.124 S 
ATOM     93  O   UNL A   1      52.782  26.178  29.154  1.00  0.00    -0.237 OA
ATOM     94  O   UNL A   1      53.043  27.605  31.156  1.00  0.00    -0.237 OA
ATOM     95  O   UNL A   1      52.393  25.241  31.405  1.00  0.00    -0.744 OA
ENDBRANCH  91  92
ENDBRANCH  59  84
ENDBRANCH  33  34
ENDBRANCH  25  28
ENDBRANCH  23  24
ENDBRANCH  22  23
ENDBRANCH   1  22
TORSDOF 19
ENDMDL
MODEL 3
REMARK VINA RESULT:     -10.5      2.930      4.020
REMARK SMILES C=CCN(CC(=O)NCCCNC(=O)c1ccc(-c2c3nc(c(-c4c(F)cc(S(=O)(=O)[O-])cc4F)c4ccc([nH]4)c(-c4c(F)cc(S(=O)(=O)[O-])cc4F)c4nc(c(-c5c(F)cc(S(=O)(=O)[O-])cc5F)c5ccc2[nH]5)C=C4)C=C3)cc1)C(=O)c1cc(OC)ccc1Br
REMARK SMILES IDX 9 1 8 2 6 3 7 4 5 6 4 7 3 8 2 9 1 10 81 11 82 12 83 13 84 14
REMARK SMILES IDX 90 15 85 16 89 17 91 18 88 19 86 20 87 21 10 22 11 23 12 24
REMARK SMILES IDX 13 25 14 27 15 28 16 29 80 30 17 31 79 32 18 33 19 34 20 35
REMARK SMILES IDX 73 36 21 37 78 38 72 39 74 40 22 41 77 42 71 43 70 44 23 46
REMARK SMILES IDX 57 47 36 48 56 49 37 50 40 51 55 52 75 53 38 54 39 55 54 57
REMARK SMILES IDX 76 58 41 59 24 60 25 61 34 62 26 63 27 64 33 65 35 66 28 67
REMARK SMILES IDX 29 68 30 69 31 70 32 71 58 72 59 73 68 74 60 75 61 76 67 77
REMARK SMILES IDX 69 78 62 79 63 80 64 81 65 82 66 83 42 84 43 85 52 86 44 87
REMARK SMILES IDX 45 88 51 89 53 90 46 91 47 92 48 93 49 94 50 95
REMARK H PARENT 8 5 12 26 74 45 40 56
REMARK Flexibility Score: inf
ROOT
ATOM      1  C   UNL A   1      34.513  29.129  27.743  1.00  0.00     0.117 C 
ENDROOT
BRANCH   1   2
ATOM      2  N   UNL A   1      33.075  29.020  27.894  1.00  0.00    -0.354 N 
ATOM      3  C   UNL A   1      32.176  28.094  27.453  1.00  0.00     0.239 C 
ATOM      4  O   UNL A   1      31.062  28.110  27.995  1.00  0.00    -0.273 OA
ATOM      5  H   UNL A   1      32.671  29.752  28.414  1.00  0.00     0.163 HD
BRANCH   3   6
ATOM      6  C   UNL A   1      32.512  26.979  26.446  1.00  0.00     0.220 C 
BRANCH   6   7
ATOM      7  N   UNL A   1      32.413  27.294  25.016  1.00  0.00    -0.326 N 
BRANCH   7   8
ATOM      8  C   UNL A   1      31.264  28.088  24.585  1.00  0.00     0.147 C 
BRANCH   8   9
ATOM      9  C   UNL A   1      30.306  27.282  23.760  1.00  0.00    -0.014 C 
ATOM     10  C   UNL A   1      29.699  26.182  24.229  1.00  0.00     0.006 C 
ENDBRANCH   8   9
ENDBRANCH   7   8
BRANCH   7  11
ATOM     11  C   UNL A   1      33.388  26.966  24.056  1.00  0.00     0.255 C 
ATOM     12  O   UNL A   1      34.057  27.814  23.471  1.00  0.00    -0.269 OA
BRANCH  11  13
ATOM     13  C   UNL A   1      33.705  25.545  23.747  1.00  0.00     0.057 A 
ATOM     14  C   UNL A   1      34.706  24.912  24.500  1.00  0.00     0.061 A 
ATOM     15  C   UNL A   1      33.206  24.869  22.630  1.00  0.00     0.031 A 
ATOM     16  C   UNL A   1      35.098  23.606  24.179  1.00  0.00     0.119 A 
ATOM     17  C   UNL A   1      33.439  23.504  22.454  1.00  0.00     0.020 A 
ATOM     18  Br  UNL A   1      32.540  25.754  21.105  1.00  0.00    -0.050 Br
ATOM     19  C   UNL A   1      34.376  22.864  23.247  1.00  0.00     0.047 A 
BRANCH  16  20
ATOM     20  O   UNL A   1      36.235  23.117  24.768  1.00  0.00    -0.497 OA
ATOM     21  C   UNL A   1      36.231  21.682  24.838  1.00  0.00     0.278 C 
ENDBRANCH  16  20
ENDBRANCH  11  13
ENDBRANCH   7  11
ENDBRANCH   6   7
ENDBRANCH   3   6
ENDBRANCH   1   2
BRANCH   1  22
ATOM     22  C   UNL A   1      35.018  30.496  27.284  1.00  0.00     0.042 C 
BRANCH  22  23
ATOM     23  C   UNL A   1      35.557  31.413  28.381  1.00  0.00     0.118 C 
BRANCH  23  24
ATOM     24  N   UNL A   1      35.482  30.857  29.718  1.00  0.00    -0.352 N 
ATOM     25  C   UNL A   1      36.449  30.276  30.499  1.00  0.00     0.251 C 
ATOM     26  H   UNL A   1      34.591  30.903  30.134  1.00  0.00     0.163 HD
ATOM     27  O   UNL A   1      36.135  29.847  31.608  1.00  0.00    -0.269 OA
BRANCH  25  28
ATOM     28  C   UNL A   1      37.839  30.109  30.015  1.00  0.00     0.039 A 
ATOM     29  C   UNL A   1      38.865  30.139  30.966  1.00  0.00     0.014 A 
ATOM     30  C   UNL A   1      38.152  29.944  28.662  1.00  0.00     0.014 A 
ATOM     31  C   UNL A   1      40.188  29.920  30.575  1.00  0.00     0.010 A 
ATOM     32  C   UNL A   1      39.470  29.668  28.281  1.00  0.00     0.010 A 
ATOM     33  C   UNL A   1      40.497  29.633  29.236  1.00  0.00    -0.014 A 
BRANCH  33  34
ATOM     34  C   UNL A   1      41.871  29.220  28.844  1.00  0.00     0.031 A 
ATOM     35  C   UNL A   1      42.986  30.225  28.751  1.00  0.00     0.074 A 
ATOM     36  C   UNL A   1      42.097  27.932  28.511  1.00  0.00     0.049 A 
ATOM     37  N   UNL A   1      44.221  30.052  28.354  1.00  0.00    -0.248 NA
ATOM     38  C   UNL A   1      42.669  31.606  29.143  1.00  0.00     0.031 C 
ATOM     39  C   UNL A   1      41.091  26.867  28.534  1.00  0.00     0.029 A 
ATOM     40  N   UNL A   1      43.235  27.301  28.074  1.00  0.00    -0.354 N 
ATOM     41  C   UNL A   1      44.827  31.299  28.439  1.00  0.00     0.074 A 
ATOM     42  C   UNL A   1      43.812  32.228  28.891  1.00  0.00     0.031 C 
ATOM     43  C   UNL A   1      41.658  25.717  28.139  1.00  0.00     0.029 A 
ATOM     44  C   UNL A   1      43.051  25.968  27.786  1.00  0.00     0.049 A 
ATOM     45  H   UNL A   1      44.101  27.758  27.976  1.00  0.00     0.167 HD
ATOM     46  C   UNL A   1      46.114  31.633  28.176  1.00  0.00     0.037 A 
ATOM     47  C   UNL A   1      43.896  25.054  27.269  1.00  0.00     0.037 A 
ATOM     48  C   UNL A   1      47.119  30.700  27.729  1.00  0.00     0.049 A 
ATOM     49  C   UNL A   1      45.304  25.463  26.936  1.00  0.00     0.074 A 
ATOM     50  C   UNL A   1      48.464  30.932  27.495  1.00  0.00     0.029 A 
ATOM     51  N   UNL A   1      46.889  29.364  27.434  1.00  0.00    -0.354 N 
ATOM     52  N   UNL A   1      45.881  26.631  27.092  1.00  0.00    -0.248 NA
ATOM     53  C   UNL A   1      46.177  24.435  26.352  1.00  0.00     0.031 C 
ATOM     54  C   UNL A   1      49.033  29.753  27.001  1.00  0.00     0.029 A 
ATOM     55  C   UNL A   1      48.057  28.770  26.980  1.00  0.00     0.049 A 
ATOM     56  H   UNL A   1      46.024  28.904  27.533  1.00  0.00     0.167 HD
ATOM     57  C   UNL A   1      47.185  26.475  26.636  1.00  0.00     0.074 A 
ATOM     58  C   UNL A   1      47.321  25.093  26.223  1.00  0.00     0.031 C 
ATOM     59  C   UNL A   1      48.179  27.394  26.562  1.00  0.00     0.037 A 
BRANCH  46  60
ATOM     60  C   UNL A   1      46.517  33.074  28.352  1.00  0.00     0.058 A 
ATOM     61  C   UNL A   1      46.395  34.007  27.310  1.00  0.00     0.135 A 
ATOM     62  C   UNL A   1      46.977  33.540  29.595  1.00  0.00     0.135 A 
ATOM     63  F   UNL A   1      45.969  33.617  26.098  1.00  0.00    -0.206 F 
ATOM     64  C   UNL A   1      46.741  35.344  27.485  1.00  0.00     0.059 A 
ATOM     65  C   UNL A   1      47.303  34.878  29.800  1.00  0.00     0.059 A 
ATOM     66  F   UNL A   1      47.110  32.693  30.627  1.00  0.00    -0.206 F 
ATOM     67  C   UNL A   1      47.194  35.770  28.735  1.00  0.00     0.060 A 
BRANCH  67  68
ATOM     68  S   UNL A   1      47.633  37.508  28.945  1.00  0.00     0.124 S 
ATOM     69  O   UNL A   1      46.420  38.173  28.479  1.00  0.00    -0.237 OA
ATOM     70  O   UNL A   1      47.892  37.594  30.378  1.00  0.00    -0.237 OA
ATOM     71  O   UNL A   1      48.804  37.672  28.087  1.00  0.00    -0.744 OA
ENDBRANCH  67  68
ENDBRANCH  46  60
BRANCH  47  72
ATOM     72  C   UNL A   1      43.425  23.665  27.022  1.00  0.00     0.058 A 
ATOM     73  C   UNL A   1      43.282  22.751  28.076  1.00  0.00     0.135 A 
ATOM     74  C   UNL A   1      43.095  23.226  25.729  1.00  0.00     0.135 A 
ATOM     75  F   UNL A   1      43.596  23.118  29.328  1.00  0.00    -0.206 F 
ATOM     76  C   UNL A   1      42.840  21.450  27.859  1.00  0.00     0.059 A 
ATOM     77  C   UNL A   1      42.623  21.939  25.490  1.00  0.00     0.059 A 
ATOM     78  F   UNL A   1      43.202  24.064  24.686  1.00  0.00    -0.206 F 
ATOM     79  C   UNL A   1      42.508  21.055  26.561  1.00  0.00     0.060 A 
BRANCH  79  80
ATOM     80  S   UNL A   1      41.882  19.381  26.301  1.00  0.00     0.124 S 
ATOM     81  O   UNL A   1      42.575  18.994  25.077  1.00  0.00    -0.237 OA
ATOM     82  O   UNL A   1      42.311  18.702  27.520  1.00  0.00    -0.237 OA
ATOM     83  O   UNL A   1      40.441  19.576  26.176  1.00  0.00    -0.744 OA
ENDBRANCH  79  80
ENDBRANCH  47  72
BRANCH  59  84
ATOM     84  C   UNL A   1      49.505  26.941  26.014  1.00  0.00     0.058 A 
ATOM     85  C   UNL A   1      49.819  27.075  24.652  1.00  0.00     0.135 A 
ATOM     86  C   UNL A   1      50.495  26.426  26.866  1.00  0.00     0.135 A 
ATOM     87  F   UNL A   1      48.906  27.551  23.791  1.00  0.00    -0.206 F 
ATOM     88  C   UNL A   1      51.062  26.699  24.152  1.00  0.00     0.059 A 
ATOM     89  C   UNL A   1      51.755  26.071  26.392  1.00  0.00     0.059 A 
ATOM     90  F   UNL A   1      50.250  26.281  28.178  1.00  0.00    -0.206 F 
ATOM     91  C   UNL A   1      52.027  26.206  25.032  1.00  0.00     0.060 A 
BRANCH  91  92
ATOM     92  S   UNL A   1      53.652  25.773  24.376  1.00  0.00     0.124 S 
ATOM     93  O   UNL A   1      53.454  25.965  22.943  1.00  0.00    -0.237 OA
ATOM     94  O   UNL A   1      54.520  26.746  25.032  1.00  0.00    -0.237 OA
ATOM     95  O   UNL A   1      53.836  24.390  24.804  1.00  0.00    -0.744 OA
ENDBRANCH  91  92
ENDBRANCH  59  84
ENDBRANCH  33  34
ENDBRANCH  25  28
ENDBRANCH  23  24
ENDBRANCH  22  23
ENDBRANCH   1  22
TORSDOF 19
ENDMDL
