MODEL 1
REMARK VINA RESULT:     -13.1      0.000      0.000
REMARK SMILES O=C(NCCCNC(=O)c1cc2nn[nH]n2n1)c1ccc(-c2c3nc(c(-c4c(F)cc(S(=O)(=O)[O-])cc4F)c4ccc([nH]4)c(-c4c(F)cc(S(=O)(=O)[O-])cc4F)c4nc(c(-c5c(F)cc(S(=O)(=O)[O-])cc5F)c5ccc2[nH]5)C=C4)C=C3)cc1
REMARK SMILES IDX 1 1 2 2 3 3 18 5 19 6 83 7 20 8 82 9 21 10 22 11 23 12 76 13
REMARK SMILES IDX 24 14 81 15 75 16 77 17 25 18 80 19 74 20 73 21 26 23 60 24
REMARK SMILES IDX 39 25 59 26 40 27 43 28 58 29 78 30 41 31 42 32 57 34 79 35
REMARK SMILES IDX 44 36 27 37 28 38 37 39 29 40 30 41 36 42 38 43 31 44 32 45
REMARK SMILES IDX 33 46 34 47 35 48 61 49 62 50 71 51 63 52 64 53 70 54 72 55
REMARK SMILES IDX 65 56 66 57 67 58 68 59 69 60 45 61 46 62 55 63 47 64 48 65
REMARK SMILES IDX 54 66 56 67 49 68 50 69 51 70 52 71 53 72 4 73 5 74 6 75
REMARK SMILES IDX 7 76 8 77 9 79 10 80 11 81 17 82 12 83 16 84 13 85 15 86
REMARK SMILES IDX 14 87
REMARK H PARENT 3 4 77 22 43 33 7 78 15 88
REMARK Flexibility Score: inf
ROOT
ATOM      1  O   UNL A   1      40.729  21.480  26.165  1.00  0.00    -0.269 OA
ATOM      2  C   UNL A   1      39.743  22.222  26.205  1.00  0.00     0.251 C 
ATOM      3  N   UNL A   1      38.641  21.752  25.545  1.00  0.00    -0.352 N 
ATOM      4  H   UNL A   1      38.847  20.961  24.997  1.00  0.00     0.163 HD
ENDROOT
BRANCH   2   5
ATOM      5  C   UNL A   1      39.864  23.537  26.899  1.00  0.00     0.039 A 
ATOM      6  C   UNL A   1      39.004  24.628  26.770  1.00  0.00     0.014 A 
ATOM      7  C   UNL A   1      40.995  23.677  27.731  1.00  0.00     0.014 A 
ATOM      8  C   UNL A   1      39.302  25.841  27.403  1.00  0.00     0.010 A 
ATOM      9  C   UNL A   1      41.293  24.881  28.364  1.00  0.00     0.010 A 
ATOM     10  C   UNL A   1      40.462  25.980  28.175  1.00  0.00    -0.014 A 
BRANCH  10  11
ATOM     11  C   UNL A   1      40.714  27.248  28.867  1.00  0.00     0.031 A 
ATOM     12  C   UNL A   1      41.821  28.078  28.298  1.00  0.00     0.074 A 
ATOM     13  C   UNL A   1      39.923  27.754  29.839  1.00  0.00     0.049 A 
ATOM     14  N   UNL A   1      42.921  28.453  28.866  1.00  0.00    -0.248 NA
ATOM     15  C   UNL A   1      41.722  28.469  26.884  1.00  0.00     0.031 C 
ATOM     16  C   UNL A   1      38.626  27.255  30.304  1.00  0.00     0.029 A 
ATOM     17  N   UNL A   1      40.080  28.904  30.560  1.00  0.00    -0.354 N 
ATOM     18  C   UNL A   1      43.576  29.278  27.949  1.00  0.00     0.074 A 
ATOM     19  C   UNL A   1      42.857  29.147  26.708  1.00  0.00     0.031 C 
ATOM     20  C   UNL A   1      38.024  28.203  31.060  1.00  0.00     0.029 A 
ATOM     21  C   UNL A   1      38.944  29.313  31.251  1.00  0.00     0.049 A 
ATOM     22  H   UNL A   1      40.928  29.403  30.589  1.00  0.00     0.167 HD
ATOM     23  C   UNL A   1      44.564  30.142  28.321  1.00  0.00     0.037 A 
ATOM     24  C   UNL A   1      38.755  30.498  31.889  1.00  0.00     0.037 A 
ATOM     25  C   UNL A   1      45.078  29.823  29.626  1.00  0.00     0.049 A 
ATOM     26  C   UNL A   1      40.096  31.070  32.166  1.00  0.00     0.074 A 
ATOM     27  C   UNL A   1      45.722  28.734  30.178  1.00  0.00     0.029 A 
ATOM     28  N   UNL A   1      44.659  30.586  30.687  1.00  0.00    -0.354 N 
ATOM     29  N   UNL A   1      40.962  30.547  32.991  1.00  0.00    -0.248 NA
ATOM     30  C   UNL A   1      40.644  32.005  31.195  1.00  0.00     0.031 C 
ATOM     31  C   UNL A   1      45.220  28.648  31.509  1.00  0.00     0.029 A 
ATOM     32  C   UNL A   1      44.343  29.719  31.699  1.00  0.00     0.049 A 
ATOM     33  H   UNL A   1      44.599  31.569  30.715  1.00  0.00     0.167 HD
ATOM     34  C   UNL A   1      42.193  30.751  32.387  1.00  0.00     0.074 A 
ATOM     35  C   UNL A   1      41.942  31.727  31.331  1.00  0.00     0.031 C 
ATOM     36  C   UNL A   1      43.246  29.916  32.620  1.00  0.00     0.037 A 
BRANCH  23  37
ATOM     37  C   UNL A   1      44.862  31.467  27.657  1.00  0.00     0.058 A 
ATOM     38  C   UNL A   1      46.049  31.616  26.905  1.00  0.00     0.135 A 
ATOM     39  C   UNL A   1      44.190  32.666  27.972  1.00  0.00     0.135 A 
ATOM     40  F   UNL A   1      46.772  30.543  26.544  1.00  0.00    -0.206 F 
ATOM     41  C   UNL A   1      46.572  32.866  26.569  1.00  0.00     0.059 A 
ATOM     42  C   UNL A   1      44.666  33.921  27.602  1.00  0.00     0.059 A 
ATOM     43  F   UNL A   1      43.091  32.685  28.737  1.00  0.00    -0.206 F 
ATOM     44  C   UNL A   1      45.882  34.014  26.942  1.00  0.00     0.060 A 
BRANCH  44  45
ATOM     45  S   UNL A   1      46.618  35.628  26.624  1.00  0.00     0.124 S 
ATOM     46  O   UNL A   1      47.428  35.819  27.823  1.00  0.00    -0.237 OA
ATOM     47  O   UNL A   1      47.352  35.389  25.387  1.00  0.00    -0.237 OA
ATOM     48  O   UNL A   1      45.459  36.507  26.499  1.00  0.00    -0.744 OA
ENDBRANCH  44  45
ENDBRANCH  23  37
BRANCH  24  49
ATOM     49  C   UNL A   1      37.514  31.322  31.957  1.00  0.00     0.058 A 
ATOM     50  C   UNL A   1      36.992  31.772  33.184  1.00  0.00     0.135 A 
ATOM     51  C   UNL A   1      36.982  31.930  30.801  1.00  0.00     0.135 A 
ATOM     52  F   UNL A   1      37.458  31.270  34.339  1.00  0.00    -0.206 F 
ATOM     53  C   UNL A   1      36.036  32.793  33.264  1.00  0.00     0.059 A 
ATOM     54  C   UNL A   1      36.024  32.943  30.855  1.00  0.00     0.059 A 
ATOM     55  F   UNL A   1      37.451  31.622  29.583  1.00  0.00    -0.206 F 
ATOM     56  C   UNL A   1      35.571  33.386  32.090  1.00  0.00     0.060 A 
BRANCH  56  57
ATOM     57  S   UNL A   1      34.468  34.818  32.188  1.00  0.00     0.124 S 
ATOM     58  O   UNL A   1      33.311  34.261  32.882  1.00  0.00    -0.237 OA
ATOM     59  O   UNL A   1      35.266  35.774  32.948  1.00  0.00    -0.237 OA
ATOM     60  O   UNL A   1      34.244  35.171  30.789  1.00  0.00    -0.744 OA
ENDBRANCH  56  57
ENDBRANCH  24  49
BRANCH  36  61
ATOM     61  C   UNL A   1      43.167  28.946  33.769  1.00  0.00     0.058 A 
ATOM     62  C   UNL A   1      43.472  29.270  35.102  1.00  0.00     0.135 A 
ATOM     63  C   UNL A   1      42.557  27.704  33.533  1.00  0.00     0.135 A 
ATOM     64  F   UNL A   1      43.972  30.472  35.424  1.00  0.00    -0.206 F 
ATOM     65  C   UNL A   1      43.190  28.393  36.152  1.00  0.00     0.059 A 
ATOM     66  C   UNL A   1      42.239  26.828  34.566  1.00  0.00     0.059 A 
ATOM     67  F   UNL A   1      42.191  27.362  32.285  1.00  0.00    -0.206 F 
ATOM     68  C   UNL A   1      42.560  27.180  35.874  1.00  0.00     0.060 A 
BRANCH  68  69
ATOM     69  S   UNL A   1      42.066  26.111  37.245  1.00  0.00     0.124 S 
ATOM     70  O   UNL A   1      40.746  26.634  37.583  1.00  0.00    -0.237 OA
ATOM     71  O   UNL A   1      42.084  24.785  36.635  1.00  0.00    -0.237 OA
ATOM     72  O   UNL A   1      43.104  26.339  38.248  1.00  0.00    -0.744 OA
ENDBRANCH  68  69
ENDBRANCH  36  61
ENDBRANCH  10  11
ENDBRANCH   2   5
BRANCH   3  73
ATOM     73  C   UNL A   1      37.246  22.131  25.456  1.00  0.00     0.118 C 
BRANCH  73  74
ATOM     74  C   UNL A   1      36.293  20.983  25.127  1.00  0.00     0.042 C 
BRANCH  74  75
ATOM     75  C   UNL A   1      34.939  21.029  25.839  1.00  0.00     0.118 C 
BRANCH  75  76
ATOM     76  N   UNL A   1      33.814  21.181  24.929  1.00  0.00    -0.351 N 
ATOM     77  C   UNL A   1      33.053  20.241  24.270  1.00  0.00     0.271 C 
ATOM     78  H   UNL A   1      33.552  22.114  24.755  1.00  0.00     0.163 HD
ATOM     79  O   UNL A   1      32.227  20.650  23.454  1.00  0.00    -0.267 OA
BRANCH  77  80
ATOM     80  C   UNL A   1      33.231  18.810  24.558  1.00  0.00     0.154 A 
ATOM     81  C   UNL A   1      34.311  17.945  24.140  1.00  0.00     0.089 A 
ATOM     82  N   UNL A   1      32.361  18.146  25.366  1.00  0.00    -0.143 NA
ATOM     83  C   UNL A   1      34.006  16.738  24.703  1.00  0.00     0.199 A 
ATOM     84  N   UNL A   1      32.878  16.935  25.386  1.00  0.00    -0.135 N 
ATOM     85  N   UNL A   1      34.396  15.451  24.847  1.00  0.00    -0.109 NA
ATOM     86  N   UNL A   1      32.592  15.793  25.980  1.00  0.00    -0.177 N 
ATOM     87  N   UNL A   1      33.522  14.854  25.570  1.00  0.00    -0.050 NA
ATOM     88  H   UNL A   1      31.848  15.637  26.604  1.00  0.00     0.216 HD
ENDBRANCH  77  80
ENDBRANCH  75  76
ENDBRANCH  74  75
ENDBRANCH  73  74
ENDBRANCH   3  73
TORSDOF 13
ENDMDL
MODEL 2
REMARK VINA RESULT:     -12.8      0.955      1.524
REMARK SMILES O=C(NCCCNC(=O)c1cc2nn[nH]n2n1)c1ccc(-c2c3nc(c(-c4c(F)cc(S(=O)(=O)[O-])cc4F)c4ccc([nH]4)c(-c4c(F)cc(S(=O)(=O)[O-])cc4F)c4nc(c(-c5c(F)cc(S(=O)(=O)[O-])cc5F)c5ccc2[nH]5)C=C4)C=C3)cc1
REMARK SMILES IDX 1 1 2 2 3 3 18 5 19 6 83 7 20 8 82 9 21 10 22 11 23 12 76 13
REMARK SMILES IDX 24 14 81 15 75 16 77 17 25 18 80 19 74 20 73 21 26 23 60 24
REMARK SMILES IDX 39 25 59 26 40 27 43 28 58 29 78 30 41 31 42 32 57 34 79 35
REMARK SMILES IDX 44 36 27 37 28 38 37 39 29 40 30 41 36 42 38 43 31 44 32 45
REMARK SMILES IDX 33 46 34 47 35 48 61 49 62 50 71 51 63 52 64 53 70 54 72 55
REMARK SMILES IDX 65 56 66 57 67 58 68 59 69 60 45 61 46 62 55 63 47 64 48 65
REMARK SMILES IDX 54 66 56 67 49 68 50 69 51 70 52 71 53 72 4 73 5 74 6 75
REMARK SMILES IDX 7 76 8 77 9 79 10 80 11 81 17 82 12 83 16 84 13 85 15 86
REMARK SMILES IDX 14 87
REMARK H PARENT 3 4 77 22 43 33 7 78 15 88
REMARK Flexibility Score: inf
ROOT
ATOM      1  O   UNL A   1      40.679  21.527  26.331  1.00  0.00    -0.269 OA
ATOM      2  C   UNL A   1      39.725  22.310  26.285  1.00  0.00     0.251 C 
ATOM      3  N   UNL A   1      38.668  21.886  25.528  1.00  0.00    -0.352 N 
ATOM      4  H   UNL A   1      38.888  21.086  24.998  1.00  0.00     0.163 HD
ENDROOT
BRANCH   2   5
ATOM      5  C   UNL A   1      39.840  23.620  26.988  1.00  0.00     0.039 A 
ATOM      6  C   UNL A   1      38.944  24.686  26.913  1.00  0.00     0.014 A 
ATOM      7  C   UNL A   1      41.004  23.785  27.770  1.00  0.00     0.014 A 
ATOM      8  C   UNL A   1      39.234  25.900  27.547  1.00  0.00     0.010 A 
ATOM      9  C   UNL A   1      41.295  24.989  28.404  1.00  0.00     0.010 A 
ATOM     10  C   UNL A   1      40.425  26.065  28.267  1.00  0.00    -0.014 A 
BRANCH  10  11
ATOM     11  C   UNL A   1      40.671  27.332  28.963  1.00  0.00     0.031 A 
ATOM     12  C   UNL A   1      41.762  28.177  28.386  1.00  0.00     0.074 A 
ATOM     13  C   UNL A   1      39.886  27.825  29.947  1.00  0.00     0.049 A 
ATOM     14  N   UNL A   1      42.865  28.561  28.943  1.00  0.00    -0.248 NA
ATOM     15  C   UNL A   1      41.643  28.574  26.975  1.00  0.00     0.031 C 
ATOM     16  C   UNL A   1      38.600  27.309  30.424  1.00  0.00     0.029 A 
ATOM     17  N   UNL A   1      40.039  28.972  30.672  1.00  0.00    -0.354 N 
ATOM     18  C   UNL A   1      43.500  29.398  28.023  1.00  0.00     0.074 A 
ATOM     19  C   UNL A   1      42.769  29.265  26.790  1.00  0.00     0.031 C 
ATOM     20  C   UNL A   1      37.997  28.247  31.193  1.00  0.00     0.029 A 
ATOM     21  C   UNL A   1      38.906  29.365  31.379  1.00  0.00     0.049 A 
ATOM     22  H   UNL A   1      40.882  29.480  30.694  1.00  0.00     0.167 HD
ATOM     23  C   UNL A   1      44.483  30.270  28.389  1.00  0.00     0.037 A 
ATOM     24  C   UNL A   1      38.712  30.545  32.025  1.00  0.00     0.037 A 
ATOM     25  C   UNL A   1      45.016  29.950  29.685  1.00  0.00     0.049 A 
ATOM     26  C   UNL A   1      40.051  31.130  32.290  1.00  0.00     0.074 A 
ATOM     27  C   UNL A   1      45.678  28.865  30.224  1.00  0.00     0.029 A 
ATOM     28  N   UNL A   1      44.601  30.703  30.755  1.00  0.00    -0.354 N 
ATOM     29  N   UNL A   1      40.931  30.612  33.102  1.00  0.00    -0.248 NA
ATOM     30  C   UNL A   1      40.577  32.075  31.318  1.00  0.00     0.031 C 
ATOM     31  C   UNL A   1      45.192  28.766  31.560  1.00  0.00     0.029 A 
ATOM     32  C   UNL A   1      44.306  29.827  31.766  1.00  0.00     0.049 A 
ATOM     33  H   UNL A   1      44.531  31.684  30.789  1.00  0.00     0.167 HD
ATOM     34  C   UNL A   1      42.154  30.832  32.485  1.00  0.00     0.074 A 
ATOM     35  C   UNL A   1      41.880  31.811  31.437  1.00  0.00     0.031 C 
ATOM     36  C   UNL A   1      43.218  30.007  32.701  1.00  0.00     0.037 A 
BRANCH  23  37
ATOM     37  C   UNL A   1      44.760  31.602  27.728  1.00  0.00     0.058 A 
ATOM     38  C   UNL A   1      45.967  31.788  27.017  1.00  0.00     0.135 A 
ATOM     39  C   UNL A   1      44.036  32.779  28.012  1.00  0.00     0.135 A 
ATOM     40  F   UNL A   1      46.738  30.739  26.688  1.00  0.00    -0.206 F 
ATOM     41  C   UNL A   1      46.458  33.054  26.693  1.00  0.00     0.059 A 
ATOM     42  C   UNL A   1      44.482  34.047  27.653  1.00  0.00     0.059 A 
ATOM     43  F   UNL A   1      42.911  32.763  28.738  1.00  0.00    -0.206 F 
ATOM     44  C   UNL A   1      45.716  34.179  27.036  1.00  0.00     0.060 A 
BRANCH  44  45
ATOM     45  S   UNL A   1      46.408  35.816  26.735  1.00  0.00     0.124 S 
ATOM     46  O   UNL A   1      47.066  35.622  25.448  1.00  0.00    -0.237 OA
ATOM     47  O   UNL A   1      45.213  36.653  26.723  1.00  0.00    -0.237 OA
ATOM     48  O   UNL A   1      47.297  36.019  27.875  1.00  0.00    -0.744 OA
ENDBRANCH  44  45
ENDBRANCH  23  37
BRANCH  24  49
ATOM     49  C   UNL A   1      37.464  31.355  32.112  1.00  0.00     0.058 A 
ATOM     50  C   UNL A   1      36.997  31.863  33.339  1.00  0.00     0.135 A 
ATOM     51  C   UNL A   1      36.866  31.894  30.954  1.00  0.00     0.135 A 
ATOM     52  F   UNL A   1      37.526  31.429  34.493  1.00  0.00    -0.206 F 
ATOM     53  C   UNL A   1      36.029  32.874  33.413  1.00  0.00     0.059 A 
ATOM     54  C   UNL A   1      35.896  32.895  31.003  1.00  0.00     0.059 A 
ATOM     55  F   UNL A   1      37.279  31.528  29.732  1.00  0.00    -0.206 F 
ATOM     56  C   UNL A   1      35.498  33.398  32.234  1.00  0.00     0.060 A 
BRANCH  56  57
ATOM     57  S   UNL A   1      34.379  34.819  32.312  1.00  0.00     0.124 S 
ATOM     58  O   UNL A   1      34.259  35.186  30.905  1.00  0.00    -0.237 OA
ATOM     59  O   UNL A   1      33.187  34.241  32.923  1.00  0.00    -0.237 OA
ATOM     60  O   UNL A   1      35.102  35.775  33.146  1.00  0.00    -0.744 OA
ENDBRANCH  56  57
ENDBRANCH  24  49
BRANCH  36  61
ATOM     61  C   UNL A   1      43.162  29.030  33.846  1.00  0.00     0.058 A 
ATOM     62  C   UNL A   1      43.460  29.356  35.180  1.00  0.00     0.135 A 
ATOM     63  C   UNL A   1      42.582  27.775  33.604  1.00  0.00     0.135 A 
ATOM     64  F   UNL A   1      43.931  30.568  35.508  1.00  0.00    -0.206 F 
ATOM     65  C   UNL A   1      43.200  28.467  36.226  1.00  0.00     0.059 A 
ATOM     66  C   UNL A   1      42.286  26.887  34.633  1.00  0.00     0.059 A 
ATOM     67  F   UNL A   1      42.225  27.430  32.354  1.00  0.00    -0.206 F 
ATOM     68  C   UNL A   1      42.599  27.241  35.943  1.00  0.00     0.060 A 
BRANCH  68  69
ATOM     69  S   UNL A   1      42.131  26.154  37.308  1.00  0.00     0.124 S 
ATOM     70  O   UNL A   1      42.254  24.831  36.705  1.00  0.00    -0.237 OA
ATOM     71  O   UNL A   1      43.125  26.480  38.327  1.00  0.00    -0.237 OA
ATOM     72  O   UNL A   1      40.768  26.572  37.627  1.00  0.00    -0.744 OA
ENDBRANCH  68  69
ENDBRANCH  36  61
ENDBRANCH  10  11
ENDBRANCH   2   5
BRANCH   3  73
ATOM     73  C   UNL A   1      37.304  22.324  25.315  1.00  0.00     0.118 C 
BRANCH  73  74
ATOM     74  C   UNL A   1      36.986  22.751  23.883  1.00  0.00     0.042 C 
BRANCH  74  75
ATOM     75  C   UNL A   1      35.499  22.915  23.561  1.00  0.00     0.118 C 
BRANCH  75  76
ATOM     76  N   UNL A   1      34.753  23.585  24.615  1.00  0.00    -0.351 N 
ATOM     77  C   UNL A   1      33.718  23.145  25.409  1.00  0.00     0.271 C 
ATOM     78  H   UNL A   1      35.036  24.512  24.790  1.00  0.00     0.163 HD
ATOM     79  O   UNL A   1      33.181  23.966  26.151  1.00  0.00    -0.267 OA
BRANCH  77  80
ATOM     80  C   UNL A   1      33.299  21.735  25.364  1.00  0.00     0.154 A 
ATOM     81  C   UNL A   1      32.686  21.023  24.266  1.00  0.00     0.089 A 
ATOM     82  N   UNL A   1      33.536  20.901  26.412  1.00  0.00    -0.143 NA
ATOM     83  C   UNL A   1      32.538  19.750  24.738  1.00  0.00     0.199 A 
ATOM     84  N   UNL A   1      33.046  19.762  25.971  1.00  0.00    -0.135 N 
ATOM     85  N   UNL A   1      32.097  18.504  24.450  1.00  0.00    -0.109 NA
ATOM     86  N   UNL A   1      32.958  18.528  26.427  1.00  0.00    -0.177 N 
ATOM     87  N   UNL A   1      32.294  17.768  25.481  1.00  0.00    -0.050 NA
ATOM     88  H   UNL A   1      33.304  18.205  27.290  1.00  0.00     0.216 HD
ENDBRANCH  77  80
ENDBRANCH  75  76
ENDBRANCH  74  75
ENDBRANCH  73  74
ENDBRANCH   3  73
TORSDOF 13
ENDMDL
MODEL 3
REMARK VINA RESULT:     -12.7      3.030      5.113
REMARK SMILES O=C(NCCCNC(=O)c1cc2nn[nH]n2n1)c1ccc(-c2c3nc(c(-c4c(F)cc(S(=O)(=O)[O-])cc4F)c4ccc([nH]4)c(-c4c(F)cc(S(=O)(=O)[O-])cc4F)c4nc(c(-c5c(F)cc(S(=O)(=O)[O-])cc5F)c5ccc2[nH]5)C=C4)C=C3)cc1
REMARK SMILES IDX 1 1 2 2 3 3 18 5 19 6 83 7 20 8 82 9 21 10 22 11 23 12 76 13
REMARK SMILES IDX 24 14 81 15 75 16 77 17 25 18 80 19 74 20 73 21 26 23 60 24
REMARK SMILES IDX 39 25 59 26 40 27 43 28 58 29 78 30 41 31 42 32 57 34 79 35
REMARK SMILES IDX 44 36 27 37 28 38 37 39 29 40 30 41 36 42 38 43 31 44 32 45
REMARK SMILES IDX 33 46 34 47 35 48 61 49 62 50 71 51 63 52 64 53 70 54 72 55
REMARK SMILES IDX 65 56 66 57 67 58 68 59 69 60 45 61 46 62 55 63 47 64 48 65
REMARK SMILES IDX 54 66 56 67 49 68 50 69 51 70 52 71 53 72 4 73 5 74 6 75
REMARK SMILES IDX 7 76 8 77 9 79 10 80 11 81 17 82 12 83 16 84 13 85 15 86
REMARK SMILES IDX 14 87
REMARK H PARENT 3 4 77 22 43 33 7 78 15 88
REMARK Flexibility Score: inf
ROOT
ATOM      1  O   UNL A   1      38.500  22.045  25.855  1.00  0.00    -0.269 OA
ATOM      2  C   UNL A   1      39.658  22.154  26.271  1.00  0.00     0.251 C 
ATOM      3  N   UNL A   1      40.438  21.044  26.100  1.00  0.00    -0.352 N 
ATOM      4  H   UNL A   1      39.913  20.262  25.813  1.00  0.00     0.163 HD
ENDROOT
BRANCH   2   5
ATOM      5  C   UNL A   1      40.059  23.421  26.947  1.00  0.00     0.039 A 
ATOM      6  C   UNL A   1      41.199  23.624  27.726  1.00  0.00     0.014 A 
ATOM      7  C   UNL A   1      39.155  24.495  26.801  1.00  0.00     0.014 A 
ATOM      8  C   UNL A   1      41.395  24.841  28.388  1.00  0.00     0.010 A 
ATOM      9  C   UNL A   1      39.347  25.708  27.457  1.00  0.00     0.010 A 
ATOM     10  C   UNL A   1      40.455  25.874  28.281  1.00  0.00    -0.014 A 
BRANCH  10  11
ATOM     11  C   UNL A   1      40.719  27.154  28.946  1.00  0.00     0.031 A 
ATOM     12  C   UNL A   1      41.830  27.963  28.356  1.00  0.00     0.074 A 
ATOM     13  C   UNL A   1      39.937  27.686  29.911  1.00  0.00     0.049 A 
ATOM     14  N   UNL A   1      42.936  28.341  28.912  1.00  0.00    -0.248 NA
ATOM     15  C   UNL A   1      41.729  28.327  26.935  1.00  0.00     0.031 C 
ATOM     16  C   UNL A   1      38.638  27.207  30.392  1.00  0.00     0.029 A 
ATOM     17  N   UNL A   1      40.106  28.849  30.609  1.00  0.00    -0.354 N 
ATOM     18  C   UNL A   1      43.594  29.142  27.976  1.00  0.00     0.074 A 
ATOM     19  C   UNL A   1      42.869  28.992  26.741  1.00  0.00     0.031 C 
ATOM     20  C   UNL A   1      38.047  28.175  31.132  1.00  0.00     0.029 A 
ATOM     21  C   UNL A   1      38.976  29.281  31.296  1.00  0.00     0.049 A 
ATOM     22  H   UNL A   1      40.958  29.341  30.624  1.00  0.00     0.167 HD
ATOM     23  C   UNL A   1      44.590  30.005  28.326  1.00  0.00     0.037 A 
ATOM     24  C   UNL A   1      38.800  30.480  31.911  1.00  0.00     0.037 A 
ATOM     25  C   UNL A   1      45.107  29.708  29.635  1.00  0.00     0.049 A 
ATOM     26  C   UNL A   1      40.147  31.047  32.171  1.00  0.00     0.074 A 
ATOM     27  C   UNL A   1      45.745  28.625  30.207  1.00  0.00     0.029 A 
ATOM     28  N   UNL A   1      44.700  30.496  30.682  1.00  0.00    -0.354 N 
ATOM     29  N   UNL A   1      41.012  30.533  33.002  1.00  0.00    -0.248 NA
ATOM     30  C   UNL A   1      40.698  31.957  31.179  1.00  0.00     0.031 C 
ATOM     31  C   UNL A   1      45.248  28.570  31.541  1.00  0.00     0.029 A 
ATOM     32  C   UNL A   1      44.381  29.652  31.712  1.00  0.00     0.049 A 
ATOM     33  H   UNL A   1      44.647  31.479  30.691  1.00  0.00     0.167 HD
ATOM     34  C   UNL A   1      42.243  30.715  32.389  1.00  0.00     0.074 A 
ATOM     35  C   UNL A   1      41.995  31.672  31.314  1.00  0.00     0.031 C 
ATOM     36  C   UNL A   1      43.290  29.876  32.635  1.00  0.00     0.037 A 
BRANCH  23  37
ATOM     37  C   UNL A   1      44.896  31.314  27.634  1.00  0.00     0.058 A 
ATOM     38  C   UNL A   1      46.100  31.451  26.907  1.00  0.00     0.135 A 
ATOM     39  C   UNL A   1      44.209  32.517  27.901  1.00  0.00     0.135 A 
ATOM     40  F   UNL A   1      46.838  30.374  26.593  1.00  0.00    -0.206 F 
ATOM     41  C   UNL A   1      46.623  32.695  26.550  1.00  0.00     0.059 A 
ATOM     42  C   UNL A   1      44.686  33.764  27.509  1.00  0.00     0.059 A 
ATOM     43  F   UNL A   1      43.092  32.548  28.638  1.00  0.00    -0.206 F 
ATOM     44  C   UNL A   1      45.917  33.848  26.876  1.00  0.00     0.060 A 
BRANCH  44  45
ATOM     45  S   UNL A   1      46.651  35.458  26.533  1.00  0.00     0.124 S 
ATOM     46  O   UNL A   1      47.472  35.662  27.722  1.00  0.00    -0.237 OA
ATOM     47  O   UNL A   1      47.373  35.205  25.292  1.00  0.00    -0.237 OA
ATOM     48  O   UNL A   1      45.491  36.336  26.409  1.00  0.00    -0.744 OA
ENDBRANCH  44  45
ENDBRANCH  23  37
BRANCH  24  49
ATOM     49  C   UNL A   1      37.566  31.315  31.967  1.00  0.00     0.058 A 
ATOM     50  C   UNL A   1      37.012  31.733  33.192  1.00  0.00     0.135 A 
ATOM     51  C   UNL A   1      37.076  31.965  30.816  1.00  0.00     0.135 A 
ATOM     52  F   UNL A   1      37.437  31.190  34.344  1.00  0.00    -0.206 F 
ATOM     53  C   UNL A   1      36.064  32.761  33.275  1.00  0.00     0.059 A 
ATOM     54  C   UNL A   1      36.127  32.986  30.872  1.00  0.00     0.059 A 
ATOM     55  F   UNL A   1      37.578  31.689  29.603  1.00  0.00    -0.206 F 
ATOM     56  C   UNL A   1      35.641  33.396  32.107  1.00  0.00     0.060 A 
BRANCH  56  57
ATOM     57  S   UNL A   1      34.550  34.836  32.217  1.00  0.00     0.124 S 
ATOM     58  O   UNL A   1      33.376  34.275  32.877  1.00  0.00    -0.237 OA
ATOM     59  O   UNL A   1      35.344  35.767  33.012  1.00  0.00    -0.237 OA
ATOM     60  O   UNL A   1      34.356  35.221  30.822  1.00  0.00    -0.744 OA
ENDBRANCH  56  57
ENDBRANCH  24  49
BRANCH  36  61
ATOM     61  C   UNL A   1      43.208  28.930  33.803  1.00  0.00     0.058 A 
ATOM     62  C   UNL A   1      43.487  29.288  35.133  1.00  0.00     0.135 A 
ATOM     63  C   UNL A   1      42.620  27.674  33.585  1.00  0.00     0.135 A 
ATOM     64  F   UNL A   1      43.964  30.504  35.436  1.00  0.00    -0.206 F 
ATOM     65  C   UNL A   1      43.203  28.429  36.198  1.00  0.00     0.059 A 
ATOM     66  C   UNL A   1      42.300  26.816  34.632  1.00  0.00     0.059 A 
ATOM     67  F   UNL A   1      42.279  27.299  32.339  1.00  0.00    -0.206 F 
ATOM     68  C   UNL A   1      42.595  27.201  35.937  1.00  0.00     0.060 A 
BRANCH  68  69
ATOM     69  S   UNL A   1      42.097  26.154  37.323  1.00  0.00     0.124 S 
ATOM     70  O   UNL A   1      40.755  26.648  37.615  1.00  0.00    -0.237 OA
ATOM     71  O   UNL A   1      42.168  24.813  36.749  1.00  0.00    -0.237 OA
ATOM     72  O   UNL A   1      43.103  26.437  38.345  1.00  0.00    -0.744 OA
ENDBRANCH  68  69
ENDBRANCH  36  61
ENDBRANCH  10  11
ENDBRANCH   2   5
BRANCH   3  73
ATOM     73  C   UNL A   1      41.847  20.736  26.234  1.00  0.00     0.118 C 
BRANCH  73  74
ATOM     74  C   UNL A   1      42.231  19.313  25.831  1.00  0.00     0.042 C 
BRANCH  74  75
ATOM     75  C   UNL A   1      43.661  18.896  26.180  1.00  0.00     0.118 C 
BRANCH  75  76
ATOM     76  N   UNL A   1      44.461  18.553  25.014  1.00  0.00    -0.351 N 
ATOM     77  C   UNL A   1      45.179  19.345  24.146  1.00  0.00     0.271 C 
ATOM     78  H   UNL A   1      44.495  17.589  24.811  1.00  0.00     0.163 HD
ATOM     79  O   UNL A   1      45.675  18.803  23.159  1.00  0.00    -0.267 OA
BRANCH  77  80
ATOM     80  C   UNL A   1      45.345  20.781  24.420  1.00  0.00     0.154 A 
ATOM     81  C   UNL A   1      44.638  21.889  23.820  1.00  0.00     0.089 A 
ATOM     82  N   UNL A   1      46.197  21.213  25.388  1.00  0.00    -0.143 NA
ATOM     83  C   UNL A   1      45.148  22.988  24.451  1.00  0.00     0.199 A 
ATOM     84  N   UNL A   1      46.033  22.519  25.331  1.00  0.00    -0.135 N 
ATOM     85  N   UNL A   1      45.102  24.337  24.541  1.00  0.00    -0.109 NA
ATOM     86  N   UNL A   1      46.502  23.561  25.988  1.00  0.00    -0.177 N 
ATOM     87  N   UNL A   1      45.955  24.702  25.426  1.00  0.00    -0.050 NA
ATOM     88  H   UNL A   1      47.131  23.533  26.744  1.00  0.00     0.216 HD
ENDBRANCH  77  80
ENDBRANCH  75  76
ENDBRANCH  74  75
ENDBRANCH  73  74
ENDBRANCH   3  73
TORSDOF 13
ENDMDL
