MODEL 1
REMARK VINA RESULT:     -14.8      0.000      0.000
REMARK SMILES Cc1ccccc1N1C(=O)c2cccc3c(C(=O)NCCCNC(=O)c4ccc(-c5c6nc(c(-c7c(F)cc(S(=O)(=O)[O-])cc7F)c7ccc([nH]7)c(-c7c(F)cc(S(=O)(=O)[O-])cc7F)c7nc(c(-c8c(F)cc(S(=O)(=O)[O-])cc8F)c8ccc5[nH]8)C=C7)C=C6)cc4)ccc(c23)C1=O
REMARK SMILES IDX 22 1 21 2 20 3 19 4 17 5 18 6 16 8 8 9 9 10 96 11 10 12
REMARK SMILES IDX 11 13 94 14 97 15 12 16 95 17 93 18 13 19 15 20 92 21 14 22
REMARK SMILES IDX 7 23 1 24 2 25 3 26 4 27 6 28 5 29 23 30 24 31 25 33 26 34
REMARK SMILES IDX 27 35 91 36 28 37 90 38 29 39 30 40 31 41 84 42 32 43 89 44
REMARK SMILES IDX 83 45 85 46 33 47 88 48 82 49 81 50 34 52 68 53 47 54 67 55
REMARK SMILES IDX 48 56 51 57 66 58 86 59 49 60 50 61 65 63 87 64 52 65 35 66
REMARK SMILES IDX 36 67 45 68 37 69 38 70 44 71 46 72 39 73 40 74 41 75 42 76
REMARK SMILES IDX 43 77 69 78 70 79 79 80 71 81 72 82 78 83 80 84 73 85 74 86
REMARK SMILES IDX 75 87 76 88 77 89 53 90 54 91 63 92 55 93 56 94 62 95 64 96
REMARK SMILES IDX 57 97 58 98 59 99 60 100 61 101
REMARK H PARENT 19 7 23 32 85 51 51 62
REMARK Flexibility Score: inf
ROOT
ATOM      1  C   UNL A   1      34.725  30.402  26.874  1.00  0.00     0.118 C 
ENDROOT
BRANCH   1   2
ATOM      2  C   UNL A   1      34.078  29.339  27.751  1.00  0.00     0.042 C 
BRANCH   2   3
ATOM      3  C   UNL A   1      32.705  28.944  27.255  1.00  0.00     0.118 C 
BRANCH   3   4
ATOM      4  N   UNL A   1      31.938  30.008  26.625  1.00  0.00    -0.352 N 
ATOM      5  C   UNL A   1      31.395  30.084  25.358  1.00  0.00     0.251 C 
ATOM      6  O   UNL A   1      30.758  31.090  25.046  1.00  0.00    -0.269 OA
ATOM      7  H   UNL A   1      31.782  30.798  27.191  1.00  0.00     0.163 HD
BRANCH   5   8
ATOM      8  C   UNL A   1      31.676  29.065  24.299  1.00  0.00     0.047 A 
ATOM      9  N   UNL A   1      32.622  24.581  22.980  1.00  0.00    -0.242 N 
ATOM     10  C   UNL A   1      31.253  24.448  23.179  1.00  0.00     0.265 C 
ATOM     11  C   UNL A   1      33.023  25.658  22.210  1.00  0.00     0.265 C 
ATOM     12  O   UNL A   1      30.661  23.384  23.321  1.00  0.00    -0.268 OA
ATOM     13  C   UNL A   1      30.499  25.752  23.238  1.00  0.00     0.049 A 
ATOM     14  C   UNL A   1      32.593  26.913  22.843  1.00  0.00     0.049 A 
ATOM     15  O   UNL A   1      33.642  25.643  21.154  1.00  0.00    -0.268 OA
ATOM     16  C   UNL A   1      29.130  25.792  23.494  1.00  0.00     0.014 A 
ATOM     17  C   UNL A   1      31.268  26.928  23.282  1.00  0.00     0.008 A 
ATOM     18  C   UNL A   1      33.479  27.945  23.098  1.00  0.00     0.015 A 
ATOM     19  C   UNL A   1      28.534  27.023  23.754  1.00  0.00     0.002 A 
ATOM     20  C   UNL A   1      30.739  28.103  23.828  1.00  0.00    -0.004 A 
ATOM     21  C   UNL A   1      33.030  28.991  23.898  1.00  0.00     0.015 A 
ATOM     22  C   UNL A   1      29.328  28.167  23.908  1.00  0.00     0.009 A 
BRANCH   9  23
ATOM     23  C   UNL A   1      33.621  24.177  23.939  1.00  0.00     0.055 A 
ATOM     24  C   UNL A   1      32.588  25.403  25.978  1.00  0.00     0.046 C 
ATOM     25  C   UNL A   1      33.695  24.686  25.257  1.00  0.00    -0.027 A 
ATOM     26  C   UNL A   1      34.947  24.660  25.913  1.00  0.00     0.005 A 
ATOM     27  C   UNL A   1      36.077  24.095  25.324  1.00  0.00     0.000 A 
ATOM     28  C   UNL A   1      34.759  23.529  23.403  1.00  0.00     0.027 A 
ATOM     29  C   UNL A   1      35.975  23.494  24.080  1.00  0.00     0.002 A 
ENDBRANCH   9  23
ENDBRANCH   5   8
ENDBRANCH   3   4
ENDBRANCH   2   3
ENDBRANCH   1   2
BRANCH   1  30
ATOM     30  N   UNL A   1      35.478  31.405  27.643  1.00  0.00    -0.352 N 
ATOM     31  C   UNL A   1      36.650  31.257  28.373  1.00  0.00     0.251 C 
ATOM     32  H   UNL A   1      35.095  32.313  27.640  1.00  0.00     0.163 HD
ATOM     33  O   UNL A   1      37.152  32.202  28.971  1.00  0.00    -0.269 OA
BRANCH  31  34
ATOM     34  C   UNL A   1      37.285  29.925  28.383  1.00  0.00     0.039 A 
ATOM     35  C   UNL A   1      37.272  29.175  29.562  1.00  0.00     0.014 A 
ATOM     36  C   UNL A   1      38.179  29.646  27.363  1.00  0.00     0.014 A 
ATOM     37  C   UNL A   1      38.335  28.313  29.828  1.00  0.00     0.010 A 
ATOM     38  C   UNL A   1      39.308  28.932  27.701  1.00  0.00     0.010 A 
ATOM     39  C   UNL A   1      39.413  28.289  28.946  1.00  0.00    -0.014 A 
BRANCH  39  40
ATOM     40  C   UNL A   1      40.732  27.731  29.243  1.00  0.00     0.031 A 
ATOM     41  C   UNL A   1      41.069  26.357  28.776  1.00  0.00     0.074 A 
ATOM     42  C   UNL A   1      41.711  28.506  29.768  1.00  0.00     0.049 A 
ATOM     43  N   UNL A   1      42.111  25.699  29.154  1.00  0.00    -0.248 NA
ATOM     44  C   UNL A   1      40.236  25.594  27.847  1.00  0.00     0.031 C 
ATOM     45  C   UNL A   1      43.152  28.267  29.684  1.00  0.00     0.029 A 
ATOM     46  N   UNL A   1      41.604  29.595  30.633  1.00  0.00    -0.354 N 
ATOM     47  C   UNL A   1      42.238  24.594  28.345  1.00  0.00     0.074 A 
ATOM     48  C   UNL A   1      41.034  24.565  27.554  1.00  0.00     0.031 C 
ATOM     49  C   UNL A   1      43.782  29.003  30.610  1.00  0.00     0.029 A 
ATOM     50  C   UNL A   1      42.764  29.629  31.431  1.00  0.00     0.049 A 
ATOM     51  H   UNL A   1      40.852  30.228  30.676  1.00  0.00     0.167 HD
ATOM     52  C   UNL A   1      43.401  23.886  28.359  1.00  0.00     0.037 A 
ATOM     53  C   UNL A   1      42.706  29.518  32.792  1.00  0.00     0.037 A 
ATOM     54  C   UNL A   1      44.322  24.408  29.363  1.00  0.00     0.049 A 
ATOM     55  C   UNL A   1      43.407  28.298  33.347  1.00  0.00     0.074 A 
ATOM     56  C   UNL A   1      45.394  25.283  29.296  1.00  0.00     0.029 A 
ATOM     57  N   UNL A   1      44.001  24.279  30.708  1.00  0.00    -0.354 N 
ATOM     58  N   UNL A   1      43.773  27.275  32.627  1.00  0.00    -0.248 NA
ATOM     59  C   UNL A   1      43.738  28.124  34.759  1.00  0.00     0.031 C 
ATOM     60  C   UNL A   1      45.706  25.697  30.613  1.00  0.00     0.029 A 
ATOM     61  C   UNL A   1      44.828  25.070  31.480  1.00  0.00     0.049 A 
ATOM     62  H   UNL A   1      43.285  23.703  31.061  1.00  0.00     0.167 HD
ATOM     63  C   UNL A   1      44.314  26.304  33.435  1.00  0.00     0.074 A 
ATOM     64  C   UNL A   1      44.303  26.902  34.755  1.00  0.00     0.031 C 
ATOM     65  C   UNL A   1      44.699  25.090  32.931  1.00  0.00     0.037 A 
BRANCH  52  66
ATOM     66  C   UNL A   1      43.793  22.878  27.303  1.00  0.00     0.058 A 
ATOM     67  C   UNL A   1      43.030  21.706  27.109  1.00  0.00     0.135 A 
ATOM     68  C   UNL A   1      44.924  22.992  26.472  1.00  0.00     0.135 A 
ATOM     69  F   UNL A   1      41.894  21.486  27.783  1.00  0.00    -0.206 F 
ATOM     70  C   UNL A   1      43.406  20.691  26.230  1.00  0.00     0.059 A 
ATOM     71  C   UNL A   1      45.354  21.964  25.626  1.00  0.00     0.059 A 
ATOM     72  F   UNL A   1      45.636  24.127  26.419  1.00  0.00    -0.206 F 
ATOM     73  C   UNL A   1      44.587  20.812  25.515  1.00  0.00     0.060 A 
BRANCH  73  74
ATOM     74  S   UNL A   1      45.093  19.451  24.446  1.00  0.00     0.124 S 
ATOM     75  O   UNL A   1      44.511  18.296  25.124  1.00  0.00    -0.237 OA
ATOM     76  O   UNL A   1      44.477  19.818  23.176  1.00  0.00    -0.237 OA
ATOM     77  O   UNL A   1      46.551  19.517  24.480  1.00  0.00    -0.744 OA
ENDBRANCH  73  74
ENDBRANCH  52  66
BRANCH  53  78
ATOM     78  C   UNL A   1      41.505  30.172  33.375  1.00  0.00     0.058 A 
ATOM     79  C   UNL A   1      41.579  31.560  33.593  1.00  0.00     0.135 A 
ATOM     80  C   UNL A   1      40.234  29.599  33.221  1.00  0.00     0.135 A 
ATOM     81  F   UNL A   1      42.774  32.147  33.776  1.00  0.00    -0.206 F 
ATOM     82  C   UNL A   1      40.466  32.375  33.450  1.00  0.00     0.059 A 
ATOM     83  C   UNL A   1      39.100  30.401  33.086  1.00  0.00     0.059 A 
ATOM     84  F   UNL A   1      40.106  28.280  33.021  1.00  0.00    -0.206 F 
ATOM     85  C   UNL A   1      39.248  31.788  33.113  1.00  0.00     0.060 A 
BRANCH  85  86
ATOM     86  S   UNL A   1      37.946  32.872  32.477  1.00  0.00     0.124 S 
ATOM     87  O   UNL A   1      38.609  33.523  31.353  1.00  0.00    -0.237 OA
ATOM     88  O   UNL A   1      36.913  31.899  32.126  1.00  0.00    -0.237 OA
ATOM     89  O   UNL A   1      37.638  33.731  33.615  1.00  0.00    -0.744 OA
ENDBRANCH  85  86
ENDBRANCH  53  78
BRANCH  65  90
ATOM     90  C   UNL A   1      45.076  23.839  33.709  1.00  0.00     0.058 A 
ATOM     91  C   UNL A   1      44.183  22.813  34.063  1.00  0.00     0.135 A 
ATOM     92  C   UNL A   1      46.438  23.572  34.017  1.00  0.00     0.135 A 
ATOM     93  F   UNL A   1      42.887  22.865  33.731  1.00  0.00    -0.206 F 
ATOM     94  C   UNL A   1      44.591  21.654  34.731  1.00  0.00     0.059 A 
ATOM     95  C   UNL A   1      46.874  22.397  34.625  1.00  0.00     0.059 A 
ATOM     96  F   UNL A   1      47.414  24.443  33.719  1.00  0.00    -0.206 F 
ATOM     97  C   UNL A   1      45.938  21.453  35.009  1.00  0.00     0.060 A 
BRANCH  97  98
ATOM     98  S   UNL A   1      46.475  19.934  35.817  1.00  0.00     0.124 S 
ATOM     99  O   UNL A   1      47.885  20.219  36.063  1.00  0.00    -0.237 OA
ATOM    100  O   UNL A   1      45.627  19.883  37.004  1.00  0.00    -0.237 OA
ATOM    101  O   UNL A   1      46.201  18.908  34.817  1.00  0.00    -0.744 OA
ENDBRANCH  97  98
ENDBRANCH  65  90
ENDBRANCH  39  40
ENDBRANCH  31  34
ENDBRANCH   1  30
TORSDOF 14
ENDMDL
MODEL 2
REMARK VINA RESULT:     -14.8      1.238      2.065
REMARK SMILES Cc1ccccc1N1C(=O)c2cccc3c(C(=O)NCCCNC(=O)c4ccc(-c5c6nc(c(-c7c(F)cc(S(=O)(=O)[O-])cc7F)c7ccc([nH]7)c(-c7c(F)cc(S(=O)(=O)[O-])cc7F)c7nc(c(-c8c(F)cc(S(=O)(=O)[O-])cc8F)c8ccc5[nH]8)C=C7)C=C6)cc4)ccc(c23)C1=O
REMARK SMILES IDX 22 1 21 2 20 3 19 4 17 5 18 6 16 8 8 9 9 10 96 11 10 12
REMARK SMILES IDX 11 13 94 14 97 15 12 16 95 17 93 18 13 19 15 20 92 21 14 22
REMARK SMILES IDX 7 23 1 24 2 25 3 26 4 27 6 28 5 29 23 30 24 31 25 33 26 34
REMARK SMILES IDX 27 35 91 36 28 37 90 38 29 39 30 40 31 41 84 42 32 43 89 44
REMARK SMILES IDX 83 45 85 46 33 47 88 48 82 49 81 50 34 52 68 53 47 54 67 55
REMARK SMILES IDX 48 56 51 57 66 58 86 59 49 60 50 61 65 63 87 64 52 65 35 66
REMARK SMILES IDX 36 67 45 68 37 69 38 70 44 71 46 72 39 73 40 74 41 75 42 76
REMARK SMILES IDX 43 77 69 78 70 79 79 80 71 81 72 82 78 83 80 84 73 85 74 86
REMARK SMILES IDX 75 87 76 88 77 89 53 90 54 91 63 92 55 93 56 94 62 95 64 96
REMARK SMILES IDX 57 97 58 98 59 99 60 100 61 101
REMARK H PARENT 19 7 23 32 85 51 51 62
REMARK Flexibility Score: inf
ROOT
ATOM      1  C   UNL A   1      34.557  30.169  27.349  1.00  0.00     0.118 C 
ENDROOT
BRANCH   1   2
ATOM      2  C   UNL A   1      33.117  30.622  27.141  1.00  0.00     0.042 C 
BRANCH   2   3
ATOM      3  C   UNL A   1      32.452  29.904  25.988  1.00  0.00     0.118 C 
BRANCH   3   4
ATOM      4  N   UNL A   1      31.475  28.892  26.362  1.00  0.00    -0.352 N 
ATOM      5  C   UNL A   1      31.530  27.516  26.251  1.00  0.00     0.251 C 
ATOM      6  O   UNL A   1      30.579  26.851  26.659  1.00  0.00    -0.269 OA
ATOM      7  H   UNL A   1      30.644  29.243  26.755  1.00  0.00     0.163 HD
BRANCH   5   8
ATOM      8  C   UNL A   1      32.629  26.811  25.520  1.00  0.00     0.047 A 
ATOM      9  N   UNL A   1      34.234  23.103  22.987  1.00  0.00    -0.242 N 
ATOM     10  C   UNL A   1      33.564  23.769  21.967  1.00  0.00     0.265 C 
ATOM     11  C   UNL A   1      35.087  23.872  23.758  1.00  0.00     0.265 C 
ATOM     12  O   UNL A   1      33.231  23.269  20.899  1.00  0.00    -0.268 OA
ATOM     13  C   UNL A   1      33.232  25.207  22.271  1.00  0.00     0.049 A 
ATOM     14  C   UNL A   1      34.333  24.946  24.418  1.00  0.00     0.049 A 
ATOM     15  O   UNL A   1      36.294  23.737  23.913  1.00  0.00    -0.268 OA
ATOM     16  C   UNL A   1      32.508  25.993  21.378  1.00  0.00     0.014 A 
ATOM     17  C   UNL A   1      33.454  25.645  23.589  1.00  0.00     0.008 A 
ATOM     18  C   UNL A   1      34.399  25.154  25.786  1.00  0.00     0.015 A 
ATOM     19  C   UNL A   1      32.044  27.235  21.803  1.00  0.00     0.002 A 
ATOM     20  C   UNL A   1      32.746  26.737  24.103  1.00  0.00    -0.004 A 
ATOM     21  C   UNL A   1      33.484  26.040  26.343  1.00  0.00     0.015 A 
ATOM     22  C   UNL A   1      32.171  27.607  23.147  1.00  0.00     0.009 A 
BRANCH   9  23
ATOM     23  C   UNL A   1      33.695  21.975  23.706  1.00  0.00     0.055 A 
ATOM     24  C   UNL A   1      31.245  22.824  23.794  1.00  0.00     0.046 C 
ATOM     25  C   UNL A   1      32.376  21.927  24.216  1.00  0.00    -0.027 A 
ATOM     26  C   UNL A   1      32.114  21.077  25.314  1.00  0.00     0.005 A 
ATOM     27  C   UNL A   1      33.097  20.250  25.857  1.00  0.00     0.000 A 
ATOM     28  C   UNL A   1      34.645  21.060  24.216  1.00  0.00     0.027 A 
ATOM     29  C   UNL A   1      34.357  20.213  25.282  1.00  0.00     0.002 A 
ENDBRANCH   9  23
ENDBRANCH   5   8
ENDBRANCH   3   4
ENDBRANCH   2   3
ENDBRANCH   1   2
BRANCH   1  30
ATOM     30  N   UNL A   1      35.429  31.235  27.863  1.00  0.00    -0.352 N 
ATOM     31  C   UNL A   1      36.722  31.151  28.366  1.00  0.00     0.251 C 
ATOM     32  H   UNL A   1      35.041  32.140  27.850  1.00  0.00     0.163 HD
ATOM     33  O   UNL A   1      37.316  32.144  28.766  1.00  0.00    -0.269 OA
BRANCH  31  34
ATOM     34  C   UNL A   1      37.364  29.822  28.377  1.00  0.00     0.039 A 
ATOM     35  C   UNL A   1      37.381  29.086  29.565  1.00  0.00     0.014 A 
ATOM     36  C   UNL A   1      38.237  29.535  27.341  1.00  0.00     0.014 A 
ATOM     37  C   UNL A   1      38.456  28.233  29.817  1.00  0.00     0.010 A 
ATOM     38  C   UNL A   1      39.377  28.832  27.662  1.00  0.00     0.010 A 
ATOM     39  C   UNL A   1      39.513  28.205  28.911  1.00  0.00    -0.014 A 
BRANCH  39  40
ATOM     40  C   UNL A   1      40.842  27.657  29.186  1.00  0.00     0.031 A 
ATOM     41  C   UNL A   1      41.183  26.287  28.709  1.00  0.00     0.074 A 
ATOM     42  C   UNL A   1      41.822  28.439  29.698  1.00  0.00     0.049 A 
ATOM     43  N   UNL A   1      42.237  25.638  29.068  1.00  0.00    -0.248 NA
ATOM     44  C   UNL A   1      40.342  25.521  27.791  1.00  0.00     0.031 C 
ATOM     45  C   UNL A   1      43.263  28.213  29.589  1.00  0.00     0.029 A 
ATOM     46  N   UNL A   1      41.720  29.524  30.567  1.00  0.00    -0.354 N 
ATOM     47  C   UNL A   1      42.361  24.536  28.253  1.00  0.00     0.074 A 
ATOM     48  C   UNL A   1      41.144  24.499  27.481  1.00  0.00     0.031 C 
ATOM     49  C   UNL A   1      43.902  28.951  30.508  1.00  0.00     0.029 A 
ATOM     50  C   UNL A   1      42.892  29.566  31.347  1.00  0.00     0.049 A 
ATOM     51  H   UNL A   1      40.963  30.151  30.625  1.00  0.00     0.167 HD
ATOM     52  C   UNL A   1      43.530  23.838  28.247  1.00  0.00     0.037 A 
ATOM     53  C   UNL A   1      42.857  29.450  32.708  1.00  0.00     0.037 A 
ATOM     54  C   UNL A   1      44.462  24.366  29.237  1.00  0.00     0.049 A 
ATOM     55  C   UNL A   1      43.577  28.235  33.248  1.00  0.00     0.074 A 
ATOM     56  C   UNL A   1      45.525  25.250  29.156  1.00  0.00     0.029 A 
ATOM     57  N   UNL A   1      44.164  24.229  30.587  1.00  0.00    -0.354 N 
ATOM     58  N   UNL A   1      43.941  27.217  32.519  1.00  0.00    -0.248 NA
ATOM     59  C   UNL A   1      43.933  28.059  34.654  1.00  0.00     0.031 C 
ATOM     60  C   UNL A   1      45.855  25.662  30.469  1.00  0.00     0.029 A 
ATOM     61  C   UNL A   1      44.996  25.026  31.348  1.00  0.00     0.049 A 
ATOM     62  H   UNL A   1      43.458  23.646  30.949  1.00  0.00     0.167 HD
ATOM     63  C   UNL A   1      44.503  26.248  33.315  1.00  0.00     0.074 A 
ATOM     64  C   UNL A   1      44.508  26.842  34.637  1.00  0.00     0.031 C 
ATOM     65  C   UNL A   1      44.891  25.040  32.801  1.00  0.00     0.037 A 
BRANCH  52  66
ATOM     66  C   UNL A   1      43.913  22.838  27.181  1.00  0.00     0.058 A 
ATOM     67  C   UNL A   1      43.108  21.705  26.935  1.00  0.00     0.135 A 
ATOM     68  C   UNL A   1      45.077  22.919  26.391  1.00  0.00     0.135 A 
ATOM     69  F   UNL A   1      41.940  21.521  27.565  1.00  0.00    -0.206 F 
ATOM     70  C   UNL A   1      43.469  20.693  26.045  1.00  0.00     0.059 A 
ATOM     71  C   UNL A   1      45.490  21.892  25.536  1.00  0.00     0.059 A 
ATOM     72  F   UNL A   1      45.839  24.022  26.389  1.00  0.00    -0.206 F 
ATOM     73  C   UNL A   1      44.678  20.777  25.373  1.00  0.00     0.060 A 
BRANCH  73  74
ATOM     74  S   UNL A   1      45.160  19.419  24.291  1.00  0.00     0.124 S 
ATOM     75  O   UNL A   1      44.439  19.735  23.061  1.00  0.00    -0.237 OA
ATOM     76  O   UNL A   1      46.609  19.576  24.235  1.00  0.00    -0.237 OA
ATOM     77  O   UNL A   1      44.683  18.235  24.999  1.00  0.00    -0.744 OA
ENDBRANCH  73  74
ENDBRANCH  52  66
BRANCH  53  78
ATOM     78  C   UNL A   1      41.660  30.091  33.313  1.00  0.00     0.058 A 
ATOM     79  C   UNL A   1      41.698  31.489  33.470  1.00  0.00     0.135 A 
ATOM     80  C   UNL A   1      40.402  29.475  33.234  1.00  0.00     0.135 A 
ATOM     81  F   UNL A   1      42.880  32.120  33.581  1.00  0.00    -0.206 F 
ATOM     82  C   UNL A   1      40.554  32.264  33.339  1.00  0.00     0.059 A 
ATOM     83  C   UNL A   1      39.239  30.235  33.113  1.00  0.00     0.059 A 
ATOM     84  F   UNL A   1      40.309  28.145  33.093  1.00  0.00    -0.206 F 
ATOM     85  C   UNL A   1      39.343  31.627  33.077  1.00  0.00     0.060 A 
BRANCH  85  86
ATOM     86  S   UNL A   1      37.984  32.643  32.451  1.00  0.00     0.124 S 
ATOM     87  O   UNL A   1      37.049  31.638  31.957  1.00  0.00    -0.237 OA
ATOM     88  O   UNL A   1      37.574  33.348  33.664  1.00  0.00    -0.237 OA
ATOM     89  O   UNL A   1      38.623  33.468  31.432  1.00  0.00    -0.744 OA
ENDBRANCH  85  86
ENDBRANCH  53  78
BRANCH  65  90
ATOM     90  C   UNL A   1      45.291  23.789  33.568  1.00  0.00     0.058 A 
ATOM     91  C   UNL A   1      46.579  23.529  34.066  1.00  0.00     0.135 A 
ATOM     92  C   UNL A   1      44.304  22.838  33.949  1.00  0.00     0.135 A 
ATOM     93  F   UNL A   1      47.586  24.394  33.894  1.00  0.00    -0.206 F 
ATOM     94  C   UNL A   1      46.882  22.387  34.815  1.00  0.00     0.059 A 
ATOM     95  C   UNL A   1      44.572  21.728  34.747  1.00  0.00     0.059 A 
ATOM     96  F   UNL A   1      43.022  22.960  33.573  1.00  0.00    -0.206 F 
ATOM     97  C   UNL A   1      45.874  21.491  35.151  1.00  0.00     0.060 A 
BRANCH  97  98
ATOM     98  S   UNL A   1      46.250  20.050  36.166  1.00  0.00     0.124 S 
ATOM     99  O   UNL A   1      45.703  20.454  37.457  1.00  0.00    -0.237 OA
ATOM    100  O   UNL A   1      45.529  18.979  35.484  1.00  0.00    -0.237 OA
ATOM    101  O   UNL A   1      47.704  19.960  36.094  1.00  0.00    -0.744 OA
ENDBRANCH  97  98
ENDBRANCH  65  90
ENDBRANCH  39  40
ENDBRANCH  31  34
ENDBRANCH   1  30
TORSDOF 14
ENDMDL
MODEL 3
REMARK VINA RESULT:     -14.7      4.553     11.204
REMARK SMILES Cc1ccccc1N1C(=O)c2cccc3c(C(=O)NCCCNC(=O)c4ccc(-c5c6nc(c(-c7c(F)cc(S(=O)(=O)[O-])cc7F)c7ccc([nH]7)c(-c7c(F)cc(S(=O)(=O)[O-])cc7F)c7nc(c(-c8c(F)cc(S(=O)(=O)[O-])cc8F)c8ccc5[nH]8)C=C7)C=C6)cc4)ccc(c23)C1=O
REMARK SMILES IDX 22 1 21 2 20 3 19 4 17 5 18 6 16 8 8 9 9 10 96 11 10 12
REMARK SMILES IDX 11 13 94 14 97 15 12 16 95 17 93 18 13 19 15 20 92 21 14 22
REMARK SMILES IDX 7 23 1 24 2 25 3 26 4 27 6 28 5 29 23 30 24 31 25 33 26 34
REMARK SMILES IDX 27 35 91 36 28 37 90 38 29 39 30 40 31 41 84 42 32 43 89 44
REMARK SMILES IDX 83 45 85 46 33 47 88 48 82 49 81 50 34 52 68 53 47 54 67 55
REMARK SMILES IDX 48 56 51 57 66 58 86 59 49 60 50 61 65 63 87 64 52 65 35 66
REMARK SMILES IDX 36 67 45 68 37 69 38 70 44 71 46 72 39 73 40 74 41 75 42 76
REMARK SMILES IDX 43 77 69 78 70 79 79 80 71 81 72 82 78 83 80 84 73 85 74 86
REMARK SMILES IDX 75 87 76 88 77 89 53 90 54 91 63 92 55 93 56 94 62 95 64 96
REMARK SMILES IDX 57 97 58 98 59 99 60 100 61 101
REMARK H PARENT 19 7 23 32 85 51 51 62
REMARK Flexibility Score: inf
ROOT
ATOM      1  C   UNL A   1      38.100  22.996  26.701  1.00  0.00     0.118 C 
ENDROOT
BRANCH   1   2
ATOM      2  C   UNL A   1      37.894  23.756  25.397  1.00  0.00     0.042 C 
BRANCH   2   3
ATOM      3  C   UNL A   1      37.004  23.007  24.431  1.00  0.00     0.118 C 
BRANCH   3   4
ATOM      4  N   UNL A   1      36.963  21.563  24.610  1.00  0.00    -0.352 N 
ATOM      5  C   UNL A   1      35.910  20.738  24.955  1.00  0.00     0.251 C 
ATOM      6  O   UNL A   1      36.107  19.526  25.029  1.00  0.00    -0.269 OA
ATOM      7  H   UNL A   1      37.820  21.101  24.463  1.00  0.00     0.163 HD
BRANCH   5   8
ATOM      8  C   UNL A   1      34.580  21.269  25.391  1.00  0.00     0.047 A 
ATOM      9  N   UNL A   1      31.227  24.659  25.330  1.00  0.00    -0.242 N 
ATOM     10  C   UNL A   1      30.936  24.065  24.107  1.00  0.00     0.265 C 
ATOM     11  C   UNL A   1      31.364  23.800  26.406  1.00  0.00     0.265 C 
ATOM     12  O   UNL A   1      30.271  24.579  23.215  1.00  0.00    -0.268 OA
ATOM     13  C   UNL A   1      31.531  22.694  23.920  1.00  0.00     0.049 A 
ATOM     14  C   UNL A   1      32.461  22.856  26.155  1.00  0.00     0.049 A 
ATOM     15  O   UNL A   1      30.707  23.774  27.439  1.00  0.00    -0.268 OA
ATOM     16  C   UNL A   1      31.384  21.992  22.725  1.00  0.00     0.014 A 
ATOM     17  C   UNL A   1      32.452  22.263  24.891  1.00  0.00     0.008 A 
ATOM     18  C   UNL A   1      33.493  22.675  27.061  1.00  0.00     0.015 A 
ATOM     19  C   UNL A   1      32.136  20.836  22.531  1.00  0.00     0.002 A 
ATOM     20  C   UNL A   1      33.409  21.291  24.582  1.00  0.00    -0.004 A 
ATOM     21  C   UNL A   1      34.592  21.936  26.638  1.00  0.00     0.015 A 
ATOM     22  C   UNL A   1      33.129  20.484  23.454  1.00  0.00     0.009 A 
BRANCH   9  23
ATOM     23  C   UNL A   1      32.000  25.868  25.478  1.00  0.00     0.055 A 
ATOM     24  C   UNL A   1      34.020  25.103  24.040  1.00  0.00     0.046 C 
ATOM     25  C   UNL A   1      33.336  26.004  25.031  1.00  0.00    -0.027 A 
ATOM     26  C   UNL A   1      34.156  26.965  25.664  1.00  0.00     0.005 A 
ATOM     27  C   UNL A   1      33.668  27.813  26.657  1.00  0.00     0.000 A 
ATOM     28  C   UNL A   1      31.508  26.800  26.420  1.00  0.00     0.027 A 
ATOM     29  C   UNL A   1      32.330  27.756  27.011  1.00  0.00     0.002 A 
ENDBRANCH   9  23
ENDBRANCH   5   8
ENDBRANCH   3   4
ENDBRANCH   2   3
ENDBRANCH   1   2
BRANCH   1  30
ATOM     30  N   UNL A   1      39.508  22.942  27.121  1.00  0.00    -0.352 N 
ATOM     31  C   UNL A   1      40.362  23.981  27.473  1.00  0.00     0.251 C 
ATOM     32  H   UNL A   1      39.904  22.042  27.158  1.00  0.00     0.163 HD
ATOM     33  O   UNL A   1      41.524  23.768  27.797  1.00  0.00    -0.269 OA
BRANCH  31  34
ATOM     34  C   UNL A   1      39.810  25.350  27.468  1.00  0.00     0.039 A 
ATOM     35  C   UNL A   1      40.381  26.308  26.625  1.00  0.00     0.014 A 
ATOM     36  C   UNL A   1      39.027  25.718  28.549  1.00  0.00     0.014 A 
ATOM     37  C   UNL A   1      40.382  27.645  27.024  1.00  0.00     0.010 A 
ATOM     38  C   UNL A   1      39.182  27.002  29.023  1.00  0.00     0.010 A 
ATOM     39  C   UNL A   1      39.888  27.966  28.285  1.00  0.00    -0.014 A 
BRANCH  39  40
ATOM     40  C   UNL A   1      40.133  29.225  28.989  1.00  0.00     0.031 A 
ATOM     41  C   UNL A   1      39.066  30.264  29.028  1.00  0.00     0.074 A 
ATOM     42  C   UNL A   1      41.235  29.385  29.760  1.00  0.00     0.049 A 
ATOM     43  N   UNL A   1      39.247  31.472  29.439  1.00  0.00    -0.248 NA
ATOM     44  C   UNL A   1      37.694  30.026  28.582  1.00  0.00     0.031 C 
ATOM     45  C   UNL A   1      41.398  30.332  30.863  1.00  0.00     0.029 A 
ATOM     46  N   UNL A   1      42.506  28.833  29.605  1.00  0.00    -0.354 N 
ATOM     47  C   UNL A   1      38.014  32.068  29.577  1.00  0.00     0.074 A 
ATOM     48  C   UNL A   1      37.076  31.128  29.015  1.00  0.00     0.031 C 
ATOM     49  C   UNL A   1      42.701  30.476  31.140  1.00  0.00     0.029 A 
ATOM     50  C   UNL A   1      43.442  29.747  30.129  1.00  0.00     0.049 A 
ATOM     51  H   UNL A   1      42.713  27.960  29.202  1.00  0.00     0.167 HD
ATOM     52  C   UNL A   1      37.913  33.247  30.250  1.00  0.00     0.037 A 
ATOM     53  C   UNL A   1      44.422  30.300  29.354  1.00  0.00     0.037 A 
ATOM     54  C   UNL A   1      39.228  33.739  30.646  1.00  0.00     0.049 A 
ATOM     55  C   UNL A   1      44.331  31.803  29.213  1.00  0.00     0.074 A 
ATOM     56  C   UNL A   1      39.951  33.659  31.825  1.00  0.00     0.029 A 
ATOM     57  N   UNL A   1      40.119  34.153  29.664  1.00  0.00    -0.354 N 
ATOM     58  N   UNL A   1      43.276  32.503  29.523  1.00  0.00    -0.248 NA
ATOM     59  C   UNL A   1      45.414  32.638  28.699  1.00  0.00     0.031 C 
ATOM     60  C   UNL A   1      41.293  34.010  31.543  1.00  0.00     0.029 A 
ATOM     61  C   UNL A   1      41.384  34.308  30.195  1.00  0.00     0.049 A 
ATOM     62  H   UNL A   1      39.881  34.315  28.723  1.00  0.00     0.167 HD
ATOM     63  C   UNL A   1      43.483  33.825  29.212  1.00  0.00     0.074 A 
ATOM     64  C   UNL A   1      44.852  33.860  28.735  1.00  0.00     0.031 C 
ATOM     65  C   UNL A   1      42.492  34.758  29.362  1.00  0.00     0.037 A 
BRANCH  52  66
ATOM     66  C   UNL A   1      36.612  33.825  30.756  1.00  0.00     0.058 A 
ATOM     67  C   UNL A   1      35.619  34.262  29.852  1.00  0.00     0.135 A 
ATOM     68  C   UNL A   1      36.294  34.006  32.116  1.00  0.00     0.135 A 
ATOM     69  F   UNL A   1      35.752  34.101  28.528  1.00  0.00    -0.206 F 
ATOM     70  C   UNL A   1      34.451  34.905  30.258  1.00  0.00     0.059 A 
ATOM     71  C   UNL A   1      35.157  34.699  32.547  1.00  0.00     0.059 A 
ATOM     72  F   UNL A   1      37.057  33.479  33.084  1.00  0.00    -0.206 F 
ATOM     73  C   UNL A   1      34.241  35.150  31.606  1.00  0.00     0.060 A 
BRANCH  73  74
ATOM     74  S   UNL A   1      32.762  36.054  32.100  1.00  0.00     0.124 S 
ATOM     75  O   UNL A   1      31.873  34.979  32.528  1.00  0.00    -0.237 OA
ATOM     76  O   UNL A   1      33.274  36.916  33.160  1.00  0.00    -0.237 OA
ATOM     77  O   UNL A   1      32.357  36.737  30.875  1.00  0.00    -0.744 OA
ENDBRANCH  73  74
ENDBRANCH  52  66
BRANCH  53  78
ATOM     78  C   UNL A   1      44.947  29.361  28.328  1.00  0.00     0.058 A 
ATOM     79  C   UNL A   1      45.904  28.422  28.756  1.00  0.00     0.135 A 
ATOM     80  C   UNL A   1      44.191  29.054  27.187  1.00  0.00     0.135 A 
ATOM     81  F   UNL A   1      46.672  28.686  29.826  1.00  0.00    -0.206 F 
ATOM     82  C   UNL A   1      45.961  27.147  28.209  1.00  0.00     0.059 A 
ATOM     83  C   UNL A   1      44.242  27.782  26.616  1.00  0.00     0.059 A 
ATOM     84  F   UNL A   1      43.273  29.918  26.731  1.00  0.00    -0.206 F 
ATOM     85  C   UNL A   1      45.065  26.815  27.195  1.00  0.00     0.060 A 
BRANCH  85  86
ATOM     86  S   UNL A   1      44.831  25.058  26.831  1.00  0.00     0.124 S 
ATOM     87  O   UNL A   1      46.101  24.699  26.212  1.00  0.00    -0.237 OA
ATOM     88  O   UNL A   1      44.603  24.519  28.170  1.00  0.00    -0.237 OA
ATOM     89  O   UNL A   1      43.671  25.051  25.946  1.00  0.00    -0.744 OA
ENDBRANCH  85  86
ENDBRANCH  53  78
BRANCH  65  90
ATOM     90  C   UNL A   1      42.474  36.186  28.841  1.00  0.00     0.058 A 
ATOM     91  C   UNL A   1      43.093  37.279  29.471  1.00  0.00     0.135 A 
ATOM     92  C   UNL A   1      41.913  36.475  27.567  1.00  0.00     0.135 A 
ATOM     93  F   UNL A   1      43.769  37.139  30.618  1.00  0.00    -0.206 F 
ATOM     94  C   UNL A   1      43.094  38.566  28.921  1.00  0.00     0.059 A 
ATOM     95  C   UNL A   1      41.958  37.735  26.973  1.00  0.00     0.059 A 
ATOM     96  F   UNL A   1      41.308  35.531  26.830  1.00  0.00    -0.206 F 
ATOM     97  C   UNL A   1      42.525  38.785  27.672  1.00  0.00     0.060 A 
BRANCH  97  98
ATOM     98  S   UNL A   1      42.576  40.429  26.934  1.00  0.00     0.124 S 
ATOM     99  O   UNL A   1      43.408  40.193  25.759  1.00  0.00    -0.237 OA
ATOM    100  O   UNL A   1      41.168  40.705  26.664  1.00  0.00    -0.237 OA
ATOM    101  O   UNL A   1      43.177  41.248  27.982  1.00  0.00    -0.744 OA
ENDBRANCH  97  98
ENDBRANCH  65  90
ENDBRANCH  39  40
ENDBRANCH  31  34
ENDBRANCH   1  30
TORSDOF 14
ENDMDL
