MODEL 1
REMARK VINA RESULT:     -11.6      0.000      0.000
REMARK SMILES COc1ccc(CSc2ncccc2C(=O)NCCCNC(=O)c2ccc(-c3c4nc(c(-c5c(F)cc(S(=O)(=O)[O-])cc5F)c5ccc([nH]5)c(-c5c(F)cc(S(=O)(=O)[O-])cc5F)c5nc(c(-c6c(F)cc(S(=O)(=O)[O-])cc6F)c6ccc3[nH]6)C=C5)C=C4)cc2)cc1
REMARK SMILES IDX 18 1 17 2 15 3 16 4 14 6 9 7 10 8 11 9 13 10 12 11 8 12 7 13
REMARK SMILES IDX 6 14 3 15 4 16 91 17 5 18 90 19 2 20 1 21 19 22 20 23 21 24
REMARK SMILES IDX 22 25 23 27 24 28 25 29 89 30 26 31 88 32 27 33 28 34 29 35
REMARK SMILES IDX 82 36 30 37 87 38 81 39 83 40 31 41 86 42 80 43 79 44 32 46
REMARK SMILES IDX 66 47 45 48 65 49 46 50 49 51 64 52 84 53 47 54 48 55 63 57
REMARK SMILES IDX 85 58 50 59 33 60 34 61 43 62 35 63 36 64 42 65 44 66 37 67
REMARK SMILES IDX 38 68 39 69 40 70 41 71 67 72 68 73 77 74 69 75 70 76 76 77
REMARK SMILES IDX 78 78 71 79 72 80 73 81 74 82 75 83 51 84 52 85 61 86 53 87
REMARK SMILES IDX 54 88 60 89 62 90 55 91 56 92 57 93 58 94 59 95
REMARK H PARENT 17 5 21 26 83 45 49 56
REMARK Flexibility Score: inf
ROOT
ATOM      1  C   UNL A   1      33.204  29.469  26.388  1.00  0.00     0.118 C 
ENDROOT
BRANCH   1   2
ATOM      2  N   UNL A   1      33.711  29.451  25.021  1.00  0.00    -0.352 N 
ATOM      3  C   UNL A   1      33.294  28.798  23.888  1.00  0.00     0.254 C 
ATOM      4  O   UNL A   1      34.038  28.831  22.906  1.00  0.00    -0.269 OA
ATOM      5  H   UNL A   1      34.505  30.016  24.884  1.00  0.00     0.163 HD
BRANCH   3   6
ATOM      6  C   UNL A   1      31.995  28.101  23.811  1.00  0.00     0.072 A 
ATOM      7  C   UNL A   1      31.816  26.780  24.244  1.00  0.00     0.109 A 
ATOM      8  N   UNL A   1      30.592  26.174  24.177  1.00  0.00    -0.249 NA
ATOM      9  C   UNL A   1      29.536  26.880  23.727  1.00  0.00     0.112 A 
ATOM     10  C   UNL A   1      30.860  28.817  23.395  1.00  0.00     0.018 A 
ATOM     11  C   UNL A   1      29.615  28.198  23.339  1.00  0.00     0.021 A 
BRANCH   7  12
ATOM     12  S   UNL A   1      32.980  25.716  25.079  1.00  0.00    -0.101 SA
BRANCH  12  13
ATOM     13  C   UNL A   1      33.958  24.958  23.755  1.00  0.00     0.112 C 
BRANCH  13  14
ATOM     14  C   UNL A   1      35.169  24.175  24.190  1.00  0.00    -0.037 A 
ATOM     15  C   UNL A   1      37.307  22.589  25.109  1.00  0.00     0.118 A 
ATOM     16  C   UNL A   1      36.830  22.447  23.804  1.00  0.00     0.047 A 
ATOM     17  C   UNL A   1      36.734  23.544  25.946  1.00  0.00     0.047 A 
ATOM     18  C   UNL A   1      35.764  23.225  23.349  1.00  0.00     0.008 A 
ATOM     19  C   UNL A   1      35.669  24.327  25.490  1.00  0.00     0.008 A 
BRANCH  15  20
ATOM     20  O   UNL A   1      38.335  21.752  25.445  1.00  0.00    -0.497 OA
ATOM     21  C   UNL A   1      39.269  22.267  26.387  1.00  0.00     0.278 C 
ENDBRANCH  15  20
ENDBRANCH  13  14
ENDBRANCH  12  13
ENDBRANCH   7  12
ENDBRANCH   3   6
ENDBRANCH   1   2
BRANCH   1  22
ATOM     22  C   UNL A   1      34.287  28.994  27.361  1.00  0.00     0.042 C 
BRANCH  22  23
ATOM     23  C   UNL A   1      35.337  30.062  27.673  1.00  0.00     0.118 C 
BRANCH  23  24
ATOM     24  N   UNL A   1      35.297  30.478  29.067  1.00  0.00    -0.352 N 
ATOM     25  C   UNL A   1      36.259  30.341  30.034  1.00  0.00     0.251 C 
ATOM     26  H   UNL A   1      34.465  30.918  29.355  1.00  0.00     0.163 HD
ATOM     27  O   UNL A   1      35.972  30.578  31.210  1.00  0.00    -0.269 OA
BRANCH  25  28
ATOM     28  C   UNL A   1      37.625  29.895  29.682  1.00  0.00     0.039 A 
ATOM     29  C   UNL A   1      38.044  29.988  28.351  1.00  0.00     0.014 A 
ATOM     30  C   UNL A   1      38.481  29.356  30.648  1.00  0.00     0.014 A 
ATOM     31  C   UNL A   1      39.335  29.585  27.997  1.00  0.00     0.010 A 
ATOM     32  C   UNL A   1      39.785  29.000  30.302  1.00  0.00     0.010 A 
ATOM     33  C   UNL A   1      40.224  29.108  28.973  1.00  0.00    -0.014 A 
BRANCH  33  34
ATOM     34  C   UNL A   1      41.615  28.720  28.623  1.00  0.00     0.031 A 
ATOM     35  C   UNL A   1      42.708  29.753  28.603  1.00  0.00     0.074 A 
ATOM     36  C   UNL A   1      41.881  27.450  28.261  1.00  0.00     0.049 A 
ATOM     37  N   UNL A   1      43.962  29.622  28.253  1.00  0.00    -0.248 NA
ATOM     38  C   UNL A   1      42.338  31.118  29.010  1.00  0.00     0.031 C 
ATOM     39  C   UNL A   1      40.899  26.366  28.199  1.00  0.00     0.029 A 
ATOM     40  N   UNL A   1      43.054  26.858  27.865  1.00  0.00    -0.354 N 
ATOM     41  C   UNL A   1      44.525  30.888  28.374  1.00  0.00     0.074 A 
ATOM     42  C   UNL A   1      43.467  31.780  28.799  1.00  0.00     0.031 C 
ATOM     43  C   UNL A   1      41.513  25.239  27.805  1.00  0.00     0.029 A 
ATOM     44  C   UNL A   1      42.923  25.525  27.556  1.00  0.00     0.049 A 
ATOM     45  H   UNL A   1      43.909  27.343  27.808  1.00  0.00     0.167 HD
ATOM     46  C   UNL A   1      45.808  31.267  28.163  1.00  0.00     0.037 A 
ATOM     47  C   UNL A   1      43.833  24.635  27.116  1.00  0.00     0.037 A 
ATOM     48  C   UNL A   1      46.865  30.370  27.776  1.00  0.00     0.049 A 
ATOM     49  C   UNL A   1      45.256  25.074  26.914  1.00  0.00     0.074 A 
ATOM     50  C   UNL A   1      48.211  30.647  27.605  1.00  0.00     0.029 A 
ATOM     51  N   UNL A   1      46.698  29.021  27.501  1.00  0.00    -0.354 N 
ATOM     52  N   UNL A   1      45.782  26.264  27.084  1.00  0.00    -0.248 NA
ATOM     53  C   UNL A   1      46.211  24.051  26.465  1.00  0.00     0.031 C 
ATOM     54  C   UNL A   1      48.852  29.472  27.197  1.00  0.00     0.029 A 
ATOM     55  C   UNL A   1      47.912  28.455  27.148  1.00  0.00     0.049 A 
ATOM     56  H   UNL A   1      45.842  28.537  27.549  1.00  0.00     0.167 HD
ATOM     57  C   UNL A   1      47.133  26.127  26.785  1.00  0.00     0.074 A 
ATOM     58  C   UNL A   1      47.346  24.739  26.431  1.00  0.00     0.031 C 
ATOM     59  C   UNL A   1      48.109  27.069  26.804  1.00  0.00     0.037 A 
BRANCH  46  60
ATOM     60  C   UNL A   1      46.143  32.721  28.352  1.00  0.00     0.058 A 
ATOM     61  C   UNL A   1      46.567  33.223  29.593  1.00  0.00     0.135 A 
ATOM     62  C   UNL A   1      46.071  33.616  27.272  1.00  0.00     0.135 A 
ATOM     63  F   UNL A   1      46.640  32.413  30.661  1.00  0.00    -0.206 F 
ATOM     64  C   UNL A   1      46.880  34.568  29.764  1.00  0.00     0.059 A 
ATOM     65  C   UNL A   1      46.402  34.960  27.415  1.00  0.00     0.059 A 
ATOM     66  F   UNL A   1      45.672  33.187  26.064  1.00  0.00    -0.206 F 
ATOM     67  C   UNL A   1      46.791  35.430  28.670  1.00  0.00     0.060 A 
BRANCH  67  68
ATOM     68  S   UNL A   1      47.199  37.173  28.905  1.00  0.00     0.124 S 
ATOM     69  O   UNL A   1      46.008  37.823  28.367  1.00  0.00    -0.237 OA
ATOM     70  O   UNL A   1      47.370  37.263  30.352  1.00  0.00    -0.237 OA
ATOM     71  O   UNL A   1      48.418  37.345  28.123  1.00  0.00    -0.744 OA
ENDBRANCH  67  68
ENDBRANCH  46  60
BRANCH  47  72
ATOM     72  C   UNL A   1      43.427  23.227  26.867  1.00  0.00     0.058 A 
ATOM     73  C   UNL A   1      43.313  22.735  25.559  1.00  0.00     0.135 A 
ATOM     74  C   UNL A   1      43.178  22.341  27.927  1.00  0.00     0.135 A 
ATOM     75  F   UNL A   1      43.536  23.548  24.515  1.00  0.00    -0.206 F 
ATOM     76  C   UNL A   1      42.962  21.413  25.307  1.00  0.00     0.059 A 
ATOM     77  C   UNL A   1      42.844  21.010  27.700  1.00  0.00     0.059 A 
ATOM     78  F   UNL A   1      43.290  22.762  29.195  1.00  0.00    -0.206 F 
ATOM     79  C   UNL A   1      42.733  20.557  26.385  1.00  0.00     0.060 A 
BRANCH  79  80
ATOM     80  S   UNL A   1      42.350  18.824  26.050  1.00  0.00     0.124 S 
ATOM     81  O   UNL A   1      40.937  18.899  25.697  1.00  0.00    -0.237 OA
ATOM     82  O   UNL A   1      43.265  18.511  24.957  1.00  0.00    -0.237 OA
ATOM     83  O   UNL A   1      42.653  18.164  27.317  1.00  0.00    -0.744 OA
ENDBRANCH  79  80
ENDBRANCH  47  72
BRANCH  59  84
ATOM     84  C   UNL A   1      49.501  26.626  26.458  1.00  0.00     0.058 A 
ATOM     85  C   UNL A   1      50.335  26.017  27.408  1.00  0.00     0.135 A 
ATOM     86  C   UNL A   1      49.988  26.766  25.148  1.00  0.00     0.135 A 
ATOM     87  F   UNL A   1      49.919  25.868  28.675  1.00  0.00    -0.206 F 
ATOM     88  C   UNL A   1      51.612  25.577  27.077  1.00  0.00     0.059 A 
ATOM     89  C   UNL A   1      51.254  26.314  24.789  1.00  0.00     0.059 A 
ATOM     90  F   UNL A   1      49.224  27.335  24.202  1.00  0.00    -0.206 F 
ATOM     91  C   UNL A   1      52.063  25.731  25.763  1.00  0.00     0.060 A 
BRANCH  91  92
ATOM     92  S   UNL A   1      53.707  25.124  25.333  1.00  0.00     0.124 S 
ATOM     93  O   UNL A   1      53.616  23.723  25.729  1.00  0.00    -0.237 OA
ATOM     94  O   UNL A   1      53.770  25.373  23.895  1.00  0.00    -0.237 OA
ATOM     95  O   UNL A   1      54.596  25.950  26.144  1.00  0.00    -0.744 OA
ENDBRANCH  91  92
ENDBRANCH  59  84
ENDBRANCH  33  34
ENDBRANCH  25  28
ENDBRANCH  23  24
ENDBRANCH  22  23
ENDBRANCH   1  22
TORSDOF 17
ENDMDL
MODEL 2
REMARK VINA RESULT:     -11.6      1.469      4.129
REMARK SMILES COc1ccc(CSc2ncccc2C(=O)NCCCNC(=O)c2ccc(-c3c4nc(c(-c5c(F)cc(S(=O)(=O)[O-])cc5F)c5ccc([nH]5)c(-c5c(F)cc(S(=O)(=O)[O-])cc5F)c5nc(c(-c6c(F)cc(S(=O)(=O)[O-])cc6F)c6ccc3[nH]6)C=C5)C=C4)cc2)cc1
REMARK SMILES IDX 18 1 17 2 15 3 16 4 14 6 9 7 10 8 11 9 13 10 12 11 8 12 7 13
REMARK SMILES IDX 6 14 3 15 4 16 91 17 5 18 90 19 2 20 1 21 19 22 20 23 21 24
REMARK SMILES IDX 22 25 23 27 24 28 25 29 89 30 26 31 88 32 27 33 28 34 29 35
REMARK SMILES IDX 82 36 30 37 87 38 81 39 83 40 31 41 86 42 80 43 79 44 32 46
REMARK SMILES IDX 66 47 45 48 65 49 46 50 49 51 64 52 84 53 47 54 48 55 63 57
REMARK SMILES IDX 85 58 50 59 33 60 34 61 43 62 35 63 36 64 42 65 44 66 37 67
REMARK SMILES IDX 38 68 39 69 40 70 41 71 67 72 68 73 77 74 69 75 70 76 76 77
REMARK SMILES IDX 78 78 71 79 72 80 73 81 74 82 75 83 51 84 52 85 61 86 53 87
REMARK SMILES IDX 54 88 60 89 62 90 55 91 56 92 57 93 58 94 59 95
REMARK H PARENT 17 5 21 26 83 45 49 56
REMARK Flexibility Score: inf
ROOT
ATOM      1  C   UNL A   1      33.326  29.393  26.368  1.00  0.00     0.118 C 
ENDROOT
BRANCH   1   2
ATOM      2  N   UNL A   1      33.725  29.408  24.966  1.00  0.00    -0.352 N 
ATOM      3  C   UNL A   1      33.832  28.416  24.024  1.00  0.00     0.254 C 
ATOM      4  O   UNL A   1      34.378  28.702  22.956  1.00  0.00    -0.269 OA
ATOM      5  H   UNL A   1      33.963  30.302  24.630  1.00  0.00     0.163 HD
BRANCH   3   6
ATOM      6  C   UNL A   1      33.296  27.057  24.242  1.00  0.00     0.072 A 
ATOM      7  C   UNL A   1      32.029  26.662  23.795  1.00  0.00     0.109 A 
ATOM      8  N   UNL A   1      31.574  25.388  23.997  1.00  0.00    -0.249 NA
ATOM      9  C   UNL A   1      32.382  24.492  24.597  1.00  0.00     0.112 A 
ATOM     10  C   UNL A   1      34.125  26.081  24.819  1.00  0.00     0.018 A 
ATOM     11  C   UNL A   1      33.662  24.784  25.012  1.00  0.00     0.021 A 
BRANCH   7  12
ATOM     12  S   UNL A   1      30.870  27.572  22.788  1.00  0.00    -0.101 SA
BRANCH  12  13
ATOM     13  C   UNL A   1      30.075  28.739  23.924  1.00  0.00     0.112 C 
BRANCH  13  14
ATOM     14  C   UNL A   1      29.368  29.907  23.288  1.00  0.00    -0.037 A 
ATOM     15  C   UNL A   1      28.229  32.163  22.046  1.00  0.00     0.118 A 
ATOM     16  C   UNL A   1      28.211  30.921  21.410  1.00  0.00     0.047 A 
ATOM     17  C   UNL A   1      28.790  32.272  23.317  1.00  0.00     0.047 A 
ATOM     18  C   UNL A   1      28.784  29.803  22.019  1.00  0.00     0.008 A 
ATOM     19  C   UNL A   1      29.360  31.153  23.930  1.00  0.00     0.008 A 
BRANCH  15  20
ATOM     20  O   UNL A   1      27.662  33.187  21.337  1.00  0.00    -0.497 OA
ATOM     21  C   UNL A   1      27.609  33.008  19.926  1.00  0.00     0.278 C 
ENDBRANCH  15  20
ENDBRANCH  13  14
ENDBRANCH  12  13
ENDBRANCH   7  12
ENDBRANCH   3   6
ENDBRANCH   1   2
BRANCH   1  22
ATOM     22  C   UNL A   1      34.481  28.893  27.242  1.00  0.00     0.042 C 
BRANCH  22  23
ATOM     23  C   UNL A   1      35.438  30.003  27.679  1.00  0.00     0.118 C 
BRANCH  23  24
ATOM     24  N   UNL A   1      35.368  30.255  29.110  1.00  0.00    -0.352 N 
ATOM     25  C   UNL A   1      36.330  30.058  30.067  1.00  0.00     0.251 C 
ATOM     26  H   UNL A   1      34.513  30.617  29.436  1.00  0.00     0.163 HD
ATOM     27  O   UNL A   1      36.023  30.145  31.259  1.00  0.00    -0.269 OA
BRANCH  25  28
ATOM     28  C   UNL A   1      37.720  29.726  29.683  1.00  0.00     0.039 A 
ATOM     29  C   UNL A   1      38.623  29.346  30.680  1.00  0.00     0.014 A 
ATOM     30  C   UNL A   1      38.144  29.818  28.354  1.00  0.00     0.014 A 
ATOM     31  C   UNL A   1      39.938  29.015  30.340  1.00  0.00     0.010 A 
ATOM     32  C   UNL A   1      39.442  29.441  28.010  1.00  0.00     0.010 A 
ATOM     33  C   UNL A   1      40.353  29.039  28.999  1.00  0.00    -0.014 A 
BRANCH  33  34
ATOM     34  C   UNL A   1      41.733  28.645  28.614  1.00  0.00     0.031 A 
ATOM     35  C   UNL A   1      42.829  29.673  28.561  1.00  0.00     0.074 A 
ATOM     36  C   UNL A   1      41.985  27.372  28.252  1.00  0.00     0.049 A 
ATOM     37  N   UNL A   1      44.073  29.536  28.179  1.00  0.00    -0.248 NA
ATOM     38  C   UNL A   1      42.475  31.042  28.971  1.00  0.00     0.031 C 
ATOM     39  C   UNL A   1      40.997  26.291  28.221  1.00  0.00     0.029 A 
ATOM     40  N   UNL A   1      43.145  26.773  27.828  1.00  0.00    -0.354 N 
ATOM     41  C   UNL A   1      44.643  30.800  28.279  1.00  0.00     0.074 A 
ATOM     42  C   UNL A   1      43.600  31.698  28.727  1.00  0.00     0.031 C 
ATOM     43  C   UNL A   1      41.597  25.160  27.816  1.00  0.00     0.029 A 
ATOM     44  C   UNL A   1      43.001  25.439  27.529  1.00  0.00     0.049 A 
ATOM     45  H   UNL A   1      44.000  27.254  27.746  1.00  0.00     0.167 HD
ATOM     46  C   UNL A   1      45.922  31.173  28.033  1.00  0.00     0.037 A 
ATOM     47  C   UNL A   1      43.896  24.543  27.070  1.00  0.00     0.037 A 
ATOM     48  C   UNL A   1      46.965  30.270  27.622  1.00  0.00     0.049 A 
ATOM     49  C   UNL A   1      45.315  24.977  26.829  1.00  0.00     0.074 A 
ATOM     50  C   UNL A   1      48.307  30.541  27.415  1.00  0.00     0.029 A 
ATOM     51  N   UNL A   1      46.786  28.920  27.358  1.00  0.00    -0.354 N 
ATOM     52  N   UNL A   1      45.849  26.165  26.979  1.00  0.00    -0.248 NA
ATOM     53  C   UNL A   1      46.254  23.948  26.361  1.00  0.00     0.031 C 
ATOM     54  C   UNL A   1      48.933  29.362  26.996  1.00  0.00     0.029 A 
ATOM     55  C   UNL A   1      47.988  28.348  26.977  1.00  0.00     0.049 A 
ATOM     56  H   UNL A   1      45.930  28.440  27.431  1.00  0.00     0.167 HD
ATOM     57  C   UNL A   1      47.191  26.022  26.646  1.00  0.00     0.074 A 
ATOM     58  C   UNL A   1      47.390  24.631  26.294  1.00  0.00     0.031 C 
ATOM     59  C   UNL A   1      48.171  26.960  26.635  1.00  0.00     0.037 A 
BRANCH  46  60
ATOM     60  C   UNL A   1      46.267  32.627  28.205  1.00  0.00     0.058 A 
ATOM     61  C   UNL A   1      46.730  33.132  29.431  1.00  0.00     0.135 A 
ATOM     62  C   UNL A   1      46.165  33.518  27.125  1.00  0.00     0.135 A 
ATOM     63  F   UNL A   1      46.833  32.326  30.499  1.00  0.00    -0.206 F 
ATOM     64  C   UNL A   1      47.052  34.476  29.587  1.00  0.00     0.059 A 
ATOM     65  C   UNL A   1      46.504  34.862  27.253  1.00  0.00     0.059 A 
ATOM     66  F   UNL A   1      45.728  33.086  25.931  1.00  0.00    -0.206 F 
ATOM     67  C   UNL A   1      46.933  35.334  28.493  1.00  0.00     0.060 A 
BRANCH  67  68
ATOM     68  S   UNL A   1      47.353  37.077  28.709  1.00  0.00     0.124 S 
ATOM     69  O   UNL A   1      47.240  37.224  30.157  1.00  0.00    -0.237 OA
ATOM     70  O   UNL A   1      48.708  37.143  28.170  1.00  0.00    -0.237 OA
ATOM     71  O   UNL A   1      46.337  37.771  27.926  1.00  0.00    -0.744 OA
ENDBRANCH  67  68
ENDBRANCH  46  60
BRANCH  47  72
ATOM     72  C   UNL A   1      43.478  23.136  26.839  1.00  0.00     0.058 A 
ATOM     73  C   UNL A   1      43.360  22.629  25.538  1.00  0.00     0.135 A 
ATOM     74  C   UNL A   1      43.223  22.265  27.910  1.00  0.00     0.135 A 
ATOM     75  F   UNL A   1      43.588  23.427  24.483  1.00  0.00    -0.206 F 
ATOM     76  C   UNL A   1      42.997  21.306  25.302  1.00  0.00     0.059 A 
ATOM     77  C   UNL A   1      42.878  20.934  27.699  1.00  0.00     0.059 A 
ATOM     78  F   UNL A   1      43.339  22.701  29.173  1.00  0.00    -0.206 F 
ATOM     79  C   UNL A   1      42.763  20.466  26.391  1.00  0.00     0.060 A 
BRANCH  79  80
ATOM     80  S   UNL A   1      42.365  18.732  26.077  1.00  0.00     0.124 S 
ATOM     81  O   UNL A   1      43.313  18.400  25.020  1.00  0.00    -0.237 OA
ATOM     82  O   UNL A   1      42.617  18.117  27.377  1.00  0.00    -0.237 OA
ATOM     83  O   UNL A   1      40.961  18.778  25.678  1.00  0.00    -0.744 OA
ENDBRANCH  79  80
ENDBRANCH  47  72
BRANCH  59  84
ATOM     84  C   UNL A   1      49.552  26.510  26.255  1.00  0.00     0.058 A 
ATOM     85  C   UNL A   1      50.032  26.639  24.944  1.00  0.00     0.135 A 
ATOM     86  C   UNL A   1      50.423  25.989  27.226  1.00  0.00     0.135 A 
ATOM     87  F   UNL A   1      49.236  27.123  23.977  1.00  0.00    -0.206 F 
ATOM     88  C   UNL A   1      51.324  26.252  24.602  1.00  0.00     0.059 A 
ATOM     89  C   UNL A   1      51.726  25.616  26.912  1.00  0.00     0.059 A 
ATOM     90  F   UNL A   1      50.013  25.854  28.498  1.00  0.00    -0.206 F 
ATOM     91  C   UNL A   1      52.163  25.740  25.594  1.00  0.00     0.060 A 
BRANCH  91  92
ATOM     92  S   UNL A   1      53.850  25.275  25.150  1.00  0.00     0.124 S 
ATOM     93  O   UNL A   1      54.092  26.124  23.989  1.00  0.00    -0.237 OA
ATOM     94  O   UNL A   1      54.601  25.619  26.354  1.00  0.00    -0.237 OA
ATOM     95  O   UNL A   1      53.744  23.845  24.873  1.00  0.00    -0.744 OA
ENDBRANCH  91  92
ENDBRANCH  59  84
ENDBRANCH  33  34
ENDBRANCH  25  28
ENDBRANCH  23  24
ENDBRANCH  22  23
ENDBRANCH   1  22
TORSDOF 17
ENDMDL
MODEL 3
REMARK VINA RESULT:     -11.2      6.821     12.161
REMARK SMILES COc1ccc(CSc2ncccc2C(=O)NCCCNC(=O)c2ccc(-c3c4nc(c(-c5c(F)cc(S(=O)(=O)[O-])cc5F)c5ccc([nH]5)c(-c5c(F)cc(S(=O)(=O)[O-])cc5F)c5nc(c(-c6c(F)cc(S(=O)(=O)[O-])cc6F)c6ccc3[nH]6)C=C5)C=C4)cc2)cc1
REMARK SMILES IDX 18 1 17 2 15 3 16 4 14 6 9 7 10 8 11 9 13 10 12 11 8 12 7 13
REMARK SMILES IDX 6 14 3 15 4 16 91 17 5 18 90 19 2 20 1 21 19 22 20 23 21 24
REMARK SMILES IDX 22 25 23 27 24 28 25 29 89 30 26 31 88 32 27 33 28 34 29 35
REMARK SMILES IDX 82 36 30 37 87 38 81 39 83 40 31 41 86 42 80 43 79 44 32 46
REMARK SMILES IDX 66 47 45 48 65 49 46 50 49 51 64 52 84 53 47 54 48 55 63 57
REMARK SMILES IDX 85 58 50 59 33 60 34 61 43 62 35 63 36 64 42 65 44 66 37 67
REMARK SMILES IDX 38 68 39 69 40 70 41 71 67 72 68 73 77 74 69 75 70 76 76 77
REMARK SMILES IDX 78 78 71 79 72 80 73 81 74 82 75 83 51 84 52 85 61 86 53 87
REMARK SMILES IDX 54 88 60 89 62 90 55 91 56 92 57 93 58 94 59 95
REMARK H PARENT 17 5 21 26 83 45 49 56
REMARK Flexibility Score: inf
ROOT
ATOM      1  C   UNL A   1      36.382  22.912  25.663  1.00  0.00     0.118 C 
ENDROOT
BRANCH   1   2
ATOM      2  N   UNL A   1      35.963  22.944  24.267  1.00  0.00    -0.352 N 
ATOM      3  C   UNL A   1      34.840  23.433  23.649  1.00  0.00     0.254 C 
ATOM      4  O   UNL A   1      34.675  23.149  22.461  1.00  0.00    -0.269 OA
ATOM      5  H   UNL A   1      36.611  22.535  23.649  1.00  0.00     0.163 HD
BRANCH   3   6
ATOM      6  C   UNL A   1      33.865  24.294  24.348  1.00  0.00     0.072 A 
ATOM      7  C   UNL A   1      32.873  23.783  25.195  1.00  0.00     0.109 A 
ATOM      8  N   UNL A   1      32.000  24.613  25.843  1.00  0.00    -0.249 NA
ATOM      9  C   UNL A   1      32.131  25.946  25.693  1.00  0.00     0.112 A 
ATOM     10  C   UNL A   1      33.999  25.689  24.257  1.00  0.00     0.018 A 
ATOM     11  C   UNL A   1      33.116  26.529  24.927  1.00  0.00     0.021 A 
BRANCH   7  12
ATOM     12  S   UNL A   1      32.631  22.100  25.736  1.00  0.00    -0.101 SA
BRANCH  12  13
ATOM     13  C   UNL A   1      32.284  21.164  24.223  1.00  0.00     0.112 C 
BRANCH  13  14
ATOM     14  C   UNL A   1      32.536  19.681  24.287  1.00  0.00    -0.037 A 
ATOM     15  C   UNL A   1      33.192  16.943  24.326  1.00  0.00     0.118 A 
ATOM     16  C   UNL A   1      33.239  17.698  25.499  1.00  0.00     0.047 A 
ATOM     17  C   UNL A   1      32.789  17.549  23.138  1.00  0.00     0.047 A 
ATOM     18  C   UNL A   1      32.924  19.058  25.481  1.00  0.00     0.008 A 
ATOM     19  C   UNL A   1      32.469  18.910  23.119  1.00  0.00     0.008 A 
BRANCH  15  20
ATOM     20  O   UNL A   1      33.550  15.629  24.466  1.00  0.00    -0.497 OA
ATOM     21  C   UNL A   1      32.698  14.841  25.290  1.00  0.00     0.278 C 
ENDBRANCH  15  20
ENDBRANCH  13  14
ENDBRANCH  12  13
ENDBRANCH   7  12
ENDBRANCH   3   6
ENDBRANCH   1   2
BRANCH   1  22
ATOM     22  C   UNL A   1      37.246  24.136  25.985  1.00  0.00     0.042 C 
BRANCH  22  23
ATOM     23  C   UNL A   1      38.407  23.829  26.932  1.00  0.00     0.118 C 
BRANCH  23  24
ATOM     24  N   UNL A   1      39.697  23.925  26.265  1.00  0.00    -0.352 N 
ATOM     25  C   UNL A   1      40.658  24.897  26.385  1.00  0.00     0.251 C 
ATOM     26  H   UNL A   1      39.910  23.192  25.644  1.00  0.00     0.163 HD
ATOM     27  O   UNL A   1      41.604  24.912  25.593  1.00  0.00    -0.269 OA
BRANCH  25  28
ATOM     28  C   UNL A   1      40.558  25.932  27.437  1.00  0.00     0.039 A 
ATOM     29  C   UNL A   1      39.719  25.703  28.532  1.00  0.00     0.014 A 
ATOM     30  C   UNL A   1      41.259  27.137  27.334  1.00  0.00     0.014 A 
ATOM     31  C   UNL A   1      39.618  26.661  29.545  1.00  0.00     0.010 A 
ATOM     32  C   UNL A   1      41.195  28.070  28.369  1.00  0.00     0.010 A 
ATOM     33  C   UNL A   1      40.372  27.843  29.483  1.00  0.00    -0.014 A 
BRANCH  33  34
ATOM     34  C   UNL A   1      40.314  28.850  30.574  1.00  0.00     0.031 A 
ATOM     35  C   UNL A   1      41.231  28.737  31.761  1.00  0.00     0.074 A 
ATOM     36  C   UNL A   1      39.392  29.831  30.526  1.00  0.00     0.049 A 
ATOM     37  N   UNL A   1      41.278  29.473  32.841  1.00  0.00    -0.248 NA
ATOM     38  C   UNL A   1      42.210  27.638  31.740  1.00  0.00     0.031 C 
ATOM     39  C   UNL A   1      38.417  30.023  29.450  1.00  0.00     0.029 A 
ATOM     40  N   UNL A   1      39.114  30.844  31.410  1.00  0.00    -0.354 N 
ATOM     41  C   UNL A   1      42.271  28.915  33.639  1.00  0.00     0.074 A 
ATOM     42  C   UNL A   1      42.779  27.759  32.931  1.00  0.00     0.031 C 
ATOM     43  C   UNL A   1      37.661  31.097  29.729  1.00  0.00     0.029 A 
ATOM     44  C   UNL A   1      38.073  31.651  31.015  1.00  0.00     0.049 A 
ATOM     45  H   UNL A   1      39.614  30.980  32.246  1.00  0.00     0.167 HD
ATOM     46  C   UNL A   1      42.727  29.337  34.843  1.00  0.00     0.037 A 
ATOM     47  C   UNL A   1      37.509  32.712  31.623  1.00  0.00     0.037 A 
ATOM     48  C   UNL A   1      42.244  30.508  35.526  1.00  0.00     0.049 A 
ATOM     49  C   UNL A   1      38.049  33.176  32.947  1.00  0.00     0.074 A 
ATOM     50  C   UNL A   1      42.690  31.055  36.718  1.00  0.00     0.029 A 
ATOM     51  N   UNL A   1      41.208  31.315  35.081  1.00  0.00    -0.354 N 
ATOM     52  N   UNL A   1      39.024  32.668  33.662  1.00  0.00    -0.248 NA
ATOM     53  C   UNL A   1      37.416  34.360  33.546  1.00  0.00     0.031 C 
ATOM     54  C   UNL A   1      41.904  32.175  37.007  1.00  0.00     0.029 A 
ATOM     55  C   UNL A   1      40.992  32.347  35.978  1.00  0.00     0.049 A 
ATOM     56  H   UNL A   1      40.702  31.175  34.248  1.00  0.00     0.167 HD
ATOM     57  C   UNL A   1      39.137  33.482  34.782  1.00  0.00     0.074 A 
ATOM     58  C   UNL A   1      38.137  34.520  34.649  1.00  0.00     0.031 C 
ATOM     59  C   UNL A   1      39.995  33.378  35.829  1.00  0.00     0.037 A 
BRANCH  46  60
ATOM     60  C   UNL A   1      43.809  28.525  35.500  1.00  0.00     0.058 A 
ATOM     61  C   UNL A   1      45.168  28.761  35.235  1.00  0.00     0.135 A 
ATOM     62  C   UNL A   1      43.486  27.524  36.429  1.00  0.00     0.135 A 
ATOM     63  F   UNL A   1      45.531  29.697  34.345  1.00  0.00    -0.206 F 
ATOM     64  C   UNL A   1      46.168  28.011  35.846  1.00  0.00     0.059 A 
ATOM     65  C   UNL A   1      44.471  26.777  37.070  1.00  0.00     0.059 A 
ATOM     66  F   UNL A   1      42.202  27.259  36.718  1.00  0.00    -0.206 F 
ATOM     67  C   UNL A   1      45.809  27.019  36.760  1.00  0.00     0.060 A 
BRANCH  67  68
ATOM     68  S   UNL A   1      47.116  26.053  37.547  1.00  0.00     0.124 S 
ATOM     69  O   UNL A   1      48.279  26.909  37.330  1.00  0.00    -0.237 OA
ATOM     70  O   UNL A   1      46.649  25.956  38.926  1.00  0.00    -0.237 OA
ATOM     71  O   UNL A   1      47.110  24.800  36.798  1.00  0.00    -0.744 OA
ENDBRANCH  67  68
ENDBRANCH  46  60
BRANCH  47  72
ATOM     72  C   UNL A   1      36.386  33.428  30.964  1.00  0.00     0.058 A 
ATOM     73  C   UNL A   1      35.093  33.383  31.504  1.00  0.00     0.135 A 
ATOM     74  C   UNL A   1      36.588  34.195  29.807  1.00  0.00     0.135 A 
ATOM     75  F   UNL A   1      34.852  32.657  32.607  1.00  0.00    -0.206 F 
ATOM     76  C   UNL A   1      34.035  34.069  30.918  1.00  0.00     0.059 A 
ATOM     77  C   UNL A   1      35.549  34.906  29.213  1.00  0.00     0.059 A 
ATOM     78  F   UNL A   1      37.811  34.282  29.263  1.00  0.00    -0.206 F 
ATOM     79  C   UNL A   1      34.275  34.832  29.774  1.00  0.00     0.060 A 
BRANCH  79  80
ATOM     80  S   UNL A   1      32.911  35.779  29.062  1.00  0.00     0.124 S 
ATOM     81  O   UNL A   1      33.607  36.952  28.546  1.00  0.00    -0.237 OA
ATOM     82  O   UNL A   1      32.384  34.857  28.061  1.00  0.00    -0.237 OA
ATOM     83  O   UNL A   1      32.035  36.015  30.206  1.00  0.00    -0.744 OA
ENDBRANCH  79  80
ENDBRANCH  47  72
BRANCH  59  84
ATOM     84  C   UNL A   1      39.909  34.428  36.898  1.00  0.00     0.058 A 
ATOM     85  C   UNL A   1      40.610  35.638  36.796  1.00  0.00     0.135 A 
ATOM     86  C   UNL A   1      39.075  34.242  38.012  1.00  0.00     0.135 A 
ATOM     87  F   UNL A   1      41.426  35.861  35.754  1.00  0.00    -0.206 F 
ATOM     88  C   UNL A   1      40.502  36.624  37.772  1.00  0.00     0.059 A 
ATOM     89  C   UNL A   1      38.935  35.222  38.989  1.00  0.00     0.059 A 
ATOM     90  F   UNL A   1      38.376  33.104  38.150  1.00  0.00    -0.206 F 
ATOM     91  C   UNL A   1      39.661  36.405  38.866  1.00  0.00     0.060 A 
BRANCH  91  92
ATOM     92  S   UNL A   1      39.499  37.704  40.109  1.00  0.00     0.124 S 
ATOM     93  O   UNL A   1      40.833  38.293  40.094  1.00  0.00    -0.237 OA
ATOM     94  O   UNL A   1      38.432  38.537  39.560  1.00  0.00    -0.237 OA
ATOM     95  O   UNL A   1      39.150  36.970  41.322  1.00  0.00    -0.744 OA
ENDBRANCH  91  92
ENDBRANCH  59  84
ENDBRANCH  33  34
ENDBRANCH  25  28
ENDBRANCH  23  24
ENDBRANCH  22  23
ENDBRANCH   1  22
TORSDOF 17
ENDMDL
