MODEL 1
REMARK VINA RESULT:     -12.6      0.000      0.000
REMARK SMILES Cc1nc(-c2ccc(S(=O)(=O)N3CC[NH2+][C@H](C(=O)NCCCNC(=O)c4ccc(-c5c6nc(c(-c7c(F)cc(S(=O)(=O)[O-])cc7F)c7ccc([nH]7)c(-c7c(F)cc(S(=O)(=O)[O-])cc7F)c7nc(c(-c8c(F)cc(S(=O)(=O)[O-])cc8F)c8ccc5[nH]8)C=C7)C=C6)cc4)C3)s2)cs1
REMARK SMILES IDX 21 1 20 2 19 3 17 4 18 5 16 7 12 8 13 9 92 10 14 11 15 12
REMARK SMILES IDX 9 15 10 16 11 17 8 18 5 19 6 20 93 21 7 22 4 23 1 24 2 25
REMARK SMILES IDX 3 26 95 27 94 28 22 29 23 30 24 31 25 33 26 34 27 35 91 36
REMARK SMILES IDX 28 37 90 38 29 39 30 40 31 41 84 42 32 43 89 44 83 45 85 46
REMARK SMILES IDX 33 47 88 48 82 49 81 50 34 52 68 53 47 54 67 55 48 56 51 57
REMARK SMILES IDX 66 58 86 59 49 60 50 61 65 63 87 64 52 65 35 66 36 67 45 68
REMARK SMILES IDX 37 69 38 70 44 71 46 72 39 73 40 74 41 75 42 76 43 77 69 78
REMARK SMILES IDX 70 79 79 80 71 81 72 82 78 83 80 84 73 85 74 86 75 87 76 88
REMARK SMILES IDX 77 89 53 90 54 91 63 92 55 93 56 94 62 95 64 96 57 97 58 98
REMARK SMILES IDX 59 99 60 100 61 101
REMARK H PARENT 19 6 15 13 15 14 23 32 85 51 51 62
REMARK Flexibility Score: inf
ROOT
ATOM      1  C   UNL A   1      40.105  22.011  26.962  1.00  0.00     0.042 C 
ENDROOT
BRANCH   1   2
ATOM      2  C   UNL A   1      38.818  22.440  26.250  1.00  0.00     0.118 C 
BRANCH   2   3
ATOM      3  N   UNL A   1      38.324  21.350  25.430  1.00  0.00    -0.351 N 
ATOM      4  C   UNL A   1      37.056  20.903  25.222  1.00  0.00     0.279 C 
ATOM      5  O   UNL A   1      36.953  19.718  24.884  1.00  0.00    -0.268 OA
ATOM      6  H   UNL A   1      39.020  20.853  24.944  1.00  0.00     0.163 HD
BRANCH   4   7
ATOM      7  C   UNL A   1      35.820  21.843  25.243  1.00  0.00     0.287 C 
ATOM      8  N   UNL A   1      34.666  23.944  24.717  1.00  0.00    -0.185 NA
ATOM      9  C   UNL A   1      34.249  24.214  26.103  1.00  0.00     0.164 C 
ATOM     10  C   UNL A   1      35.978  23.249  24.676  1.00  0.00     0.178 C 
ATOM     11  C   UNL A   1      34.351  22.961  26.993  1.00  0.00     0.278 C 
ATOM     12  N   UNL A   1      35.294  21.883  26.648  1.00  0.00    -0.334 N 
ATOM     13  H   UNL A   1      34.819  20.997  26.821  1.00  0.00     0.347 HD
ATOM     14  H   UNL A   1      36.113  22.062  27.226  1.00  0.00     0.347 HD
BRANCH   8  15
ATOM     15  S   UNL A   1      33.516  23.652  23.509  1.00  0.00     0.253 S 
ATOM     16  O   UNL A   1      32.442  22.898  24.131  1.00  0.00    -0.206 OA
ATOM     17  O   UNL A   1      34.223  23.148  22.353  1.00  0.00    -0.206 OA
BRANCH  15  18
ATOM     18  C   UNL A   1      32.714  25.136  22.896  1.00  0.00     0.135 A 
ATOM     19  C   UNL A   1      31.004  26.927  22.709  1.00  0.00     0.055 A 
ATOM     20  C   UNL A   1      31.918  26.973  21.686  1.00  0.00     0.023 A 
ATOM     21  S   UNL A   1      31.370  25.700  23.832  1.00  0.00    -0.121 S 
ATOM     22  C   UNL A   1      32.901  25.964  21.806  1.00  0.00     0.034 A 
BRANCH  19  23
ATOM     23  C   UNL A   1      29.838  27.861  22.719  1.00  0.00     0.091 A 
ATOM     24  C   UNL A   1      28.532  30.944  21.288  1.00  0.00     0.079 C 
ATOM     25  C   UNL A   1      28.790  29.694  22.051  1.00  0.00     0.090 A 
ATOM     26  N   UNL A   1      29.933  29.051  22.013  1.00  0.00    -0.241 NA
ATOM     27  S   UNL A   1      27.585  28.984  23.047  1.00  0.00    -0.127 S 
ATOM     28  C   UNL A   1      28.636  27.658  23.361  1.00  0.00     0.096 A 
ENDBRANCH  19  23
ENDBRANCH  15  18
ENDBRANCH   8  15
ENDBRANCH   4   7
ENDBRANCH   2   3
ENDBRANCH   1   2
BRANCH   1  29
ATOM     29  C   UNL A   1      40.960  23.200  27.399  1.00  0.00     0.118 C 
BRANCH  29  30
ATOM     30  N   UNL A   1      41.442  23.963  26.259  1.00  0.00    -0.352 N 
ATOM     31  C   UNL A   1      41.523  25.323  26.099  1.00  0.00     0.251 C 
ATOM     32  H   UNL A   1      41.755  23.427  25.494  1.00  0.00     0.163 HD
ATOM     33  O   UNL A   1      41.748  25.788  24.986  1.00  0.00    -0.269 OA
BRANCH  31  34
ATOM     34  C   UNL A   1      41.328  26.223  27.257  1.00  0.00     0.039 A 
ATOM     35  C   UNL A   1      42.241  27.261  27.461  1.00  0.00     0.014 A 
ATOM     36  C   UNL A   1      40.278  26.021  28.159  1.00  0.00     0.014 A 
ATOM     37  C   UNL A   1      42.081  28.120  28.552  1.00  0.00     0.010 A 
ATOM     38  C   UNL A   1      40.088  26.912  29.213  1.00  0.00     0.010 A 
ATOM     39  C   UNL A   1      40.993  27.963  29.425  1.00  0.00    -0.014 A 
BRANCH  39  40
ATOM     40  C   UNL A   1      40.796  28.883  30.574  1.00  0.00     0.031 A 
ATOM     41  C   UNL A   1      41.649  28.749  31.805  1.00  0.00     0.074 A 
ATOM     42  C   UNL A   1      39.812  29.801  30.527  1.00  0.00     0.049 A 
ATOM     43  N   UNL A   1      41.594  29.421  32.926  1.00  0.00    -0.248 NA
ATOM     44  C   UNL A   1      42.684  27.702  31.784  1.00  0.00     0.031 C 
ATOM     45  C   UNL A   1      38.892  29.999  29.403  1.00  0.00     0.029 A 
ATOM     46  N   UNL A   1      39.414  30.737  31.448  1.00  0.00    -0.354 N 
ATOM     47  C   UNL A   1      42.566  28.866  33.750  1.00  0.00     0.074 A 
ATOM     48  C   UNL A   1      43.168  27.775  33.016  1.00  0.00     0.031 C 
ATOM     49  C   UNL A   1      38.057  31.010  29.691  1.00  0.00     0.029 A 
ATOM     50  C   UNL A   1      38.358  31.510  31.029  1.00  0.00     0.049 A 
ATOM     51  H   UNL A   1      39.846  30.844  32.327  1.00  0.00     0.167 HD
ATOM     52  C   UNL A   1      42.932  29.243  34.999  1.00  0.00     0.037 A 
ATOM     53  C   UNL A   1      37.707  32.510  31.654  1.00  0.00     0.037 A 
ATOM     54  C   UNL A   1      42.354  30.354  35.708  1.00  0.00     0.049 A 
ATOM     55  C   UNL A   1      38.144  32.920  33.032  1.00  0.00     0.074 A 
ATOM     56  C   UNL A   1      42.709  30.868  36.943  1.00  0.00     0.029 A 
ATOM     57  N   UNL A   1      41.296  31.123  35.245  1.00  0.00    -0.354 N 
ATOM     58  N   UNL A   1      39.109  32.429  33.771  1.00  0.00    -0.248 NA
ATOM     59  C   UNL A   1      37.406  34.025  33.661  1.00  0.00     0.031 C 
ATOM     60  C   UNL A   1      41.842  31.924  37.243  1.00  0.00     0.029 A 
ATOM     61  C   UNL A   1      40.971  32.094  36.178  1.00  0.00     0.049 A 
ATOM     62  H   UNL A   1      40.842  30.997  34.380  1.00  0.00     0.167 HD
ATOM     63  C   UNL A   1      39.113  33.180  34.941  1.00  0.00     0.074 A 
ATOM     64  C   UNL A   1      38.058  34.164  34.807  1.00  0.00     0.031 C 
ATOM     65  C   UNL A   1      39.919  33.067  36.026  1.00  0.00     0.037 A 
BRANCH  52  66
ATOM     66  C   UNL A   1      44.009  28.440  35.679  1.00  0.00     0.058 A 
ATOM     67  C   UNL A   1      45.371  28.723  35.491  1.00  0.00     0.135 A 
ATOM     68  C   UNL A   1      43.674  27.383  36.540  1.00  0.00     0.135 A 
ATOM     69  F   UNL A   1      45.749  29.714  34.668  1.00  0.00    -0.206 F 
ATOM     70  C   UNL A   1      46.363  27.962  36.101  1.00  0.00     0.059 A 
ATOM     71  C   UNL A   1      44.649  26.626  37.182  1.00  0.00     0.059 A 
ATOM     72  F   UNL A   1      42.387  27.070  36.757  1.00  0.00    -0.206 F 
ATOM     73  C   UNL A   1      45.992  26.911  36.941  1.00  0.00     0.060 A 
BRANCH  73  74
ATOM     74  S   UNL A   1      47.289  25.921  37.714  1.00  0.00     0.124 S 
ATOM     75  O   UNL A   1      48.461  26.325  36.944  1.00  0.00    -0.237 OA
ATOM     76  O   UNL A   1      47.252  26.380  39.098  1.00  0.00    -0.237 OA
ATOM     77  O   UNL A   1      46.840  24.548  37.500  1.00  0.00    -0.744 OA
ENDBRANCH  73  74
ENDBRANCH  52  66
BRANCH  53  78
ATOM     78  C   UNL A   1      36.599  33.218  30.961  1.00  0.00     0.058 A 
ATOM     79  C   UNL A   1      35.268  33.022  31.356  1.00  0.00     0.135 A 
ATOM     80  C   UNL A   1      36.846  34.118  29.913  1.00  0.00     0.135 A 
ATOM     81  F   UNL A   1      34.983  32.166  32.349  1.00  0.00    -0.206 F 
ATOM     82  C   UNL A   1      34.216  33.684  30.730  1.00  0.00     0.059 A 
ATOM     83  C   UNL A   1      35.813  34.809  29.286  1.00  0.00     0.059 A 
ATOM     84  F   UNL A   1      38.105  34.354  29.511  1.00  0.00    -0.206 F 
ATOM     85  C   UNL A   1      34.501  34.578  29.698  1.00  0.00     0.060 A 
BRANCH  85  86
ATOM     86  S   UNL A   1      33.134  35.478  28.930  1.00  0.00     0.124 S 
ATOM     87  O   UNL A   1      32.387  35.927  30.099  1.00  0.00    -0.237 OA
ATOM     88  O   UNL A   1      33.834  36.517  28.180  1.00  0.00    -0.237 OA
ATOM     89  O   UNL A   1      32.481  34.460  28.115  1.00  0.00    -0.744 OA
ENDBRANCH  85  86
ENDBRANCH  53  78
BRANCH  65  90
ATOM     90  C   UNL A   1      39.711  34.053  37.141  1.00  0.00     0.058 A 
ATOM     91  C   UNL A   1      38.878  33.764  38.232  1.00  0.00     0.135 A 
ATOM     92  C   UNL A   1      40.388  35.283  37.137  1.00  0.00     0.135 A 
ATOM     93  F   UNL A   1      38.203  32.604  38.278  1.00  0.00    -0.206 F 
ATOM     94  C   UNL A   1      38.705  34.671  39.272  1.00  0.00     0.059 A 
ATOM     95  C   UNL A   1      40.248  36.195  38.178  1.00  0.00     0.059 A 
ATOM     96  F   UNL A   1      41.204  35.603  36.121  1.00  0.00    -0.206 F 
ATOM     97  C   UNL A   1      39.394  35.884  39.236  1.00  0.00     0.060 A 
BRANCH  97  98
ATOM     98  S   UNL A   1      39.186  37.041  40.606  1.00  0.00     0.124 S 
ATOM     99  O   UNL A   1      40.558  37.493  40.819  1.00  0.00    -0.237 OA
ATOM    100  O   UNL A   1      38.273  38.032  40.046  1.00  0.00    -0.237 OA
ATOM    101  O   UNL A   1      38.627  36.212  41.669  1.00  0.00    -0.744 OA
ENDBRANCH  97  98
ENDBRANCH  65  90
ENDBRANCH  39  40
ENDBRANCH  31  34
ENDBRANCH  29  30
ENDBRANCH   1  29
TORSDOF 16
ENDMDL
MODEL 2
REMARK VINA RESULT:     -12.6      1.927      3.914
REMARK SMILES Cc1nc(-c2ccc(S(=O)(=O)N3CC[NH2+][C@H](C(=O)NCCCNC(=O)c4ccc(-c5c6nc(c(-c7c(F)cc(S(=O)(=O)[O-])cc7F)c7ccc([nH]7)c(-c7c(F)cc(S(=O)(=O)[O-])cc7F)c7nc(c(-c8c(F)cc(S(=O)(=O)[O-])cc8F)c8ccc5[nH]8)C=C7)C=C6)cc4)C3)s2)cs1
REMARK SMILES IDX 21 1 20 2 19 3 17 4 18 5 16 7 12 8 13 9 92 10 14 11 15 12
REMARK SMILES IDX 9 15 10 16 11 17 8 18 5 19 6 20 93 21 7 22 4 23 1 24 2 25
REMARK SMILES IDX 3 26 95 27 94 28 22 29 23 30 24 31 25 33 26 34 27 35 91 36
REMARK SMILES IDX 28 37 90 38 29 39 30 40 31 41 84 42 32 43 89 44 83 45 85 46
REMARK SMILES IDX 33 47 88 48 82 49 81 50 34 52 68 53 47 54 67 55 48 56 51 57
REMARK SMILES IDX 66 58 86 59 49 60 50 61 65 63 87 64 52 65 35 66 36 67 45 68
REMARK SMILES IDX 37 69 38 70 44 71 46 72 39 73 40 74 41 75 42 76 43 77 69 78
REMARK SMILES IDX 70 79 79 80 71 81 72 82 78 83 80 84 73 85 74 86 75 87 76 88
REMARK SMILES IDX 77 89 53 90 54 91 63 92 55 93 56 94 62 95 64 96 57 97 58 98
REMARK SMILES IDX 59 99 60 100 61 101
REMARK H PARENT 19 6 15 13 15 14 23 32 85 51 51 62
REMARK Flexibility Score: inf
ROOT
ATOM      1  C   UNL A   1      38.224  24.004  26.439  1.00  0.00     0.042 C 
ENDROOT
BRANCH   1   2
ATOM      2  C   UNL A   1      37.348  22.916  25.813  1.00  0.00     0.118 C 
BRANCH   2   3
ATOM      3  N   UNL A   1      37.254  23.125  24.381  1.00  0.00    -0.351 N 
ATOM      4  C   UNL A   1      36.165  23.244  23.573  1.00  0.00     0.279 C 
ATOM      5  O   UNL A   1      36.341  22.942  22.387  1.00  0.00    -0.268 OA
ATOM      6  H   UNL A   1      38.119  23.190  23.917  1.00  0.00     0.163 HD
BRANCH   4   7
ATOM      7  C   UNL A   1      34.829  23.872  24.053  1.00  0.00     0.287 C 
ATOM      8  N   UNL A   1      32.626  24.881  23.662  1.00  0.00    -0.185 NA
ATOM      9  C   UNL A   1      32.885  26.079  24.479  1.00  0.00     0.164 C 
ATOM     10  C   UNL A   1      33.866  24.405  22.998  1.00  0.00     0.178 C 
ATOM     11  C   UNL A   1      34.094  25.892  25.414  1.00  0.00     0.278 C 
ATOM     12  N   UNL A   1      35.153  24.926  25.071  1.00  0.00    -0.334 N 
ATOM     13  H   UNL A   1      35.419  24.447  25.932  1.00  0.00     0.347 HD
ATOM     14  H   UNL A   1      35.884  25.489  24.637  1.00  0.00     0.347 HD
BRANCH   8  15
ATOM     15  S   UNL A   1      31.427  23.772  24.108  1.00  0.00     0.253 S 
ATOM     16  O   UNL A   1      30.266  24.061  23.283  1.00  0.00    -0.206 OA
ATOM     17  O   UNL A   1      31.348  23.776  25.550  1.00  0.00    -0.206 OA
BRANCH  15  18
ATOM     18  C   UNL A   1      31.830  22.068  23.713  1.00  0.00     0.135 A 
ATOM     19  C   UNL A   1      32.586  19.731  24.077  1.00  0.00     0.055 A 
ATOM     20  C   UNL A   1      32.423  20.022  22.746  1.00  0.00     0.023 A 
ATOM     21  S   UNL A   1      32.146  21.041  25.072  1.00  0.00    -0.121 S 
ATOM     22  C   UNL A   1      31.975  21.348  22.544  1.00  0.00     0.034 A 
BRANCH  19  23
ATOM     23  C   UNL A   1      33.131  18.404  24.496  1.00  0.00     0.091 A 
ATOM     24  C   UNL A   1      32.207  15.119  25.767  1.00  0.00     0.079 C 
ATOM     25  C   UNL A   1      32.890  16.346  25.278  1.00  0.00     0.090 A 
ATOM     26  N   UNL A   1      32.267  17.480  25.066  1.00  0.00    -0.241 NA
ATOM     27  S   UNL A   1      34.574  16.363  24.941  1.00  0.00    -0.127 S 
ATOM     28  C   UNL A   1      34.434  17.978  24.362  1.00  0.00     0.096 A 
ENDBRANCH  19  23
ENDBRANCH  15  18
ENDBRANCH   8  15
ENDBRANCH   4   7
ENDBRANCH   2   3
ENDBRANCH   1   2
BRANCH   1  29
ATOM     29  C   UNL A   1      39.558  23.462  26.956  1.00  0.00     0.118 C 
BRANCH  29  30
ATOM     30  N   UNL A   1      40.669  23.880  26.117  1.00  0.00    -0.352 N 
ATOM     31  C   UNL A   1      41.380  25.053  26.144  1.00  0.00     0.251 C 
ATOM     32  H   UNL A   1      40.950  23.230  25.434  1.00  0.00     0.163 HD
ATOM     33  O   UNL A   1      42.138  25.321  25.216  1.00  0.00    -0.269 OA
BRANCH  31  34
ATOM     34  C   UNL A   1      41.227  25.993  27.276  1.00  0.00     0.039 A 
ATOM     35  C   UNL A   1      41.938  27.195  27.251  1.00  0.00     0.014 A 
ATOM     36  C   UNL A   1      40.421  25.674  28.374  1.00  0.00     0.014 A 
ATOM     37  C   UNL A   1      41.814  28.096  28.312  1.00  0.00     0.010 A 
ATOM     38  C   UNL A   1      40.255  26.598  29.404  1.00  0.00     0.010 A 
ATOM     39  C   UNL A   1      40.958  27.812  29.388  1.00  0.00    -0.014 A 
BRANCH  39  40
ATOM     40  C   UNL A   1      40.797  28.770  30.510  1.00  0.00     0.031 A 
ATOM     41  C   UNL A   1      41.678  28.667  31.725  1.00  0.00     0.074 A 
ATOM     42  C   UNL A   1      39.821  29.696  30.457  1.00  0.00     0.049 A 
ATOM     43  N   UNL A   1      41.657  29.376  32.825  1.00  0.00    -0.248 NA
ATOM     44  C   UNL A   1      42.703  27.610  31.713  1.00  0.00     0.031 C 
ATOM     45  C   UNL A   1      38.876  29.867  29.350  1.00  0.00     0.029 A 
ATOM     46  N   UNL A   1      39.454  30.665  31.357  1.00  0.00    -0.354 N 
ATOM     47  C   UNL A   1      42.643  28.838  33.643  1.00  0.00     0.074 A 
ATOM     48  C   UNL A   1      43.217  27.718  32.930  1.00  0.00     0.031 C 
ATOM     49  C   UNL A   1      38.058  30.896  29.625  1.00  0.00     0.029 A 
ATOM     50  C   UNL A   1      38.396  31.435  30.938  1.00  0.00     0.049 A 
ATOM     51  H   UNL A   1      39.907  30.796  32.221  1.00  0.00     0.167 HD
ATOM     52  C   UNL A   1      43.043  29.250  34.870  1.00  0.00     0.037 A 
ATOM     53  C   UNL A   1      37.769  32.461  31.546  1.00  0.00     0.037 A 
ATOM     54  C   UNL A   1      42.492  30.389  35.556  1.00  0.00     0.049 A 
ATOM     55  C   UNL A   1      38.242  32.911  32.900  1.00  0.00     0.074 A 
ATOM     56  C   UNL A   1      42.881  30.939  36.765  1.00  0.00     0.029 A 
ATOM     57  N   UNL A   1      41.430  31.153  35.094  1.00  0.00    -0.354 N 
ATOM     58  N   UNL A   1      39.220  32.433  33.631  1.00  0.00    -0.248 NA
ATOM     59  C   UNL A   1      37.530  34.042  33.510  1.00  0.00     0.031 C 
ATOM     60  C   UNL A   1      42.031  32.013  37.051  1.00  0.00     0.029 A 
ATOM     61  C   UNL A   1      41.137  32.157  36.002  1.00  0.00     0.049 A 
ATOM     62  H   UNL A   1      40.955  31.004  34.245  1.00  0.00     0.167 HD
ATOM     63  C   UNL A   1      39.260  33.221  34.775  1.00  0.00     0.074 A 
ATOM     64  C   UNL A   1      38.211  34.211  34.635  1.00  0.00     0.031 C 
ATOM     65  C   UNL A   1      40.090  33.136  35.844  1.00  0.00     0.037 A 
BRANCH  52  66
ATOM     66  C   UNL A   1      44.128  28.460  35.549  1.00  0.00     0.058 A 
ATOM     67  C   UNL A   1      45.483  28.803  35.421  1.00  0.00     0.135 A 
ATOM     68  C   UNL A   1      43.807  27.351  36.350  1.00  0.00     0.135 A 
ATOM     69  F   UNL A   1      45.848  29.844  34.657  1.00  0.00    -0.206 F 
ATOM     70  C   UNL A   1      46.485  28.053  36.030  1.00  0.00     0.059 A 
ATOM     71  C   UNL A   1      44.791  26.603  36.991  1.00  0.00     0.059 A 
ATOM     72  F   UNL A   1      42.527  26.980  36.509  1.00  0.00    -0.206 F 
ATOM     73  C   UNL A   1      46.129  26.951  36.809  1.00  0.00     0.060 A 
BRANCH  73  74
ATOM     74  S   UNL A   1      47.438  25.976  37.580  1.00  0.00     0.124 S 
ATOM     75  O   UNL A   1      48.069  26.970  38.443  1.00  0.00    -0.237 OA
ATOM     76  O   UNL A   1      46.688  24.928  38.265  1.00  0.00    -0.237 OA
ATOM     77  O   UNL A   1      48.241  25.529  36.446  1.00  0.00    -0.744 OA
ENDBRANCH  73  74
ENDBRANCH  52  66
BRANCH  53  78
ATOM     78  C   UNL A   1      36.651  33.157  30.857  1.00  0.00     0.058 A 
ATOM     79  C   UNL A   1      35.321  32.926  31.238  1.00  0.00     0.135 A 
ATOM     80  C   UNL A   1      36.887  34.081  29.827  1.00  0.00     0.135 A 
ATOM     81  F   UNL A   1      35.048  32.047  32.214  1.00  0.00    -0.206 F 
ATOM     82  C   UNL A   1      34.261  33.576  30.616  1.00  0.00     0.059 A 
ATOM     83  C   UNL A   1      35.843  34.761  29.204  1.00  0.00     0.059 A 
ATOM     84  F   UNL A   1      38.143  34.350  29.439  1.00  0.00    -0.206 F 
ATOM     85  C   UNL A   1      34.533  34.495  29.602  1.00  0.00     0.060 A 
BRANCH  85  86
ATOM     86  S   UNL A   1      33.154  35.378  28.839  1.00  0.00     0.124 S 
ATOM     87  O   UNL A   1      32.460  35.904  30.010  1.00  0.00    -0.237 OA
ATOM     88  O   UNL A   1      33.842  36.363  28.008  1.00  0.00    -0.237 OA
ATOM     89  O   UNL A   1      32.452  34.331  28.105  1.00  0.00    -0.744 OA
ENDBRANCH  85  86
ENDBRANCH  53  78
BRANCH  65  90
ATOM     90  C   UNL A   1      39.918  34.159  36.931  1.00  0.00     0.058 A 
ATOM     91  C   UNL A   1      40.508  35.429  36.845  1.00  0.00     0.135 A 
ATOM     92  C   UNL A   1      39.118  33.879  38.050  1.00  0.00     0.135 A 
ATOM     93  F   UNL A   1      41.288  35.743  35.798  1.00  0.00    -0.206 F 
ATOM     94  C   UNL A   1      40.328  36.380  37.844  1.00  0.00     0.059 A 
ATOM     95  C   UNL A   1      38.906  34.823  39.049  1.00  0.00     0.059 A 
ATOM     96  F   UNL A   1      38.524  32.682  38.174  1.00  0.00    -0.206 F 
ATOM     97  C   UNL A   1      39.526  36.068  38.943  1.00  0.00     0.060 A 
BRANCH  97  98
ATOM     98  S   UNL A   1      39.275  37.320  40.218  1.00  0.00     0.124 S 
ATOM     99  O   UNL A   1      40.647  37.729  40.501  1.00  0.00    -0.237 OA
ATOM    100  O   UNL A   1      38.447  38.307  39.533  1.00  0.00    -0.237 OA
ATOM    101  O   UNL A   1      38.606  36.585  41.288  1.00  0.00    -0.744 OA
ENDBRANCH  97  98
ENDBRANCH  65  90
ENDBRANCH  39  40
ENDBRANCH  31  34
ENDBRANCH  29  30
ENDBRANCH   1  29
TORSDOF 16
ENDMDL
MODEL 3
REMARK VINA RESULT:     -12.6      6.337     11.758
REMARK SMILES Cc1nc(-c2ccc(S(=O)(=O)N3CC[NH2+][C@H](C(=O)NCCCNC(=O)c4ccc(-c5c6nc(c(-c7c(F)cc(S(=O)(=O)[O-])cc7F)c7ccc([nH]7)c(-c7c(F)cc(S(=O)(=O)[O-])cc7F)c7nc(c(-c8c(F)cc(S(=O)(=O)[O-])cc8F)c8ccc5[nH]8)C=C7)C=C6)cc4)C3)s2)cs1
REMARK SMILES IDX 21 1 20 2 19 3 17 4 18 5 16 7 12 8 13 9 92 10 14 11 15 12
REMARK SMILES IDX 9 15 10 16 11 17 8 18 5 19 6 20 93 21 7 22 4 23 1 24 2 25
REMARK SMILES IDX 3 26 95 27 94 28 22 29 23 30 24 31 25 33 26 34 27 35 91 36
REMARK SMILES IDX 28 37 90 38 29 39 30 40 31 41 84 42 32 43 89 44 83 45 85 46
REMARK SMILES IDX 33 47 88 48 82 49 81 50 34 52 68 53 47 54 67 55 48 56 51 57
REMARK SMILES IDX 66 58 86 59 49 60 50 61 65 63 87 64 52 65 35 66 36 67 45 68
REMARK SMILES IDX 37 69 38 70 44 71 46 72 39 73 40 74 41 75 42 76 43 77 69 78
REMARK SMILES IDX 70 79 79 80 71 81 72 82 78 83 80 84 73 85 74 86 75 87 76 88
REMARK SMILES IDX 77 89 53 90 54 91 63 92 55 93 56 94 62 95 64 96 57 97 58 98
REMARK SMILES IDX 59 99 60 100 61 101
REMARK H PARENT 19 6 15 13 15 14 23 32 85 51 51 62
REMARK Flexibility Score: inf
ROOT
ATOM      1  C   UNL A   1      35.118  29.483  27.562  1.00  0.00     0.042 C 
ENDROOT
BRANCH   1   2
ATOM      2  C   UNL A   1      33.787  29.521  26.805  1.00  0.00     0.118 C 
BRANCH   2   3
ATOM      3  N   UNL A   1      32.770  28.820  27.565  1.00  0.00    -0.351 N 
ATOM      4  C   UNL A   1      31.919  27.823  27.198  1.00  0.00     0.279 C 
ATOM      5  O   UNL A   1      30.873  27.741  27.852  1.00  0.00    -0.268 OA
ATOM      6  H   UNL A   1      32.679  29.114  28.500  1.00  0.00     0.163 HD
BRANCH   4   7
ATOM      7  C   UNL A   1      32.293  26.748  26.141  1.00  0.00     0.287 C 
ATOM      8  N   UNL A   1      31.988  24.583  25.028  1.00  0.00    -0.185 NA
ATOM      9  C   UNL A   1      33.382  24.146  25.208  1.00  0.00     0.164 C 
ATOM     10  C   UNL A   1      31.537  25.425  26.164  1.00  0.00     0.178 C 
ATOM     11  C   UNL A   1      34.315  25.319  25.560  1.00  0.00     0.278 C 
ATOM     12  N   UNL A   1      33.775  26.525  26.212  1.00  0.00    -0.334 N 
ATOM     13  H   UNL A   1      34.226  27.332  25.781  1.00  0.00     0.347 HD
ATOM     14  H   UNL A   1      33.969  26.392  27.203  1.00  0.00     0.347 HD
BRANCH   8  15
ATOM     15  S   UNL A   1      31.356  24.845  23.478  1.00  0.00     0.253 S 
ATOM     16  O   UNL A   1      30.566  23.672  23.147  1.00  0.00    -0.206 OA
ATOM     17  O   UNL A   1      32.446  25.284  22.637  1.00  0.00    -0.206 OA
BRANCH  15  18
ATOM     18  C   UNL A   1      30.185  26.202  23.392  1.00  0.00     0.135 A 
ATOM     19  C   UNL A   1      29.328  28.487  22.933  1.00  0.00     0.055 A 
ATOM     20  C   UNL A   1      28.429  27.728  23.638  1.00  0.00     0.023 A 
ATOM     21  S   UNL A   1      30.725  27.601  22.525  1.00  0.00    -0.121 S 
ATOM     22  C   UNL A   1      28.912  26.421  23.881  1.00  0.00     0.034 A 
BRANCH  19  23
ATOM     23  C   UNL A   1      29.037  29.924  22.645  1.00  0.00     0.091 A 
ATOM     24  C   UNL A   1      27.885  32.229  20.072  1.00  0.00     0.079 C 
ATOM     25  C   UNL A   1      28.395  31.561  21.299  1.00  0.00     0.090 A 
ATOM     26  N   UNL A   1      28.715  30.290  21.347  1.00  0.00    -0.241 NA
ATOM     27  S   UNL A   1      28.599  32.422  22.771  1.00  0.00    -0.127 S 
ATOM     28  C   UNL A   1      29.041  30.956  23.558  1.00  0.00     0.096 A 
ENDBRANCH  19  23
ENDBRANCH  15  18
ENDBRANCH   8  15
ENDBRANCH   4   7
ENDBRANCH   2   3
ENDBRANCH   1   2
BRANCH   1  29
ATOM     29  C   UNL A   1      35.572  30.868  28.023  1.00  0.00     0.118 C 
BRANCH  29  30
ATOM     30  N   UNL A   1      35.514  30.998  29.469  1.00  0.00    -0.352 N 
ATOM     31  C   UNL A   1      36.438  30.619  30.410  1.00  0.00     0.251 C 
ATOM     32  H   UNL A   1      34.697  31.418  29.823  1.00  0.00     0.163 HD
ATOM     33  O   UNL A   1      36.122  30.606  31.596  1.00  0.00    -0.269 OA
BRANCH  31  34
ATOM     34  C   UNL A   1      37.801  30.217  29.998  1.00  0.00     0.039 A 
ATOM     35  C   UNL A   1      38.673  29.711  30.965  1.00  0.00     0.014 A 
ATOM     36  C   UNL A   1      38.232  30.378  28.677  1.00  0.00     0.014 A 
ATOM     37  C   UNL A   1      39.967  29.331  30.601  1.00  0.00     0.010 A 
ATOM     38  C   UNL A   1      39.503  29.947  28.305  1.00  0.00     0.010 A 
ATOM     39  C   UNL A   1      40.386  29.430  29.265  1.00  0.00    -0.014 A 
BRANCH  39  40
ATOM     40  C   UNL A   1      41.750  29.006  28.859  1.00  0.00     0.031 A 
ATOM     41  C   UNL A   1      42.878  30.002  28.845  1.00  0.00     0.074 A 
ATOM     42  C   UNL A   1      41.957  27.740  28.449  1.00  0.00     0.049 A 
ATOM     43  N   UNL A   1      44.122  29.837  28.474  1.00  0.00    -0.248 NA
ATOM     44  C   UNL A   1      42.559  31.371  29.282  1.00  0.00     0.031 C 
ATOM     45  C   UNL A   1      40.933  26.695  28.378  1.00  0.00     0.029 A 
ATOM     46  N   UNL A   1      43.097  27.116  28.008  1.00  0.00    -0.354 N 
ATOM     47  C   UNL A   1      44.726  31.081  28.608  1.00  0.00     0.074 A 
ATOM     48  C   UNL A   1      43.704  32.000  29.057  1.00  0.00     0.031 C 
ATOM     49  C   UNL A   1      41.496  25.555  27.948  1.00  0.00     0.029 A 
ATOM     50  C   UNL A   1      42.911  25.795  27.680  1.00  0.00     0.049 A 
ATOM     51  H   UNL A   1      43.966  27.573  27.934  1.00  0.00     0.167 HD
ATOM     52  C   UNL A   1      46.020  31.421  28.392  1.00  0.00     0.037 A 
ATOM     53  C   UNL A   1      43.784  24.880  27.217  1.00  0.00     0.037 A 
ATOM     54  C   UNL A   1      47.040  30.491  27.983  1.00  0.00     0.049 A 
ATOM     55  C   UNL A   1      45.217  25.277  27.001  1.00  0.00     0.074 A 
ATOM     56  C   UNL A   1      48.395  30.716  27.815  1.00  0.00     0.029 A 
ATOM     57  N   UNL A   1      46.816  29.157  27.673  1.00  0.00    -0.354 N 
ATOM     58  N   UNL A   1      45.788  26.441  27.197  1.00  0.00    -0.248 NA
ATOM     59  C   UNL A   1      46.128  24.235  26.506  1.00  0.00     0.031 C 
ATOM     60  C   UNL A   1      48.984  29.528  27.369  1.00  0.00     0.029 A 
ATOM     61  C   UNL A   1      48.003  28.552  27.297  1.00  0.00     0.049 A 
ATOM     62  H   UNL A   1      45.941  28.707  27.717  1.00  0.00     0.167 HD
ATOM     63  C   UNL A   1      47.129  26.267  26.876  1.00  0.00     0.074 A 
ATOM     64  C   UNL A   1      47.285  24.882  26.479  1.00  0.00     0.031 C 
ATOM     65  C   UNL A   1      48.140  27.170  26.908  1.00  0.00     0.037 A 
BRANCH  52  66
ATOM     66  C   UNL A   1      46.402  32.862  28.593  1.00  0.00     0.058 A 
ATOM     67  C   UNL A   1      46.357  33.793  27.543  1.00  0.00     0.135 A 
ATOM     68  C   UNL A   1      46.807  33.322  29.857  1.00  0.00     0.135 A 
ATOM     69  F   UNL A   1      45.991  33.405  26.312  1.00  0.00    -0.206 F 
ATOM     70  C   UNL A   1      46.735  35.119  27.729  1.00  0.00     0.059 A 
ATOM     71  C   UNL A   1      47.164  34.651  30.071  1.00  0.00     0.059 A 
ATOM     72  F   UNL A   1      46.867  32.476  30.898  1.00  0.00    -0.206 F 
ATOM     73  C   UNL A   1      47.143  35.537  28.996  1.00  0.00     0.060 A 
BRANCH  73  74
ATOM     74  S   UNL A   1      47.648  37.256  29.219  1.00  0.00     0.124 S 
ATOM     75  O   UNL A   1      46.742  37.946  28.307  1.00  0.00    -0.237 OA
ATOM     76  O   UNL A   1      47.401  37.474  30.641  1.00  0.00    -0.237 OA
ATOM     77  O   UNL A   1      49.054  37.250  28.824  1.00  0.00    -0.744 OA
ENDBRANCH  73  74
ENDBRANCH  52  66
BRANCH  53  78
ATOM     78  C   UNL A   1      43.331  23.486  26.964  1.00  0.00     0.058 A 
ATOM     79  C   UNL A   1      43.118  23.030  25.655  1.00  0.00     0.135 A 
ATOM     80  C   UNL A   1      43.126  22.580  28.016  1.00  0.00     0.135 A 
ATOM     81  F   UNL A   1      43.296  23.863  24.619  1.00  0.00    -0.206 F 
ATOM     82  C   UNL A   1      42.707  21.727  25.395  1.00  0.00     0.059 A 
ATOM     83  C   UNL A   1      42.736  21.265  27.780  1.00  0.00     0.059 A 
ATOM     84  F   UNL A   1      43.334  22.964  29.285  1.00  0.00    -0.206 F 
ATOM     85  C   UNL A   1      42.522  20.851  26.466  1.00  0.00     0.060 A 
BRANCH  85  86
ATOM     86  S   UNL A   1      42.045  19.144  26.116  1.00  0.00     0.124 S 
ATOM     87  O   UNL A   1      40.610  19.281  25.894  1.00  0.00    -0.237 OA
ATOM     88  O   UNL A   1      42.848  18.837  24.936  1.00  0.00    -0.237 OA
ATOM     89  O   UNL A   1      42.432  18.434  27.330  1.00  0.00    -0.744 OA
ENDBRANCH  85  86
ENDBRANCH  53  78
BRANCH  65  90
ATOM     90  C   UNL A   1      49.510  26.681  26.534  1.00  0.00     0.058 A 
ATOM     91  C   UNL A   1      50.016  26.833  25.234  1.00  0.00     0.135 A 
ATOM     92  C   UNL A   1      50.342  26.092  27.500  1.00  0.00     0.135 A 
ATOM     93  F   UNL A   1      49.256  27.384  24.274  1.00  0.00    -0.206 F 
ATOM     94  C   UNL A   1      51.293  26.397  24.898  1.00  0.00     0.059 A 
ATOM     95  C   UNL A   1      51.631  25.670  27.191  1.00  0.00     0.059 A 
ATOM     96  F   UNL A   1      49.909  25.932  28.760  1.00  0.00    -0.206 F 
ATOM     97  C   UNL A   1      52.094  25.816  25.883  1.00  0.00     0.060 A 
BRANCH  97  98
ATOM     98  S   UNL A   1      53.761  25.282  25.444  1.00  0.00     0.124 S 
ATOM     99  O   UNL A   1      54.205  26.379  24.590  1.00  0.00    -0.237 OA
ATOM    100  O   UNL A   1      54.415  25.186  26.745  1.00  0.00    -0.237 OA
ATOM    101  O   UNL A   1      53.541  24.008  24.765  1.00  0.00    -0.744 OA
ENDBRANCH  97  98
ENDBRANCH  65  90
ENDBRANCH  39  40
ENDBRANCH  31  34
ENDBRANCH  29  30
ENDBRANCH   1  29
TORSDOF 16
ENDMDL
