MODEL 1
REMARK VINA RESULT:     -15.1      0.000      0.000
REMARK SMILES Cc1c(NC(=O)[C@@H]2CC=CC[C@@H]2C(=O)NCCCNC(=O)c2ccc(-c3c4nc(c(-c5c(F)cc(S(=O)(=O)[O-])cc5F)c5ccc([nH]5)c(-c5c(F)cc(S(=O)(=O)[O-])cc5F)c5nc(c(-c6c(F)cc(S(=O)(=O)[O-])cc6F)c6ccc3[nH]6)C=C5)C=C4)cc2)cccc1C(=O)N1CCOCC1
REMARK SMILES IDX 17 1 16 2 15 3 13 4 14 5 12 7 7 8 8 9 9 10 11 11 10 12 5 13
REMARK SMILES IDX 4 14 6 16 3 17 1 18 2 19 91 20 88 21 90 22 89 23 92 24 93 25
REMARK SMILES IDX 94 26 95 27 99 28 96 29 98 30 97 31 18 32 19 33 20 34 21 36
REMARK SMILES IDX 22 37 23 38 87 39 24 40 86 41 25 42 26 43 27 44 80 45 28 46
REMARK SMILES IDX 85 47 79 48 81 49 29 50 84 51 78 52 77 53 30 55 64 56 43 57
REMARK SMILES IDX 63 58 44 59 47 60 62 61 82 62 45 63 46 64 61 66 83 67 48 68
REMARK SMILES IDX 31 69 32 70 41 71 33 72 34 73 40 74 42 75 35 76 36 77 37 78
REMARK SMILES IDX 38 79 39 80 65 81 66 82 75 83 67 84 68 85 74 86 76 87 69 88
REMARK SMILES IDX 70 89 71 90 72 91 73 92 49 93 50 94 59 95 51 96 52 97 58 98
REMARK SMILES IDX 60 99 53 100 54 101 55 102 56 103 57 104
REMARK H PARENT 15 6 4 15 19 35 81 54 47 65
REMARK Flexibility Score: inf
ROOT
ATOM      1  C   UNL A   1      37.439  23.407  25.033  1.00  0.00     0.042 C 
ENDROOT
BRANCH   1   2
ATOM      2  C   UNL A   1      36.058  24.049  24.920  1.00  0.00     0.117 C 
BRANCH   2   3
ATOM      3  N   UNL A   1      35.158  23.669  25.998  1.00  0.00    -0.356 N 
ATOM      4  C   UNL A   1      33.823  23.621  26.211  1.00  0.00     0.224 C 
ATOM      5  O   UNL A   1      33.530  23.081  27.291  1.00  0.00    -0.275 OA
ATOM      6  H   UNL A   1      35.658  23.362  26.789  1.00  0.00     0.163 HD
BRANCH   4   7
ATOM      7  C   UNL A   1      32.678  24.045  25.248  1.00  0.00     0.095 C 
ATOM      8  C   UNL A   1      31.261  23.412  25.355  1.00  0.00     0.095 C 
ATOM      9  C   UNL A   1      31.400  21.889  25.321  1.00  0.00     0.041 C 
ATOM     10  C   UNL A   1      32.221  21.442  24.137  1.00  0.00    -0.030 C 
ATOM     11  C   UNL A   1      33.154  23.741  23.793  1.00  0.00     0.041 C 
ATOM     12  C   UNL A   1      32.987  22.286  23.426  1.00  0.00    -0.030 C 
BRANCH   8  13
ATOM     13  C   UNL A   1      30.439  24.121  26.418  1.00  0.00     0.228 C 
ATOM     14  N   UNL A   1      30.229  25.457  26.481  1.00  0.00    -0.326 N 
ATOM     15  H   UNL A   1      29.373  25.680  26.912  1.00  0.00     0.169 HD
ATOM     16  O   UNL A   1      29.910  23.469  27.329  1.00  0.00    -0.274 OA
BRANCH  14  17
ATOM     17  C   UNL A   1      30.937  26.599  26.080  1.00  0.00     0.044 A 
ATOM     18  C   UNL A   1      29.870  26.298  23.808  1.00  0.00     0.047 C 
ATOM     19  C   UNL A   1      30.664  27.124  24.789  1.00  0.00    -0.015 A 
ATOM     20  C   UNL A   1      31.193  28.385  24.437  1.00  0.00     0.045 A 
ATOM     21  C   UNL A   1      31.788  27.286  26.949  1.00  0.00     0.026 A 
ATOM     22  C   UNL A   1      32.077  29.035  25.313  1.00  0.00     0.014 A 
ATOM     23  C   UNL A   1      32.383  28.483  26.554  1.00  0.00     0.003 A 
BRANCH  20  24
ATOM     24  C   UNL A   1      31.003  29.026  23.105  1.00  0.00     0.254 C 
ATOM     25  O   UNL A   1      31.804  28.719  22.221  1.00  0.00    -0.269 OA
ATOM     26  N   UNL A   1      29.959  29.917  22.877  1.00  0.00    -0.334 N 
ATOM     27  C   UNL A   1      29.269  30.743  23.877  1.00  0.00     0.148 C 
ATOM     28  C   UNL A   1      29.638  30.267  21.492  1.00  0.00     0.148 C 
ATOM     29  C   UNL A   1      27.768  30.877  23.563  1.00  0.00     0.181 C 
ATOM     30  C   UNL A   1      28.123  30.342  21.295  1.00  0.00     0.181 C 
ATOM     31  O   UNL A   1      27.550  31.295  22.206  1.00  0.00    -0.378 OA
ENDBRANCH  20  24
ENDBRANCH  14  17
ENDBRANCH   8  13
ENDBRANCH   4   7
ENDBRANCH   2   3
ENDBRANCH   1   2
BRANCH   1  32
ATOM     32  C   UNL A   1      38.019  23.452  26.441  1.00  0.00     0.118 C 
BRANCH  32  33
ATOM     33  N   UNL A   1      39.461  23.232  26.458  1.00  0.00    -0.352 N 
ATOM     34  C   UNL A   1      40.459  24.173  26.725  1.00  0.00     0.251 C 
ATOM     35  H   UNL A   1      39.765  22.318  26.259  1.00  0.00     0.163 HD
ATOM     36  O   UNL A   1      41.626  23.898  26.702  1.00  0.00    -0.269 OA
BRANCH  34  37
ATOM     37  C   UNL A   1      39.980  25.522  27.085  1.00  0.00     0.039 A 
ATOM     38  C   UNL A   1      40.515  26.614  26.394  1.00  0.00     0.014 A 
ATOM     39  C   UNL A   1      39.295  25.689  28.285  1.00  0.00     0.014 A 
ATOM     40  C   UNL A   1      40.515  27.870  27.001  1.00  0.00     0.010 A 
ATOM     41  C   UNL A   1      39.387  26.912  28.925  1.00  0.00     0.010 A 
ATOM     42  C   UNL A   1      40.030  27.997  28.305  1.00  0.00    -0.014 A 
BRANCH  42  43
ATOM     43  C   UNL A   1      40.235  29.188  29.135  1.00  0.00     0.031 A 
ATOM     44  C   UNL A   1      39.158  30.208  29.263  1.00  0.00     0.074 A 
ATOM     45  C   UNL A   1      41.375  29.354  29.846  1.00  0.00     0.049 A 
ATOM     46  N   UNL A   1      39.329  31.401  29.731  1.00  0.00    -0.248 NA
ATOM     47  C   UNL A   1      37.788  29.966  28.819  1.00  0.00     0.031 C 
ATOM     48  C   UNL A   1      41.584  30.278  30.959  1.00  0.00     0.029 A 
ATOM     49  N   UNL A   1      42.651  28.861  29.566  1.00  0.00    -0.354 N 
ATOM     50  C   UNL A   1      38.096  31.999  29.850  1.00  0.00     0.074 A 
ATOM     51  C   UNL A   1      37.166  31.060  29.267  1.00  0.00     0.031 C 
ATOM     52  C   UNL A   1      42.898  30.487  31.113  1.00  0.00     0.029 A 
ATOM     53  C   UNL A   1      43.584  29.815  30.027  1.00  0.00     0.049 A 
ATOM     54  H   UNL A   1      42.861  28.005  29.127  1.00  0.00     0.167 HD
ATOM     55  C   UNL A   1      37.974  33.194  30.495  1.00  0.00     0.037 A 
ATOM     56  C   UNL A   1      44.469  30.409  29.173  1.00  0.00     0.037 A 
ATOM     57  C   UNL A   1      39.267  33.742  30.881  1.00  0.00     0.049 A 
ATOM     58  C   UNL A   1      44.276  31.901  28.997  1.00  0.00     0.074 A 
ATOM     59  C   UNL A   1      40.032  33.704  32.035  1.00  0.00     0.029 A 
ATOM     60  N   UNL A   1      40.094  34.231  29.889  1.00  0.00    -0.354 N 
ATOM     61  N   UNL A   1      43.388  32.614  29.634  1.00  0.00    -0.248 NA
ATOM     62  C   UNL A   1      45.023  32.695  28.015  1.00  0.00     0.031 C 
ATOM     63  C   UNL A   1      41.352  34.124  31.704  1.00  0.00     0.029 A 
ATOM     64  C   UNL A   1      41.380  34.420  30.354  1.00  0.00     0.049 A 
ATOM     65  H   UNL A   1      39.802  34.422  28.967  1.00  0.00     0.167 HD
ATOM     66  C   UNL A   1      43.354  33.870  29.093  1.00  0.00     0.074 A 
ATOM     67  C   UNL A   1      44.424  33.893  28.117  1.00  0.00     0.031 C 
ATOM     68  C   UNL A   1      42.413  34.799  29.411  1.00  0.00     0.037 A 
BRANCH  55  69
ATOM     69  C   UNL A   1      36.652  33.772  30.934  1.00  0.00     0.058 A 
ATOM     70  C   UNL A   1      35.695  34.176  29.980  1.00  0.00     0.135 A 
ATOM     71  C   UNL A   1      36.289  33.997  32.276  1.00  0.00     0.135 A 
ATOM     72  F   UNL A   1      35.876  33.954  28.671  1.00  0.00    -0.206 F 
ATOM     73  C   UNL A   1      34.522  34.848  30.324  1.00  0.00     0.059 A 
ATOM     74  C   UNL A   1      35.153  34.725  32.642  1.00  0.00     0.059 A 
ATOM     75  F   UNL A   1      37.010  33.486  33.284  1.00  0.00    -0.206 F 
ATOM     76  C   UNL A   1      34.277  35.156  31.655  1.00  0.00     0.060 A 
BRANCH  76  77
ATOM     77  S   UNL A   1      32.823  36.138  32.069  1.00  0.00     0.124 S 
ATOM     78  O   UNL A   1      32.545  36.826  30.812  1.00  0.00    -0.237 OA
ATOM     79  O   UNL A   1      31.864  35.111  32.458  1.00  0.00    -0.237 OA
ATOM     80  O   UNL A   1      33.294  37.001  33.150  1.00  0.00    -0.744 OA
ENDBRANCH  76  77
ENDBRANCH  55  69
BRANCH  56  81
ATOM     81  C   UNL A   1      44.969  29.473  28.132  1.00  0.00     0.058 A 
ATOM     82  C   UNL A   1      45.996  28.586  28.508  1.00  0.00     0.135 A 
ATOM     83  C   UNL A   1      44.185  29.137  27.021  1.00  0.00     0.135 A 
ATOM     84  F   UNL A   1      46.792  28.880  29.551  1.00  0.00    -0.206 F 
ATOM     85  C   UNL A   1      46.109  27.326  27.938  1.00  0.00     0.059 A 
ATOM     86  C   UNL A   1      44.292  27.881  26.424  1.00  0.00     0.059 A 
ATOM     87  F   UNL A   1      43.204  29.953  26.613  1.00  0.00    -0.206 F 
ATOM     88  C   UNL A   1      45.197  26.957  26.951  1.00  0.00     0.060 A 
BRANCH  88  89
ATOM     89  S   UNL A   1      45.075  25.202  26.538  1.00  0.00     0.124 S 
ATOM     90  O   UNL A   1      44.158  25.215  25.403  1.00  0.00    -0.237 OA
ATOM     91  O   UNL A   1      46.466  24.881  26.220  1.00  0.00    -0.237 OA
ATOM     92  O   UNL A   1      44.557  24.604  27.762  1.00  0.00    -0.744 OA
ENDBRANCH  88  89
ENDBRANCH  56  81
BRANCH  68  93
ATOM     93  C   UNL A   1      42.413  36.159  28.805  1.00  0.00     0.058 A 
ATOM     94  C   UNL A   1      41.838  36.389  27.547  1.00  0.00     0.135 A 
ATOM     95  C   UNL A   1      43.096  37.231  29.407  1.00  0.00     0.135 A 
ATOM     96  F   UNL A   1      41.178  35.405  26.912  1.00  0.00    -0.206 F 
ATOM     97  C   UNL A   1      41.935  37.624  26.912  1.00  0.00     0.059 A 
ATOM     98  C   UNL A   1      43.231  38.465  28.780  1.00  0.00     0.059 A 
ATOM     99  F   UNL A   1      43.642  37.097  30.627  1.00  0.00    -0.206 F 
ATOM    100  C   UNL A   1      42.638  38.655  27.534  1.00  0.00     0.060 A 
BRANCH 100 101
ATOM    101  S   UNL A   1      42.817  40.242  26.696  1.00  0.00     0.124 S 
ATOM    102  O   UNL A   1      43.959  40.019  25.813  1.00  0.00    -0.237 OA
ATOM    103  O   UNL A   1      41.524  40.367  26.032  1.00  0.00    -0.237 OA
ATOM    104  O   UNL A   1      43.057  41.172  27.795  1.00  0.00    -0.744 OA
ENDBRANCH 100 101
ENDBRANCH  68  93
ENDBRANCH  42  43
ENDBRANCH  34  37
ENDBRANCH  32  33
ENDBRANCH   1  32
TORSDOF 16
ENDMDL
MODEL 2
REMARK VINA RESULT:     -15.0      4.683     11.598
REMARK SMILES Cc1c(NC(=O)[C@@H]2CC=CC[C@@H]2C(=O)NCCCNC(=O)c2ccc(-c3c4nc(c(-c5c(F)cc(S(=O)(=O)[O-])cc5F)c5ccc([nH]5)c(-c5c(F)cc(S(=O)(=O)[O-])cc5F)c5nc(c(-c6c(F)cc(S(=O)(=O)[O-])cc6F)c6ccc3[nH]6)C=C5)C=C4)cc2)cccc1C(=O)N1CCOCC1
REMARK SMILES IDX 17 1 16 2 15 3 13 4 14 5 12 7 7 8 8 9 9 10 11 11 10 12 5 13
REMARK SMILES IDX 4 14 6 16 3 17 1 18 2 19 91 20 88 21 90 22 89 23 92 24 93 25
REMARK SMILES IDX 94 26 95 27 99 28 96 29 98 30 97 31 18 32 19 33 20 34 21 36
REMARK SMILES IDX 22 37 23 38 87 39 24 40 86 41 25 42 26 43 27 44 80 45 28 46
REMARK SMILES IDX 85 47 79 48 81 49 29 50 84 51 78 52 77 53 30 55 64 56 43 57
REMARK SMILES IDX 63 58 44 59 47 60 62 61 82 62 45 63 46 64 61 66 83 67 48 68
REMARK SMILES IDX 31 69 32 70 41 71 33 72 34 73 40 74 42 75 35 76 36 77 37 78
REMARK SMILES IDX 38 79 39 80 65 81 66 82 75 83 67 84 68 85 74 86 76 87 69 88
REMARK SMILES IDX 70 89 71 90 72 91 73 92 49 93 50 94 59 95 51 96 52 97 58 98
REMARK SMILES IDX 60 99 53 100 54 101 55 102 56 103 57 104
REMARK H PARENT 15 6 4 15 19 35 81 54 47 65
REMARK Flexibility Score: inf
ROOT
ATOM      1  C   UNL A   1      32.815  29.446  27.254  1.00  0.00     0.042 C 
ENDROOT
BRANCH   1   2
ATOM      2  C   UNL A   1      32.501  30.225  25.978  1.00  0.00     0.117 C 
BRANCH   2   3
ATOM      3  N   UNL A   1      33.140  29.670  24.795  1.00  0.00    -0.356 N 
ATOM      4  C   UNL A   1      33.190  28.479  24.155  1.00  0.00     0.224 C 
ATOM      5  O   UNL A   1      33.792  28.542  23.071  1.00  0.00    -0.275 OA
ATOM      6  H   UNL A   1      33.685  30.347  24.332  1.00  0.00     0.163 HD
BRANCH   4   7
ATOM      7  C   UNL A   1      32.510  27.140  24.560  1.00  0.00     0.095 C 
ATOM      8  C   UNL A   1      32.743  25.839  23.739  1.00  0.00     0.095 C 
ATOM      9  C   UNL A   1      32.439  26.126  22.267  1.00  0.00     0.041 C 
ATOM     10  C   UNL A   1      31.079  26.759  22.105  1.00  0.00    -0.030 C 
ATOM     11  C   UNL A   1      30.967  27.371  24.531  1.00  0.00     0.041 C 
ATOM     12  C   UNL A   1      30.400  27.290  23.133  1.00  0.00    -0.030 C 
BRANCH   8  13
ATOM     13  C   UNL A   1      34.029  25.156  24.176  1.00  0.00     0.228 C 
ATOM     14  N   UNL A   1      34.390  23.893  23.851  1.00  0.00    -0.326 N 
ATOM     15  H   UNL A   1      35.368  23.780  23.823  1.00  0.00     0.169 HD
ATOM     16  O   UNL A   1      34.835  25.758  24.899  1.00  0.00    -0.274 OA
BRANCH  14  17
ATOM     17  C   UNL A   1      33.708  22.706  23.546  1.00  0.00     0.044 A 
ATOM     18  C   UNL A   1      34.672  21.760  25.683  1.00  0.00     0.047 C 
ATOM     19  C   UNL A   1      33.717  21.672  24.519  1.00  0.00    -0.015 A 
ATOM     20  C   UNL A   1      32.869  20.557  24.340  1.00  0.00     0.045 A 
ATOM     21  C   UNL A   1      32.935  22.573  22.390  1.00  0.00     0.026 A 
ATOM     22  C   UNL A   1      32.133  20.428  23.152  1.00  0.00     0.014 A 
ATOM     23  C   UNL A   1      32.176  21.422  22.178  1.00  0.00     0.003 A 
BRANCH  20  24
ATOM     24  C   UNL A   1      32.812  19.396  25.273  1.00  0.00     0.254 C 
ATOM     25  O   UNL A   1      32.196  19.559  26.327  1.00  0.00    -0.269 OA
ATOM     26  N   UNL A   1      33.417  18.185  24.953  1.00  0.00    -0.334 N 
ATOM     27  C   UNL A   1      34.553  17.978  24.046  1.00  0.00     0.148 C 
ATOM     28  C   UNL A   1      33.067  17.005  25.748  1.00  0.00     0.148 C 
ATOM     29  C   UNL A   1      34.414  16.667  23.252  1.00  0.00     0.181 C 
ATOM     30  C   UNL A   1      32.928  15.775  24.850  1.00  0.00     0.181 C 
ATOM     31  O   UNL A   1      34.146  15.553  24.119  1.00  0.00    -0.378 OA
ENDBRANCH  20  24
ENDBRANCH  14  17
ENDBRANCH   8  13
ENDBRANCH   4   7
ENDBRANCH   2   3
ENDBRANCH   1   2
BRANCH   1  32
ATOM     32  C   UNL A   1      34.302  29.391  27.584  1.00  0.00     0.118 C 
BRANCH  32  33
ATOM     33  N   UNL A   1      34.761  30.579  28.295  1.00  0.00    -0.352 N 
ATOM     34  C   UNL A   1      35.965  30.743  28.985  1.00  0.00     0.251 C 
ATOM     35  H   UNL A   1      34.153  31.353  28.288  1.00  0.00     0.163 HD
ATOM     36  O   UNL A   1      36.249  31.760  29.554  1.00  0.00    -0.269 OA
BRANCH  34  37
ATOM     37  C   UNL A   1      36.891  29.594  28.928  1.00  0.00     0.039 A 
ATOM     38  C   UNL A   1      37.202  28.943  30.126  1.00  0.00     0.014 A 
ATOM     39  C   UNL A   1      37.663  29.415  27.784  1.00  0.00     0.014 A 
ATOM     40  C   UNL A   1      38.402  28.240  30.226  1.00  0.00     0.010 A 
ATOM     41  C   UNL A   1      38.897  28.804  27.918  1.00  0.00     0.010 A 
ATOM     42  C   UNL A   1      39.290  28.248  29.148  1.00  0.00    -0.014 A 
BRANCH  42  43
ATOM     43  C   UNL A   1      40.680  27.790  29.236  1.00  0.00     0.031 A 
ATOM     44  C   UNL A   1      41.067  26.457  28.695  1.00  0.00     0.074 A 
ATOM     45  C   UNL A   1      41.645  28.587  29.750  1.00  0.00     0.049 A 
ATOM     46  N   UNL A   1      42.177  25.852  28.962  1.00  0.00    -0.248 NA
ATOM     47  C   UNL A   1      40.189  25.674  27.830  1.00  0.00     0.031 C 
ATOM     48  C   UNL A   1      43.089  28.426  29.593  1.00  0.00     0.029 A 
ATOM     49  N   UNL A   1      41.516  29.599  30.705  1.00  0.00    -0.354 N 
ATOM     50  C   UNL A   1      42.260  24.733  28.167  1.00  0.00     0.074 A 
ATOM     51  C   UNL A   1      40.993  24.667  27.478  1.00  0.00     0.031 C 
ATOM     52  C   UNL A   1      43.714  29.099  30.567  1.00  0.00     0.029 A 
ATOM     53  C   UNL A   1      42.702  29.612  31.470  1.00  0.00     0.049 A 
ATOM     54  H   UNL A   1      40.740  30.193  30.822  1.00  0.00     0.167 HD
ATOM     55  C   UNL A   1      43.418  24.015  28.114  1.00  0.00     0.037 A 
ATOM     56  C   UNL A   1      42.676  29.400  32.819  1.00  0.00     0.037 A 
ATOM     57  C   UNL A   1      44.412  24.510  29.056  1.00  0.00     0.049 A 
ATOM     58  C   UNL A   1      43.376  28.136  33.276  1.00  0.00     0.074 A 
ATOM     59  C   UNL A   1      45.478  25.391  28.970  1.00  0.00     0.029 A 
ATOM     60  N   UNL A   1      44.203  24.291  30.404  1.00  0.00    -0.354 N 
ATOM     61  N   UNL A   1      44.016  27.318  32.487  1.00  0.00    -0.248 NA
ATOM     62  C   UNL A   1      43.332  27.652  34.659  1.00  0.00     0.031 C 
ATOM     63  C   UNL A   1      45.867  25.744  30.294  1.00  0.00     0.029 A 
ATOM     64  C   UNL A   1      45.041  25.072  31.176  1.00  0.00     0.049 A 
ATOM     65  H   UNL A   1      43.542  23.658  30.768  1.00  0.00     0.167 HD
ATOM     66  C   UNL A   1      44.349  26.192  33.189  1.00  0.00     0.074 A 
ATOM     67  C   UNL A   1      43.946  26.463  34.555  1.00  0.00     0.031 C 
ATOM     68  C   UNL A   1      44.864  25.073  32.613  1.00  0.00     0.037 A 
BRANCH  55  69
ATOM     69  C   UNL A   1      43.704  22.970  27.064  1.00  0.00     0.058 A 
ATOM     70  C   UNL A   1      42.989  21.754  27.052  1.00  0.00     0.135 A 
ATOM     71  C   UNL A   1      44.698  23.088  26.075  1.00  0.00     0.135 A 
ATOM     72  F   UNL A   1      41.965  21.536  27.889  1.00  0.00    -0.206 F 
ATOM     73  C   UNL A   1      43.310  20.698  26.199  1.00  0.00     0.059 A 
ATOM     74  C   UNL A   1      45.081  22.023  25.254  1.00  0.00     0.059 A 
ATOM     75  F   UNL A   1      45.313  24.257  25.845  1.00  0.00    -0.206 F 
ATOM     76  C   UNL A   1      44.385  20.824  25.330  1.00  0.00     0.060 A 
BRANCH  76  77
ATOM     77  S   UNL A   1      44.867  19.405  24.328  1.00  0.00     0.124 S 
ATOM     78  O   UNL A   1      44.425  19.801  22.995  1.00  0.00    -0.237 OA
ATOM     79  O   UNL A   1      46.309  19.365  24.535  1.00  0.00    -0.237 OA
ATOM     80  O   UNL A   1      44.116  18.301  24.922  1.00  0.00    -0.744 OA
ENDBRANCH  76  77
ENDBRANCH  55  69
BRANCH  56  81
ATOM     81  C   UNL A   1      41.487  30.012  33.467  1.00  0.00     0.058 A 
ATOM     82  C   UNL A   1      41.521  31.403  33.685  1.00  0.00     0.135 A 
ATOM     83  C   UNL A   1      40.235  29.384  33.430  1.00  0.00     0.135 A 
ATOM     84  F   UNL A   1      42.700  32.045  33.756  1.00  0.00    -0.206 F 
ATOM     85  C   UNL A   1      40.363  32.168  33.661  1.00  0.00     0.059 A 
ATOM     86  C   UNL A   1      39.059  30.133  33.419  1.00  0.00     0.059 A 
ATOM     87  F   UNL A   1      40.148  28.060  33.240  1.00  0.00    -0.206 F 
ATOM     88  C   UNL A   1      39.145  31.527  33.446  1.00  0.00     0.060 A 
BRANCH  88  89
ATOM     89  S   UNL A   1      37.730  32.551  32.985  1.00  0.00     0.124 S 
ATOM     90  O   UNL A   1      37.619  33.455  34.124  1.00  0.00    -0.237 OA
ATOM     91  O   UNL A   1      38.203  33.159  31.741  1.00  0.00    -0.237 OA
ATOM     92  O   UNL A   1      36.649  31.583  32.838  1.00  0.00    -0.744 OA
ENDBRANCH  88  89
ENDBRANCH  56  81
BRANCH  68  93
ATOM     93  C   UNL A   1      45.220  23.868  33.414  1.00  0.00     0.058 A 
ATOM     94  C   UNL A   1      44.261  22.887  33.707  1.00  0.00     0.135 A 
ATOM     95  C   UNL A   1      46.486  23.730  34.010  1.00  0.00     0.135 A 
ATOM     96  F   UNL A   1      43.029  22.963  33.177  1.00  0.00    -0.206 F 
ATOM     97  C   UNL A   1      44.543  21.818  34.553  1.00  0.00     0.059 A 
ATOM     98  C   UNL A   1      46.782  22.687  34.880  1.00  0.00     0.059 A 
ATOM     99  F   UNL A   1      47.466  24.611  33.747  1.00  0.00    -0.206 F 
ATOM    100  C   UNL A   1      45.805  21.729  35.139  1.00  0.00     0.060 A 
BRANCH 100 101
ATOM    101  S   UNL A   1      46.164  20.378  36.280  1.00  0.00     0.124 S 
ATOM    102  O   UNL A   1      47.609  20.217  36.151  1.00  0.00    -0.237 OA
ATOM    103  O   UNL A   1      45.703  20.938  37.546  1.00  0.00    -0.237 OA
ATOM    104  O   UNL A   1      45.369  19.276  35.748  1.00  0.00    -0.744 OA
ENDBRANCH 100 101
ENDBRANCH  68  93
ENDBRANCH  42  43
ENDBRANCH  34  37
ENDBRANCH  32  33
ENDBRANCH   1  32
TORSDOF 16
ENDMDL
MODEL 3
REMARK VINA RESULT:     -14.6      1.546      2.225
REMARK SMILES Cc1c(NC(=O)[C@@H]2CC=CC[C@@H]2C(=O)NCCCNC(=O)c2ccc(-c3c4nc(c(-c5c(F)cc(S(=O)(=O)[O-])cc5F)c5ccc([nH]5)c(-c5c(F)cc(S(=O)(=O)[O-])cc5F)c5nc(c(-c6c(F)cc(S(=O)(=O)[O-])cc6F)c6ccc3[nH]6)C=C5)C=C4)cc2)cccc1C(=O)N1CCOCC1
REMARK SMILES IDX 17 1 16 2 15 3 13 4 14 5 12 7 7 8 8 9 9 10 11 11 10 12 5 13
REMARK SMILES IDX 4 14 6 16 3 17 1 18 2 19 91 20 88 21 90 22 89 23 92 24 93 25
REMARK SMILES IDX 94 26 95 27 99 28 96 29 98 30 97 31 18 32 19 33 20 34 21 36
REMARK SMILES IDX 22 37 23 38 87 39 24 40 86 41 25 42 26 43 27 44 80 45 28 46
REMARK SMILES IDX 85 47 79 48 81 49 29 50 84 51 78 52 77 53 30 55 64 56 43 57
REMARK SMILES IDX 63 58 44 59 47 60 62 61 82 62 45 63 46 64 61 66 83 67 48 68
REMARK SMILES IDX 31 69 32 70 41 71 33 72 34 73 40 74 42 75 35 76 36 77 37 78
REMARK SMILES IDX 38 79 39 80 65 81 66 82 75 83 67 84 68 85 74 86 76 87 69 88
REMARK SMILES IDX 70 89 71 90 72 91 73 92 49 93 50 94 59 95 51 96 52 97 58 98
REMARK SMILES IDX 60 99 53 100 54 101 55 102 56 103 57 104
REMARK H PARENT 15 6 4 15 19 35 81 54 47 65
REMARK Flexibility Score: inf
ROOT
ATOM      1  C   UNL A   1      37.367  22.441  25.420  1.00  0.00     0.042 C 
ENDROOT
BRANCH   1   2
ATOM      2  C   UNL A   1      35.865  22.703  25.323  1.00  0.00     0.117 C 
BRANCH   2   3
ATOM      3  N   UNL A   1      35.390  22.818  23.954  1.00  0.00    -0.356 N 
ATOM      4  C   UNL A   1      34.205  22.769  23.303  1.00  0.00     0.224 C 
ATOM      5  O   UNL A   1      34.306  23.064  22.101  1.00  0.00    -0.275 OA
ATOM      6  H   UNL A   1      36.134  22.975  23.329  1.00  0.00     0.163 HD
BRANCH   4   7
ATOM      7  C   UNL A   1      32.791  22.508  23.896  1.00  0.00     0.095 C 
ATOM      8  C   UNL A   1      32.546  21.361  24.919  1.00  0.00     0.095 C 
ATOM      9  C   UNL A   1      33.088  20.056  24.332  1.00  0.00     0.041 C 
ATOM     10  C   UNL A   1      32.544  19.814  22.946  1.00  0.00    -0.030 C 
ATOM     11  C   UNL A   1      31.832  22.203  22.702  1.00  0.00     0.041 C 
ATOM     12  C   UNL A   1      31.946  20.775  22.224  1.00  0.00    -0.030 C 
BRANCH   8  13
ATOM     13  C   UNL A   1      32.897  21.817  26.325  1.00  0.00     0.228 C 
ATOM     14  N   UNL A   1      32.185  22.705  27.058  1.00  0.00    -0.326 N 
ATOM     15  H   UNL A   1      32.276  22.548  28.026  1.00  0.00     0.169 HD
ATOM     16  O   UNL A   1      33.915  21.382  26.882  1.00  0.00    -0.274 OA
BRANCH  14  17
ATOM     17  C   UNL A   1      31.349  23.794  26.772  1.00  0.00     0.044 A 
ATOM     18  C   UNL A   1      33.456  25.138  26.390  1.00  0.00     0.047 C 
ATOM     19  C   UNL A   1      31.958  24.984  26.295  1.00  0.00    -0.015 A 
ATOM     20  C   UNL A   1      31.138  26.020  25.795  1.00  0.00     0.045 A 
ATOM     21  C   UNL A   1      29.957  23.691  26.823  1.00  0.00     0.026 A 
ATOM     22  C   UNL A   1      29.742  25.909  25.896  1.00  0.00     0.014 A 
ATOM     23  C   UNL A   1      29.156  24.759  26.418  1.00  0.00     0.003 A 
BRANCH  20  24
ATOM     24  C   UNL A   1      31.655  27.326  25.298  1.00  0.00     0.254 C 
ATOM     25  O   UNL A   1      31.566  28.288  26.062  1.00  0.00    -0.269 OA
ATOM     26  N   UNL A   1      32.223  27.440  24.033  1.00  0.00    -0.334 N 
ATOM     27  C   UNL A   1      31.963  26.585  22.867  1.00  0.00     0.148 C 
ATOM     28  C   UNL A   1      32.986  28.651  23.724  1.00  0.00     0.148 C 
ATOM     29  C   UNL A   1      33.234  26.366  22.029  1.00  0.00     0.181 C 
ATOM     30  C   UNL A   1      34.238  28.305  22.916  1.00  0.00     0.181 C 
ATOM     31  O   UNL A   1      33.875  27.611  21.710  1.00  0.00    -0.378 OA
ENDBRANCH  20  24
ENDBRANCH  14  17
ENDBRANCH   8  13
ENDBRANCH   4   7
ENDBRANCH   2   3
ENDBRANCH   1   2
BRANCH   1  32
ATOM     32  C   UNL A   1      38.173  23.662  25.847  1.00  0.00     0.118 C 
BRANCH  32  33
ATOM     33  N   UNL A   1      39.538  23.323  26.231  1.00  0.00    -0.352 N 
ATOM     34  C   UNL A   1      40.479  24.156  26.844  1.00  0.00     0.251 C 
ATOM     35  H   UNL A   1      39.831  22.404  26.037  1.00  0.00     0.163 HD
ATOM     36  O   UNL A   1      41.589  23.788  27.111  1.00  0.00    -0.269 OA
BRANCH  34  37
ATOM     37  C   UNL A   1      40.000  25.511  27.186  1.00  0.00     0.039 A 
ATOM     38  C   UNL A   1      40.546  26.594  26.490  1.00  0.00     0.014 A 
ATOM     39  C   UNL A   1      39.303  25.690  28.377  1.00  0.00     0.014 A 
ATOM     40  C   UNL A   1      40.543  27.855  27.086  1.00  0.00     0.010 A 
ATOM     41  C   UNL A   1      39.392  26.920  29.006  1.00  0.00     0.010 A 
ATOM     42  C   UNL A   1      40.045  27.997  28.382  1.00  0.00    -0.014 A 
BRANCH  42  43
ATOM     43  C   UNL A   1      40.245  29.195  29.204  1.00  0.00     0.031 A 
ATOM     44  C   UNL A   1      39.165  30.214  29.320  1.00  0.00     0.074 A 
ATOM     45  C   UNL A   1      41.382  29.369  29.916  1.00  0.00     0.049 A 
ATOM     46  N   UNL A   1      39.332  31.410  29.779  1.00  0.00    -0.248 NA
ATOM     47  C   UNL A   1      37.797  29.964  28.874  1.00  0.00     0.031 C 
ATOM     48  C   UNL A   1      41.586  30.302  31.022  1.00  0.00     0.029 A 
ATOM     49  N   UNL A   1      42.660  28.877  29.644  1.00  0.00    -0.354 N 
ATOM     50  C   UNL A   1      38.097  32.006  29.889  1.00  0.00     0.074 A 
ATOM     51  C   UNL A   1      37.171  31.060  29.311  1.00  0.00     0.031 C 
ATOM     52  C   UNL A   1      42.899  30.516  31.179  1.00  0.00     0.029 A 
ATOM     53  C   UNL A   1      43.589  29.837  30.100  1.00  0.00     0.049 A 
ATOM     54  H   UNL A   1      42.874  28.018  29.213  1.00  0.00     0.167 HD
ATOM     55  C   UNL A   1      37.970  33.206  30.525  1.00  0.00     0.037 A 
ATOM     56  C   UNL A   1      44.476  30.427  29.243  1.00  0.00     0.037 A 
ATOM     57  C   UNL A   1      39.261  33.760  30.910  1.00  0.00     0.049 A 
ATOM     58  C   UNL A   1      44.280  31.917  29.055  1.00  0.00     0.074 A 
ATOM     59  C   UNL A   1      40.023  33.734  32.066  1.00  0.00     0.029 A 
ATOM     60  N   UNL A   1      40.089  34.244  29.916  1.00  0.00    -0.354 N 
ATOM     61  N   UNL A   1      43.389  32.632  29.684  1.00  0.00    -0.248 NA
ATOM     62  C   UNL A   1      45.027  32.704  28.069  1.00  0.00     0.031 C 
ATOM     63  C   UNL A   1      41.343  34.155  31.735  1.00  0.00     0.029 A 
ATOM     64  C   UNL A   1      41.374  34.440  30.383  1.00  0.00     0.049 A 
ATOM     65  H   UNL A   1      39.800  34.427  28.992  1.00  0.00     0.167 HD
ATOM     66  C   UNL A   1      43.353  33.884  29.132  1.00  0.00     0.074 A 
ATOM     67  C   UNL A   1      44.426  33.901  28.159  1.00  0.00     0.031 C 
ATOM     68  C   UNL A   1      42.409  34.813  29.440  1.00  0.00     0.037 A 
BRANCH  55  69
ATOM     69  C   UNL A   1      36.646  33.785  30.955  1.00  0.00     0.058 A 
ATOM     70  C   UNL A   1      35.683  34.161  29.996  1.00  0.00     0.135 A 
ATOM     71  C   UNL A   1      36.286  34.037  32.293  1.00  0.00     0.135 A 
ATOM     72  F   UNL A   1      35.861  33.911  28.691  1.00  0.00    -0.206 F 
ATOM     73  C   UNL A   1      34.506  34.832  30.328  1.00  0.00     0.059 A 
ATOM     74  C   UNL A   1      35.146  34.765  32.647  1.00  0.00     0.059 A 
ATOM     75  F   UNL A   1      37.013  33.554  33.310  1.00  0.00    -0.206 F 
ATOM     76  C   UNL A   1      34.263  35.168  31.653  1.00  0.00     0.060 A 
BRANCH  76  77
ATOM     77  S   UNL A   1      32.804  36.149  32.050  1.00  0.00     0.124 S 
ATOM     78  O   UNL A   1      33.275  36.972  33.159  1.00  0.00    -0.237 OA
ATOM     79  O   UNL A   1      32.561  36.850  30.795  1.00  0.00    -0.237 OA
ATOM     80  O   UNL A   1      31.808  35.143  32.411  1.00  0.00    -0.744 OA
ENDBRANCH  76  77
ENDBRANCH  55  69
BRANCH  56  81
ATOM     81  C   UNL A   1      44.981  29.483  28.212  1.00  0.00     0.058 A 
ATOM     82  C   UNL A   1      45.960  28.555  28.617  1.00  0.00     0.135 A 
ATOM     83  C   UNL A   1      44.229  29.186  27.068  1.00  0.00     0.135 A 
ATOM     84  F   UNL A   1      46.726  28.810  29.691  1.00  0.00    -0.206 F 
ATOM     85  C   UNL A   1      46.049  27.298  28.036  1.00  0.00     0.059 A 
ATOM     86  C   UNL A   1      44.313  27.934  26.462  1.00  0.00     0.059 A 
ATOM     87  F   UNL A   1      43.293  30.043  26.632  1.00  0.00    -0.206 F 
ATOM     88  C   UNL A   1      45.163  26.972  27.012  1.00  0.00     0.060 A 
BRANCH  88  89
ATOM     89  S   UNL A   1      44.993  25.227  26.575  1.00  0.00     0.124 S 
ATOM     90  O   UNL A   1      43.900  25.256  25.609  1.00  0.00    -0.237 OA
ATOM     91  O   UNL A   1      46.316  24.936  26.020  1.00  0.00    -0.237 OA
ATOM     92  O   UNL A   1      44.693  24.589  27.850  1.00  0.00    -0.744 OA
ENDBRANCH  88  89
ENDBRANCH  56  81
BRANCH  68  93
ATOM     93  C   UNL A   1      42.408  36.169  28.823  1.00  0.00     0.058 A 
ATOM     94  C   UNL A   1      41.871  36.379  27.544  1.00  0.00     0.135 A 
ATOM     95  C   UNL A   1      43.053  37.256  29.438  1.00  0.00     0.135 A 
ATOM     96  F   UNL A   1      41.250  35.379  26.896  1.00  0.00    -0.206 F 
ATOM     97  C   UNL A   1      41.970  37.610  26.903  1.00  0.00     0.059 A 
ATOM     98  C   UNL A   1      43.188  38.487  28.806  1.00  0.00     0.059 A 
ATOM     99  F   UNL A   1      43.559  37.140  30.677  1.00  0.00    -0.206 F 
ATOM    100  C   UNL A   1      42.635  38.657  27.539  1.00  0.00     0.060 A 
BRANCH 100 101
ATOM    101  S   UNL A   1      42.817  40.241  26.694  1.00  0.00     0.124 S 
ATOM    102  O   UNL A   1      43.125  41.160  27.786  1.00  0.00    -0.237 OA
ATOM    103  O   UNL A   1      43.918  39.957  25.780  1.00  0.00    -0.237 OA
ATOM    104  O   UNL A   1      41.511  40.436  26.072  1.00  0.00    -0.744 OA
ENDBRANCH 100 101
ENDBRANCH  68  93
ENDBRANCH  42  43
ENDBRANCH  34  37
ENDBRANCH  32  33
ENDBRANCH   1  32
TORSDOF 16
ENDMDL
