MODEL 1
REMARK VINA RESULT:     -11.6      0.000      0.000
REMARK SMILES CC[C@@H](CNC(=O)NCc1c(C)noc1C)C(=O)NCCCNC(=O)c1ccc(-c2c3nc(c(-c4c(F)cc(S(=O)(=O)[O-])cc4F)c4ccc([nH]4)c(-c4c(F)cc(S(=O)(=O)[O-])cc4F)c4nc(c(-c5c(F)cc(S(=O)(=O)[O-])cc5F)c5ccc2[nH]5)C=C4)C=C3)cc1
REMARK SMILES IDX 20 1 19 2 17 3 18 4 3 6 2 7 1 8 4 9 5 10 6 11 7 13 8 14 9 16
REMARK SMILES IDX 10 17 11 18 15 19 12 20 13 21 14 22 16 23 21 24 22 25 23 26
REMARK SMILES IDX 24 27 25 29 26 30 27 31 91 32 28 33 90 34 29 35 30 36 31 37
REMARK SMILES IDX 84 38 32 39 89 40 83 41 85 42 33 43 88 44 82 45 81 46 34 48
REMARK SMILES IDX 68 49 47 50 67 51 48 52 51 53 66 54 86 55 49 56 50 57 65 59
REMARK SMILES IDX 87 60 52 61 35 62 36 63 45 64 37 65 38 66 44 67 46 68 39 69
REMARK SMILES IDX 40 70 41 71 42 72 43 73 69 74 70 75 79 76 71 77 72 78 78 79
REMARK SMILES IDX 80 80 73 81 74 82 75 83 76 84 77 85 53 86 54 87 63 88 55 89
REMARK SMILES IDX 56 90 62 91 64 92 57 93 58 94 59 95 60 96 61 97
REMARK H PARENT 19 5 5 12 8 15 23 28 85 47 51 58
REMARK Flexibility Score: inf
ROOT
ATOM      1  C   UNL A   1      36.881  22.196  25.431  1.00  0.00     0.117 C 
ENDROOT
BRANCH   1   2
ATOM      2  N   UNL A   1      35.888  22.033  26.479  1.00  0.00    -0.356 N 
ATOM      3  C   UNL A   1      34.555  21.781  26.390  1.00  0.00     0.224 C 
ATOM      4  O   UNL A   1      33.970  21.427  27.419  1.00  0.00    -0.275 OA
ATOM      5  H   UNL A   1      36.235  22.118  27.396  1.00  0.00     0.163 HD
BRANCH   3   6
ATOM      6  C   UNL A   1      33.786  21.901  25.082  1.00  0.00     0.097 C 
BRANCH   6   7
ATOM      7  C   UNL A   1      33.466  20.546  24.425  1.00  0.00     0.012 C 
ATOM      8  C   UNL A   1      34.546  19.493  24.631  1.00  0.00     0.005 C 
ENDBRANCH   6   7
BRANCH   6   9
ATOM      9  C   UNL A   1      32.673  22.958  25.123  1.00  0.00     0.131 C 
BRANCH   9  10
ATOM     10  N   UNL A   1      31.589  22.774  26.065  1.00  0.00    -0.337 N 
ATOM     11  C   UNL A   1      30.758  23.599  26.714  1.00  0.00     0.315 C 
ATOM     12  H   UNL A   1      31.424  21.827  26.274  1.00  0.00     0.165 HD
ATOM     13  O   UNL A   1      30.094  23.124  27.638  1.00  0.00    -0.249 OA
ATOM     14  N   UNL A   1      30.629  24.902  26.469  1.00  0.00    -0.334 N 
ATOM     15  H   UNL A   1      30.235  25.394  27.224  1.00  0.00     0.165 HD
BRANCH  14  16
ATOM     16  C   UNL A   1      30.935  25.754  25.344  1.00  0.00     0.159 C 
BRANCH  16  17
ATOM     17  C   UNL A   1      32.102  26.597  25.714  1.00  0.00     0.037 A 
ATOM     18  C   UNL A   1      32.252  27.553  26.761  1.00  0.00     0.086 A 
ATOM     19  C   UNL A   1      33.345  26.593  25.112  1.00  0.00     0.138 A 
ATOM     20  C   UNL A   1      31.288  27.979  27.800  1.00  0.00     0.071 C 
ATOM     21  N   UNL A   1      33.476  28.097  26.757  1.00  0.00    -0.085 NA
ATOM     22  O   UNL A   1      34.157  27.487  25.727  1.00  0.00    -0.361 OA
ATOM     23  C   UNL A   1      33.937  25.829  23.999  1.00  0.00     0.091 C 
ENDBRANCH  16  17
ENDBRANCH  14  16
ENDBRANCH   9  10
ENDBRANCH   6   9
ENDBRANCH   3   6
ENDBRANCH   1   2
BRANCH   1  24
ATOM     24  C   UNL A   1      37.300  23.636  25.222  1.00  0.00     0.042 C 
BRANCH  24  25
ATOM     25  C   UNL A   1      38.152  24.171  26.359  1.00  0.00     0.118 C 
BRANCH  25  26
ATOM     26  N   UNL A   1      39.581  23.968  26.142  1.00  0.00    -0.352 N 
ATOM     27  C   UNL A   1      40.667  24.680  26.596  1.00  0.00     0.251 C 
ATOM     28  H   UNL A   1      39.805  23.194  25.577  1.00  0.00     0.163 HD
ATOM     29  O   UNL A   1      41.782  24.441  26.151  1.00  0.00    -0.269 OA
BRANCH  27  30
ATOM     30  C   UNL A   1      40.481  25.742  27.606  1.00  0.00     0.039 A 
ATOM     31  C   UNL A   1      39.506  25.585  28.594  1.00  0.00     0.014 A 
ATOM     32  C   UNL A   1      41.271  26.892  27.579  1.00  0.00     0.014 A 
ATOM     33  C   UNL A   1      39.380  26.549  29.596  1.00  0.00     0.010 A 
ATOM     34  C   UNL A   1      41.232  27.780  28.642  1.00  0.00     0.010 A 
ATOM     35  C   UNL A   1      40.269  27.634  29.650  1.00  0.00    -0.014 A 
BRANCH  35  36
ATOM     36  C   UNL A   1      40.194  28.657  30.723  1.00  0.00     0.031 A 
ATOM     37  C   UNL A   1      41.084  28.531  31.932  1.00  0.00     0.074 A 
ATOM     38  C   UNL A   1      39.278  29.642  30.651  1.00  0.00     0.049 A 
ATOM     39  N   UNL A   1      41.107  29.253  33.021  1.00  0.00    -0.248 NA
ATOM     40  C   UNL A   1      42.048  27.417  31.935  1.00  0.00     0.031 C 
ATOM     41  C   UNL A   1      38.323  29.835  29.556  1.00  0.00     0.029 A 
ATOM     42  N   UNL A   1      38.993  30.663  31.521  1.00  0.00    -0.354 N 
ATOM     43  C   UNL A   1      42.061  28.665  33.845  1.00  0.00     0.074 A 
ATOM     44  C   UNL A   1      42.544  27.487  33.160  1.00  0.00     0.031 C 
ATOM     45  C   UNL A   1      37.584  30.928  29.803  1.00  0.00     0.029 A 
ATOM     46  C   UNL A   1      37.979  31.487  31.091  1.00  0.00     0.049 A 
ATOM     47  H   UNL A   1      39.469  30.794  32.373  1.00  0.00     0.167 HD
ATOM     48  C   UNL A   1      42.516  29.084  35.050  1.00  0.00     0.037 A 
ATOM     49  C   UNL A   1      37.432  32.572  31.674  1.00  0.00     0.037 A 
ATOM     50  C   UNL A   1      42.057  30.280  35.702  1.00  0.00     0.049 A 
ATOM     51  C   UNL A   1      37.962  33.029  33.005  1.00  0.00     0.074 A 
ATOM     52  C   UNL A   1      42.499  30.837  36.888  1.00  0.00     0.029 A 
ATOM     53  N   UNL A   1      41.051  31.107  35.221  1.00  0.00    -0.354 N 
ATOM     54  N   UNL A   1      38.910  32.499  33.742  1.00  0.00    -0.248 NA
ATOM     55  C   UNL A   1      37.356  34.236  33.582  1.00  0.00     0.031 C 
ATOM     56  C   UNL A   1      41.725  31.974  37.149  1.00  0.00     0.029 A 
ATOM     57  C   UNL A   1      40.842  32.157  36.097  1.00  0.00     0.049 A 
ATOM     58  H   UNL A   1      40.557  30.966  34.380  1.00  0.00     0.167 HD
ATOM     59  C   UNL A   1      39.039  33.328  34.850  1.00  0.00     0.074 A 
ATOM     60  C   UNL A   1      38.076  34.397  34.685  1.00  0.00     0.031 C 
ATOM     61  C   UNL A   1      39.883  33.219  35.907  1.00  0.00     0.037 A 
BRANCH  48  62
ATOM     62  C   UNL A   1      43.560  28.240  35.731  1.00  0.00     0.058 A 
ATOM     63  C   UNL A   1      44.934  28.500  35.591  1.00  0.00     0.135 A 
ATOM     64  C   UNL A   1      43.182  27.155  36.539  1.00  0.00     0.135 A 
ATOM     65  F   UNL A   1      45.356  29.513  34.817  1.00  0.00    -0.206 F 
ATOM     66  C   UNL A   1      45.894  27.689  36.188  1.00  0.00     0.059 A 
ATOM     67  C   UNL A   1      44.125  26.352  37.174  1.00  0.00     0.059 A 
ATOM     68  F   UNL A   1      41.884  26.859  36.710  1.00  0.00    -0.206 F 
ATOM     69  C   UNL A   1      45.479  26.615  36.975  1.00  0.00     0.060 A 
BRANCH  69  70
ATOM     70  S   UNL A   1      46.737  25.564  37.731  1.00  0.00     0.124 S 
ATOM     71  O   UNL A   1      47.965  26.220  37.291  1.00  0.00    -0.237 OA
ATOM     72  O   UNL A   1      46.430  25.681  39.152  1.00  0.00    -0.237 OA
ATOM     73  O   UNL A   1      46.483  24.252  37.143  1.00  0.00    -0.744 OA
ENDBRANCH  69  70
ENDBRANCH  48  62
BRANCH  49  74
ATOM     74  C   UNL A   1      36.351  33.320  30.978  1.00  0.00     0.058 A 
ATOM     75  C   UNL A   1      35.036  33.303  31.470  1.00  0.00     0.135 A 
ATOM     76  C   UNL A   1      36.609  34.087  29.832  1.00  0.00     0.135 A 
ATOM     77  F   UNL A   1      34.737  32.580  32.560  1.00  0.00    -0.206 F 
ATOM     78  C   UNL A   1      34.014  34.009  30.844  1.00  0.00     0.059 A 
ATOM     79  C   UNL A   1      35.609  34.823  29.204  1.00  0.00     0.059 A 
ATOM     80  F   UNL A   1      37.853  34.152  29.332  1.00  0.00    -0.206 F 
ATOM     81  C   UNL A   1      34.312  34.772  29.714  1.00  0.00     0.060 A 
BRANCH  81  82
ATOM     82  S   UNL A   1      32.989  35.733  28.945  1.00  0.00     0.124 S 
ATOM     83  O   UNL A   1      32.200  36.128  30.107  1.00  0.00    -0.237 OA
ATOM     84  O   UNL A   1      33.733  36.801  28.285  1.00  0.00    -0.237 OA
ATOM     85  O   UNL A   1      32.354  34.773  28.048  1.00  0.00    -0.744 OA
ENDBRANCH  81  82
ENDBRANCH  49  74
BRANCH  61  86
ATOM     86  C   UNL A   1      39.839  34.307  36.945  1.00  0.00     0.058 A 
ATOM     87  C   UNL A   1      40.519  35.522  36.776  1.00  0.00     0.135 A 
ATOM     88  C   UNL A   1      39.055  34.148  38.101  1.00  0.00     0.135 A 
ATOM     89  F   UNL A   1      41.287  35.723  35.693  1.00  0.00    -0.206 F 
ATOM     90  C   UNL A   1      40.447  36.532  37.730  1.00  0.00     0.059 A 
ATOM     91  C   UNL A   1      38.943  35.157  39.051  1.00  0.00     0.059 A 
ATOM     92  F   UNL A   1      38.373  33.009  38.304  1.00  0.00    -0.206 F 
ATOM     93  C   UNL A   1      39.654  36.341  38.863  1.00  0.00     0.060 A 
BRANCH  93  94
ATOM     94  S   UNL A   1      39.542  37.672  40.076  1.00  0.00     0.124 S 
ATOM     95  O   UNL A   1      39.273  36.930  41.303  1.00  0.00    -0.237 OA
ATOM     96  O   UNL A   1      40.862  38.290  39.984  1.00  0.00    -0.237 OA
ATOM     97  O   UNL A   1      38.438  38.491  39.582  1.00  0.00    -0.744 OA
ENDBRANCH  93  94
ENDBRANCH  61  86
ENDBRANCH  35  36
ENDBRANCH  27  30
ENDBRANCH  25  26
ENDBRANCH  24  25
ENDBRANCH   1  24
TORSDOF 18
ENDMDL
MODEL 2
REMARK VINA RESULT:     -11.4      4.740     10.490
REMARK SMILES CC[C@@H](CNC(=O)NCc1c(C)noc1C)C(=O)NCCCNC(=O)c1ccc(-c2c3nc(c(-c4c(F)cc(S(=O)(=O)[O-])cc4F)c4ccc([nH]4)c(-c4c(F)cc(S(=O)(=O)[O-])cc4F)c4nc(c(-c5c(F)cc(S(=O)(=O)[O-])cc5F)c5ccc2[nH]5)C=C4)C=C3)cc1
REMARK SMILES IDX 20 1 19 2 17 3 18 4 3 6 2 7 1 8 4 9 5 10 6 11 7 13 8 14 9 16
REMARK SMILES IDX 10 17 11 18 15 19 12 20 13 21 14 22 16 23 21 24 22 25 23 26
REMARK SMILES IDX 24 27 25 29 26 30 27 31 91 32 28 33 90 34 29 35 30 36 31 37
REMARK SMILES IDX 84 38 32 39 89 40 83 41 85 42 33 43 88 44 82 45 81 46 34 48
REMARK SMILES IDX 68 49 47 50 67 51 48 52 51 53 66 54 86 55 49 56 50 57 65 59
REMARK SMILES IDX 87 60 52 61 35 62 36 63 45 64 37 65 38 66 44 67 46 68 39 69
REMARK SMILES IDX 40 70 41 71 42 72 43 73 69 74 70 75 79 76 71 77 72 78 78 79
REMARK SMILES IDX 80 80 73 81 74 82 75 83 76 84 77 85 53 86 54 87 63 88 55 89
REMARK SMILES IDX 56 90 62 91 64 92 57 93 58 94 59 95 60 96 61 97
REMARK H PARENT 19 5 5 12 8 15 23 28 85 47 51 58
REMARK Flexibility Score: inf
ROOT
ATOM      1  C   UNL A   1      33.730  26.540  25.310  1.00  0.00     0.117 C 
ENDROOT
BRANCH   1   2
ATOM      2  N   UNL A   1      33.501  26.270  23.901  1.00  0.00    -0.356 N 
ATOM      3  C   UNL A   1      32.364  26.371  23.164  1.00  0.00     0.224 C 
ATOM      4  O   UNL A   1      32.475  26.338  21.934  1.00  0.00    -0.275 OA
ATOM      5  H   UNL A   1      34.294  25.966  23.403  1.00  0.00     0.163 HD
BRANCH   3   6
ATOM      6  C   UNL A   1      30.990  26.541  23.798  1.00  0.00     0.097 C 
BRANCH   6   7
ATOM      7  C   UNL A   1      30.133  27.635  23.136  1.00  0.00     0.012 C 
ATOM      8  C   UNL A   1      30.627  29.050  23.407  1.00  0.00     0.005 C 
ENDBRANCH   6   7
BRANCH   6   9
ATOM      9  C   UNL A   1      30.310  25.210  24.146  1.00  0.00     0.131 C 
BRANCH   9  10
ATOM     10  N   UNL A   1      30.371  24.746  25.515  1.00  0.00    -0.337 N 
ATOM     11  C   UNL A   1      30.886  23.669  26.121  1.00  0.00     0.315 C 
ATOM     12  H   UNL A   1      29.935  25.364  26.145  1.00  0.00     0.165 HD
ATOM     13  O   UNL A   1      30.553  23.461  27.290  1.00  0.00    -0.249 OA
ATOM     14  N   UNL A   1      31.694  22.782  25.544  1.00  0.00    -0.334 N 
ATOM     15  H   UNL A   1      31.711  21.918  26.016  1.00  0.00     0.165 HD
BRANCH  14  16
ATOM     16  C   UNL A   1      32.552  22.800  24.383  1.00  0.00     0.159 C 
BRANCH  16  17
ATOM     17  C   UNL A   1      33.677  21.863  24.631  1.00  0.00     0.037 A 
ATOM     18  C   UNL A   1      35.017  22.121  25.046  1.00  0.00     0.086 A 
ATOM     19  C   UNL A   1      33.637  20.485  24.541  1.00  0.00     0.138 A 
ATOM     20  C   UNL A   1      35.678  23.406  25.366  1.00  0.00     0.071 C 
ATOM     21  N   UNL A   1      35.722  20.988  25.159  1.00  0.00    -0.085 NA
ATOM     22  O   UNL A   1      34.852  19.968  24.848  1.00  0.00    -0.361 OA
ATOM     23  C   UNL A   1      32.577  19.514  24.211  1.00  0.00     0.091 C 
ENDBRANCH  16  17
ENDBRANCH  14  16
ENDBRANCH   9  10
ENDBRANCH   6   9
ENDBRANCH   3   6
ENDBRANCH   1   2
BRANCH   1  24
ATOM     24  C   UNL A   1      33.697  28.014  25.653  1.00  0.00     0.042 C 
BRANCH  24  25
ATOM     25  C   UNL A   1      33.634  28.269  27.148  1.00  0.00     0.118 C 
BRANCH  25  26
ATOM     26  N   UNL A   1      33.560  29.689  27.479  1.00  0.00    -0.352 N 
ATOM     27  C   UNL A   1      34.482  30.521  28.070  1.00  0.00     0.251 C 
ATOM     28  H   UNL A   1      32.709  30.122  27.240  1.00  0.00     0.163 HD
ATOM     29  O   UNL A   1      34.151  31.647  28.418  1.00  0.00    -0.269 OA
BRANCH  27  30
ATOM     30  C   UNL A   1      35.862  30.046  28.299  1.00  0.00     0.039 A 
ATOM     31  C   UNL A   1      36.798  30.137  27.266  1.00  0.00     0.014 A 
ATOM     32  C   UNL A   1      36.233  29.516  29.535  1.00  0.00     0.014 A 
ATOM     33  C   UNL A   1      38.122  29.763  27.503  1.00  0.00     0.010 A 
ATOM     34  C   UNL A   1      37.569  29.267  29.805  1.00  0.00     0.010 A 
ATOM     35  C   UNL A   1      38.526  29.363  28.787  1.00  0.00    -0.014 A 
BRANCH  35  36
ATOM     36  C   UNL A   1      39.933  28.998  29.088  1.00  0.00     0.031 A 
ATOM     37  C   UNL A   1      40.845  30.017  29.719  1.00  0.00     0.074 A 
ATOM     38  C   UNL A   1      40.408  27.791  28.722  1.00  0.00     0.049 A 
ATOM     39  N   UNL A   1      42.125  29.938  29.971  1.00  0.00    -0.248 NA
ATOM     40  C   UNL A   1      40.246  31.315  30.075  1.00  0.00     0.031 C 
ATOM     41  C   UNL A   1      39.635  26.741  28.055  1.00  0.00     0.029 A 
ATOM     42  N   UNL A   1      41.660  27.247  28.854  1.00  0.00    -0.354 N 
ATOM     43  C   UNL A   1      42.487  31.179  30.484  1.00  0.00     0.074 A 
ATOM     44  C   UNL A   1      41.308  32.015  30.442  1.00  0.00     0.031 C 
ATOM     45  C   UNL A   1      40.419  25.668  27.867  1.00  0.00     0.029 A 
ATOM     46  C   UNL A   1      41.759  25.967  28.360  1.00  0.00     0.049 A 
ATOM     47  H   UNL A   1      42.416  27.726  29.263  1.00  0.00     0.167 HD
ATOM     48  C   UNL A   1      43.685  31.578  30.973  1.00  0.00     0.037 A 
ATOM     49  C   UNL A   1      42.815  25.131  28.311  1.00  0.00     0.037 A 
ATOM     50  C   UNL A   1      44.839  30.724  31.048  1.00  0.00     0.049 A 
ATOM     51  C   UNL A   1      44.132  25.588  28.875  1.00  0.00     0.074 A 
ATOM     52  C   UNL A   1      46.081  31.001  31.589  1.00  0.00     0.029 A 
ATOM     53  N   UNL A   1      44.893  29.423  30.566  1.00  0.00    -0.354 N 
ATOM     54  N   UNL A   1      44.442  26.743  29.416  1.00  0.00    -0.248 NA
ATOM     55  C   UNL A   1      45.243  24.628  28.829  1.00  0.00     0.031 C 
ATOM     56  C   UNL A   1      46.901  29.884  31.390  1.00  0.00     0.029 A 
ATOM     57  C   UNL A   1      46.153  28.891  30.778  1.00  0.00     0.049 A 
ATOM     58  H   UNL A   1      44.144  28.949  30.136  1.00  0.00     0.167 HD
ATOM     59  C   UNL A   1      45.772  26.635  29.809  1.00  0.00     0.074 A 
ATOM     60  C   UNL A   1      46.205  25.301  29.447  1.00  0.00     0.031 C 
ATOM     61  C   UNL A   1      46.561  27.555  30.419  1.00  0.00     0.037 A 
BRANCH  48  62
ATOM     62  C   UNL A   1      43.798  32.997  31.463  1.00  0.00     0.058 A 
ATOM     63  C   UNL A   1      43.379  33.375  32.750  1.00  0.00     0.135 A 
ATOM     64  C   UNL A   1      44.337  33.995  30.635  1.00  0.00     0.135 A 
ATOM     65  F   UNL A   1      42.841  32.468  33.580  1.00  0.00    -0.206 F 
ATOM     66  C   UNL A   1      43.446  34.696  33.181  1.00  0.00     0.059 A 
ATOM     67  C   UNL A   1      44.446  35.317  31.057  1.00  0.00     0.059 A 
ATOM     68  F   UNL A   1      44.755  33.693  29.396  1.00  0.00    -0.206 F 
ATOM     69  C   UNL A   1      43.978  35.661  32.324  1.00  0.00     0.060 A 
BRANCH  69  70
ATOM     70  S   UNL A   1      44.045  37.373  32.892  1.00  0.00     0.124 S 
ATOM     71  O   UNL A   1      42.976  37.391  33.885  1.00  0.00    -0.237 OA
ATOM     72  O   UNL A   1      45.401  37.475  33.421  1.00  0.00    -0.237 OA
ATOM     73  O   UNL A   1      43.788  38.145  31.679  1.00  0.00    -0.744 OA
ENDBRANCH  69  70
ENDBRANCH  48  62
BRANCH  49  74
ATOM     74  C   UNL A   1      42.652  23.765  27.746  1.00  0.00     0.058 A 
ATOM     75  C   UNL A   1      42.473  22.657  28.590  1.00  0.00     0.135 A 
ATOM     76  C   UNL A   1      42.642  23.539  26.361  1.00  0.00     0.135 A 
ATOM     77  F   UNL A   1      42.480  22.820  29.921  1.00  0.00    -0.206 F 
ATOM     78  C   UNL A   1      42.302  21.373  28.081  1.00  0.00     0.059 A 
ATOM     79  C   UNL A   1      42.447  22.268  25.829  1.00  0.00     0.059 A 
ATOM     80  F   UNL A   1      42.791  24.567  25.511  1.00  0.00    -0.206 F 
ATOM     81  C   UNL A   1      42.285  21.190  26.698  1.00  0.00     0.060 A 
BRANCH  81  82
ATOM     82  S   UNL A   1      42.002  19.527  26.050  1.00  0.00     0.124 S 
ATOM     83  O   UNL A   1      42.443  18.698  27.166  1.00  0.00    -0.237 OA
ATOM     84  O   UNL A   1      40.565  19.542  25.792  1.00  0.00    -0.237 OA
ATOM     85  O   UNL A   1      42.844  19.484  24.859  1.00  0.00    -0.744 OA
ENDBRANCH  81  82
ENDBRANCH  49  74
BRANCH  61  86
ATOM     86  C   UNL A   1      47.960  27.137  30.780  1.00  0.00     0.058 A 
ATOM     87  C   UNL A   1      48.252  26.490  31.990  1.00  0.00     0.135 A 
ATOM     88  C   UNL A   1      49.013  27.339  29.872  1.00  0.00     0.135 A 
ATOM     89  F   UNL A   1      47.284  26.277  32.895  1.00  0.00    -0.206 F 
ATOM     90  C   UNL A   1      49.546  26.082  32.300  1.00  0.00     0.059 A 
ATOM     91  C   UNL A   1      50.307  26.910  30.147  1.00  0.00     0.059 A 
ATOM     92  F   UNL A   1      48.784  27.942  28.694  1.00  0.00    -0.206 F 
ATOM     93  C   UNL A   1      50.566  26.295  31.370  1.00  0.00     0.060 A 
BRANCH  93  94
ATOM     94  S   UNL A   1      52.233  25.730  31.770  1.00  0.00     0.124 S 
ATOM     95  O   UNL A   1      51.990  24.340  32.139  1.00  0.00    -0.237 OA
ATOM     96  O   UNL A   1      52.944  25.938  30.513  1.00  0.00    -0.237 OA
ATOM     97  O   UNL A   1      52.636  26.610  32.864  1.00  0.00    -0.744 OA
ENDBRANCH  93  94
ENDBRANCH  61  86
ENDBRANCH  35  36
ENDBRANCH  27  30
ENDBRANCH  25  26
ENDBRANCH  24  25
ENDBRANCH   1  24
TORSDOF 18
ENDMDL
MODEL 3
REMARK VINA RESULT:     -11.3      4.943     10.701
REMARK SMILES CC[C@@H](CNC(=O)NCc1c(C)noc1C)C(=O)NCCCNC(=O)c1ccc(-c2c3nc(c(-c4c(F)cc(S(=O)(=O)[O-])cc4F)c4ccc([nH]4)c(-c4c(F)cc(S(=O)(=O)[O-])cc4F)c4nc(c(-c5c(F)cc(S(=O)(=O)[O-])cc5F)c5ccc2[nH]5)C=C4)C=C3)cc1
REMARK SMILES IDX 20 1 19 2 17 3 18 4 3 6 2 7 1 8 4 9 5 10 6 11 7 13 8 14 9 16
REMARK SMILES IDX 10 17 11 18 15 19 12 20 13 21 14 22 16 23 21 24 22 25 23 26
REMARK SMILES IDX 24 27 25 29 26 30 27 31 91 32 28 33 90 34 29 35 30 36 31 37
REMARK SMILES IDX 84 38 32 39 89 40 83 41 85 42 33 43 88 44 82 45 81 46 34 48
REMARK SMILES IDX 68 49 47 50 67 51 48 52 51 53 66 54 86 55 49 56 50 57 65 59
REMARK SMILES IDX 87 60 52 61 35 62 36 63 45 64 37 65 38 66 44 67 46 68 39 69
REMARK SMILES IDX 40 70 41 71 42 72 43 73 69 74 70 75 79 76 71 77 72 78 78 79
REMARK SMILES IDX 80 80 73 81 74 82 75 83 76 84 77 85 53 86 54 87 63 88 55 89
REMARK SMILES IDX 56 90 62 91 64 92 57 93 58 94 59 95 60 96 61 97
REMARK H PARENT 19 5 5 12 8 15 23 28 85 47 51 58
REMARK Flexibility Score: inf
ROOT
ATOM      1  C   UNL A   1      33.368  26.487  24.680  1.00  0.00     0.117 C 
ENDROOT
BRANCH   1   2
ATOM      2  N   UNL A   1      32.255  25.701  24.175  1.00  0.00    -0.356 N 
ATOM      3  C   UNL A   1      31.842  24.451  24.513  1.00  0.00     0.224 C 
ATOM      4  O   UNL A   1      30.721  24.097  24.133  1.00  0.00    -0.275 OA
ATOM      5  H   UNL A   1      31.718  26.143  23.478  1.00  0.00     0.163 HD
BRANCH   3   6
ATOM      6  C   UNL A   1      32.696  23.504  25.345  1.00  0.00     0.097 C 
BRANCH   6   7
ATOM      7  C   UNL A   1      32.240  23.386  26.811  1.00  0.00     0.012 C 
ATOM      8  C   UNL A   1      33.216  22.624  27.697  1.00  0.00     0.005 C 
ENDBRANCH   6   7
BRANCH   6   9
ATOM      9  C   UNL A   1      33.073  22.213  24.605  1.00  0.00     0.131 C 
BRANCH   9  10
ATOM     10  N   UNL A   1      34.476  21.929  24.394  1.00  0.00    -0.337 N 
ATOM     11  C   UNL A   1      35.307  20.954  24.783  1.00  0.00     0.315 C 
ATOM     12  H   UNL A   1      34.920  22.607  23.836  1.00  0.00     0.165 HD
ATOM     13  O   UNL A   1      36.515  21.140  24.622  1.00  0.00    -0.249 OA
ATOM     14  N   UNL A   1      34.931  19.820  25.371  1.00  0.00    -0.334 N 
ATOM     15  H   UNL A   1      35.664  19.385  25.864  1.00  0.00     0.165 HD
BRANCH  14  16
ATOM     16  C   UNL A   1      33.692  19.084  25.450  1.00  0.00     0.159 C 
BRANCH  16  17
ATOM     17  C   UNL A   1      33.667  18.111  24.327  1.00  0.00     0.037 A 
ATOM     18  C   UNL A   1      34.260  16.818  24.215  1.00  0.00     0.086 A 
ATOM     19  C   UNL A   1      33.000  18.255  23.126  1.00  0.00     0.138 A 
ATOM     20  C   UNL A   1      35.067  16.059  25.196  1.00  0.00     0.071 C 
ATOM     21  N   UNL A   1      33.993  16.258  23.028  1.00  0.00    -0.085 NA
ATOM     22  O   UNL A   1      33.200  17.159  22.354  1.00  0.00    -0.361 OA
ATOM     23  C   UNL A   1      32.141  19.309  22.557  1.00  0.00     0.091 C 
ENDBRANCH  16  17
ENDBRANCH  14  16
ENDBRANCH   9  10
ENDBRANCH   6   9
ENDBRANCH   3   6
ENDBRANCH   1   2
BRANCH   1  24
ATOM     24  C   UNL A   1      33.081  27.144  26.013  1.00  0.00     0.042 C 
BRANCH  24  25
ATOM     25  C   UNL A   1      34.258  27.949  26.537  1.00  0.00     0.118 C 
BRANCH  25  26
ATOM     26  N   UNL A   1      33.875  29.279  27.001  1.00  0.00    -0.352 N 
ATOM     27  C   UNL A   1      34.549  30.182  27.789  1.00  0.00     0.251 C 
ATOM     28  H   UNL A   1      32.987  29.579  26.700  1.00  0.00     0.163 HD
ATOM     29  O   UNL A   1      33.971  31.176  28.207  1.00  0.00    -0.269 OA
BRANCH  27  30
ATOM     30  C   UNL A   1      35.963  29.938  28.145  1.00  0.00     0.039 A 
ATOM     31  C   UNL A   1      36.274  29.443  29.413  1.00  0.00     0.014 A 
ATOM     32  C   UNL A   1      36.979  30.193  27.223  1.00  0.00     0.014 A 
ATOM     33  C   UNL A   1      37.601  29.136  29.725  1.00  0.00     0.010 A 
ATOM     34  C   UNL A   1      38.272  29.770  27.488  1.00  0.00     0.010 A 
ATOM     35  C   UNL A   1      38.604  29.260  28.750  1.00  0.00    -0.014 A 
BRANCH  35  36
ATOM     36  C   UNL A   1      40.017  28.904  29.030  1.00  0.00     0.031 A 
ATOM     37  C   UNL A   1      40.933  29.933  29.641  1.00  0.00     0.074 A 
ATOM     38  C   UNL A   1      40.493  27.699  28.663  1.00  0.00     0.049 A 
ATOM     39  N   UNL A   1      42.218  29.863  29.871  1.00  0.00    -0.248 NA
ATOM     40  C   UNL A   1      40.333  31.229  29.999  1.00  0.00     0.031 C 
ATOM     41  C   UNL A   1      39.716  26.640  28.014  1.00  0.00     0.029 A 
ATOM     42  N   UNL A   1      41.751  27.163  28.777  1.00  0.00    -0.354 N 
ATOM     43  C   UNL A   1      42.581  31.109  30.372  1.00  0.00     0.074 A 
ATOM     44  C   UNL A   1      41.396  31.937  30.345  1.00  0.00     0.031 C 
ATOM     45  C   UNL A   1      40.504  25.571  27.819  1.00  0.00     0.029 A 
ATOM     46  C   UNL A   1      41.850  25.881  28.288  1.00  0.00     0.049 A 
ATOM     47  H   UNL A   1      42.511  27.649  29.171  1.00  0.00     0.167 HD
ATOM     48  C   UNL A   1      43.784  31.518  30.839  1.00  0.00     0.037 A 
ATOM     49  C   UNL A   1      42.910  25.051  28.226  1.00  0.00     0.037 A 
ATOM     50  C   UNL A   1      44.945  30.672  30.899  1.00  0.00     0.049 A 
ATOM     51  C   UNL A   1      44.234  25.520  28.765  1.00  0.00     0.074 A 
ATOM     52  C   UNL A   1      46.194  30.959  31.418  1.00  0.00     0.029 A 
ATOM     53  N   UNL A   1      44.998  29.368  30.423  1.00  0.00    -0.354 N 
ATOM     54  N   UNL A   1      44.545  26.679  29.295  1.00  0.00    -0.248 NA
ATOM     55  C   UNL A   1      45.349  24.566  28.706  1.00  0.00     0.031 C 
ATOM     56  C   UNL A   1      47.017  29.846  31.211  1.00  0.00     0.029 A 
ATOM     57  C   UNL A   1      46.265  28.845  30.616  1.00  0.00     0.049 A 
ATOM     58  H   UNL A   1      44.246  28.887  30.008  1.00  0.00     0.167 HD
ATOM     59  C   UNL A   1      45.882  26.582  29.666  1.00  0.00     0.074 A 
ATOM     60  C   UNL A   1      46.317  25.248  29.304  1.00  0.00     0.031 C 
ATOM     61  C   UNL A   1      46.675  27.510  30.258  1.00  0.00     0.037 A 
BRANCH  48  62
ATOM     62  C   UNL A   1      43.897  32.940  31.319  1.00  0.00     0.058 A 
ATOM     63  C   UNL A   1      43.617  33.300  32.649  1.00  0.00     0.135 A 
ATOM     64  C   UNL A   1      44.294  33.960  30.439  1.00  0.00     0.135 A 
ATOM     65  F   UNL A   1      43.217  32.371  33.532  1.00  0.00    -0.206 F 
ATOM     66  C   UNL A   1      43.681  34.623  33.075  1.00  0.00     0.059 A 
ATOM     67  C   UNL A   1      44.398  35.285  30.852  1.00  0.00     0.059 A 
ATOM     68  F   UNL A   1      44.574  33.676  29.158  1.00  0.00    -0.206 F 
ATOM     69  C   UNL A   1      44.069  35.609  32.167  1.00  0.00     0.060 A 
BRANCH  69  70
ATOM     70  S   UNL A   1      44.133  37.322  32.732  1.00  0.00     0.124 S 
ATOM     71  O   UNL A   1      45.446  37.369  33.367  1.00  0.00    -0.237 OA
ATOM     72  O   UNL A   1      44.006  38.068  31.485  1.00  0.00    -0.237 OA
ATOM     73  O   UNL A   1      42.994  37.424  33.640  1.00  0.00    -0.744 OA
ENDBRANCH  69  70
ENDBRANCH  48  62
BRANCH  49  74
ATOM     74  C   UNL A   1      42.746  23.681  27.671  1.00  0.00     0.058 A 
ATOM     75  C   UNL A   1      42.457  22.596  28.513  1.00  0.00     0.135 A 
ATOM     76  C   UNL A   1      42.845  23.430  26.294  1.00  0.00     0.135 A 
ATOM     77  F   UNL A   1      42.358  22.784  29.838  1.00  0.00    -0.206 F 
ATOM     78  C   UNL A   1      42.284  21.310  28.013  1.00  0.00     0.059 A 
ATOM     79  C   UNL A   1      42.650  22.157  25.767  1.00  0.00     0.059 A 
ATOM     80  F   UNL A   1      43.102  24.436  25.443  1.00  0.00    -0.206 F 
ATOM     81  C   UNL A   1      42.376  21.101  26.636  1.00  0.00     0.060 A 
BRANCH  81  82
ATOM     82  S   UNL A   1      42.089  19.438  25.992  1.00  0.00     0.124 S 
ATOM     83  O   UNL A   1      40.638  19.425  25.847  1.00  0.00    -0.237 OA
ATOM     84  O   UNL A   1      42.856  19.456  24.750  1.00  0.00    -0.237 OA
ATOM     85  O   UNL A   1      42.626  18.575  27.039  1.00  0.00    -0.744 OA
ENDBRANCH  81  82
ENDBRANCH  49  74
BRANCH  61  86
ATOM     86  C   UNL A   1      48.082  27.102  30.598  1.00  0.00     0.058 A 
ATOM     87  C   UNL A   1      49.167  27.411  29.763  1.00  0.00     0.135 A 
ATOM     88  C   UNL A   1      48.352  26.440  31.808  1.00  0.00     0.135 A 
ATOM     89  F   UNL A   1      48.964  28.036  28.593  1.00  0.00    -0.206 F 
ATOM     90  C   UNL A   1      50.468  27.053  30.102  1.00  0.00     0.059 A 
ATOM     91  C   UNL A   1      49.648  26.103  32.182  1.00  0.00     0.059 A 
ATOM     92  F   UNL A   1      47.352  26.133  32.649  1.00  0.00    -0.206 F 
ATOM     93  C   UNL A   1      50.699  26.401  31.316  1.00  0.00     0.060 A 
BRANCH  93  94
ATOM     94  S   UNL A   1      52.395  25.974  31.760  1.00  0.00     0.124 S 
ATOM     95  O   UNL A   1      52.234  24.611  32.255  1.00  0.00    -0.237 OA
ATOM     96  O   UNL A   1      53.094  26.107  30.485  1.00  0.00    -0.237 OA
ATOM     97  O   UNL A   1      52.744  26.971  32.768  1.00  0.00    -0.744 OA
ENDBRANCH  93  94
ENDBRANCH  61  86
ENDBRANCH  35  36
ENDBRANCH  27  30
ENDBRANCH  25  26
ENDBRANCH  24  25
ENDBRANCH   1  24
TORSDOF 18
ENDMDL
