MODEL 1
REMARK VINA RESULT:     -13.1      0.000      0.000
REMARK SMILES Cc1noc(C)c1CCC(=O)N1CCC2(CC1)NC(=O)C[C@@H]2C(=O)NCCCNC(=O)c1ccc(-c2c3nc(c(-c4c(F)cc(S(=O)(=O)[O-])cc4F)c4ccc([nH]4)c(-c4c(F)cc(S(=O)(=O)[O-])cc4F)c4nc(c(-c5c(F)cc(S(=O)(=O)[O-])cc5F)c5ccc2[nH]5)C=C4)C=C3)cc1
REMARK SMILES IDX 27 1 26 2 25 3 23 4 24 5 22 7 10 8 11 9 12 10 13 11 17 12
REMARK SMILES IDX 14 13 16 14 15 15 18 16 19 17 21 19 20 20 9 21 8 22 7 23
REMARK SMILES IDX 1 24 2 25 3 26 4 27 5 28 6 29 28 30 29 31 30 32 31 34 32 35
REMARK SMILES IDX 33 36 97 37 34 38 96 39 35 40 36 41 37 42 90 43 38 44 95 45
REMARK SMILES IDX 89 46 91 47 39 48 94 49 88 50 87 51 40 53 74 54 53 55 73 56
REMARK SMILES IDX 54 57 57 58 72 59 92 60 55 61 56 62 71 64 93 65 58 66 41 67
REMARK SMILES IDX 42 68 51 69 43 70 44 71 50 72 52 73 45 74 46 75 47 76 48 77
REMARK SMILES IDX 49 78 75 79 76 80 85 81 77 82 78 83 84 84 86 85 79 86 80 87
REMARK SMILES IDX 81 88 82 89 83 90 59 91 60 92 69 93 61 94 62 95 68 96 70 97
REMARK SMILES IDX 63 98 64 99 65 100 66 101 67 102
REMARK H PARENT 25 6 18 18 29 33 91 52 57 63
REMARK Flexibility Score: inf
ROOT
ATOM      1  C   UNL A   1      34.354  28.895  27.267  1.00  0.00     0.042 C 
ENDROOT
BRANCH   1   2
ATOM      2  C   UNL A   1      32.890  29.077  26.940  1.00  0.00     0.117 C 
BRANCH   2   3
ATOM      3  N   UNL A   1      32.715  29.850  25.738  1.00  0.00    -0.356 N 
ATOM      4  C   UNL A   1      31.458  30.138  25.315  1.00  0.00     0.226 C 
ATOM      5  O   UNL A   1      31.016  31.258  25.597  1.00  0.00    -0.275 OA
ATOM      6  H   UNL A   1      33.497  30.166  25.229  1.00  0.00     0.163 HD
BRANCH   4   7
ATOM      7  C   UNL A   1      30.748  29.281  24.270  1.00  0.00     0.113 C 
ATOM      8  C   UNL A   1      33.522  25.242  25.198  1.00  0.00     0.222 C 
ATOM      9  O   UNL A   1      34.549  25.620  25.764  1.00  0.00    -0.275 OA
ATOM     10  N   UNL A   1      32.838  26.045  24.273  1.00  0.00    -0.343 N 
ATOM     11  C   UNL A   1      33.569  27.177  23.732  1.00  0.00     0.122 C 
ATOM     12  C   UNL A   1      31.395  26.120  24.328  1.00  0.00     0.122 C 
ATOM     13  C   UNL A   1      32.783  28.135  22.832  1.00  0.00     0.051 C 
ATOM     14  C   UNL A   1      30.708  26.934  23.259  1.00  0.00     0.051 C 
ATOM     15  C   UNL A   1      31.298  28.352  23.131  1.00  0.00     0.055 C 
ATOM     16  N   UNL A   1      30.684  28.907  21.929  1.00  0.00    -0.350 N 
ATOM     17  C   UNL A   1      29.727  29.856  22.147  1.00  0.00     0.221 C 
ATOM     18  H   UNL A   1      30.941  28.617  21.025  1.00  0.00     0.164 HD
ATOM     19  C   UNL A   1      29.800  30.286  23.570  1.00  0.00     0.116 C 
ATOM     20  O   UNL A   1      28.963  30.282  21.303  1.00  0.00    -0.275 OA
BRANCH   8  21
ATOM     21  C   UNL A   1      33.000  23.836  25.447  1.00  0.00     0.105 C 
BRANCH  21  22
ATOM     22  C   UNL A   1      33.191  22.853  24.294  1.00  0.00     0.051 C 
BRANCH  22  23
ATOM     23  C   UNL A   1      34.150  21.741  24.562  1.00  0.00     0.018 A 
ATOM     24  C   UNL A   1      32.582  19.636  24.455  1.00  0.00     0.071 C 
ATOM     25  C   UNL A   1      33.870  20.345  24.659  1.00  0.00     0.084 A 
ATOM     26  N   UNL A   1      34.988  19.637  24.854  1.00  0.00    -0.085 NA
ATOM     27  O   UNL A   1      36.020  20.549  24.864  1.00  0.00    -0.361 OA
ATOM     28  C   UNL A   1      35.528  21.801  24.672  1.00  0.00     0.137 A 
ATOM     29  C   UNL A   1      36.539  22.865  24.513  1.00  0.00     0.091 C 
ENDBRANCH  22  23
ENDBRANCH  21  22
ENDBRANCH   8  21
ENDBRANCH   4   7
ENDBRANCH   2   3
ENDBRANCH   1   2
BRANCH   1  30
ATOM     30  C   UNL A   1      35.052  30.203  27.526  1.00  0.00     0.118 C 
BRANCH  30  31
ATOM     31  N   UNL A   1      35.135  30.576  28.933  1.00  0.00    -0.352 N 
ATOM     32  C   UNL A   1      36.184  30.425  29.816  1.00  0.00     0.251 C 
ATOM     33  H   UNL A   1      34.327  30.996  29.306  1.00  0.00     0.163 HD
ATOM     34  O   UNL A   1      36.076  30.820  30.973  1.00  0.00    -0.269 OA
BRANCH  32  35
ATOM     35  C   UNL A   1      37.409  29.717  29.381  1.00  0.00     0.039 A 
ATOM     36  C   UNL A   1      37.860  29.870  28.068  1.00  0.00     0.014 A 
ATOM     37  C   UNL A   1      38.177  29.006  30.298  1.00  0.00     0.014 A 
ATOM     38  C   UNL A   1      39.137  29.417  27.722  1.00  0.00     0.010 A 
ATOM     39  C   UNL A   1      39.503  28.737  30.007  1.00  0.00     0.010 A 
ATOM     40  C   UNL A   1      40.000  28.914  28.709  1.00  0.00    -0.014 A 
BRANCH  40  41
ATOM     41  C   UNL A   1      41.409  28.528  28.427  1.00  0.00     0.031 A 
ATOM     42  C   UNL A   1      42.482  29.592  28.433  1.00  0.00     0.074 A 
ATOM     43  C   UNL A   1      41.712  27.264  28.065  1.00  0.00     0.049 A 
ATOM     44  N   UNL A   1      43.729  29.514  28.051  1.00  0.00    -0.248 NA
ATOM     45  C   UNL A   1      42.078  30.944  28.862  1.00  0.00     0.031 C 
ATOM     46  C   UNL A   1      40.758  26.159  27.939  1.00  0.00     0.029 A 
ATOM     47  N   UNL A   1      42.914  26.696  27.722  1.00  0.00    -0.354 N 
ATOM     48  C   UNL A   1      44.233  30.806  28.148  1.00  0.00     0.074 A 
ATOM     49  C   UNL A   1      43.138  31.663  28.532  1.00  0.00     0.031 C 
ATOM     50  C   UNL A   1      41.417  25.040  27.596  1.00  0.00     0.029 A 
ATOM     51  C   UNL A   1      42.832  25.355  27.426  1.00  0.00     0.049 A 
ATOM     52  H   UNL A   1      43.759  27.202  27.690  1.00  0.00     0.167 HD
ATOM     53  C   UNL A   1      45.506  31.237  27.981  1.00  0.00     0.037 A 
ATOM     54  C   UNL A   1      43.788  24.479  27.059  1.00  0.00     0.037 A 
ATOM     55  C   UNL A   1      46.606  30.363  27.682  1.00  0.00     0.049 A 
ATOM     56  C   UNL A   1      45.207  24.967  26.933  1.00  0.00     0.074 A 
ATOM     57  C   UNL A   1      47.949  30.675  27.581  1.00  0.00     0.029 A 
ATOM     58  N   UNL A   1      46.488  29.000  27.454  1.00  0.00    -0.354 N 
ATOM     59  N   UNL A   1      45.678  26.181  27.094  1.00  0.00    -0.248 NA
ATOM     60  C   UNL A   1      46.225  23.968  26.585  1.00  0.00     0.031 C 
ATOM     61  C   UNL A   1      48.641  29.504  27.254  1.00  0.00     0.029 A 
ATOM     62  C   UNL A   1      47.734  28.456  27.200  1.00  0.00     0.049 A 
ATOM     63  H   UNL A   1      45.643  28.495  27.470  1.00  0.00     0.167 HD
ATOM     64  C   UNL A   1      47.051  26.087  26.895  1.00  0.00     0.074 A 
ATOM     65  C   UNL A   1      47.335  24.694  26.614  1.00  0.00     0.031 C 
ATOM     66  C   UNL A   1      47.993  27.062  26.940  1.00  0.00     0.037 A 
BRANCH  53  67
ATOM     67  C   UNL A   1      45.770  32.710  28.151  1.00  0.00     0.058 A 
ATOM     68  C   UNL A   1      46.130  33.260  29.394  1.00  0.00     0.135 A 
ATOM     69  C   UNL A   1      45.670  33.585  27.057  1.00  0.00     0.135 A 
ATOM     70  F   UNL A   1      46.224  32.474  30.479  1.00  0.00    -0.206 F 
ATOM     71  C   UNL A   1      46.335  34.624  29.557  1.00  0.00     0.059 A 
ATOM     72  C   UNL A   1      45.906  34.951  27.190  1.00  0.00     0.059 A 
ATOM     73  F   UNL A   1      45.330  33.118  25.846  1.00  0.00    -0.206 F 
ATOM     74  C   UNL A   1      46.220  35.463  28.448  1.00  0.00     0.060 A 
BRANCH  74  75
ATOM     75  S   UNL A   1      46.488  37.233  28.677  1.00  0.00     0.124 S 
ATOM     76  O   UNL A   1      46.585  37.325  30.132  1.00  0.00    -0.237 OA
ATOM     77  O   UNL A   1      47.730  37.457  27.945  1.00  0.00    -0.237 OA
ATOM     78  O   UNL A   1      45.297  37.837  28.088  1.00  0.00    -0.744 OA
ENDBRANCH  74  75
ENDBRANCH  53  67
BRANCH  54  79
ATOM     79  C   UNL A   1      43.445  23.049  26.830  1.00  0.00     0.058 A 
ATOM     80  C   UNL A   1      43.467  22.502  25.537  1.00  0.00     0.135 A 
ATOM     81  C   UNL A   1      43.112  22.193  27.892  1.00  0.00     0.135 A 
ATOM     82  F   UNL A   1      43.776  23.278  24.487  1.00  0.00    -0.206 F 
ATOM     83  C   UNL A   1      43.155  21.166  25.302  1.00  0.00     0.059 A 
ATOM     84  C   UNL A   1      42.821  20.848  27.685  1.00  0.00     0.059 A 
ATOM     85  F   UNL A   1      43.094  22.660  29.150  1.00  0.00    -0.206 F 
ATOM     86  C   UNL A   1      42.836  20.345  26.385  1.00  0.00     0.060 A 
BRANCH  86  87
ATOM     87  S   UNL A   1      42.487  18.600  26.073  1.00  0.00     0.124 S 
ATOM     88  O   UNL A   1      41.069  18.638  25.739  1.00  0.00    -0.237 OA
ATOM     89  O   UNL A   1      43.396  18.298  24.971  1.00  0.00    -0.237 OA
ATOM     90  O   UNL A   1      42.821  17.960  27.342  1.00  0.00    -0.744 OA
ENDBRANCH  86  87
ENDBRANCH  54  79
BRANCH  66  91
ATOM     91  C   UNL A   1      49.422  26.656  26.724  1.00  0.00     0.058 A 
ATOM     92  C   UNL A   1      50.244  26.256  27.789  1.00  0.00     0.135 A 
ATOM     93  C   UNL A   1      49.952  26.596  25.425  1.00  0.00     0.135 A 
ATOM     94  F   UNL A   1      49.786  26.298  29.050  1.00  0.00    -0.206 F 
ATOM     95  C   UNL A   1      51.551  25.831  27.575  1.00  0.00     0.059 A 
ATOM     96  C   UNL A   1      51.245  26.146  25.185  1.00  0.00     0.059 A 
ATOM     97  F   UNL A   1      49.201  26.955  24.371  1.00  0.00    -0.206 F 
ATOM     98  C   UNL A   1      52.041  25.775  26.268  1.00  0.00     0.060 A 
BRANCH  98  99
ATOM     99  S   UNL A   1      53.724  25.182  26.000  1.00  0.00     0.124 S 
ATOM    100  O   UNL A   1      54.225  26.150  25.030  1.00  0.00    -0.237 OA
ATOM    101  O   UNL A   1      54.301  25.269  27.339  1.00  0.00    -0.237 OA
ATOM    102  O   UNL A   1      53.531  23.827  25.495  1.00  0.00    -0.744 OA
ENDBRANCH  98  99
ENDBRANCH  66  91
ENDBRANCH  40  41
ENDBRANCH  32  35
ENDBRANCH  30  31
ENDBRANCH   1  30
TORSDOF 16
ENDMDL
MODEL 2
REMARK VINA RESULT:     -12.9      6.447     12.229
REMARK SMILES Cc1noc(C)c1CCC(=O)N1CCC2(CC1)NC(=O)C[C@@H]2C(=O)NCCCNC(=O)c1ccc(-c2c3nc(c(-c4c(F)cc(S(=O)(=O)[O-])cc4F)c4ccc([nH]4)c(-c4c(F)cc(S(=O)(=O)[O-])cc4F)c4nc(c(-c5c(F)cc(S(=O)(=O)[O-])cc5F)c5ccc2[nH]5)C=C4)C=C3)cc1
REMARK SMILES IDX 27 1 26 2 25 3 23 4 24 5 22 7 10 8 11 9 12 10 13 11 17 12
REMARK SMILES IDX 14 13 16 14 15 15 18 16 19 17 21 19 20 20 9 21 8 22 7 23
REMARK SMILES IDX 1 24 2 25 3 26 4 27 5 28 6 29 28 30 29 31 30 32 31 34 32 35
REMARK SMILES IDX 33 36 97 37 34 38 96 39 35 40 36 41 37 42 90 43 38 44 95 45
REMARK SMILES IDX 89 46 91 47 39 48 94 49 88 50 87 51 40 53 74 54 53 55 73 56
REMARK SMILES IDX 54 57 57 58 72 59 92 60 55 61 56 62 71 64 93 65 58 66 41 67
REMARK SMILES IDX 42 68 51 69 43 70 44 71 50 72 52 73 45 74 46 75 47 76 48 77
REMARK SMILES IDX 49 78 75 79 76 80 85 81 77 82 78 83 84 84 86 85 79 86 80 87
REMARK SMILES IDX 81 88 82 89 83 90 59 91 60 92 69 93 61 94 62 95 68 96 70 97
REMARK SMILES IDX 63 98 64 99 65 100 66 101 67 102
REMARK H PARENT 25 6 18 18 29 33 91 52 57 63
REMARK Flexibility Score: inf
ROOT
ATOM      1  C   UNL A   1      38.123  22.605  25.890  1.00  0.00     0.042 C 
ENDROOT
BRANCH   1   2
ATOM      2  C   UNL A   1      36.644  22.853  25.703  1.00  0.00     0.117 C 
BRANCH   2   3
ATOM      3  N   UNL A   1      36.144  22.176  24.534  1.00  0.00    -0.356 N 
ATOM      4  C   UNL A   1      35.255  22.815  23.732  1.00  0.00     0.226 C 
ATOM      5  O   UNL A   1      35.704  23.350  22.713  1.00  0.00    -0.275 OA
ATOM      6  H   UNL A   1      36.442  21.263  24.320  1.00  0.00     0.163 HD
BRANCH   4   7
ATOM      7  C   UNL A   1      33.749  22.609  23.881  1.00  0.00     0.113 C 
ATOM      8  C   UNL A   1      32.727  27.490  23.834  1.00  0.00     0.222 C 
ATOM      9  O   UNL A   1      33.766  28.089  24.120  1.00  0.00    -0.275 OA
ATOM     10  N   UNL A   1      32.445  26.207  24.324  1.00  0.00    -0.343 N 
ATOM     11  C   UNL A   1      33.232  25.758  25.460  1.00  0.00     0.122 C 
ATOM     12  C   UNL A   1      31.893  25.211  23.432  1.00  0.00     0.122 C 
ATOM     13  C   UNL A   1      33.025  24.309  25.908  1.00  0.00     0.051 C 
ATOM     14  C   UNL A   1      31.533  23.874  24.034  1.00  0.00     0.051 C 
ATOM     15  C   UNL A   1      32.694  23.262  24.842  1.00  0.00     0.055 C 
ATOM     16  N   UNL A   1      32.111  22.110  25.522  1.00  0.00    -0.350 N 
ATOM     17  C   UNL A   1      32.469  20.892  25.019  1.00  0.00     0.221 C 
ATOM     18  H   UNL A   1      31.502  22.205  26.289  1.00  0.00     0.164 HD
ATOM     19  C   UNL A   1      33.619  21.080  24.093  1.00  0.00     0.116 C 
ATOM     20  O   UNL A   1      31.939  19.837  25.305  1.00  0.00    -0.275 OA
BRANCH   8  21
ATOM     21  C   UNL A   1      31.674  28.176  22.978  1.00  0.00     0.105 C 
BRANCH  21  22
ATOM     22  C   UNL A   1      30.806  29.200  23.703  1.00  0.00     0.051 C 
BRANCH  22  23
ATOM     23  C   UNL A   1      29.356  29.165  23.351  1.00  0.00     0.018 A 
ATOM     24  C   UNL A   1      28.998  31.543  22.295  1.00  0.00     0.071 C 
ATOM     25  C   UNL A   1      28.570  30.202  22.764  1.00  0.00     0.084 A 
ATOM     26  N   UNL A   1      27.316  29.793  22.538  1.00  0.00    -0.085 NA
ATOM     27  O   UNL A   1      27.264  28.480  22.948  1.00  0.00    -0.361 OA
ATOM     28  C   UNL A   1      28.480  28.096  23.416  1.00  0.00     0.137 A 
ATOM     29  C   UNL A   1      28.610  26.664  23.755  1.00  0.00     0.091 C 
ENDBRANCH  22  23
ENDBRANCH  21  22
ENDBRANCH   8  21
ENDBRANCH   4   7
ENDBRANCH   2   3
ENDBRANCH   1   2
BRANCH   1  30
ATOM     30  C   UNL A   1      38.832  23.786  26.499  1.00  0.00     0.118 C 
BRANCH  30  31
ATOM     31  N   UNL A   1      40.257  23.855  26.201  1.00  0.00    -0.352 N 
ATOM     32  C   UNL A   1      41.205  24.740  26.671  1.00  0.00     0.251 C 
ATOM     33  H   UNL A   1      40.590  23.171  25.576  1.00  0.00     0.163 HD
ATOM     34  O   UNL A   1      42.376  24.631  26.318  1.00  0.00    -0.269 OA
BRANCH  32  35
ATOM     35  C   UNL A   1      40.789  25.864  27.538  1.00  0.00     0.039 A 
ATOM     36  C   UNL A   1      39.833  25.646  28.532  1.00  0.00     0.014 A 
ATOM     37  C   UNL A   1      41.429  27.097  27.454  1.00  0.00     0.014 A 
ATOM     38  C   UNL A   1      39.621  26.622  29.510  1.00  0.00     0.010 A 
ATOM     39  C   UNL A   1      41.361  27.971  28.524  1.00  0.00     0.010 A 
ATOM     40  C   UNL A   1      40.439  27.763  29.558  1.00  0.00    -0.014 A 
BRANCH  40  41
ATOM     41  C   UNL A   1      40.343  28.779  30.641  1.00  0.00     0.031 A 
ATOM     42  C   UNL A   1      41.237  28.652  31.853  1.00  0.00     0.074 A 
ATOM     43  C   UNL A   1      39.397  29.740  30.596  1.00  0.00     0.049 A 
ATOM     44  N   UNL A   1      41.204  29.314  32.980  1.00  0.00    -0.248 NA
ATOM     45  C   UNL A   1      42.260  27.592  31.819  1.00  0.00     0.031 C 
ATOM     46  C   UNL A   1      38.416  29.924  29.523  1.00  0.00     0.029 A 
ATOM     47  N   UNL A   1      39.096  30.741  31.486  1.00  0.00    -0.354 N 
ATOM     48  C   UNL A   1      42.161  28.718  33.793  1.00  0.00     0.074 A 
ATOM     49  C   UNL A   1      42.690  27.586  33.070  1.00  0.00     0.031 C 
ATOM     50  C   UNL A   1      37.657  30.998  29.794  1.00  0.00     0.029 A 
ATOM     51  C   UNL A   1      38.061  31.552  31.082  1.00  0.00     0.049 A 
ATOM     52  H   UNL A   1      39.578  30.868  32.336  1.00  0.00     0.167 HD
ATOM     53  C   UNL A   1      42.601  29.104  35.014  1.00  0.00     0.037 A 
ATOM     54  C   UNL A   1      37.501  32.621  31.683  1.00  0.00     0.037 A 
ATOM     55  C   UNL A   1      42.129  30.281  35.689  1.00  0.00     0.049 A 
ATOM     56  C   UNL A   1      38.040  33.068  33.015  1.00  0.00     0.074 A 
ATOM     57  C   UNL A   1      42.566  30.820  36.885  1.00  0.00     0.029 A 
ATOM     58  N   UNL A   1      41.124  31.112  35.214  1.00  0.00    -0.354 N 
ATOM     59  N   UNL A   1      38.993  32.532  33.740  1.00  0.00    -0.248 NA
ATOM     60  C   UNL A   1      37.437  34.269  33.607  1.00  0.00     0.031 C 
ATOM     61  C   UNL A   1      41.798  31.958  37.153  1.00  0.00     0.029 A 
ATOM     62  C   UNL A   1      40.917  32.154  36.100  1.00  0.00     0.049 A 
ATOM     63  H   UNL A   1      40.632  30.979  34.372  1.00  0.00     0.167 HD
ATOM     64  C   UNL A   1      39.123  33.345  34.860  1.00  0.00     0.074 A 
ATOM     65  C   UNL A   1      38.161  34.417  34.710  1.00  0.00     0.031 C 
ATOM     66  C   UNL A   1      39.963  33.219  35.919  1.00  0.00     0.037 A 
BRANCH  53  67
ATOM     67  C   UNL A   1      43.661  28.262  35.672  1.00  0.00     0.058 A 
ATOM     68  C   UNL A   1      45.028  28.449  35.404  1.00  0.00     0.135 A 
ATOM     69  C   UNL A   1      43.309  27.258  36.589  1.00  0.00     0.135 A 
ATOM     70  F   UNL A   1      45.423  29.382  34.523  1.00  0.00    -0.206 F 
ATOM     71  C   UNL A   1      46.002  27.644  35.982  1.00  0.00     0.059 A 
ATOM     72  C   UNL A   1      44.270  26.464  37.208  1.00  0.00     0.059 A 
ATOM     73  F   UNL A   1      42.019  27.033  36.884  1.00  0.00    -0.206 F 
ATOM     74  C   UNL A   1      45.613  26.652  36.884  1.00  0.00     0.060 A 
BRANCH  74  75
ATOM     75  S   UNL A   1      46.891  25.615  37.625  1.00  0.00     0.124 S 
ATOM     76  O   UNL A   1      46.623  24.327  36.990  1.00  0.00    -0.237 OA
ATOM     77  O   UNL A   1      48.117  26.285  37.206  1.00  0.00    -0.237 OA
ATOM     78  O   UNL A   1      46.598  25.683  39.053  1.00  0.00    -0.744 OA
ENDBRANCH  74  75
ENDBRANCH  53  67
BRANCH  54  79
ATOM     79  C   UNL A   1      36.400  33.365  31.011  1.00  0.00     0.058 A 
ATOM     80  C   UNL A   1      36.645  34.124  29.856  1.00  0.00     0.135 A 
ATOM     81  C   UNL A   1      35.082  33.319  31.491  1.00  0.00     0.135 A 
ATOM     82  F   UNL A   1      37.889  34.204  29.359  1.00  0.00    -0.206 F 
ATOM     83  C   UNL A   1      35.630  34.824  29.210  1.00  0.00     0.059 A 
ATOM     84  C   UNL A   1      34.044  33.989  30.848  1.00  0.00     0.059 A 
ATOM     85  F   UNL A   1      34.788  32.594  32.581  1.00  0.00    -0.206 F 
ATOM     86  C   UNL A   1      34.330  34.746  29.713  1.00  0.00     0.060 A 
BRANCH  86  87
ATOM     87  S   UNL A   1      33.011  35.613  28.834  1.00  0.00     0.124 S 
ATOM     88  O   UNL A   1      33.758  36.641  28.119  1.00  0.00    -0.237 OA
ATOM     89  O   UNL A   1      32.440  34.550  28.012  1.00  0.00    -0.237 OA
ATOM     90  O   UNL A   1      32.149  36.091  29.911  1.00  0.00    -0.744 OA
ENDBRANCH  86  87
ENDBRANCH  54  79
BRANCH  66  91
ATOM     91  C   UNL A   1      39.912  34.285  36.975  1.00  0.00     0.058 A 
ATOM     92  C   UNL A   1      40.642  35.477  36.857  1.00  0.00     0.135 A 
ATOM     93  C   UNL A   1      39.062  34.140  38.084  1.00  0.00     0.135 A 
ATOM     94  F   UNL A   1      41.471  35.662  35.817  1.00  0.00    -0.206 F 
ATOM     95  C   UNL A   1      40.549  36.481  37.814  1.00  0.00     0.059 A 
ATOM     96  C   UNL A   1      38.931  35.144  39.037  1.00  0.00     0.059 A 
ATOM     97  F   UNL A   1      38.332  33.023  38.236  1.00  0.00    -0.206 F 
ATOM     98  C   UNL A   1      39.686  36.307  38.898  1.00  0.00     0.060 A 
BRANCH  98  99
ATOM     99  S   UNL A   1      39.543  37.636  40.111  1.00  0.00     0.124 S 
ATOM    100  O   UNL A   1      39.222  36.892  41.324  1.00  0.00    -0.237 OA
ATOM    101  O   UNL A   1      40.872  38.239  40.070  1.00  0.00    -0.237 OA
ATOM    102  O   UNL A   1      38.468  38.467  39.580  1.00  0.00    -0.744 OA
ENDBRANCH  98  99
ENDBRANCH  66  91
ENDBRANCH  40  41
ENDBRANCH  32  35
ENDBRANCH  30  31
ENDBRANCH   1  30
TORSDOF 16
ENDMDL
MODEL 3
REMARK VINA RESULT:     -12.9      6.380     12.214
REMARK SMILES Cc1noc(C)c1CCC(=O)N1CCC2(CC1)NC(=O)C[C@@H]2C(=O)NCCCNC(=O)c1ccc(-c2c3nc(c(-c4c(F)cc(S(=O)(=O)[O-])cc4F)c4ccc([nH]4)c(-c4c(F)cc(S(=O)(=O)[O-])cc4F)c4nc(c(-c5c(F)cc(S(=O)(=O)[O-])cc5F)c5ccc2[nH]5)C=C4)C=C3)cc1
REMARK SMILES IDX 27 1 26 2 25 3 23 4 24 5 22 7 10 8 11 9 12 10 13 11 17 12
REMARK SMILES IDX 14 13 16 14 15 15 18 16 19 17 21 19 20 20 9 21 8 22 7 23
REMARK SMILES IDX 1 24 2 25 3 26 4 27 5 28 6 29 28 30 29 31 30 32 31 34 32 35
REMARK SMILES IDX 33 36 97 37 34 38 96 39 35 40 36 41 37 42 90 43 38 44 95 45
REMARK SMILES IDX 89 46 91 47 39 48 94 49 88 50 87 51 40 53 74 54 53 55 73 56
REMARK SMILES IDX 54 57 57 58 72 59 92 60 55 61 56 62 71 64 93 65 58 66 41 67
REMARK SMILES IDX 42 68 51 69 43 70 44 71 50 72 52 73 45 74 46 75 47 76 48 77
REMARK SMILES IDX 49 78 75 79 76 80 85 81 77 82 78 83 84 84 86 85 79 86 80 87
REMARK SMILES IDX 81 88 82 89 83 90 59 91 60 92 69 93 61 94 62 95 68 96 70 97
REMARK SMILES IDX 63 98 64 99 65 100 66 101 67 102
REMARK H PARENT 25 6 18 18 29 33 91 52 57 63
REMARK Flexibility Score: inf
ROOT
ATOM      1  C   UNL A   1      37.442  23.765  25.346  1.00  0.00     0.042 C 
ENDROOT
BRANCH   1   2
ATOM      2  C   UNL A   1      37.247  22.433  24.658  1.00  0.00     0.117 C 
BRANCH   2   3
ATOM      3  N   UNL A   1      36.593  21.487  25.526  1.00  0.00    -0.356 N 
ATOM      4  C   UNL A   1      35.993  20.398  24.981  1.00  0.00     0.226 C 
ATOM      5  O   UNL A   1      36.629  19.339  25.003  1.00  0.00    -0.275 OA
ATOM      6  H   UNL A   1      36.581  21.629  26.500  1.00  0.00     0.163 HD
BRANCH   4   7
ATOM      7  C   UNL A   1      34.499  20.382  24.665  1.00  0.00     0.113 C 
ATOM      8  C   UNL A   1      34.011  25.330  25.058  1.00  0.00     0.222 C 
ATOM      9  O   UNL A   1      34.968  25.745  25.712  1.00  0.00    -0.275 OA
ATOM     10  N   UNL A   1      33.473  24.049  25.251  1.00  0.00    -0.343 N 
ATOM     11  C   UNL A   1      33.837  23.371  26.483  1.00  0.00     0.122 C 
ATOM     12  C   UNL A   1      33.120  23.245  24.101  1.00  0.00     0.122 C 
ATOM     13  C   UNL A   1      33.367  21.921  26.633  1.00  0.00     0.051 C 
ATOM     14  C   UNL A   1      32.471  21.909  24.369  1.00  0.00     0.051 C 
ATOM     15  C   UNL A   1      33.272  21.058  25.372  1.00  0.00     0.055 C 
ATOM     16  N   UNL A   1      32.405  19.925  25.680  1.00  0.00    -0.350 N 
ATOM     17  C   UNL A   1      32.778  18.736  25.123  1.00  0.00     0.221 C 
ATOM     18  H   UNL A   1      31.606  20.013  26.247  1.00  0.00     0.164 HD
ATOM     19  C   UNL A   1      34.165  18.871  24.600  1.00  0.00     0.116 C 
ATOM     20  O   UNL A   1      32.089  17.736  25.087  1.00  0.00    -0.275 OA
BRANCH   8  21
ATOM     21  C   UNL A   1      33.333  26.245  24.050  1.00  0.00     0.105 C 
BRANCH  21  22
ATOM     22  C   UNL A   1      32.371  27.272  24.642  1.00  0.00     0.051 C 
BRANCH  22  23
ATOM     23  C   UNL A   1      30.952  27.141  24.199  1.00  0.00     0.018 A 
ATOM     24  C   UNL A   1      30.025  25.345  25.876  1.00  0.00     0.071 C 
ATOM     25  C   UNL A   1      29.945  26.277  24.724  1.00  0.00     0.084 A 
ATOM     26  N   UNL A   1      28.770  26.472  24.114  1.00  0.00    -0.085 NA
ATOM     27  O   UNL A   1      28.979  27.479  23.199  1.00  0.00    -0.361 OA
ATOM     28  C   UNL A   1      30.271  27.894  23.258  1.00  0.00     0.137 A 
ATOM     29  C   UNL A   1      30.601  29.073  22.432  1.00  0.00     0.091 C 
ENDBRANCH  22  23
ENDBRANCH  21  22
ENDBRANCH   8  21
ENDBRANCH   4   7
ENDBRANCH   2   3
ENDBRANCH   1   2
BRANCH   1  30
ATOM     30  C   UNL A   1      38.401  23.679  26.504  1.00  0.00     0.118 C 
BRANCH  30  31
ATOM     31  N   UNL A   1      39.808  23.760  26.130  1.00  0.00    -0.352 N 
ATOM     32  C   UNL A   1      40.773  24.651  26.550  1.00  0.00     0.251 C 
ATOM     33  H   UNL A   1      40.112  23.080  25.485  1.00  0.00     0.163 HD
ATOM     34  O   UNL A   1      41.924  24.552  26.134  1.00  0.00    -0.269 OA
BRANCH  32  35
ATOM     35  C   UNL A   1      40.396  25.770  27.443  1.00  0.00     0.039 A 
ATOM     36  C   UNL A   1      39.523  25.533  28.507  1.00  0.00     0.014 A 
ATOM     37  C   UNL A   1      40.997  27.017  27.305  1.00  0.00     0.014 A 
ATOM     38  C   UNL A   1      39.361  26.510  29.494  1.00  0.00     0.010 A 
ATOM     39  C   UNL A   1      40.988  27.896  28.374  1.00  0.00     0.010 A 
ATOM     40  C   UNL A   1      40.152  27.671  29.476  1.00  0.00    -0.014 A 
BRANCH  40  41
ATOM     41  C   UNL A   1      40.113  28.690  30.559  1.00  0.00     0.031 A 
ATOM     42  C   UNL A   1      41.028  28.535  31.752  1.00  0.00     0.074 A 
ATOM     43  C   UNL A   1      39.198  29.681  30.533  1.00  0.00     0.049 A 
ATOM     44  N   UNL A   1      41.042  29.199  32.878  1.00  0.00    -0.248 NA
ATOM     45  C   UNL A   1      42.015  27.442  31.697  1.00  0.00     0.031 C 
ATOM     46  C   UNL A   1      38.201  29.897  29.481  1.00  0.00     0.029 A 
ATOM     47  N   UNL A   1      38.950  30.693  31.427  1.00  0.00    -0.354 N 
ATOM     48  C   UNL A   1      41.996  28.572  33.671  1.00  0.00     0.074 A 
ATOM     49  C   UNL A   1      42.472  27.423  32.939  1.00  0.00     0.031 C 
ATOM     50  C   UNL A   1      37.484  30.996  29.766  1.00  0.00     0.029 A 
ATOM     51  C   UNL A   1      37.933  31.537  31.045  1.00  0.00     0.049 A 
ATOM     52  H   UNL A   1      39.453  30.804  32.267  1.00  0.00     0.167 HD
ATOM     53  C   UNL A   1      42.474  28.945  34.882  1.00  0.00     0.037 A 
ATOM     54  C   UNL A   1      37.421  32.624  31.656  1.00  0.00     0.037 A 
ATOM     55  C   UNL A   1      42.056  30.137  35.565  1.00  0.00     0.049 A 
ATOM     56  C   UNL A   1      38.004  33.055  32.976  1.00  0.00     0.074 A 
ATOM     57  C   UNL A   1      42.536  30.663  36.751  1.00  0.00     0.029 A 
ATOM     58  N   UNL A   1      41.069  31.000  35.111  1.00  0.00    -0.354 N 
ATOM     59  N   UNL A   1      38.954  32.488  33.681  1.00  0.00    -0.248 NA
ATOM     60  C   UNL A   1      37.454  34.276  33.579  1.00  0.00     0.031 C 
ATOM     61  C   UNL A   1      41.812  31.825  37.033  1.00  0.00     0.029 A 
ATOM     62  C   UNL A   1      40.916  32.049  35.999  1.00  0.00     0.049 A 
ATOM     63  H   UNL A   1      40.554  30.883  34.279  1.00  0.00     0.167 HD
ATOM     64  C   UNL A   1      39.135  33.297  34.796  1.00  0.00     0.074 A 
ATOM     65  C   UNL A   1      38.205  34.400  34.665  1.00  0.00     0.031 C 
ATOM     66  C   UNL A   1      39.993  33.144  35.837  1.00  0.00     0.037 A 
BRANCH  53  67
ATOM     67  C   UNL A   1      43.520  28.069  35.518  1.00  0.00     0.058 A 
ATOM     68  C   UNL A   1      44.889  28.227  35.240  1.00  0.00     0.135 A 
ATOM     69  C   UNL A   1      43.153  27.061  36.424  1.00  0.00     0.135 A 
ATOM     70  F   UNL A   1      45.298  29.163  34.368  1.00  0.00    -0.206 F 
ATOM     71  C   UNL A   1      45.849  27.391  35.798  1.00  0.00     0.059 A 
ATOM     72  C   UNL A   1      44.101  26.235  37.023  1.00  0.00     0.059 A 
ATOM     73  F   UNL A   1      41.861  26.862  36.729  1.00  0.00    -0.206 F 
ATOM     74  C   UNL A   1      45.445  26.397  36.689  1.00  0.00     0.060 A 
BRANCH  74  75
ATOM     75  S   UNL A   1      46.704  25.320  37.404  1.00  0.00     0.124 S 
ATOM     76  O   UNL A   1      46.021  24.828  38.597  1.00  0.00    -0.237 OA
ATOM     77  O   UNL A   1      46.912  24.339  36.344  1.00  0.00    -0.237 OA
ATOM     78  O   UNL A   1      47.825  26.223  37.649  1.00  0.00    -0.744 OA
ENDBRANCH  74  75
ENDBRANCH  53  67
BRANCH  54  79
ATOM     79  C   UNL A   1      36.332  33.404  31.007  1.00  0.00     0.058 A 
ATOM     80  C   UNL A   1      35.022  33.368  31.512  1.00  0.00     0.135 A 
ATOM     81  C   UNL A   1      36.575  34.217  29.889  1.00  0.00     0.135 A 
ATOM     82  F   UNL A   1      34.736  32.603  32.577  1.00  0.00    -0.206 F 
ATOM     83  C   UNL A   1      33.990  34.092  30.923  1.00  0.00     0.059 A 
ATOM     84  C   UNL A   1      35.565  34.971  29.298  1.00  0.00     0.059 A 
ATOM     85  F   UNL A   1      37.812  34.303  29.377  1.00  0.00    -0.206 F 
ATOM     86  C   UNL A   1      34.273  34.896  29.817  1.00  0.00     0.060 A 
BRANCH  86  87
ATOM     87  S   UNL A   1      32.937  35.876  29.096  1.00  0.00     0.124 S 
ATOM     88  O   UNL A   1      32.354  34.930  28.153  1.00  0.00    -0.237 OA
ATOM     89  O   UNL A   1      32.125  36.194  30.267  1.00  0.00    -0.237 OA
ATOM     90  O   UNL A   1      33.637  37.011  28.503  1.00  0.00    -0.744 OA
ENDBRANCH  86  87
ENDBRANCH  54  79
BRANCH  66  91
ATOM     91  C   UNL A   1      39.999  34.213  36.892  1.00  0.00     0.058 A 
ATOM     92  C   UNL A   1      39.091  34.199  37.962  1.00  0.00     0.135 A 
ATOM     93  C   UNL A   1      40.976  35.222  36.871  1.00  0.00     0.135 A 
ATOM     94  F   UNL A   1      38.137  33.258  38.026  1.00  0.00    -0.206 F 
ATOM     95  C   UNL A   1      39.137  35.162  38.963  1.00  0.00     0.059 A 
ATOM     96  C   UNL A   1      41.059  36.177  37.877  1.00  0.00     0.059 A 
ATOM     97  F   UNL A   1      41.877  35.271  35.876  1.00  0.00    -0.206 F 
ATOM     98  C   UNL A   1      40.129  36.145  38.915  1.00  0.00     0.060 A 
BRANCH  98  99
ATOM     99  S   UNL A   1      40.203  37.364  40.243  1.00  0.00     0.124 S 
ATOM    100  O   UNL A   1      38.806  37.433  40.657  1.00  0.00    -0.237 OA
ATOM    101  O   UNL A   1      41.116  36.734  41.192  1.00  0.00    -0.237 OA
ATOM    102  O   UNL A   1      40.722  38.557  39.581  1.00  0.00    -0.744 OA
ENDBRANCH  98  99
ENDBRANCH  66  91
ENDBRANCH  40  41
ENDBRANCH  32  35
ENDBRANCH  30  31
ENDBRANCH   1  30
TORSDOF 16
ENDMDL
