MODEL 1
REMARK VINA RESULT:     -11.2      0.000      0.000
REMARK SMILES CC(C)[C@@H](C)[N@@H+]1[C@@H](C(=O)NCCCNC(=O)c2ccc(-c3c4nc(c(-c5c(F)cc(S(=O)(=O)[O-])cc5F)c5ccc([nH]5)c(-c5c(F)cc(S(=O)(=O)[O-])cc5F)c5nc(c(-c6c(F)cc(S(=O)(=O)[O-])cc6F)c6ccc3[nH]6)C=C5)C=C4)cc2)C[C@H]2CCCC[C@H]21
REMARK SMILES IDX 12 1 11 2 10 3 8 4 9 5 7 7 6 8 89 9 83 11 84 12 88 13 85 14
REMARK SMILES IDX 87 15 86 16 4 17 5 18 2 19 1 20 3 21 13 22 14 23 15 24 16 26
REMARK SMILES IDX 17 27 18 28 82 29 19 30 81 31 20 32 21 33 22 34 75 35 23 36
REMARK SMILES IDX 80 37 74 38 76 39 24 40 79 41 73 42 72 43 25 45 59 46 38 47
REMARK SMILES IDX 58 48 39 49 42 50 57 51 77 52 40 53 41 54 56 56 78 57 43 58
REMARK SMILES IDX 26 59 27 60 36 61 28 62 29 63 35 64 37 65 30 66 31 67 32 68
REMARK SMILES IDX 33 69 34 70 60 71 61 72 70 73 62 74 63 75 69 76 71 77 64 78
REMARK SMILES IDX 65 79 66 80 67 81 68 82 44 83 45 84 54 85 46 86 47 87 53 88
REMARK SMILES IDX 55 89 48 90 49 91 50 92 51 93 52 94
REMARK H PARENT 10 6 6 10 14 25 76 44 42 55
REMARK Flexibility Score: inf
ROOT
ATOM      1  C   UNL A   1      32.236  27.604  27.482  1.00  0.00     0.042 C 
ENDROOT
BRANCH   1   2
ATOM      2  C   UNL A   1      31.712  26.654  26.425  1.00  0.00     0.118 C 
BRANCH   2   3
ATOM      3  N   UNL A   1      31.400  25.336  26.942  1.00  0.00    -0.351 N 
ATOM      4  C   UNL A   1      32.018  24.134  26.725  1.00  0.00     0.278 C 
ATOM      5  O   UNL A   1      31.543  23.158  27.312  1.00  0.00    -0.268 OA
ATOM      6  H   UNL A   1      30.621  25.300  27.544  1.00  0.00     0.163 HD
BRANCH   4   7
ATOM      7  C   UNL A   1      33.192  24.047  25.711  1.00  0.00     0.275 C 
ATOM      8  N   UNL A   1      32.663  23.807  24.325  1.00  0.00    -0.320 N 
ATOM      9  C   UNL A   1      32.986  22.382  24.034  1.00  0.00     0.188 C 
ATOM     10  H   UNL A   1      31.658  23.982  24.298  1.00  0.00     0.349 HD
ATOM     11  C   UNL A   1      34.187  22.916  25.990  1.00  0.00     0.085 C 
ATOM     12  C   UNL A   1      34.347  22.180  24.682  1.00  0.00     0.054 C 
ATOM     13  C   UNL A   1      31.910  21.432  24.611  1.00  0.00     0.065 C 
ATOM     14  C   UNL A   1      34.776  20.725  24.851  1.00  0.00     0.010 C 
ATOM     15  C   UNL A   1      32.380  19.980  24.700  1.00  0.00     0.006 C 
ATOM     16  C   UNL A   1      33.692  19.847  25.464  1.00  0.00     0.001 C 
BRANCH   8  17
ATOM     17  C   UNL A   1      33.115  24.772  23.275  1.00  0.00     0.184 C 
ATOM     18  C   UNL A   1      34.058  25.875  23.823  1.00  0.00     0.075 C 
BRANCH  17  19
ATOM     19  C   UNL A   1      31.902  25.489  22.560  1.00  0.00     0.041 C 
ATOM     20  C   UNL A   1      30.543  25.090  23.171  1.00  0.00     0.013 C 
ATOM     21  C   UNL A   1      31.959  27.020  22.571  1.00  0.00     0.013 C 
ENDBRANCH  17  19
ENDBRANCH   8  17
ENDBRANCH   4   7
ENDBRANCH   2   3
ENDBRANCH   1   2
BRANCH   1  22
ATOM     22  C   UNL A   1      33.483  28.356  27.057  1.00  0.00     0.118 C 
BRANCH  22  23
ATOM     23  N   UNL A   1      33.433  29.769  27.413  1.00  0.00    -0.352 N 
ATOM     24  C   UNL A   1      34.365  30.563  28.040  1.00  0.00     0.251 C 
ATOM     25  H   UNL A   1      32.600  30.229  27.165  1.00  0.00     0.163 HD
ATOM     26  O   UNL A   1      34.039  31.676  28.439  1.00  0.00    -0.269 OA
BRANCH  24  27
ATOM     27  C   UNL A   1      35.741  30.066  28.252  1.00  0.00     0.039 A 
ATOM     28  C   UNL A   1      36.657  30.124  27.200  1.00  0.00     0.014 A 
ATOM     29  C   UNL A   1      36.128  29.543  29.487  1.00  0.00     0.014 A 
ATOM     30  C   UNL A   1      37.980  29.730  27.414  1.00  0.00     0.010 A 
ATOM     31  C   UNL A   1      37.466  29.265  29.732  1.00  0.00     0.010 A 
ATOM     32  C   UNL A   1      38.405  29.341  28.695  1.00  0.00    -0.014 A 
BRANCH  32  33
ATOM     33  C   UNL A   1      39.821  28.989  28.973  1.00  0.00     0.031 A 
ATOM     34  C   UNL A   1      40.753  30.026  29.544  1.00  0.00     0.074 A 
ATOM     35  C   UNL A   1      40.281  27.764  28.649  1.00  0.00     0.049 A 
ATOM     36  N   UNL A   1      42.037  29.942  29.778  1.00  0.00    -0.248 NA
ATOM     37  C   UNL A   1      40.171  31.341  29.866  1.00  0.00     0.031 C 
ATOM     38  C   UNL A   1      39.488  26.694  28.039  1.00  0.00     0.029 A 
ATOM     39  N   UNL A   1      41.532  27.216  28.777  1.00  0.00    -0.354 N 
ATOM     40  C   UNL A   1      42.415  31.190  30.262  1.00  0.00     0.074 A 
ATOM     41  C   UNL A   1      41.242  32.034  30.220  1.00  0.00     0.031 C 
ATOM     42  C   UNL A   1      40.263  25.611  27.873  1.00  0.00     0.029 A 
ATOM     43  C   UNL A   1      41.617  25.920  28.318  1.00  0.00     0.049 A 
ATOM     44  H   UNL A   1      42.297  27.701  29.160  1.00  0.00     0.167 HD
ATOM     45  C   UNL A   1      43.621  31.587  30.730  1.00  0.00     0.037 A 
ATOM     46  C   UNL A   1      42.670  25.083  28.253  1.00  0.00     0.037 A 
ATOM     47  C   UNL A   1      44.778  30.733  30.787  1.00  0.00     0.049 A 
ATOM     48  C   UNL A   1      44.007  25.554  28.764  1.00  0.00     0.074 A 
ATOM     49  C   UNL A   1      46.037  31.023  31.284  1.00  0.00     0.029 A 
ATOM     50  N   UNL A   1      44.819  29.422  30.333  1.00  0.00    -0.354 N 
ATOM     51  N   UNL A   1      44.331  26.717  29.277  1.00  0.00    -0.248 NA
ATOM     52  C   UNL A   1      45.118  24.596  28.695  1.00  0.00     0.031 C 
ATOM     53  C   UNL A   1      46.852  29.904  31.086  1.00  0.00     0.029 A 
ATOM     54  C   UNL A   1      46.086  28.897  30.520  1.00  0.00     0.049 A 
ATOM     55  H   UNL A   1      44.060  28.938  29.937  1.00  0.00     0.167 HD
ATOM     56  C   UNL A   1      45.674  26.620  29.621  1.00  0.00     0.074 A 
ATOM     57  C   UNL A   1      46.098  25.280  29.272  1.00  0.00     0.031 C 
ATOM     58  C   UNL A   1      46.486  27.554  30.179  1.00  0.00     0.037 A 
BRANCH  45  59
ATOM     59  C   UNL A   1      43.745  33.002  31.230  1.00  0.00     0.058 A 
ATOM     60  C   UNL A   1      43.374  33.355  32.538  1.00  0.00     0.135 A 
ATOM     61  C   UNL A   1      44.272  34.010  30.406  1.00  0.00     0.135 A 
ATOM     62  F   UNL A   1      42.850  32.437  33.364  1.00  0.00    -0.206 F 
ATOM     63  C   UNL A   1      43.492  34.661  33.001  1.00  0.00     0.059 A 
ATOM     64  C   UNL A   1      44.428  35.317  30.859  1.00  0.00     0.059 A 
ATOM     65  F   UNL A   1      44.641  33.730  29.147  1.00  0.00    -0.206 F 
ATOM     66  C   UNL A   1      44.022  35.636  32.154  1.00  0.00     0.060 A 
BRANCH  66  67
ATOM     67  S   UNL A   1      44.176  37.323  32.776  1.00  0.00     0.124 S 
ATOM     68  O   UNL A   1      43.229  37.310  33.887  1.00  0.00    -0.237 OA
ATOM     69  O   UNL A   1      45.585  37.390  33.147  1.00  0.00    -0.237 OA
ATOM     70  O   UNL A   1      43.790  38.145  31.634  1.00  0.00    -0.744 OA
ENDBRANCH  66  67
ENDBRANCH  45  59
BRANCH  46  71
ATOM     71  C   UNL A   1      42.504  23.713  27.699  1.00  0.00     0.058 A 
ATOM     72  C   UNL A   1      42.375  22.600  28.544  1.00  0.00     0.135 A 
ATOM     73  C   UNL A   1      42.478  23.484  26.313  1.00  0.00     0.135 A 
ATOM     74  F   UNL A   1      42.397  22.764  29.875  1.00  0.00    -0.206 F 
ATOM     75  C   UNL A   1      42.253  21.309  28.039  1.00  0.00     0.059 A 
ATOM     76  C   UNL A   1      42.327  22.206  25.784  1.00  0.00     0.059 A 
ATOM     77  F   UNL A   1      42.578  24.514  25.459  1.00  0.00    -0.206 F 
ATOM     78  C   UNL A   1      42.231  21.123  26.656  1.00  0.00     0.060 A 
BRANCH  78  79
ATOM     79  S   UNL A   1      42.047  19.446  26.011  1.00  0.00     0.124 S 
ATOM     80  O   UNL A   1      42.875  19.500  24.812  1.00  0.00    -0.237 OA
ATOM     81  O   UNL A   1      42.564  18.637  27.111  1.00  0.00    -0.237 OA
ATOM     82  O   UNL A   1      40.609  19.332  25.781  1.00  0.00    -0.744 OA
ENDBRANCH  78  79
ENDBRANCH  46  71
BRANCH  58  83
ATOM     83  C   UNL A   1      47.901  27.148  30.488  1.00  0.00     0.058 A 
ATOM     84  C   UNL A   1      48.959  27.416  29.606  1.00  0.00     0.135 A 
ATOM     85  C   UNL A   1      48.207  26.527  31.710  1.00  0.00     0.135 A 
ATOM     86  F   UNL A   1      48.720  28.001  28.421  1.00  0.00    -0.206 F 
ATOM     87  C   UNL A   1      50.268  27.060  29.913  1.00  0.00     0.059 A 
ATOM     88  C   UNL A   1      49.513  26.191  32.052  1.00  0.00     0.059 A 
ATOM     89  F   UNL A   1      47.234  26.258  32.595  1.00  0.00    -0.206 F 
ATOM     90  C   UNL A   1      50.536  26.451  31.141  1.00  0.00     0.060 A 
BRANCH  90  91
ATOM     91  S   UNL A   1      52.243  26.025  31.541  1.00  0.00     0.124 S 
ATOM     92  O   UNL A   1      52.093  24.677  32.079  1.00  0.00    -0.237 OA
ATOM     93  O   UNL A   1      52.900  26.119  30.241  1.00  0.00    -0.237 OA
ATOM     94  O   UNL A   1      52.632  27.047  32.508  1.00  0.00    -0.744 OA
ENDBRANCH  90  91
ENDBRANCH  58  83
ENDBRANCH  32  33
ENDBRANCH  24  27
ENDBRANCH  22  23
ENDBRANCH   1  22
TORSDOF 15
ENDMDL
MODEL 2
REMARK VINA RESULT:     -11.1      0.868      1.447
REMARK SMILES CC(C)[C@@H](C)[N@@H+]1[C@@H](C(=O)NCCCNC(=O)c2ccc(-c3c4nc(c(-c5c(F)cc(S(=O)(=O)[O-])cc5F)c5ccc([nH]5)c(-c5c(F)cc(S(=O)(=O)[O-])cc5F)c5nc(c(-c6c(F)cc(S(=O)(=O)[O-])cc6F)c6ccc3[nH]6)C=C5)C=C4)cc2)C[C@H]2CCCC[C@H]21
REMARK SMILES IDX 12 1 11 2 10 3 8 4 9 5 7 7 6 8 89 9 83 11 84 12 88 13 85 14
REMARK SMILES IDX 87 15 86 16 4 17 5 18 2 19 1 20 3 21 13 22 14 23 15 24 16 26
REMARK SMILES IDX 17 27 18 28 82 29 19 30 81 31 20 32 21 33 22 34 75 35 23 36
REMARK SMILES IDX 80 37 74 38 76 39 24 40 79 41 73 42 72 43 25 45 59 46 38 47
REMARK SMILES IDX 58 48 39 49 42 50 57 51 77 52 40 53 41 54 56 56 78 57 43 58
REMARK SMILES IDX 26 59 27 60 36 61 28 62 29 63 35 64 37 65 30 66 31 67 32 68
REMARK SMILES IDX 33 69 34 70 60 71 61 72 70 73 62 74 63 75 69 76 71 77 64 78
REMARK SMILES IDX 65 79 66 80 67 81 68 82 44 83 45 84 54 85 46 86 47 87 53 88
REMARK SMILES IDX 55 89 48 90 49 91 50 92 51 93 52 94
REMARK H PARENT 10 6 6 10 14 25 76 44 42 55
REMARK Flexibility Score: inf
ROOT
ATOM      1  C   UNL A   1      34.005  28.557  25.268  1.00  0.00     0.042 C 
ENDROOT
BRANCH   1   2
ATOM      2  C   UNL A   1      33.629  27.276  24.554  1.00  0.00     0.118 C 
BRANCH   2   3
ATOM      3  N   UNL A   1      34.249  26.097  25.127  1.00  0.00    -0.351 N 
ATOM      4  C   UNL A   1      34.176  24.786  24.741  1.00  0.00     0.278 C 
ATOM      5  O   UNL A   1      34.826  23.978  25.411  1.00  0.00    -0.268 OA
ATOM      6  H   UNL A   1      34.811  26.266  25.918  1.00  0.00     0.163 HD
BRANCH   4   7
ATOM      7  C   UNL A   1      33.236  24.381  23.571  1.00  0.00     0.275 C 
ATOM      8  N   UNL A   1      31.820  24.275  24.058  1.00  0.00    -0.320 N 
ATOM      9  C   UNL A   1      31.540  22.812  24.106  1.00  0.00     0.188 C 
ATOM     10  H   UNL A   1      31.730  24.709  24.978  1.00  0.00     0.349 HD
ATOM     11  C   UNL A   1      33.570  23.031  22.929  1.00  0.00     0.085 C 
ATOM     12  C   UNL A   1      32.270  22.265  22.889  1.00  0.00     0.054 C 
ATOM     13  C   UNL A   1      32.044  22.186  25.428  1.00  0.00     0.065 C 
ATOM     14  C   UNL A   1      32.457  20.751  22.870  1.00  0.00     0.010 C 
ATOM     15  C   UNL A   1      32.152  20.662  25.363  1.00  0.00     0.006 C 
ATOM     16  C   UNL A   1      32.996  20.196  24.183  1.00  0.00     0.001 C 
BRANCH   8  17
ATOM     17  C   UNL A   1      30.805  25.075  23.305  1.00  0.00     0.184 C 
ATOM     18  C   UNL A   1      31.419  25.908  22.148  1.00  0.00     0.075 C 
BRANCH  17  19
ATOM     19  C   UNL A   1      30.009  26.068  24.241  1.00  0.00     0.041 C 
ATOM     20  C   UNL A   1      30.419  25.930  25.722  1.00  0.00     0.013 C 
ATOM     21  C   UNL A   1      30.150  27.550  23.880  1.00  0.00     0.013 C 
ENDBRANCH  17  19
ENDBRANCH   8  17
ENDBRANCH   4   7
ENDBRANCH   2   3
ENDBRANCH   1   2
BRANCH   1  22
ATOM     22  C   UNL A   1      33.736  28.522  26.760  1.00  0.00     0.118 C 
BRANCH  22  23
ATOM     23  N   UNL A   1      33.630  29.854  27.343  1.00  0.00    -0.352 N 
ATOM     24  C   UNL A   1      34.508  30.550  28.139  1.00  0.00     0.251 C 
ATOM     25  H   UNL A   1      32.796  30.332  27.132  1.00  0.00     0.163 HD
ATOM     26  O   UNL A   1      34.133  31.574  28.700  1.00  0.00    -0.269 OA
BRANCH  24  27
ATOM     27  C   UNL A   1      35.887  30.052  28.335  1.00  0.00     0.039 A 
ATOM     28  C   UNL A   1      36.788  30.100  27.269  1.00  0.00     0.014 A 
ATOM     29  C   UNL A   1      36.291  29.539  29.568  1.00  0.00     0.014 A 
ATOM     30  C   UNL A   1      38.113  29.706  27.467  1.00  0.00     0.010 A 
ATOM     31  C   UNL A   1      37.632  29.260  29.796  1.00  0.00     0.010 A 
ATOM     32  C   UNL A   1      38.556  29.327  28.745  1.00  0.00    -0.014 A 
BRANCH  32  33
ATOM     33  C   UNL A   1      39.975  28.974  29.005  1.00  0.00     0.031 A 
ATOM     34  C   UNL A   1      40.914  30.011  29.567  1.00  0.00     0.074 A 
ATOM     35  C   UNL A   1      40.431  27.750  28.674  1.00  0.00     0.049 A 
ATOM     36  N   UNL A   1      42.200  29.926  29.785  1.00  0.00    -0.248 NA
ATOM     37  C   UNL A   1      40.336  31.325  29.897  1.00  0.00     0.031 C 
ATOM     38  C   UNL A   1      39.631  26.680  28.072  1.00  0.00     0.029 A 
ATOM     39  N   UNL A   1      41.683  27.201  28.785  1.00  0.00    -0.354 N 
ATOM     40  C   UNL A   1      42.585  31.173  30.266  1.00  0.00     0.074 A 
ATOM     41  C   UNL A   1      41.411  32.017  30.240  1.00  0.00     0.031 C 
ATOM     42  C   UNL A   1      40.404  25.598  27.894  1.00  0.00     0.029 A 
ATOM     43  C   UNL A   1      41.763  25.907  28.323  1.00  0.00     0.049 A 
ATOM     44  H   UNL A   1      42.454  27.686  29.160  1.00  0.00     0.167 HD
ATOM     45  C   UNL A   1      43.796  31.569  30.720  1.00  0.00     0.037 A 
ATOM     46  C   UNL A   1      42.816  25.070  28.244  1.00  0.00     0.037 A 
ATOM     47  C   UNL A   1      44.954  30.716  30.762  1.00  0.00     0.049 A 
ATOM     48  C   UNL A   1      44.158  25.540  28.740  1.00  0.00     0.074 A 
ATOM     49  C   UNL A   1      46.218  31.005  31.244  1.00  0.00     0.029 A 
ATOM     50  N   UNL A   1      44.990  29.406  30.305  1.00  0.00    -0.354 N 
ATOM     51  N   UNL A   1      44.489  26.702  29.251  1.00  0.00    -0.248 NA
ATOM     52  C   UNL A   1      45.269  24.583  28.656  1.00  0.00     0.031 C 
ATOM     53  C   UNL A   1      47.031  29.886  31.034  1.00  0.00     0.029 A 
ATOM     54  C   UNL A   1      46.259  28.880  30.476  1.00  0.00     0.049 A 
ATOM     55  H   UNL A   1      44.225  28.922  29.918  1.00  0.00     0.167 HD
ATOM     56  C   UNL A   1      45.836  26.605  29.579  1.00  0.00     0.074 A 
ATOM     57  C   UNL A   1      46.255  25.265  29.222  1.00  0.00     0.031 C 
ATOM     58  C   UNL A   1      46.654  27.538  30.127  1.00  0.00     0.037 A 
BRANCH  45  59
ATOM     59  C   UNL A   1      43.926  32.983  31.221  1.00  0.00     0.058 A 
ATOM     60  C   UNL A   1      43.721  33.307  32.573  1.00  0.00     0.135 A 
ATOM     61  C   UNL A   1      44.293  34.022  30.349  1.00  0.00     0.135 A 
ATOM     62  F   UNL A   1      43.353  32.359  33.448  1.00  0.00    -0.206 F 
ATOM     63  C   UNL A   1      43.844  34.613  33.035  1.00  0.00     0.059 A 
ATOM     64  C   UNL A   1      44.452  35.331  30.798  1.00  0.00     0.059 A 
ATOM     65  F   UNL A   1      44.499  33.771  29.047  1.00  0.00    -0.206 F 
ATOM     66  C   UNL A   1      44.212  35.619  32.140  1.00  0.00     0.060 A 
BRANCH  66  67
ATOM     67  S   UNL A   1      44.377  37.304  32.762  1.00  0.00     0.124 S 
ATOM     68  O   UNL A   1      44.277  38.080  31.530  1.00  0.00    -0.237 OA
ATOM     69  O   UNL A   1      43.242  37.413  33.672  1.00  0.00    -0.237 OA
ATOM     70  O   UNL A   1      45.691  37.306  33.399  1.00  0.00    -0.744 OA
ENDBRANCH  66  67
ENDBRANCH  45  59
BRANCH  46  71
ATOM     71  C   UNL A   1      42.643  23.700  27.690  1.00  0.00     0.058 A 
ATOM     72  C   UNL A   1      42.395  22.605  28.530  1.00  0.00     0.135 A 
ATOM     73  C   UNL A   1      42.729  23.456  26.309  1.00  0.00     0.135 A 
ATOM     74  F   UNL A   1      42.306  22.784  29.856  1.00  0.00    -0.206 F 
ATOM     75  C   UNL A   1      42.265  21.313  28.028  1.00  0.00     0.059 A 
ATOM     76  C   UNL A   1      42.573  22.178  25.780  1.00  0.00     0.059 A 
ATOM     77  F   UNL A   1      42.946  24.470  25.458  1.00  0.00    -0.206 F 
ATOM     78  C   UNL A   1      42.357  21.111  26.651  1.00  0.00     0.060 A 
BRANCH  78  79
ATOM     79  S   UNL A   1      42.161  19.435  26.007  1.00  0.00     0.124 S 
ATOM     80  O   UNL A   1      42.640  18.632  27.126  1.00  0.00    -0.237 OA
ATOM     81  O   UNL A   1      40.726  19.374  25.743  1.00  0.00    -0.237 OA
ATOM     82  O   UNL A   1      43.009  19.432  24.818  1.00  0.00    -0.744 OA
ENDBRANCH  78  79
ENDBRANCH  46  71
BRANCH  58  83
ATOM     83  C   UNL A   1      48.073  27.131  30.419  1.00  0.00     0.058 A 
ATOM     84  C   UNL A   1      49.110  27.346  29.498  1.00  0.00     0.135 A 
ATOM     85  C   UNL A   1      48.405  26.565  31.661  1.00  0.00     0.135 A 
ATOM     86  F   UNL A   1      48.846  27.877  28.294  1.00  0.00    -0.206 F 
ATOM     87  C   UNL A   1      50.423  26.990  29.787  1.00  0.00     0.059 A 
ATOM     88  C   UNL A   1      49.716  26.232  31.985  1.00  0.00     0.059 A 
ATOM     89  F   UNL A   1      47.454  26.349  32.583  1.00  0.00    -0.206 F 
ATOM     90  C   UNL A   1      50.717  26.437  31.036  1.00  0.00     0.060 A 
BRANCH  90  91
ATOM     91  S   UNL A   1      52.430  26.012  31.411  1.00  0.00     0.124 S 
ATOM     92  O   UNL A   1      52.791  27.057  32.363  1.00  0.00    -0.237 OA
ATOM     93  O   UNL A   1      52.304  24.667  31.964  1.00  0.00    -0.237 OA
ATOM     94  O   UNL A   1      53.093  26.089  30.113  1.00  0.00    -0.744 OA
ENDBRANCH  90  91
ENDBRANCH  58  83
ENDBRANCH  32  33
ENDBRANCH  24  27
ENDBRANCH  22  23
ENDBRANCH   1  22
TORSDOF 15
ENDMDL
MODEL 3
REMARK VINA RESULT:     -11.1      4.766     10.350
REMARK SMILES CC(C)[C@@H](C)[N@@H+]1[C@@H](C(=O)NCCCNC(=O)c2ccc(-c3c4nc(c(-c5c(F)cc(S(=O)(=O)[O-])cc5F)c5ccc([nH]5)c(-c5c(F)cc(S(=O)(=O)[O-])cc5F)c5nc(c(-c6c(F)cc(S(=O)(=O)[O-])cc6F)c6ccc3[nH]6)C=C5)C=C4)cc2)C[C@H]2CCCC[C@H]21
REMARK SMILES IDX 12 1 11 2 10 3 8 4 9 5 7 7 6 8 89 9 83 11 84 12 88 13 85 14
REMARK SMILES IDX 87 15 86 16 4 17 5 18 2 19 1 20 3 21 13 22 14 23 15 24 16 26
REMARK SMILES IDX 17 27 18 28 82 29 19 30 81 31 20 32 21 33 22 34 75 35 23 36
REMARK SMILES IDX 80 37 74 38 76 39 24 40 79 41 73 42 72 43 25 45 59 46 38 47
REMARK SMILES IDX 58 48 39 49 42 50 57 51 77 52 40 53 41 54 56 56 78 57 43 58
REMARK SMILES IDX 26 59 27 60 36 61 28 62 29 63 35 64 37 65 30 66 31 67 32 68
REMARK SMILES IDX 33 69 34 70 60 71 61 72 70 73 62 74 63 75 69 76 71 77 64 78
REMARK SMILES IDX 65 79 66 80 67 81 68 82 44 83 45 84 54 85 46 86 47 87 53 88
REMARK SMILES IDX 55 89 48 90 49 91 50 92 51 93 52 94
REMARK H PARENT 10 6 6 10 14 25 76 44 42 55
REMARK Flexibility Score: inf
ROOT
ATOM      1  C   UNL A   1      38.451  23.461  26.128  1.00  0.00     0.042 C 
ENDROOT
BRANCH   1   2
ATOM      2  C   UNL A   1      37.913  22.212  25.462  1.00  0.00     0.118 C 
BRANCH   2   3
ATOM      3  N   UNL A   1      37.285  22.471  24.180  1.00  0.00    -0.351 N 
ATOM      4  C   UNL A   1      36.039  22.959  23.891  1.00  0.00     0.278 C 
ATOM      5  O   UNL A   1      35.766  23.094  22.695  1.00  0.00    -0.268 OA
ATOM      6  H   UNL A   1      37.843  22.263  23.396  1.00  0.00     0.163 HD
BRANCH   4   7
ATOM      7  C   UNL A   1      35.031  23.223  25.043  1.00  0.00     0.275 C 
ATOM      8  N   UNL A   1      33.629  22.959  24.576  1.00  0.00    -0.320 N 
ATOM      9  C   UNL A   1      33.016  24.308  24.424  1.00  0.00     0.188 C 
ATOM     10  H   UNL A   1      33.643  22.446  23.694  1.00  0.00     0.349 HD
ATOM     11  C   UNL A   1      35.041  24.660  25.576  1.00  0.00     0.085 C 
ATOM     12  C   UNL A   1      33.598  25.103  25.582  1.00  0.00     0.054 C 
ATOM     13  C   UNL A   1      33.358  24.929  23.049  1.00  0.00     0.065 C 
ATOM     14  C   UNL A   1      33.426  26.616  25.484  1.00  0.00     0.010 C 
ATOM     15  C   UNL A   1      33.108  26.437  22.997  1.00  0.00     0.006 C 
ATOM     16  C   UNL A   1      33.820  27.177  24.123  1.00  0.00     0.001 C 
BRANCH   8  17
ATOM     17  C   UNL A   1      32.830  22.005  25.406  1.00  0.00     0.184 C 
ATOM     18  C   UNL A   1      33.647  21.366  26.561  1.00  0.00     0.075 C 
BRANCH  17  19
ATOM     19  C   UNL A   1      32.215  20.831  24.546  1.00  0.00     0.041 C 
ATOM     20  C   UNL A   1      32.321  21.100  23.031  1.00  0.00     0.013 C 
ATOM     21  C   UNL A   1      32.837  19.453  24.795  1.00  0.00     0.013 C 
ENDBRANCH  17  19
ENDBRANCH   8  17
ENDBRANCH   4   7
ENDBRANCH   2   3
ENDBRANCH   1   2
BRANCH   1  22
ATOM     22  C   UNL A   1      39.727  23.227  26.914  1.00  0.00     0.118 C 
BRANCH  22  23
ATOM     23  N   UNL A   1      40.921  23.623  26.176  1.00  0.00    -0.352 N 
ATOM     24  C   UNL A   1      41.629  24.801  26.194  1.00  0.00     0.251 C 
ATOM     25  H   UNL A   1      41.276  22.936  25.568  1.00  0.00     0.163 HD
ATOM     26  O   UNL A   1      42.480  25.007  25.335  1.00  0.00    -0.269 OA
BRANCH  24  27
ATOM     27  C   UNL A   1      41.348  25.820  27.228  1.00  0.00     0.039 A 
ATOM     28  C   UNL A   1      40.385  25.554  28.204  1.00  0.00     0.014 A 
ATOM     29  C   UNL A   1      42.033  27.036  27.235  1.00  0.00     0.014 A 
ATOM     30  C   UNL A   1      40.170  26.478  29.230  1.00  0.00     0.010 A 
ATOM     31  C   UNL A   1      41.904  27.897  28.317  1.00  0.00     0.010 A 
ATOM     32  C   UNL A   1      40.960  27.635  29.319  1.00  0.00    -0.014 A 
BRANCH  32  33
ATOM     33  C   UNL A   1      40.808  28.599  30.439  1.00  0.00     0.031 A 
ATOM     34  C   UNL A   1      41.673  28.466  31.665  1.00  0.00     0.074 A 
ATOM     35  C   UNL A   1      39.850  29.545  30.380  1.00  0.00     0.049 A 
ATOM     36  N   UNL A   1      41.637  29.151  32.779  1.00  0.00    -0.248 NA
ATOM     37  C   UNL A   1      42.693  27.403  31.651  1.00  0.00     0.031 C 
ATOM     38  C   UNL A   1      38.914  29.737  29.270  1.00  0.00     0.029 A 
ATOM     39  N   UNL A   1      39.495  30.517  31.282  1.00  0.00    -0.354 N 
ATOM     40  C   UNL A   1      42.617  28.597  33.596  1.00  0.00     0.074 A 
ATOM     41  C   UNL A   1      43.180  27.474  32.879  1.00  0.00     0.031 C 
ATOM     42  C   UNL A   1      38.113  30.780  29.543  1.00  0.00     0.029 A 
ATOM     43  C   UNL A   1      38.443  31.301  30.864  1.00  0.00     0.049 A 
ATOM     44  H   UNL A   1      39.950  30.643  32.146  1.00  0.00     0.167 HD
ATOM     45  C   UNL A   1      43.033  29.006  34.817  1.00  0.00     0.037 A 
ATOM     46  C   UNL A   1      37.811  32.316  31.483  1.00  0.00     0.037 A 
ATOM     47  C   UNL A   1      42.480  30.137  35.513  1.00  0.00     0.049 A 
ATOM     48  C   UNL A   1      38.281  32.742  32.850  1.00  0.00     0.074 A 
ATOM     49  C   UNL A   1      42.859  30.663  36.736  1.00  0.00     0.029 A 
ATOM     50  N   UNL A   1      41.431  30.919  35.049  1.00  0.00    -0.354 N 
ATOM     51  N   UNL A   1      39.251  32.246  33.581  1.00  0.00    -0.248 NA
ATOM     52  C   UNL A   1      37.575  33.869  33.472  1.00  0.00     0.031 C 
ATOM     53  C   UNL A   1      42.007  31.732  37.033  1.00  0.00     0.029 A 
ATOM     54  C   UNL A   1      41.136  31.910  35.970  1.00  0.00     0.049 A 
ATOM     55  H   UNL A   1      40.966  30.787  34.192  1.00  0.00     0.167 HD
ATOM     56  C   UNL A   1      39.293  33.021  34.734  1.00  0.00     0.074 A 
ATOM     57  C   UNL A   1      38.261  34.028  34.596  1.00  0.00     0.031 C 
ATOM     58  C   UNL A   1      40.113  32.913  35.809  1.00  0.00     0.037 A 
BRANCH  45  59
ATOM     59  C   UNL A   1      44.148  28.233  35.469  1.00  0.00     0.058 A 
ATOM     60  C   UNL A   1      43.889  27.167  36.346  1.00  0.00     0.135 A 
ATOM     61  C   UNL A   1      45.491  28.537  35.189  1.00  0.00     0.135 A 
ATOM     62  F   UNL A   1      42.626  26.843  36.663  1.00  0.00    -0.206 F 
ATOM     63  C   UNL A   1      44.919  26.451  36.946  1.00  0.00     0.059 A 
ATOM     64  C   UNL A   1      46.537  27.812  35.754  1.00  0.00     0.059 A 
ATOM     65  F   UNL A   1      45.797  29.547  34.361  1.00  0.00    -0.206 F 
ATOM     66  C   UNL A   1      46.241  26.780  36.643  1.00  0.00     0.060 A 
BRANCH  66  67
ATOM     67  S   UNL A   1      47.563  25.832  37.423  1.00  0.00     0.124 S 
ATOM     68  O   UNL A   1      47.472  24.563  36.706  1.00  0.00    -0.237 OA
ATOM     69  O   UNL A   1      48.741  26.641  37.130  1.00  0.00    -0.237 OA
ATOM     70  O   UNL A   1      47.169  25.788  38.827  1.00  0.00    -0.744 OA
ENDBRANCH  66  67
ENDBRANCH  45  59
BRANCH  46  71
ATOM     71  C   UNL A   1      36.677  33.010  30.815  1.00  0.00     0.058 A 
ATOM     72  C   UNL A   1      36.897  33.888  29.742  1.00  0.00     0.135 A 
ATOM     73  C   UNL A   1      35.352  32.817  31.237  1.00  0.00     0.135 A 
ATOM     74  F   UNL A   1      38.145  34.110  29.303  1.00  0.00    -0.206 F 
ATOM     75  C   UNL A   1      35.850  34.570  29.130  1.00  0.00     0.059 A 
ATOM     76  C   UNL A   1      34.285  33.464  30.621  1.00  0.00     0.059 A 
ATOM     77  F   UNL A   1      35.083  31.973  32.245  1.00  0.00    -0.206 F 
ATOM     78  C   UNL A   1      34.547  34.351  29.578  1.00  0.00     0.060 A 
BRANCH  78  79
ATOM     79  S   UNL A   1      33.192  35.221  28.760  1.00  0.00     0.124 S 
ATOM     80  O   UNL A   1      32.378  35.634  29.898  1.00  0.00    -0.237 OA
ATOM     81  O   UNL A   1      33.896  36.289  28.055  1.00  0.00    -0.237 OA
ATOM     82  O   UNL A   1      32.605  34.195  27.903  1.00  0.00    -0.744 OA
ENDBRANCH  78  79
ENDBRANCH  46  71
BRANCH  58  83
ATOM     83  C   UNL A   1      39.960  33.934  36.903  1.00  0.00     0.058 A 
ATOM     84  C   UNL A   1      40.643  35.160  36.875  1.00  0.00     0.135 A 
ATOM     85  C   UNL A   1      39.077  33.700  37.970  1.00  0.00     0.135 A 
ATOM     86  F   UNL A   1      41.505  35.430  35.883  1.00  0.00    -0.206 F 
ATOM     87  C   UNL A   1      40.475  36.107  37.879  1.00  0.00     0.059 A 
ATOM     88  C   UNL A   1      38.868  34.646  38.967  1.00  0.00     0.059 A 
ATOM     89  F   UNL A   1      38.389  32.549  38.040  1.00  0.00    -0.206 F 
ATOM     90  C   UNL A   1      39.582  35.843  38.920  1.00  0.00     0.060 A 
BRANCH  90  91
ATOM     91  S   UNL A   1      39.348  37.096  40.197  1.00  0.00     0.124 S 
ATOM     92  O   UNL A   1      38.588  38.112  39.477  1.00  0.00    -0.237 OA
ATOM     93  O   UNL A   1      38.612  36.362  41.223  1.00  0.00    -0.237 OA
ATOM     94  O   UNL A   1      40.711  37.472  40.561  1.00  0.00    -0.744 OA
ENDBRANCH  90  91
ENDBRANCH  58  83
ENDBRANCH  32  33
ENDBRANCH  24  27
ENDBRANCH  22  23
ENDBRANCH   1  22
TORSDOF 15
ENDMDL
