MODEL 1
REMARK VINA RESULT:     -11.9      0.000      0.000
REMARK SMILES CN(Cc1ccncc1)C(=O)c1cccn1CC(=O)NCCCNC(=O)c1ccc(-c2c3nc(c(-c4c(F)cc(S(=O)(=O)[O-])cc4F)c4ccc([nH]4)c(-c4c(F)cc(S(=O)(=O)[O-])cc4F)c4nc(c(-c5c(F)cc(S(=O)(=O)[O-])cc5F)c5ccc2[nH]5)C=C4)C=C3)cc1
REMARK SMILES IDX 21 1 20 2 18 3 19 4 17 6 16 7 12 8 13 9 14 10 15 11 10 12
REMARK SMILES IDX 11 13 2 14 1 15 3 16 4 17 5 18 9 19 6 20 8 21 7 22 22 23
REMARK SMILES IDX 23 24 24 25 25 26 26 28 27 29 28 30 92 31 29 32 91 33 30 34
REMARK SMILES IDX 31 35 32 36 85 37 33 38 90 39 84 40 86 41 34 42 89 43 83 44
REMARK SMILES IDX 82 45 35 47 69 48 48 49 68 50 49 51 52 52 67 53 87 54 50 55
REMARK SMILES IDX 51 56 66 58 88 59 53 60 36 61 37 62 46 63 38 64 39 65 45 66
REMARK SMILES IDX 47 67 40 68 41 69 42 70 43 71 44 72 70 73 71 74 80 75 72 76
REMARK SMILES IDX 73 77 79 78 81 79 74 80 75 81 76 82 77 83 78 84 54 85 55 86
REMARK SMILES IDX 64 87 56 88 57 89 63 90 65 91 58 92 59 93 60 94 61 95 62 96
REMARK H PARENT 20 5 24 27 86 46 52 57
REMARK Flexibility Score: inf
ROOT
ATOM      1  C   UNL A   1      32.348  28.039  26.754  1.00  0.00     0.117 C 
ENDROOT
BRANCH   1   2
ATOM      2  N   UNL A   1      31.832  28.790  25.630  1.00  0.00    -0.354 N 
ATOM      3  C   UNL A   1      31.279  28.316  24.475  1.00  0.00     0.239 C 
ATOM      4  O   UNL A   1      30.921  29.127  23.619  1.00  0.00    -0.273 OA
ATOM      5  H   UNL A   1      31.886  29.770  25.708  1.00  0.00     0.163 HD
BRANCH   3   6
ATOM      6  C   UNL A   1      31.060  26.831  24.297  1.00  0.00     0.222 C 
BRANCH   6   7
ATOM      7  N   UNL A   1      31.948  26.210  23.320  1.00  0.00    -0.334 N 
ATOM      8  C   UNL A   1      32.996  25.341  23.587  1.00  0.00     0.107 A 
ATOM      9  C   UNL A   1      33.312  24.756  22.369  1.00  0.00     0.033 A 
ATOM     10  C   UNL A   1      32.614  25.431  21.344  1.00  0.00     0.020 A 
ATOM     11  C   UNL A   1      31.782  26.332  21.959  1.00  0.00     0.087 A 
BRANCH   8  12
ATOM     12  C   UNL A   1      33.527  25.031  24.907  1.00  0.00     0.270 C 
ATOM     13  O   UNL A   1      34.264  25.826  25.490  1.00  0.00    -0.267 OA
BRANCH  12  14
ATOM     14  N   UNL A   1      33.251  23.773  25.476  1.00  0.00    -0.336 N 
ATOM     15  C   UNL A   1      31.872  23.320  25.396  1.00  0.00     0.147 C 
BRANCH  14  16
ATOM     16  C   UNL A   1      34.116  23.083  26.434  1.00  0.00     0.155 C 
BRANCH  16  17
ATOM     17  C   UNL A   1      35.391  22.512  25.879  1.00  0.00    -0.026 A 
ATOM     18  C   UNL A   1      35.403  21.185  25.421  1.00  0.00     0.025 A 
ATOM     19  C   UNL A   1      36.579  23.240  25.830  1.00  0.00     0.025 A 
ATOM     20  C   UNL A   1      36.604  20.623  25.029  1.00  0.00     0.111 A 
ATOM     21  C   UNL A   1      37.728  22.593  25.403  1.00  0.00     0.111 A 
ATOM     22  N   UNL A   1      37.770  21.300  25.013  1.00  0.00    -0.265 NA
ENDBRANCH  16  17
ENDBRANCH  14  16
ENDBRANCH  12  14
ENDBRANCH   8  12
ENDBRANCH   6   7
ENDBRANCH   3   6
ENDBRANCH   1   2
BRANCH   1  23
ATOM     23  C   UNL A   1      33.312  28.874  27.597  1.00  0.00     0.042 C 
BRANCH  23  24
ATOM     24  C   UNL A   1      34.676  29.007  26.946  1.00  0.00     0.118 C 
BRANCH  24  25
ATOM     25  N   UNL A   1      35.168  30.363  27.144  1.00  0.00    -0.352 N 
ATOM     26  C   UNL A   1      36.248  30.819  27.849  1.00  0.00     0.251 C 
ATOM     27  H   UNL A   1      34.639  31.065  26.698  1.00  0.00     0.163 HD
ATOM     28  O   UNL A   1      36.282  31.998  28.172  1.00  0.00    -0.269 OA
BRANCH  26  29
ATOM     29  C   UNL A   1      37.342  29.905  28.229  1.00  0.00     0.039 A 
ATOM     30  C   UNL A   1      38.429  29.801  27.355  1.00  0.00     0.014 A 
ATOM     31  C   UNL A   1      37.274  29.113  29.380  1.00  0.00     0.014 A 
ATOM     32  C   UNL A   1      39.476  28.946  27.664  1.00  0.00     0.010 A 
ATOM     33  C   UNL A   1      38.332  28.284  29.713  1.00  0.00     0.010 A 
ATOM     34  C   UNL A   1      39.435  28.217  28.858  1.00  0.00    -0.014 A 
BRANCH  34  35
ATOM     35  C   UNL A   1      40.647  27.507  29.302  1.00  0.00     0.031 A 
ATOM     36  C   UNL A   1      40.843  26.198  28.494  1.00  0.00     0.074 A 
ATOM     37  C   UNL A   1      41.351  28.113  30.307  1.00  0.00     0.049 A 
ATOM     38  N   UNL A   1      41.458  25.102  28.812  1.00  0.00    -0.248 NA
ATOM     39  C   UNL A   1      40.189  26.056  27.157  1.00  0.00     0.031 C 
ATOM     40  C   UNL A   1      40.997  29.419  30.918  1.00  0.00     0.029 A 
ATOM     41  N   UNL A   1      42.489  27.793  31.019  1.00  0.00    -0.354 N 
ATOM     42  C   UNL A   1      41.479  24.267  27.665  1.00  0.00     0.074 A 
ATOM     43  C   UNL A   1      40.568  24.848  26.730  1.00  0.00     0.031 C 
ATOM     44  C   UNL A   1      41.831  29.726  31.936  1.00  0.00     0.029 A 
ATOM     45  C   UNL A   1      42.822  28.679  32.085  1.00  0.00     0.049 A 
ATOM     46  H   UNL A   1      43.035  27.003  30.804  1.00  0.00     0.167 HD
ATOM     47  C   UNL A   1      42.365  23.234  27.512  1.00  0.00     0.037 A 
ATOM     48  C   UNL A   1      43.800  28.553  33.038  1.00  0.00     0.037 A 
ATOM     49  C   UNL A   1      43.200  23.169  28.663  1.00  0.00     0.049 A 
ATOM     50  C   UNL A   1      44.595  27.400  32.598  1.00  0.00     0.074 A 
ATOM     51  C   UNL A   1      42.952  22.770  29.949  1.00  0.00     0.029 A 
ATOM     52  N   UNL A   1      44.354  23.916  28.625  1.00  0.00    -0.354 N 
ATOM     53  N   UNL A   1      45.400  27.409  31.579  1.00  0.00    -0.248 NA
ATOM     54  C   UNL A   1      44.402  26.111  33.272  1.00  0.00     0.031 C 
ATOM     55  C   UNL A   1      43.677  23.706  30.709  1.00  0.00     0.029 A 
ATOM     56  C   UNL A   1      44.529  24.445  29.877  1.00  0.00     0.049 A 
ATOM     57  H   UNL A   1      44.943  24.047  27.846  1.00  0.00     0.167 HD
ATOM     58  C   UNL A   1      45.518  26.073  31.292  1.00  0.00     0.074 A 
ATOM     59  C   UNL A   1      45.184  25.356  32.506  1.00  0.00     0.031 C 
ATOM     60  C   UNL A   1      45.317  25.648  30.018  1.00  0.00     0.037 A 
BRANCH  47  61
ATOM     61  C   UNL A   1      42.793  22.379  26.345  1.00  0.00     0.058 A 
ATOM     62  C   UNL A   1      42.494  20.992  26.412  1.00  0.00     0.135 A 
ATOM     63  C   UNL A   1      43.771  22.752  25.416  1.00  0.00     0.135 A 
ATOM     64  F   UNL A   1      41.506  20.539  27.203  1.00  0.00    -0.206 F 
ATOM     65  C   UNL A   1      43.248  20.028  25.753  1.00  0.00     0.059 A 
ATOM     66  C   UNL A   1      44.509  21.799  24.702  1.00  0.00     0.059 A 
ATOM     67  F   UNL A   1      44.094  24.040  25.234  1.00  0.00    -0.206 F 
ATOM     68  C   UNL A   1      44.288  20.441  24.934  1.00  0.00     0.060 A 
BRANCH  68  69
ATOM     69  S   UNL A   1      45.367  19.178  24.228  1.00  0.00     0.124 S 
ATOM     70  O   UNL A   1      45.157  18.063  25.145  1.00  0.00    -0.237 OA
ATOM     71  O   UNL A   1      44.812  19.007  22.888  1.00  0.00    -0.237 OA
ATOM     72  O   UNL A   1      46.685  19.801  24.275  1.00  0.00    -0.744 OA
ENDBRANCH  68  69
ENDBRANCH  47  61
BRANCH  48  73
ATOM     73  C   UNL A   1      44.190  29.153  34.378  1.00  0.00     0.058 A 
ATOM     74  C   UNL A   1      45.239  30.047  34.620  1.00  0.00     0.135 A 
ATOM     75  C   UNL A   1      43.338  28.946  35.506  1.00  0.00     0.135 A 
ATOM     76  F   UNL A   1      46.213  30.231  33.721  1.00  0.00    -0.206 F 
ATOM     77  C   UNL A   1      45.321  30.810  35.803  1.00  0.00     0.059 A 
ATOM     78  C   UNL A   1      43.362  29.726  36.658  1.00  0.00     0.059 A 
ATOM     79  F   UNL A   1      42.398  27.991  35.518  1.00  0.00    -0.206 F 
ATOM     80  C   UNL A   1      44.337  30.692  36.784  1.00  0.00     0.060 A 
BRANCH  80  81
ATOM     81  S   UNL A   1      44.224  31.879  38.142  1.00  0.00     0.124 S 
ATOM     82  O   UNL A   1      43.386  32.924  37.567  1.00  0.00    -0.237 OA
ATOM     83  O   UNL A   1      43.613  31.084  39.204  1.00  0.00    -0.237 OA
ATOM     84  O   UNL A   1      45.618  32.247  38.380  1.00  0.00    -0.744 OA
ENDBRANCH  80  81
ENDBRANCH  48  73
BRANCH  60  85
ATOM     85  C   UNL A   1      45.601  26.692  28.943  1.00  0.00     0.058 A 
ATOM     86  C   UNL A   1      46.903  27.204  28.792  1.00  0.00     0.135 A 
ATOM     87  C   UNL A   1      44.623  27.282  28.121  1.00  0.00     0.135 A 
ATOM     88  F   UNL A   1      47.910  26.692  29.519  1.00  0.00    -0.206 F 
ATOM     89  C   UNL A   1      47.207  28.243  27.906  1.00  0.00     0.059 A 
ATOM     90  C   UNL A   1      44.899  28.316  27.219  1.00  0.00     0.059 A 
ATOM     91  F   UNL A   1      43.357  26.870  28.172  1.00  0.00    -0.206 F 
ATOM     92  C   UNL A   1      46.197  28.798  27.122  1.00  0.00     0.060 A 
BRANCH  92  93
ATOM     93  S   UNL A   1      46.610  30.127  25.967  1.00  0.00     0.124 S 
ATOM     94  O   UNL A   1      47.897  30.593  26.473  1.00  0.00    -0.237 OA
ATOM     95  O   UNL A   1      46.651  29.421  24.691  1.00  0.00    -0.237 OA
ATOM     96  O   UNL A   1      45.507  31.072  26.120  1.00  0.00    -0.744 OA
ENDBRANCH  92  93
ENDBRANCH  60  85
ENDBRANCH  34  35
ENDBRANCH  26  29
ENDBRANCH  24  25
ENDBRANCH  23  24
ENDBRANCH   1  23
TORSDOF 18
ENDMDL
MODEL 2
REMARK VINA RESULT:     -11.8      1.331      1.986
REMARK SMILES CN(Cc1ccncc1)C(=O)c1cccn1CC(=O)NCCCNC(=O)c1ccc(-c2c3nc(c(-c4c(F)cc(S(=O)(=O)[O-])cc4F)c4ccc([nH]4)c(-c4c(F)cc(S(=O)(=O)[O-])cc4F)c4nc(c(-c5c(F)cc(S(=O)(=O)[O-])cc5F)c5ccc2[nH]5)C=C4)C=C3)cc1
REMARK SMILES IDX 21 1 20 2 18 3 19 4 17 6 16 7 12 8 13 9 14 10 15 11 10 12
REMARK SMILES IDX 11 13 2 14 1 15 3 16 4 17 5 18 9 19 6 20 8 21 7 22 22 23
REMARK SMILES IDX 23 24 24 25 25 26 26 28 27 29 28 30 92 31 29 32 91 33 30 34
REMARK SMILES IDX 31 35 32 36 85 37 33 38 90 39 84 40 86 41 34 42 89 43 83 44
REMARK SMILES IDX 82 45 35 47 69 48 48 49 68 50 49 51 52 52 67 53 87 54 50 55
REMARK SMILES IDX 51 56 66 58 88 59 53 60 36 61 37 62 46 63 38 64 39 65 45 66
REMARK SMILES IDX 47 67 40 68 41 69 42 70 43 71 44 72 70 73 71 74 80 75 72 76
REMARK SMILES IDX 73 77 79 78 81 79 74 80 75 81 76 82 77 83 78 84 54 85 55 86
REMARK SMILES IDX 64 87 56 88 57 89 63 90 65 91 58 92 59 93 60 94 61 95 62 96
REMARK H PARENT 20 5 24 27 86 46 52 57
REMARK Flexibility Score: inf
ROOT
ATOM      1  C   UNL A   1      32.928  28.192  25.309  1.00  0.00     0.117 C 
ENDROOT
BRANCH   1   2
ATOM      2  N   UNL A   1      31.581  27.662  25.277  1.00  0.00    -0.354 N 
ATOM      3  C   UNL A   1      31.181  26.357  25.318  1.00  0.00     0.239 C 
ATOM      4  O   UNL A   1      29.976  26.110  25.251  1.00  0.00    -0.273 OA
ATOM      5  H   UNL A   1      30.860  28.330  25.218  1.00  0.00     0.163 HD
BRANCH   3   6
ATOM      6  C   UNL A   1      32.204  25.260  25.507  1.00  0.00     0.222 C 
BRANCH   6   7
ATOM      7  N   UNL A   1      32.820  24.800  24.268  1.00  0.00    -0.334 N 
ATOM      8  C   UNL A   1      33.925  23.968  24.152  1.00  0.00     0.107 A 
ATOM      9  C   UNL A   1      33.927  23.536  22.833  1.00  0.00     0.033 A 
ATOM     10  C   UNL A   1      32.967  24.275  22.110  1.00  0.00     0.020 A 
ATOM     11  C   UNL A   1      32.300  25.057  23.021  1.00  0.00     0.087 A 
BRANCH   8  12
ATOM     12  C   UNL A   1      34.792  23.549  25.244  1.00  0.00     0.270 C 
ATOM     13  O   UNL A   1      35.728  24.260  25.611  1.00  0.00    -0.267 OA
BRANCH  12  14
ATOM     14  N   UNL A   1      34.595  22.281  25.824  1.00  0.00    -0.336 N 
ATOM     15  C   UNL A   1      33.909  22.261  27.106  1.00  0.00     0.147 C 
BRANCH  14  16
ATOM     16  C   UNL A   1      35.327  21.070  25.450  1.00  0.00     0.155 C 
BRANCH  16  17
ATOM     17  C   UNL A   1      34.520  19.990  24.787  1.00  0.00    -0.026 A 
ATOM     18  C   UNL A   1      33.236  20.294  24.306  1.00  0.00     0.025 A 
ATOM     19  C   UNL A   1      34.983  18.681  24.658  1.00  0.00     0.025 A 
ATOM     20  C   UNL A   1      32.448  19.272  23.811  1.00  0.00     0.111 A 
ATOM     21  C   UNL A   1      34.124  17.731  24.131  1.00  0.00     0.111 A 
ATOM     22  N   UNL A   1      32.865  17.992  23.716  1.00  0.00    -0.265 NA
ENDBRANCH  16  17
ENDBRANCH  14  16
ENDBRANCH  12  14
ENDBRANCH   8  12
ENDBRANCH   6   7
ENDBRANCH   3   6
ENDBRANCH   1   2
BRANCH   1  23
ATOM     23  C   UNL A   1      33.202  28.960  26.602  1.00  0.00     0.042 C 
BRANCH  23  24
ATOM     24  C   UNL A   1      34.666  28.912  26.999  1.00  0.00     0.118 C 
BRANCH  24  25
ATOM     25  N   UNL A   1      35.153  30.271  27.187  1.00  0.00    -0.352 N 
ATOM     26  C   UNL A   1      36.238  30.734  27.879  1.00  0.00     0.251 C 
ATOM     27  H   UNL A   1      34.616  30.969  26.745  1.00  0.00     0.163 HD
ATOM     28  O   UNL A   1      36.270  31.914  28.197  1.00  0.00    -0.269 OA
BRANCH  26  29
ATOM     29  C   UNL A   1      37.341  29.827  28.249  1.00  0.00     0.039 A 
ATOM     30  C   UNL A   1      38.446  29.769  27.392  1.00  0.00     0.014 A 
ATOM     31  C   UNL A   1      37.266  28.995  29.372  1.00  0.00     0.014 A 
ATOM     32  C   UNL A   1      39.502  28.922  27.693  1.00  0.00     0.010 A 
ATOM     33  C   UNL A   1      38.332  28.173  29.697  1.00  0.00     0.010 A 
ATOM     34  C   UNL A   1      39.451  28.154  28.862  1.00  0.00    -0.014 A 
BRANCH  34  35
ATOM     35  C   UNL A   1      40.667  27.449  29.304  1.00  0.00     0.031 A 
ATOM     36  C   UNL A   1      40.874  26.146  28.490  1.00  0.00     0.074 A 
ATOM     37  C   UNL A   1      41.364  28.055  30.314  1.00  0.00     0.049 A 
ATOM     38  N   UNL A   1      41.495  25.052  28.803  1.00  0.00    -0.248 NA
ATOM     39  C   UNL A   1      40.224  26.007  27.151  1.00  0.00     0.031 C 
ATOM     40  C   UNL A   1      41.000  29.355  30.931  1.00  0.00     0.029 A 
ATOM     41  N   UNL A   1      42.503  27.739  31.027  1.00  0.00    -0.354 N 
ATOM     42  C   UNL A   1      41.525  24.224  27.652  1.00  0.00     0.074 A 
ATOM     43  C   UNL A   1      40.613  24.803  26.718  1.00  0.00     0.031 C 
ATOM     44  C   UNL A   1      41.830  29.662  31.953  1.00  0.00     0.029 A 
ATOM     45  C   UNL A   1      42.827  28.622  32.099  1.00  0.00     0.049 A 
ATOM     46  H   UNL A   1      43.055  26.954  30.810  1.00  0.00     0.167 HD
ATOM     47  C   UNL A   1      42.418  23.198  27.496  1.00  0.00     0.037 A 
ATOM     48  C   UNL A   1      43.804  28.497  33.054  1.00  0.00     0.037 A 
ATOM     49  C   UNL A   1      43.252  23.132  28.648  1.00  0.00     0.049 A 
ATOM     50  C   UNL A   1      44.608  27.352  32.609  1.00  0.00     0.074 A 
ATOM     51  C   UNL A   1      43.003  22.725  29.931  1.00  0.00     0.029 A 
ATOM     52  N   UNL A   1      44.400  23.888  28.617  1.00  0.00    -0.354 N 
ATOM     53  N   UNL A   1      45.415  27.372  31.593  1.00  0.00    -0.248 NA
ATOM     54  C   UNL A   1      44.423  26.058  33.276  1.00  0.00     0.031 C 
ATOM     55  C   UNL A   1      43.719  23.662  30.699  1.00  0.00     0.029 A 
ATOM     56  C   UNL A   1      44.568  24.411  29.872  1.00  0.00     0.049 A 
ATOM     57  H   UNL A   1      44.990  24.027  27.840  1.00  0.00     0.167 HD
ATOM     58  C   UNL A   1      45.543  26.038  31.299  1.00  0.00     0.074 A 
ATOM     59  C   UNL A   1      45.211  25.312  32.508  1.00  0.00     0.031 C 
ATOM     60  C   UNL A   1      45.348  25.619  30.021  1.00  0.00     0.037 A 
BRANCH  47  61
ATOM     61  C   UNL A   1      42.855  22.352  26.325  1.00  0.00     0.058 A 
ATOM     62  C   UNL A   1      42.547  20.966  26.375  1.00  0.00     0.135 A 
ATOM     63  C   UNL A   1      43.846  22.729  25.411  1.00  0.00     0.135 A 
ATOM     64  F   UNL A   1      41.548  20.511  27.150  1.00  0.00    -0.206 F 
ATOM     65  C   UNL A   1      43.303  20.005  25.716  1.00  0.00     0.059 A 
ATOM     66  C   UNL A   1      44.587  21.778  24.697  1.00  0.00     0.059 A 
ATOM     67  F   UNL A   1      44.178  24.016  25.245  1.00  0.00    -0.206 F 
ATOM     68  C   UNL A   1      44.355  20.420  24.913  1.00  0.00     0.060 A 
BRANCH  68  69
ATOM     69  S   UNL A   1      45.435  19.157  24.206  1.00  0.00     0.124 S 
ATOM     70  O   UNL A   1      46.736  19.814  24.264  1.00  0.00    -0.237 OA
ATOM     71  O   UNL A   1      45.251  18.038  25.126  1.00  0.00    -0.237 OA
ATOM     72  O   UNL A   1      44.883  18.955  22.871  1.00  0.00    -0.744 OA
ENDBRANCH  68  69
ENDBRANCH  47  61
BRANCH  48  73
ATOM     73  C   UNL A   1      44.187  29.092  34.398  1.00  0.00     0.058 A 
ATOM     74  C   UNL A   1      43.356  29.237  35.515  1.00  0.00     0.135 A 
ATOM     75  C   UNL A   1      45.557  29.403  34.655  1.00  0.00     0.135 A 
ATOM     76  F   UNL A   1      42.026  29.136  35.406  1.00  0.00    -0.206 F 
ATOM     77  C   UNL A   1      43.867  29.477  36.807  1.00  0.00     0.059 A 
ATOM     78  C   UNL A   1      46.093  29.583  35.926  1.00  0.00     0.059 A 
ATOM     79  F   UNL A   1      46.459  29.500  33.668  1.00  0.00    -0.206 F 
ATOM     80  C   UNL A   1      45.243  29.578  37.011  1.00  0.00     0.060 A 
BRANCH  80  81
ATOM     81  S   UNL A   1      45.946  29.547  38.675  1.00  0.00     0.124 S 
ATOM     82  O   UNL A   1      44.997  28.706  39.394  1.00  0.00    -0.237 OA
ATOM     83  O   UNL A   1      47.267  28.968  38.447  1.00  0.00    -0.237 OA
ATOM     84  O   UNL A   1      45.955  30.957  39.059  1.00  0.00    -0.744 OA
ENDBRANCH  80  81
ENDBRANCH  48  73
BRANCH  60  85
ATOM     85  C   UNL A   1      45.627  26.670  28.953  1.00  0.00     0.058 A 
ATOM     86  C   UNL A   1      46.926  27.190  28.807  1.00  0.00     0.135 A 
ATOM     87  C   UNL A   1      44.647  27.259  28.134  1.00  0.00     0.135 A 
ATOM     88  F   UNL A   1      47.935  26.679  29.531  1.00  0.00    -0.206 F 
ATOM     89  C   UNL A   1      47.226  28.235  27.926  1.00  0.00     0.059 A 
ATOM     90  C   UNL A   1      44.918  28.300  27.238  1.00  0.00     0.059 A 
ATOM     91  F   UNL A   1      43.383  26.840  28.181  1.00  0.00    -0.206 F 
ATOM     92  C   UNL A   1      46.214  28.790  27.144  1.00  0.00     0.060 A 
BRANCH  92  93
ATOM     93  S   UNL A   1      46.621  30.127  25.998  1.00  0.00     0.124 S 
ATOM     94  O   UNL A   1      45.534  31.076  26.223  1.00  0.00    -0.237 OA
ATOM     95  O   UNL A   1      47.934  30.548  26.473  1.00  0.00    -0.237 OA
ATOM     96  O   UNL A   1      46.611  29.477  24.690  1.00  0.00    -0.744 OA
ENDBRANCH  92  93
ENDBRANCH  60  85
ENDBRANCH  34  35
ENDBRANCH  26  29
ENDBRANCH  24  25
ENDBRANCH  23  24
ENDBRANCH   1  23
TORSDOF 18
ENDMDL
MODEL 3
REMARK VINA RESULT:     -11.6      1.188      1.937
REMARK SMILES CN(Cc1ccncc1)C(=O)c1cccn1CC(=O)NCCCNC(=O)c1ccc(-c2c3nc(c(-c4c(F)cc(S(=O)(=O)[O-])cc4F)c4ccc([nH]4)c(-c4c(F)cc(S(=O)(=O)[O-])cc4F)c4nc(c(-c5c(F)cc(S(=O)(=O)[O-])cc5F)c5ccc2[nH]5)C=C4)C=C3)cc1
REMARK SMILES IDX 21 1 20 2 18 3 19 4 17 6 16 7 12 8 13 9 14 10 15 11 10 12
REMARK SMILES IDX 11 13 2 14 1 15 3 16 4 17 5 18 9 19 6 20 8 21 7 22 22 23
REMARK SMILES IDX 23 24 24 25 25 26 26 28 27 29 28 30 92 31 29 32 91 33 30 34
REMARK SMILES IDX 31 35 32 36 85 37 33 38 90 39 84 40 86 41 34 42 89 43 83 44
REMARK SMILES IDX 82 45 35 47 69 48 48 49 68 50 49 51 52 52 67 53 87 54 50 55
REMARK SMILES IDX 51 56 66 58 88 59 53 60 36 61 37 62 46 63 38 64 39 65 45 66
REMARK SMILES IDX 47 67 40 68 41 69 42 70 43 71 44 72 70 73 71 74 80 75 72 76
REMARK SMILES IDX 73 77 79 78 81 79 74 80 75 81 76 82 77 83 78 84 54 85 55 86
REMARK SMILES IDX 64 87 56 88 57 89 63 90 65 91 58 92 59 93 60 94 61 95 62 96
REMARK H PARENT 20 5 24 27 86 46 52 57
REMARK Flexibility Score: inf
ROOT
ATOM      1  C   UNL A   1      32.433  28.576  26.259  1.00  0.00     0.117 C 
ENDROOT
BRANCH   1   2
ATOM      2  N   UNL A   1      32.798  27.866  25.052  1.00  0.00    -0.354 N 
ATOM      3  C   UNL A   1      33.109  26.544  24.906  1.00  0.00     0.239 C 
ATOM      4  O   UNL A   1      33.422  26.135  23.786  1.00  0.00    -0.273 OA
ATOM      5  H   UNL A   1      32.825  28.406  24.229  1.00  0.00     0.163 HD
BRANCH   3   6
ATOM      6  C   UNL A   1      33.001  25.609  26.088  1.00  0.00     0.222 C 
BRANCH   6   7
ATOM      7  N   UNL A   1      31.775  24.818  26.112  1.00  0.00    -0.334 N 
ATOM      8  C   UNL A   1      31.684  23.433  26.162  1.00  0.00     0.107 A 
ATOM      9  C   UNL A   1      30.368  23.162  26.514  1.00  0.00     0.033 A 
ATOM     10  C   UNL A   1      29.624  24.360  26.455  1.00  0.00     0.020 A 
ATOM     11  C   UNL A   1      30.518  25.369  26.196  1.00  0.00     0.087 A 
BRANCH   8  12
ATOM     12  C   UNL A   1      32.793  22.503  26.012  1.00  0.00     0.270 C 
ATOM     13  O   UNL A   1      33.453  22.150  26.990  1.00  0.00    -0.267 OA
BRANCH  12  14
ATOM     14  N   UNL A   1      33.153  22.072  24.721  1.00  0.00    -0.336 N 
ATOM     15  C   UNL A   1      32.699  20.745  24.337  1.00  0.00     0.147 C 
BRANCH  14  16
ATOM     16  C   UNL A   1      34.219  22.663  23.912  1.00  0.00     0.155 C 
BRANCH  16  17
ATOM     17  C   UNL A   1      35.589  22.675  24.532  1.00  0.00    -0.026 A 
ATOM     18  C   UNL A   1      36.338  21.489  24.557  1.00  0.00     0.025 A 
ATOM     19  C   UNL A   1      36.136  23.817  25.116  1.00  0.00     0.025 A 
ATOM     20  C   UNL A   1      37.542  21.471  25.237  1.00  0.00     0.111 A 
ATOM     21  C   UNL A   1      37.358  23.703  25.758  1.00  0.00     0.111 A 
ATOM     22  N   UNL A   1      38.067  22.556  25.843  1.00  0.00    -0.265 NA
ENDBRANCH  16  17
ENDBRANCH  14  16
ENDBRANCH  12  14
ENDBRANCH   8  12
ENDBRANCH   6   7
ENDBRANCH   3   6
ENDBRANCH   1   2
BRANCH   1  23
ATOM     23  C   UNL A   1      33.578  28.596  27.271  1.00  0.00     0.042 C 
BRANCH  23  24
ATOM     24  C   UNL A   1      34.894  29.013  26.642  1.00  0.00     0.118 C 
BRANCH  24  25
ATOM     25  N   UNL A   1      35.253  30.339  27.125  1.00  0.00    -0.352 N 
ATOM     26  C   UNL A   1      36.209  30.723  28.026  1.00  0.00     0.251 C 
ATOM     27  H   UNL A   1      34.725  31.076  26.744  1.00  0.00     0.163 HD
ATOM     28  O   UNL A   1      36.115  31.826  28.545  1.00  0.00    -0.269 OA
BRANCH  26  29
ATOM     29  C   UNL A   1      37.321  29.820  28.377  1.00  0.00     0.039 A 
ATOM     30  C   UNL A   1      38.428  29.795  27.521  1.00  0.00     0.014 A 
ATOM     31  C   UNL A   1      37.255  28.963  29.481  1.00  0.00     0.014 A 
ATOM     32  C   UNL A   1      39.493  28.954  27.805  1.00  0.00     0.010 A 
ATOM     33  C   UNL A   1      38.330  28.146  29.789  1.00  0.00     0.010 A 
ATOM     34  C   UNL A   1      39.450  28.159  28.956  1.00  0.00    -0.014 A 
BRANCH  34  35
ATOM     35  C   UNL A   1      40.673  27.459  29.385  1.00  0.00     0.031 A 
ATOM     36  C   UNL A   1      40.881  26.162  28.561  1.00  0.00     0.074 A 
ATOM     37  C   UNL A   1      41.375  28.063  30.393  1.00  0.00     0.049 A 
ATOM     38  N   UNL A   1      41.512  25.070  28.863  1.00  0.00    -0.248 NA
ATOM     39  C   UNL A   1      40.222  26.027  27.226  1.00  0.00     0.031 C 
ATOM     40  C   UNL A   1      41.009  29.357  31.020  1.00  0.00     0.029 A 
ATOM     41  N   UNL A   1      42.521  27.749  31.095  1.00  0.00    -0.354 N 
ATOM     42  C   UNL A   1      41.537  24.249  27.707  1.00  0.00     0.074 A 
ATOM     43  C   UNL A   1      40.614  24.828  26.783  1.00  0.00     0.031 C 
ATOM     44  C   UNL A   1      41.844  29.662  32.038  1.00  0.00     0.029 A 
ATOM     45  C   UNL A   1      42.848  28.627  32.169  1.00  0.00     0.049 A 
ATOM     46  H   UNL A   1      43.076  26.969  30.869  1.00  0.00     0.167 HD
ATOM     47  C   UNL A   1      42.435  23.229  27.537  1.00  0.00     0.037 A 
ATOM     48  C   UNL A   1      43.834  28.502  33.116  1.00  0.00     0.037 A 
ATOM     49  C   UNL A   1      43.278  23.161  28.683  1.00  0.00     0.049 A 
ATOM     50  C   UNL A   1      44.641  27.364  32.658  1.00  0.00     0.074 A 
ATOM     51  C   UNL A   1      43.042  22.744  29.965  1.00  0.00     0.029 A 
ATOM     52  N   UNL A   1      44.421  23.923  28.647  1.00  0.00    -0.354 N 
ATOM     53  N   UNL A   1      45.440  27.395  31.636  1.00  0.00    -0.248 NA
ATOM     54  C   UNL A   1      44.468  26.066  33.319  1.00  0.00     0.031 C 
ATOM     55  C   UNL A   1      43.759  23.681  30.732  1.00  0.00     0.029 A 
ATOM     56  C   UNL A   1      44.597  24.440  29.904  1.00  0.00     0.049 A 
ATOM     57  H   UNL A   1      45.005  24.071  27.867  1.00  0.00     0.167 HD
ATOM     58  C   UNL A   1      45.573  26.065  31.333  1.00  0.00     0.074 A 
ATOM     59  C   UNL A   1      45.255  25.329  32.540  1.00  0.00     0.031 C 
ATOM     60  C   UNL A   1      45.370  25.652  30.055  1.00  0.00     0.037 A 
BRANCH  47  61
ATOM     61  C   UNL A   1      42.867  22.392  26.358  1.00  0.00     0.058 A 
ATOM     62  C   UNL A   1      42.535  21.012  26.384  1.00  0.00     0.135 A 
ATOM     63  C   UNL A   1      43.873  22.765  25.459  1.00  0.00     0.135 A 
ATOM     64  F   UNL A   1      41.521  20.563  27.144  1.00  0.00    -0.206 F 
ATOM     65  C   UNL A   1      43.280  20.047  25.718  1.00  0.00     0.059 A 
ATOM     66  C   UNL A   1      44.604  21.812  24.737  1.00  0.00     0.059 A 
ATOM     67  F   UNL A   1      44.230  24.049  25.315  1.00  0.00    -0.206 F 
ATOM     68  C   UNL A   1      44.346  20.455  24.931  1.00  0.00     0.060 A 
BRANCH  68  69
ATOM     69  S   UNL A   1      45.410  19.183  24.215  1.00  0.00     0.124 S 
ATOM     70  O   UNL A   1      44.811  19.003  22.897  1.00  0.00    -0.237 OA
ATOM     71  O   UNL A   1      46.721  19.828  24.231  1.00  0.00    -0.237 OA
ATOM     72  O   UNL A   1      45.261  18.065  25.140  1.00  0.00    -0.744 OA
ENDBRANCH  68  69
ENDBRANCH  47  61
BRANCH  48  73
ATOM     73  C   UNL A   1      44.223  29.092  34.461  1.00  0.00     0.058 A 
ATOM     74  C   UNL A   1      43.394  29.245  35.578  1.00  0.00     0.135 A 
ATOM     75  C   UNL A   1      45.597  29.387  34.718  1.00  0.00     0.135 A 
ATOM     76  F   UNL A   1      42.064  29.159  35.469  1.00  0.00    -0.206 F 
ATOM     77  C   UNL A   1      43.908  29.478  36.871  1.00  0.00     0.059 A 
ATOM     78  C   UNL A   1      46.135  29.559  35.989  1.00  0.00     0.059 A 
ATOM     79  F   UNL A   1      46.500  29.474  33.731  1.00  0.00    -0.206 F 
ATOM     80  C   UNL A   1      45.285  29.562  37.074  1.00  0.00     0.060 A 
BRANCH  80  81
ATOM     81  S   UNL A   1      45.988  29.522  38.738  1.00  0.00     0.124 S 
ATOM     82  O   UNL A   1      44.969  30.212  39.519  1.00  0.00    -0.237 OA
ATOM     83  O   UNL A   1      46.121  28.090  38.988  1.00  0.00    -0.237 OA
ATOM     84  O   UNL A   1      47.254  30.235  38.583  1.00  0.00    -0.744 OA
ENDBRANCH  80  81
ENDBRANCH  48  73
BRANCH  60  85
ATOM     85  C   UNL A   1      45.635  26.711  28.990  1.00  0.00     0.058 A 
ATOM     86  C   UNL A   1      46.937  27.217  28.816  1.00  0.00     0.135 A 
ATOM     87  C   UNL A   1      44.642  27.320  28.202  1.00  0.00     0.135 A 
ATOM     88  F   UNL A   1      47.957  26.687  29.509  1.00  0.00    -0.206 F 
ATOM     89  C   UNL A   1      47.226  28.268  27.940  1.00  0.00     0.059 A 
ATOM     90  C   UNL A   1      44.902  28.368  27.311  1.00  0.00     0.059 A 
ATOM     91  F   UNL A   1      43.375  26.916  28.277  1.00  0.00    -0.206 F 
ATOM     92  C   UNL A   1      46.201  28.843  27.190  1.00  0.00     0.060 A 
BRANCH  92  93
ATOM     93  S   UNL A   1      46.595  30.188  26.047  1.00  0.00     0.124 S 
ATOM     94  O   UNL A   1      46.618  29.507  24.756  1.00  0.00    -0.237 OA
ATOM     95  O   UNL A   1      45.480  31.104  26.258  1.00  0.00    -0.237 OA
ATOM     96  O   UNL A   1      47.893  30.669  26.514  1.00  0.00    -0.744 OA
ENDBRANCH  92  93
ENDBRANCH  60  85
ENDBRANCH  34  35
ENDBRANCH  26  29
ENDBRANCH  24  25
ENDBRANCH  23  24
ENDBRANCH   1  23
TORSDOF 18
ENDMDL
