MODEL 1
REMARK VINA RESULT:     -12.2      0.000      0.000
REMARK SMILES O=C1CC[C@H](CNC(=O)N[C@@H]2C=C[C@@H](C(=O)NCCCNC(=O)c3ccc(-c4c5nc(c(-c6c(F)cc(S(=O)(=O)[O-])cc6F)c6ccc([nH]6)c(-c6c(F)cc(S(=O)(=O)[O-])cc6F)c6nc(c(-c7c(F)cc(S(=O)(=O)[O-])cc7F)c7ccc4[nH]7)C=C6)C=C5)cc3)C2)N1
REMARK SMILES IDX 19 1 18 2 17 3 15 4 16 5 14 7 11 8 12 9 90 10 13 11 10 12
REMARK SMILES IDX 7 13 8 14 9 16 6 18 5 19 1 20 2 21 3 22 91 23 4 24 20 26
REMARK SMILES IDX 21 27 22 28 23 30 24 31 25 32 89 33 26 34 88 35 27 36 28 37
REMARK SMILES IDX 29 38 82 39 30 40 87 41 81 42 83 43 31 44 86 45 80 46 79 47
REMARK SMILES IDX 32 49 66 50 45 51 65 52 46 53 49 54 64 55 84 56 47 57 48 58
REMARK SMILES IDX 63 60 85 61 50 62 33 63 34 64 43 65 35 66 36 67 42 68 44 69
REMARK SMILES IDX 37 70 38 71 39 72 40 73 41 74 67 75 68 76 77 77 69 78 70 79
REMARK SMILES IDX 76 80 78 81 71 82 72 83 73 84 74 85 75 86 51 87 52 88 61 89
REMARK SMILES IDX 53 90 54 91 60 92 62 93 55 94 56 95 57 96 58 97 59 98
REMARK H PARENT 17 6 7 15 10 17 91 25 21 29 83 48 49 59
REMARK Flexibility Score: inf
ROOT
ATOM      1  C   UNL A   1      33.664  28.899  26.930  1.00  0.00     0.042 C 
ENDROOT
BRANCH   1   2
ATOM      2  C   UNL A   1      33.512  27.886  25.797  1.00  0.00     0.117 C 
BRANCH   2   3
ATOM      3  N   UNL A   1      32.612  26.793  26.109  1.00  0.00    -0.356 N 
ATOM      4  C   UNL A   1      32.792  25.444  26.106  1.00  0.00     0.227 C 
ATOM      5  O   UNL A   1      31.892  24.759  26.607  1.00  0.00    -0.274 OA
ATOM      6  H   UNL A   1      31.707  27.078  26.372  1.00  0.00     0.163 HD
BRANCH   4   7
ATOM      7  C   UNL A   1      33.996  24.751  25.455  1.00  0.00     0.103 C 
ATOM      8  C   UNL A   1      34.398  22.328  25.192  1.00  0.00     0.107 C 
ATOM      9  C   UNL A   1      34.157  23.014  23.883  1.00  0.00    -0.006 C 
ATOM     10  C   UNL A   1      34.409  23.484  26.201  1.00  0.00     0.047 C 
ATOM     11  C   UNL A   1      33.881  24.316  24.031  1.00  0.00    -0.016 C 
BRANCH   8  12
ATOM     12  N   UNL A   1      35.644  21.598  25.151  1.00  0.00    -0.332 N 
ATOM     13  N   UNL A   1      35.023  19.327  24.869  1.00  0.00    -0.336 N 
ATOM     14  C   UNL A   1      35.945  20.297  25.000  1.00  0.00     0.315 C 
ATOM     15  H   UNL A   1      35.396  18.430  24.706  1.00  0.00     0.165 HD
ATOM     16  O   UNL A   1      37.135  19.974  24.992  1.00  0.00    -0.249 OA
ATOM     17  H   UNL A   1      36.437  22.173  25.256  1.00  0.00     0.165 HD
BRANCH  13  18
ATOM     18  C   UNL A   1      33.581  19.371  24.925  1.00  0.00     0.142 C 
BRANCH  18  19
ATOM     19  C   UNL A   1      32.823  18.418  23.984  1.00  0.00     0.101 C 
ATOM     20  O   UNL A   1      32.564  15.450  25.831  1.00  0.00    -0.275 OA
ATOM     21  C   UNL A   1      32.836  16.302  25.001  1.00  0.00     0.220 C 
ATOM     22  C   UNL A   1      34.063  16.355  24.124  1.00  0.00     0.102 C 
ATOM     23  N   UNL A   1      32.105  17.449  24.780  1.00  0.00    -0.352 N 
ATOM     24  C   UNL A   1      33.754  17.519  23.176  1.00  0.00     0.036 C 
ATOM     25  H   UNL A   1      31.194  17.592  25.126  1.00  0.00     0.163 HD
ENDBRANCH  18  19
ENDBRANCH  13  18
ENDBRANCH   8  12
ENDBRANCH   4   7
ENDBRANCH   2   3
ENDBRANCH   1   2
BRANCH   1  26
ATOM     26  C   UNL A   1      35.080  29.052  27.485  1.00  0.00     0.118 C 
BRANCH  26  27
ATOM     27  N   UNL A   1      35.134  29.904  28.666  1.00  0.00    -0.352 N 
ATOM     28  C   UNL A   1      36.174  30.229  29.500  1.00  0.00     0.251 C 
ATOM     29  H   UNL A   1      34.274  30.320  28.906  1.00  0.00     0.163 HD
ATOM     30  O   UNL A   1      35.924  30.837  30.540  1.00  0.00    -0.269 OA
BRANCH  28  31
ATOM     31  C   UNL A   1      37.575  29.856  29.190  1.00  0.00     0.039 A 
ATOM     32  C   UNL A   1      38.443  29.581  30.254  1.00  0.00     0.014 A 
ATOM     33  C   UNL A   1      38.067  29.842  27.883  1.00  0.00     0.014 A 
ATOM     34  C   UNL A   1      39.777  29.240  30.007  1.00  0.00     0.010 A 
ATOM     35  C   UNL A   1      39.380  29.439  27.632  1.00  0.00     0.010 A 
ATOM     36  C   UNL A   1      40.251  29.139  28.691  1.00  0.00    -0.014 A 
BRANCH  36  37
ATOM     37  C   UNL A   1      41.650  28.726  28.401  1.00  0.00     0.031 A 
ATOM     38  C   UNL A   1      42.759  29.744  28.403  1.00  0.00     0.074 A 
ATOM     39  C   UNL A   1      41.913  27.446  28.072  1.00  0.00     0.049 A 
ATOM     40  N   UNL A   1      44.023  29.588  28.100  1.00  0.00    -0.248 NA
ATOM     41  C   UNL A   1      42.395  31.119  28.774  1.00  0.00     0.031 C 
ATOM     42  C   UNL A   1      40.923  26.369  28.006  1.00  0.00     0.029 A 
ATOM     43  N   UNL A   1      43.091  26.835  27.718  1.00  0.00    -0.354 N 
ATOM     44  C   UNL A   1      44.600  30.849  28.218  1.00  0.00     0.074 A 
ATOM     45  C   UNL A   1      43.539  31.762  28.587  1.00  0.00     0.031 C 
ATOM     46  C   UNL A   1      41.537  25.228  27.656  1.00  0.00     0.029 A 
ATOM     47  C   UNL A   1      42.955  25.497  27.434  1.00  0.00     0.049 A 
ATOM     48  H   UNL A   1      43.952  27.310  27.675  1.00  0.00     0.167 HD
ATOM     49  C   UNL A   1      45.895  31.208  28.047  1.00  0.00     0.037 A 
ATOM     50  C   UNL A   1      43.866  24.590  27.030  1.00  0.00     0.037 A 
ATOM     51  C   UNL A   1      46.953  30.290  27.709  1.00  0.00     0.049 A 
ATOM     52  C   UNL A   1      45.297  25.014  26.842  1.00  0.00     0.074 A 
ATOM     53  C   UNL A   1      48.307  30.546  27.585  1.00  0.00     0.029 A 
ATOM     54  N   UNL A   1      46.775  28.942  27.436  1.00  0.00    -0.354 N 
ATOM     55  N   UNL A   1      45.835  26.197  27.015  1.00  0.00    -0.248 NA
ATOM     56  C   UNL A   1      46.245  23.978  26.405  1.00  0.00     0.031 C 
ATOM     57  C   UNL A   1      48.943  29.363  27.195  1.00  0.00     0.029 A 
ATOM     58  C   UNL A   1      47.991  28.358  27.120  1.00  0.00     0.049 A 
ATOM     59  H   UNL A   1      45.912  28.470  27.461  1.00  0.00     0.167 HD
ATOM     60  C   UNL A   1      47.189  26.041  26.740  1.00  0.00     0.074 A 
ATOM     61  C   UNL A   1      47.388  24.650  26.390  1.00  0.00     0.031 C 
ATOM     62  C   UNL A   1      48.179  26.969  26.781  1.00  0.00     0.037 A 
BRANCH  49  63
ATOM     63  C   UNL A   1      46.239  32.664  28.212  1.00  0.00     0.058 A 
ATOM     64  C   UNL A   1      46.675  33.187  29.440  1.00  0.00     0.135 A 
ATOM     65  C   UNL A   1      46.150  33.544  27.121  1.00  0.00     0.135 A 
ATOM     66  F   UNL A   1      46.768  32.393  30.518  1.00  0.00    -0.206 F 
ATOM     67  C   UNL A   1      46.973  34.537  29.591  1.00  0.00     0.059 A 
ATOM     68  C   UNL A   1      46.469  34.894  27.243  1.00  0.00     0.059 A 
ATOM     69  F   UNL A   1      45.744  33.097  25.923  1.00  0.00    -0.206 F 
ATOM     70  C   UNL A   1      46.860  35.385  28.487  1.00  0.00     0.060 A 
BRANCH  70  71
ATOM     71  S   UNL A   1      47.233  37.138  28.701  1.00  0.00     0.124 S 
ATOM     72  O   UNL A   1      47.085  37.291  30.145  1.00  0.00    -0.237 OA
ATOM     73  O   UNL A   1      48.597  37.235  28.190  1.00  0.00    -0.237 OA
ATOM     74  O   UNL A   1      46.216  37.803  27.892  1.00  0.00    -0.744 OA
ENDBRANCH  70  71
ENDBRANCH  49  63
BRANCH  50  75
ATOM     75  C   UNL A   1      43.454  23.179  26.811  1.00  0.00     0.058 A 
ATOM     76  C   UNL A   1      43.380  22.649  25.513  1.00  0.00     0.135 A 
ATOM     77  C   UNL A   1      43.159  22.326  27.884  1.00  0.00     0.135 A 
ATOM     78  F   UNL A   1      43.646  23.430  24.456  1.00  0.00    -0.206 F 
ATOM     79  C   UNL A   1      43.022  21.325  25.287  1.00  0.00     0.059 A 
ATOM     80  C   UNL A   1      42.819  20.991  27.684  1.00  0.00     0.059 A 
ATOM     81  F   UNL A   1      43.230  22.781  29.145  1.00  0.00    -0.206 F 
ATOM     82  C   UNL A   1      42.749  20.501  26.380  1.00  0.00     0.060 A 
BRANCH  82  83
ATOM     83  S   UNL A   1      42.354  18.765  26.079  1.00  0.00     0.124 S 
ATOM     84  O   UNL A   1      40.947  18.844  25.705  1.00  0.00    -0.237 OA
ATOM     85  O   UNL A   1      43.282  18.421  25.007  1.00  0.00    -0.237 OA
ATOM     86  O   UNL A   1      42.633  18.132  27.365  1.00  0.00    -0.744 OA
ENDBRANCH  82  83
ENDBRANCH  50  75
BRANCH  62  87
ATOM     87  C   UNL A   1      49.575  26.506  26.476  1.00  0.00     0.058 A 
ATOM     88  C   UNL A   1      50.363  25.853  27.436  1.00  0.00     0.135 A 
ATOM     89  C   UNL A   1      50.111  26.667  25.187  1.00  0.00     0.135 A 
ATOM     90  F   UNL A   1      49.903  25.681  28.685  1.00  0.00    -0.206 F 
ATOM     91  C   UNL A   1      51.640  25.390  27.134  1.00  0.00     0.059 A 
ATOM     92  C   UNL A   1      51.375  26.190  24.856  1.00  0.00     0.059 A 
ATOM     93  F   UNL A   1      49.394  27.278  24.230  1.00  0.00    -0.206 F 
ATOM     94  C   UNL A   1      52.136  25.561  25.840  1.00  0.00     0.060 A 
BRANCH  94  95
ATOM     95  S   UNL A   1      53.777  24.918  25.448  1.00  0.00     0.124 S 
ATOM     96  O   UNL A   1      54.485  25.130  26.706  1.00  0.00    -0.237 OA
ATOM     97  O   UNL A   1      53.497  23.528  25.105  1.00  0.00    -0.237 OA
ATOM     98  O   UNL A   1      54.213  25.755  24.334  1.00  0.00    -0.744 OA
ENDBRANCH  94  95
ENDBRANCH  62  87
ENDBRANCH  36  37
ENDBRANCH  28  31
ENDBRANCH  26  27
ENDBRANCH   1  26
TORSDOF 16
ENDMDL
MODEL 2
REMARK VINA RESULT:     -12.2      2.227      3.148
REMARK SMILES O=C1CC[C@H](CNC(=O)N[C@@H]2C=C[C@@H](C(=O)NCCCNC(=O)c3ccc(-c4c5nc(c(-c6c(F)cc(S(=O)(=O)[O-])cc6F)c6ccc([nH]6)c(-c6c(F)cc(S(=O)(=O)[O-])cc6F)c6nc(c(-c7c(F)cc(S(=O)(=O)[O-])cc7F)c7ccc4[nH]7)C=C6)C=C5)cc3)C2)N1
REMARK SMILES IDX 19 1 18 2 17 3 15 4 16 5 14 7 11 8 12 9 90 10 13 11 10 12
REMARK SMILES IDX 7 13 8 14 9 16 6 18 5 19 1 20 2 21 3 22 91 23 4 24 20 26
REMARK SMILES IDX 21 27 22 28 23 30 24 31 25 32 89 33 26 34 88 35 27 36 28 37
REMARK SMILES IDX 29 38 82 39 30 40 87 41 81 42 83 43 31 44 86 45 80 46 79 47
REMARK SMILES IDX 32 49 66 50 45 51 65 52 46 53 49 54 64 55 84 56 47 57 48 58
REMARK SMILES IDX 63 60 85 61 50 62 33 63 34 64 43 65 35 66 36 67 42 68 44 69
REMARK SMILES IDX 37 70 38 71 39 72 40 73 41 74 67 75 68 76 77 77 69 78 70 79
REMARK SMILES IDX 76 80 78 81 71 82 72 83 73 84 74 85 75 86 51 87 52 88 61 89
REMARK SMILES IDX 53 90 54 91 60 92 62 93 55 94 56 95 57 96 58 97 59 98
REMARK H PARENT 17 6 7 15 10 17 91 25 21 29 83 48 49 59
REMARK Flexibility Score: inf
ROOT
ATOM      1  C   UNL A   1      34.826  31.896  27.721  1.00  0.00     0.042 C 
ENDROOT
BRANCH   1   2
ATOM      2  C   UNL A   1      34.655  30.407  27.423  1.00  0.00     0.117 C 
BRANCH   2   3
ATOM      3  N   UNL A   1      33.334  29.898  27.737  1.00  0.00    -0.356 N 
ATOM      4  C   UNL A   1      32.407  29.257  26.976  1.00  0.00     0.227 C 
ATOM      5  O   UNL A   1      31.439  28.766  27.568  1.00  0.00    -0.274 OA
ATOM      6  H   UNL A   1      33.058  30.041  28.672  1.00  0.00     0.163 HD
BRANCH   4   7
ATOM      7  C   UNL A   1      32.471  29.186  25.443  1.00  0.00     0.103 C 
ATOM      8  C   UNL A   1      32.128  27.214  23.996  1.00  0.00     0.107 C 
ATOM      9  C   UNL A   1      31.038  28.230  23.847  1.00  0.00    -0.006 C 
ATOM     10  C   UNL A   1      33.120  27.894  24.949  1.00  0.00     0.047 C 
ATOM     11  C   UNL A   1      31.193  29.272  24.675  1.00  0.00    -0.016 C 
BRANCH   8  12
ATOM     12  N   UNL A   1      32.701  26.905  22.706  1.00  0.00    -0.332 N 
ATOM     13  N   UNL A   1      31.690  24.862  22.052  1.00  0.00    -0.336 N 
ATOM     14  C   UNL A   1      32.521  25.897  21.835  1.00  0.00     0.315 C 
ATOM     15  H   UNL A   1      31.618  24.233  21.298  1.00  0.00     0.165 HD
ATOM     16  O   UNL A   1      33.162  25.919  20.783  1.00  0.00    -0.249 OA
ATOM     17  H   UNL A   1      33.362  27.570  22.403  1.00  0.00     0.165 HD
BRANCH  13  18
ATOM     18  C   UNL A   1      30.885  24.512  23.199  1.00  0.00     0.142 C 
BRANCH  18  19
ATOM     19  C   UNL A   1      31.280  23.232  23.956  1.00  0.00     0.101 C 
ATOM     20  O   UNL A   1      30.757  24.057  27.323  1.00  0.00    -0.275 OA
ATOM     21  C   UNL A   1      31.242  23.754  26.245  1.00  0.00     0.220 C 
ATOM     22  C   UNL A   1      32.649  24.031  25.773  1.00  0.00     0.102 C 
ATOM     23  N   UNL A   1      30.549  23.181  25.202  1.00  0.00    -0.352 N 
ATOM     24  C   UNL A   1      32.723  23.258  24.452  1.00  0.00     0.036 C 
ATOM     25  H   UNL A   1      29.653  22.782  25.295  1.00  0.00     0.163 HD
ENDBRANCH  18  19
ENDBRANCH  13  18
ENDBRANCH   8  12
ENDBRANCH   4   7
ENDBRANCH   2   3
ENDBRANCH   1   2
BRANCH   1  26
ATOM     26  C   UNL A   1      35.884  32.235  28.771  1.00  0.00     0.118 C 
BRANCH  26  27
ATOM     27  N   UNL A   1      35.674  31.533  30.031  1.00  0.00    -0.352 N 
ATOM     28  C   UNL A   1      36.420  30.572  30.666  1.00  0.00     0.251 C 
ATOM     29  H   UNL A   1      34.854  31.794  30.510  1.00  0.00     0.163 HD
ATOM     30  O   UNL A   1      35.935  30.006  31.644  1.00  0.00    -0.269 OA
BRANCH  28  31
ATOM     31  C   UNL A   1      37.774  30.192  30.196  1.00  0.00     0.039 A 
ATOM     32  C   UNL A   1      38.774  29.974  31.152  1.00  0.00     0.014 A 
ATOM     33  C   UNL A   1      38.094  30.117  28.839  1.00  0.00     0.014 A 
ATOM     34  C   UNL A   1      40.070  29.629  30.752  1.00  0.00     0.010 A 
ATOM     35  C   UNL A   1      39.369  29.709  28.441  1.00  0.00     0.010 A 
ATOM     36  C   UNL A   1      40.372  29.466  29.392  1.00  0.00    -0.014 A 
BRANCH  36  37
ATOM     37  C   UNL A   1      41.727  29.047  28.945  1.00  0.00     0.031 A 
ATOM     38  C   UNL A   1      42.848  30.049  28.874  1.00  0.00     0.074 A 
ATOM     39  C   UNL A   1      41.933  27.778  28.540  1.00  0.00     0.049 A 
ATOM     40  N   UNL A   1      44.072  29.890  28.439  1.00  0.00    -0.248 NA
ATOM     41  C   UNL A   1      42.548  31.413  29.335  1.00  0.00     0.031 C 
ATOM     42  C   UNL A   1      40.923  26.719  28.532  1.00  0.00     0.029 A 
ATOM     43  N   UNL A   1      43.058  27.167  28.044  1.00  0.00    -0.354 N 
ATOM     44  C   UNL A   1      44.680  31.136  28.547  1.00  0.00     0.074 A 
ATOM     45  C   UNL A   1      43.678  32.047  29.058  1.00  0.00     0.031 C 
ATOM     46  C   UNL A   1      41.479  25.585  28.075  1.00  0.00     0.029 A 
ATOM     47  C   UNL A   1      42.871  25.844  27.721  1.00  0.00     0.049 A 
ATOM     48  H   UNL A   1      43.919  27.633  27.932  1.00  0.00     0.167 HD
ATOM     49  C   UNL A   1      45.957  31.485  28.260  1.00  0.00     0.037 A 
ATOM     50  C   UNL A   1      43.721  24.943  27.191  1.00  0.00     0.037 A 
ATOM     51  C   UNL A   1      46.959  30.568  27.779  1.00  0.00     0.049 A 
ATOM     52  C   UNL A   1      45.132  25.355  26.875  1.00  0.00     0.074 A 
ATOM     53  C   UNL A   1      48.298  30.811  27.528  1.00  0.00     0.029 A 
ATOM     54  N   UNL A   1      46.731  29.235  27.472  1.00  0.00    -0.354 N 
ATOM     55  N   UNL A   1      45.706  26.523  27.039  1.00  0.00    -0.248 NA
ATOM     56  C   UNL A   1      46.013  24.326  26.303  1.00  0.00     0.031 C 
ATOM     57  C   UNL A   1      48.870  29.637  27.028  1.00  0.00     0.029 A 
ATOM     58  C   UNL A   1      47.898  28.649  27.011  1.00  0.00     0.049 A 
ATOM     59  H   UNL A   1      45.867  28.774  27.566  1.00  0.00     0.167 HD
ATOM     60  C   UNL A   1      47.022  26.361  26.622  1.00  0.00     0.074 A 
ATOM     61  C   UNL A   1      47.161  24.983  26.198  1.00  0.00     0.031 C 
ATOM     62  C   UNL A   1      48.026  27.272  26.598  1.00  0.00     0.037 A 
BRANCH  49  63
ATOM     63  C   UNL A   1      46.341  32.928  28.447  1.00  0.00     0.058 A 
ATOM     64  C   UNL A   1      46.885  33.399  29.652  1.00  0.00     0.135 A 
ATOM     65  C   UNL A   1      46.180  33.849  27.398  1.00  0.00     0.135 A 
ATOM     66  F   UNL A   1      47.051  32.564  30.691  1.00  0.00    -0.206 F 
ATOM     67  C   UNL A   1      47.220  34.738  29.826  1.00  0.00     0.059 A 
ATOM     68  C   UNL A   1      46.534  35.188  27.541  1.00  0.00     0.059 A 
ATOM     69  F   UNL A   1      45.670  33.453  26.222  1.00  0.00    -0.206 F 
ATOM     70  C   UNL A   1      47.034  35.627  28.765  1.00  0.00     0.060 A 
BRANCH  70  71
ATOM     71  S   UNL A   1      47.457  37.365  29.009  1.00  0.00     0.124 S 
ATOM     72  O   UNL A   1      47.477  37.456  30.466  1.00  0.00    -0.237 OA
ATOM     73  O   UNL A   1      48.755  37.469  28.350  1.00  0.00    -0.237 OA
ATOM     74  O   UNL A   1      46.365  38.076  28.351  1.00  0.00    -0.744 OA
ENDBRANCH  70  71
ENDBRANCH  49  63
BRANCH  50  75
ATOM     75  C   UNL A   1      43.264  23.548  26.958  1.00  0.00     0.058 A 
ATOM     76  C   UNL A   1      42.987  23.093  25.660  1.00  0.00     0.135 A 
ATOM     77  C   UNL A   1      43.127  22.635  28.014  1.00  0.00     0.135 A 
ATOM     78  F   UNL A   1      43.097  23.932  24.619  1.00  0.00    -0.206 F 
ATOM     79  C   UNL A   1      42.584  21.785  25.417  1.00  0.00     0.059 A 
ATOM     80  C   UNL A   1      42.745  21.315  27.795  1.00  0.00     0.059 A 
ATOM     81  F   UNL A   1      43.395  23.017  29.273  1.00  0.00    -0.206 F 
ATOM     82  C   UNL A   1      42.472  20.901  26.491  1.00  0.00     0.060 A 
BRANCH  82  83
ATOM     83  S   UNL A   1      42.015  19.186  26.157  1.00  0.00     0.124 S 
ATOM     84  O   UNL A   1      42.881  18.865  25.030  1.00  0.00    -0.237 OA
ATOM     85  O   UNL A   1      42.341  18.531  27.421  1.00  0.00    -0.237 OA
ATOM     86  O   UNL A   1      40.589  19.272  25.857  1.00  0.00    -0.744 OA
ENDBRANCH  82  83
ENDBRANCH  50  75
BRANCH  62  87
ATOM     87  C   UNL A   1      49.377  26.804  26.135  1.00  0.00     0.058 A 
ATOM     88  C   UNL A   1      49.829  27.032  24.826  1.00  0.00     0.135 A 
ATOM     89  C   UNL A   1      50.253  26.170  27.031  1.00  0.00     0.135 A 
ATOM     90  F   UNL A   1      49.028  27.626  23.929  1.00  0.00    -0.206 F 
ATOM     91  C   UNL A   1      51.097  26.633  24.417  1.00  0.00     0.059 A 
ATOM     92  C   UNL A   1      51.535  25.786  26.650  1.00  0.00     0.059 A 
ATOM     93  F   UNL A   1      49.873  25.937  28.297  1.00  0.00    -0.206 F 
ATOM     94  C   UNL A   1      51.945  26.012  25.338  1.00  0.00     0.060 A 
BRANCH  94  95
ATOM     95  S   UNL A   1      53.604  25.537  24.807  1.00  0.00     0.124 S 
ATOM     96  O   UNL A   1      53.676  24.154  25.268  1.00  0.00    -0.237 OA
ATOM     97  O   UNL A   1      53.536  25.720  23.361  1.00  0.00    -0.237 OA
ATOM     98  O   UNL A   1      54.469  26.479  25.511  1.00  0.00    -0.744 OA
ENDBRANCH  94  95
ENDBRANCH  62  87
ENDBRANCH  36  37
ENDBRANCH  28  31
ENDBRANCH  26  27
ENDBRANCH   1  26
TORSDOF 16
ENDMDL
MODEL 3
REMARK VINA RESULT:     -12.1      4.280      7.651
REMARK SMILES O=C1CC[C@H](CNC(=O)N[C@@H]2C=C[C@@H](C(=O)NCCCNC(=O)c3ccc(-c4c5nc(c(-c6c(F)cc(S(=O)(=O)[O-])cc6F)c6ccc([nH]6)c(-c6c(F)cc(S(=O)(=O)[O-])cc6F)c6nc(c(-c7c(F)cc(S(=O)(=O)[O-])cc7F)c7ccc4[nH]7)C=C6)C=C5)cc3)C2)N1
REMARK SMILES IDX 19 1 18 2 17 3 15 4 16 5 14 7 11 8 12 9 90 10 13 11 10 12
REMARK SMILES IDX 7 13 8 14 9 16 6 18 5 19 1 20 2 21 3 22 91 23 4 24 20 26
REMARK SMILES IDX 21 27 22 28 23 30 24 31 25 32 89 33 26 34 88 35 27 36 28 37
REMARK SMILES IDX 29 38 82 39 30 40 87 41 81 42 83 43 31 44 86 45 80 46 79 47
REMARK SMILES IDX 32 49 66 50 45 51 65 52 46 53 49 54 64 55 84 56 47 57 48 58
REMARK SMILES IDX 63 60 85 61 50 62 33 63 34 64 43 65 35 66 36 67 42 68 44 69
REMARK SMILES IDX 37 70 38 71 39 72 40 73 41 74 67 75 68 76 77 77 69 78 70 79
REMARK SMILES IDX 76 80 78 81 71 82 72 83 73 84 74 85 75 86 51 87 52 88 61 89
REMARK SMILES IDX 53 90 54 91 60 92 62 93 55 94 56 95 57 96 58 97 59 98
REMARK H PARENT 17 6 7 15 10 17 91 25 21 29 83 48 49 59
REMARK Flexibility Score: inf
ROOT
ATOM      1  C   UNL A   1      35.261  33.299  28.049  1.00  0.00     0.042 C 
ENDROOT
BRANCH   1   2
ATOM      2  C   UNL A   1      33.827  33.635  28.457  1.00  0.00     0.117 C 
BRANCH   2   3
ATOM      3  N   UNL A   1      33.500  35.043  28.329  1.00  0.00    -0.356 N 
ATOM      4  C   UNL A   1      33.335  36.021  29.260  1.00  0.00     0.227 C 
ATOM      5  O   UNL A   1      33.247  37.181  28.842  1.00  0.00    -0.274 OA
ATOM      6  H   UNL A   1      33.376  35.345  27.401  1.00  0.00     0.163 HD
BRANCH   4   7
ATOM      7  C   UNL A   1      33.180  35.745  30.762  1.00  0.00     0.103 C 
ATOM      8  C   UNL A   1      34.951  35.624  32.478  1.00  0.00     0.107 C 
ATOM      9  C   UNL A   1      34.056  36.811  32.661  1.00  0.00    -0.006 C 
ATOM     10  C   UNL A   1      34.304  34.869  31.310  1.00  0.00     0.047 C 
ATOM     11  C   UNL A   1      33.133  36.909  31.697  1.00  0.00    -0.016 C 
BRANCH   8  12
ATOM     12  N   UNL A   1      35.006  34.848  33.696  1.00  0.00    -0.332 N 
ATOM     13  N   UNL A   1      37.252  34.104  33.856  1.00  0.00    -0.336 N 
ATOM     14  C   UNL A   1      35.993  34.187  34.324  1.00  0.00     0.315 C 
ATOM     15  H   UNL A   1      37.879  33.637  34.455  1.00  0.00     0.165 HD
ATOM     16  O   UNL A   1      35.727  33.615  35.383  1.00  0.00    -0.249 OA
ATOM     17  H   UNL A   1      34.140  34.791  34.161  1.00  0.00     0.165 HD
BRANCH  13  18
ATOM     18  C   UNL A   1      37.844  34.580  32.628  1.00  0.00     0.142 C 
BRANCH  18  19
ATOM     19  C   UNL A   1      38.311  33.509  31.626  1.00  0.00     0.101 C 
ATOM     20  O   UNL A   1      41.545  34.540  30.749  1.00  0.00    -0.275 OA
ATOM     21  C   UNL A   1      40.361  34.245  30.748  1.00  0.00     0.220 C 
ATOM     22  C   UNL A   1      39.292  34.784  29.830  1.00  0.00     0.102 C 
ATOM     23  N   UNL A   1      39.753  33.423  31.672  1.00  0.00    -0.352 N 
ATOM     24  C   UNL A   1      38.077  33.915  30.173  1.00  0.00     0.036 C 
ATOM     25  H   UNL A   1      40.247  32.842  32.295  1.00  0.00     0.163 HD
ENDBRANCH  18  19
ENDBRANCH  13  18
ENDBRANCH   8  12
ENDBRANCH   4   7
ENDBRANCH   2   3
ENDBRANCH   1   2
BRANCH   1  26
ATOM     26  C   UNL A   1      35.666  31.836  28.231  1.00  0.00     0.118 C 
BRANCH  26  27
ATOM     27  N   UNL A   1      35.492  31.369  29.601  1.00  0.00    -0.352 N 
ATOM     28  C   UNL A   1      36.290  30.586  30.397  1.00  0.00     0.251 C 
ATOM     29  H   UNL A   1      34.658  31.668  30.029  1.00  0.00     0.163 HD
ATOM     30  O   UNL A   1      35.835  30.184  31.467  1.00  0.00    -0.269 OA
BRANCH  28  31
ATOM     31  C   UNL A   1      37.665  30.201  29.996  1.00  0.00     0.039 A 
ATOM     32  C   UNL A   1      38.614  29.973  31.001  1.00  0.00     0.014 A 
ATOM     33  C   UNL A   1      38.054  30.130  28.656  1.00  0.00     0.014 A 
ATOM     34  C   UNL A   1      39.926  29.624  30.666  1.00  0.00     0.010 A 
ATOM     35  C   UNL A   1      39.345  29.718  28.322  1.00  0.00     0.010 A 
ATOM     36  C   UNL A   1      40.297  29.466  29.322  1.00  0.00    -0.014 A 
BRANCH  36  37
ATOM     37  C   UNL A   1      41.671  29.043  28.943  1.00  0.00     0.031 A 
ATOM     38  C   UNL A   1      42.799  30.040  28.933  1.00  0.00     0.074 A 
ATOM     39  C   UNL A   1      41.892  27.775  28.544  1.00  0.00     0.049 A 
ATOM     40  N   UNL A   1      44.043  29.877  28.560  1.00  0.00    -0.248 NA
ATOM     41  C   UNL A   1      42.481  31.404  29.383  1.00  0.00     0.031 C 
ATOM     42  C   UNL A   1      40.879  26.720  28.481  1.00  0.00     0.029 A 
ATOM     43  N   UNL A   1      43.038  27.160  28.103  1.00  0.00    -0.354 N 
ATOM     44  C   UNL A   1      44.649  31.120  28.704  1.00  0.00     0.074 A 
ATOM     45  C   UNL A   1      43.626  32.034  29.167  1.00  0.00     0.031 C 
ATOM     46  C   UNL A   1      41.453  25.585  28.049  1.00  0.00     0.029 A 
ATOM     47  C   UNL A   1      42.862  25.839  27.767  1.00  0.00     0.049 A 
ATOM     48  H   UNL A   1      43.906  27.622  28.037  1.00  0.00     0.167 HD
ATOM     49  C   UNL A   1      45.941  31.465  28.483  1.00  0.00     0.037 A 
ATOM     50  C   UNL A   1      43.734  24.936  27.277  1.00  0.00     0.037 A 
ATOM     51  C   UNL A   1      46.962  30.545  28.050  1.00  0.00     0.049 A 
ATOM     52  C   UNL A   1      45.162  25.343  27.035  1.00  0.00     0.074 A 
ATOM     53  C   UNL A   1      48.313  30.783  27.868  1.00  0.00     0.029 A 
ATOM     54  N   UNL A   1      46.744  29.214  27.727  1.00  0.00    -0.354 N 
ATOM     55  N   UNL A   1      45.731  26.508  27.233  1.00  0.00    -0.248 NA
ATOM     56  C   UNL A   1      46.066  24.312  26.505  1.00  0.00     0.031 C 
ATOM     57  C   UNL A   1      48.905  29.608  27.394  1.00  0.00     0.029 A 
ATOM     58  C   UNL A   1      47.931  28.624  27.324  1.00  0.00     0.049 A 
ATOM     59  H   UNL A   1      45.874  28.757  27.776  1.00  0.00     0.167 HD
ATOM     60  C   UNL A   1      47.066  26.342  26.882  1.00  0.00     0.074 A 
ATOM     61  C   UNL A   1      47.220  24.964  26.461  1.00  0.00     0.031 C 
ATOM     62  C   UNL A   1      48.074  27.249  26.913  1.00  0.00     0.037 A 
BRANCH  49  63
ATOM     63  C   UNL A   1      46.321  32.905  28.694  1.00  0.00     0.058 A 
ATOM     64  C   UNL A   1      46.260  33.848  27.656  1.00  0.00     0.135 A 
ATOM     65  C   UNL A   1      46.736  33.354  29.960  1.00  0.00     0.135 A 
ATOM     66  F   UNL A   1      45.881  33.472  26.423  1.00  0.00    -0.206 F 
ATOM     67  C   UNL A   1      46.632  35.173  27.853  1.00  0.00     0.059 A 
ATOM     68  C   UNL A   1      47.087  34.681  30.186  1.00  0.00     0.059 A 
ATOM     69  F   UNL A   1      46.808  32.497  30.990  1.00  0.00    -0.206 F 
ATOM     70  C   UNL A   1      47.052  35.579  29.121  1.00  0.00     0.060 A 
BRANCH  70  71
ATOM     71  S   UNL A   1      47.548  37.299  29.359  1.00  0.00     0.124 S 
ATOM     72  O   UNL A   1      48.899  37.289  28.808  1.00  0.00    -0.237 OA
ATOM     73  O   UNL A   1      46.551  38.025  28.579  1.00  0.00    -0.237 OA
ATOM     74  O   UNL A   1      47.461  37.480  30.805  1.00  0.00    -0.744 OA
ENDBRANCH  70  71
ENDBRANCH  49  63
BRANCH  50  75
ATOM     75  C   UNL A   1      43.284  23.544  27.016  1.00  0.00     0.058 A 
ATOM     76  C   UNL A   1      43.046  23.103  25.706  1.00  0.00     0.135 A 
ATOM     77  C   UNL A   1      43.114  22.620  28.059  1.00  0.00     0.135 A 
ATOM     78  F   UNL A   1      43.188  23.953  24.678  1.00  0.00    -0.206 F 
ATOM     79  C   UNL A   1      42.650  21.798  25.437  1.00  0.00     0.059 A 
ATOM     80  C   UNL A   1      42.739  21.303  27.813  1.00  0.00     0.059 A 
ATOM     81  F   UNL A   1      43.345  22.989  29.329  1.00  0.00    -0.206 F 
ATOM     82  C   UNL A   1      42.505  20.902  26.498  1.00  0.00     0.060 A 
BRANCH  82  83
ATOM     83  S   UNL A   1      42.058  19.191  26.133  1.00  0.00     0.124 S 
ATOM     84  O   UNL A   1      42.924  18.896  24.999  1.00  0.00    -0.237 OA
ATOM     85  O   UNL A   1      42.389  18.515  27.384  1.00  0.00    -0.237 OA
ATOM     86  O   UNL A   1      40.631  19.275  25.836  1.00  0.00    -0.744 OA
ENDBRANCH  82  83
ENDBRANCH  50  75
BRANCH  62  87
ATOM     87  C   UNL A   1      49.445  26.776  26.517  1.00  0.00     0.058 A 
ATOM     88  C   UNL A   1      50.336  26.227  27.452  1.00  0.00     0.135 A 
ATOM     89  C   UNL A   1      49.849  26.821  25.172  1.00  0.00     0.135 A 
ATOM     90  F   UNL A   1      50.002  26.169  28.750  1.00  0.00    -0.206 F 
ATOM     91  C   UNL A   1      51.587  25.753  27.070  1.00  0.00     0.059 A 
ATOM     92  C   UNL A   1      51.085  26.330  24.765  1.00  0.00     0.059 A 
ATOM     93  F   UNL A   1      49.030  27.329  24.237  1.00  0.00    -0.206 F 
ATOM     94  C   UNL A   1      51.952  25.807  25.723  1.00  0.00     0.060 A 
BRANCH  94  95
ATOM     95  S   UNL A   1      53.560  25.150  25.233  1.00  0.00     0.124 S 
ATOM     96  O   UNL A   1      53.310  23.712  25.253  1.00  0.00    -0.237 OA
ATOM     97  O   UNL A   1      53.752  25.741  23.912  1.00  0.00    -0.237 OA
ATOM     98  O   UNL A   1      54.460  25.645  26.270  1.00  0.00    -0.744 OA
ENDBRANCH  94  95
ENDBRANCH  62  87
ENDBRANCH  36  37
ENDBRANCH  28  31
ENDBRANCH  26  27
ENDBRANCH   1  26
TORSDOF 16
ENDMDL
