MODEL 1
REMARK VINA RESULT:     -12.3      0.000      0.000
REMARK SMILES C[C@@H]1CN(C(=O)NC[C@@H]2CC[C@H](C(=O)NCCCNC(=O)c3ccc(-c4c5nc(c(-c6c(F)cc(S(=O)(=O)[O-])cc6F)c6ccc([nH]6)c(-c6c(F)cc(S(=O)(=O)[O-])cc6F)c6nc(c(-c7c(F)cc(S(=O)(=O)[O-])cc7F)c7ccc4[nH]7)C=C6)C=C5)cc3)O2)CC(C)(C)O1
REMARK SMILES IDX 17 1 16 2 15 3 13 4 14 5 12 7 9 8 10 9 88 10 11 11 8 12 7 13
REMARK SMILES IDX 5 14 6 15 4 17 1 18 2 19 3 20 93 21 90 22 89 23 91 24 92 25
REMARK SMILES IDX 18 26 19 27 20 28 21 30 22 31 23 32 87 33 24 34 86 35 25 36
REMARK SMILES IDX 26 37 27 38 80 39 28 40 85 41 79 42 81 43 29 44 84 45 78 46
REMARK SMILES IDX 77 47 30 49 64 50 43 51 63 52 44 53 47 54 62 55 82 56 45 57
REMARK SMILES IDX 46 58 61 60 83 61 48 62 31 63 32 64 41 65 33 66 34 67 40 68
REMARK SMILES IDX 42 69 35 70 36 71 37 72 38 73 39 74 65 75 66 76 75 77 67 78
REMARK SMILES IDX 68 79 74 80 76 81 69 82 70 83 71 84 72 85 73 86 49 87 50 88
REMARK SMILES IDX 59 89 51 90 52 91 58 92 60 93 53 94 54 95 55 96 56 97 57 98
REMARK H PARENT 15 6 7 16 19 29 81 48 47 59
REMARK Flexibility Score: inf
ROOT
ATOM      1  C   UNL A   1      37.359  23.689  25.652  1.00  0.00     0.042 C 
ENDROOT
BRANCH   1   2
ATOM      2  C   UNL A   1      37.092  22.202  25.854  1.00  0.00     0.117 C 
BRANCH   2   3
ATOM      3  N   UNL A   1      35.833  21.940  26.515  1.00  0.00    -0.354 N 
ATOM      4  C   UNL A   1      34.634  21.596  25.966  1.00  0.00     0.249 C 
ATOM      5  O   UNL A   1      33.729  21.263  26.740  1.00  0.00    -0.272 OA
ATOM      6  H   UNL A   1      35.844  22.020  27.495  1.00  0.00     0.163 HD
BRANCH   4   7
ATOM      7  C   UNL A   1      34.350  21.727  24.446  1.00  0.00     0.207 C 
ATOM      8  C   UNL A   1      33.055  22.877  22.894  1.00  0.00     0.138 C 
ATOM      9  C   UNL A   1      32.192  21.737  23.400  1.00  0.00     0.037 C 
ATOM     10  O   UNL A   1      34.107  23.011  23.864  1.00  0.00    -0.363 OA
ATOM     11  C   UNL A   1      33.198  20.812  24.038  1.00  0.00     0.045 C 
BRANCH   8  12
ATOM     12  C   UNL A   1      32.265  24.177  22.637  1.00  0.00     0.149 C 
BRANCH  12  13
ATOM     13  N   UNL A   1      33.015  25.406  22.857  1.00  0.00    -0.335 N 
ATOM     14  C   UNL A   1      32.803  26.637  23.351  1.00  0.00     0.317 C 
ATOM     15  O   UNL A   1      33.678  27.461  23.055  1.00  0.00    -0.249 OA
ATOM     16  H   UNL A   1      33.948  25.304  22.558  1.00  0.00     0.165 HD
BRANCH  14  17
ATOM     17  N   UNL A   1      31.759  26.972  24.157  1.00  0.00    -0.319 N 
ATOM     18  C   UNL A   1      32.340  24.803  26.282  1.00  0.00     0.040 C 
ATOM     19  C   UNL A   1      31.166  25.773  26.195  1.00  0.00     0.135 C 
ATOM     20  C   UNL A   1      30.746  26.123  24.760  1.00  0.00     0.153 C 
ATOM     21  O   UNL A   1      31.386  26.959  26.980  1.00  0.00    -0.369 OA
ATOM     22  C   UNL A   1      32.160  28.028  26.377  1.00  0.00     0.081 C 
ATOM     23  C   UNL A   1      31.828  28.253  24.872  1.00  0.00     0.156 C 
ATOM     24  C   UNL A   1      33.661  27.802  26.601  1.00  0.00     0.044 C 
ATOM     25  C   UNL A   1      31.753  29.281  27.171  1.00  0.00     0.044 C 
ENDBRANCH  14  17
ENDBRANCH  12  13
ENDBRANCH   8  12
ENDBRANCH   4   7
ENDBRANCH   2   3
ENDBRANCH   1   2
BRANCH   1  26
ATOM     26  C   UNL A   1      38.417  24.241  26.595  1.00  0.00     0.118 C 
BRANCH  26  27
ATOM     27  N   UNL A   1      39.749  24.270  26.003  1.00  0.00    -0.352 N 
ATOM     28  C   UNL A   1      40.875  24.949  26.406  1.00  0.00     0.251 C 
ATOM     29  H   UNL A   1      39.859  23.721  25.194  1.00  0.00     0.163 HD
ATOM     30  O   UNL A   1      41.906  24.864  25.744  1.00  0.00    -0.269 OA
BRANCH  28  31
ATOM     31  C   UNL A   1      40.842  25.841  27.590  1.00  0.00     0.039 A 
ATOM     32  C   UNL A   1      41.808  26.849  27.681  1.00  0.00     0.014 A 
ATOM     33  C   UNL A   1      39.881  25.713  28.594  1.00  0.00     0.014 A 
ATOM     34  C   UNL A   1      41.764  27.769  28.732  1.00  0.00     0.010 A 
ATOM     35  C   UNL A   1      39.786  26.679  29.595  1.00  0.00     0.010 A 
ATOM     36  C   UNL A   1      40.726  27.717  29.675  1.00  0.00    -0.014 A 
BRANCH  36  37
ATOM     37  C   UNL A   1      40.610  28.733  30.754  1.00  0.00     0.031 A 
ATOM     38  C   UNL A   1      41.470  28.623  31.985  1.00  0.00     0.074 A 
ATOM     39  C   UNL A   1      39.682  29.706  30.659  1.00  0.00     0.049 A 
ATOM     40  N   UNL A   1      41.443  29.342  33.077  1.00  0.00    -0.248 NA
ATOM     41  C   UNL A   1      42.468  27.542  32.004  1.00  0.00     0.031 C 
ATOM     42  C   UNL A   1      38.750  29.884  29.542  1.00  0.00     0.029 A 
ATOM     43  N   UNL A   1      39.354  30.721  31.524  1.00  0.00    -0.354 N 
ATOM     44  C   UNL A   1      42.396  28.785  33.922  1.00  0.00     0.074 A 
ATOM     45  C   UNL A   1      42.954  27.641  33.234  1.00  0.00     0.031 C 
ATOM     46  C   UNL A   1      37.969  30.949  29.783  1.00  0.00     0.029 A 
ATOM     47  C   UNL A   1      38.317  31.511  31.084  1.00  0.00     0.049 A 
ATOM     48  H   UNL A   1      39.819  30.870  32.379  1.00  0.00     0.167 HD
ATOM     49  C   UNL A   1      42.785  29.201  35.149  1.00  0.00     0.037 A 
ATOM     50  C   UNL A   1      37.708  32.560  31.668  1.00  0.00     0.037 A 
ATOM     51  C   UNL A   1      42.264  30.371  35.806  1.00  0.00     0.049 A 
ATOM     52  C   UNL A   1      38.188  33.028  33.015  1.00  0.00     0.074 A 
ATOM     53  C   UNL A   1      42.649  30.922  37.015  1.00  0.00     0.029 A 
ATOM     54  N   UNL A   1      41.252  31.175  35.303  1.00  0.00    -0.354 N 
ATOM     55  N   UNL A   1      39.136  32.526  33.771  1.00  0.00    -0.248 NA
ATOM     56  C   UNL A   1      37.525  34.209  33.588  1.00  0.00     0.031 C 
ATOM     57  C   UNL A   1      41.848  32.042  37.260  1.00  0.00     0.029 A 
ATOM     58  C   UNL A   1      40.991  32.211  36.184  1.00  0.00     0.049 A 
ATOM     59  H   UNL A   1      40.788  31.031  34.447  1.00  0.00     0.167 HD
ATOM     60  C   UNL A   1      39.198  33.342  34.895  1.00  0.00     0.074 A 
ATOM     61  C   UNL A   1      38.202  34.379  34.715  1.00  0.00     0.031 C 
ATOM     62  C   UNL A   1      40.005  33.242  35.979  1.00  0.00     0.037 A 
BRANCH  49  63
ATOM     63  C   UNL A   1      43.838  28.398  35.862  1.00  0.00     0.058 A 
ATOM     64  C   UNL A   1      45.206  28.661  35.691  1.00  0.00     0.135 A 
ATOM     65  C   UNL A   1      43.473  27.386  36.766  1.00  0.00     0.135 A 
ATOM     66  F   UNL A   1      45.610  29.606  34.826  1.00  0.00    -0.206 F 
ATOM     67  C   UNL A   1      46.177  27.938  36.376  1.00  0.00     0.059 A 
ATOM     68  C   UNL A   1      44.426  26.667  37.480  1.00  0.00     0.059 A 
ATOM     69  F   UNL A   1      42.179  27.092  36.964  1.00  0.00    -0.206 F 
ATOM     70  C   UNL A   1      45.777  26.944  37.271  1.00  0.00     0.060 A 
BRANCH  70  71
ATOM     71  S   UNL A   1      47.049  26.031  38.170  1.00  0.00     0.124 S 
ATOM     72  O   UNL A   1      48.139  27.001  38.196  1.00  0.00    -0.237 OA
ATOM     73  O   UNL A   1      46.401  25.772  39.452  1.00  0.00    -0.237 OA
ATOM     74  O   UNL A   1      47.274  24.855  37.337  1.00  0.00    -0.744 OA
ENDBRANCH  70  71
ENDBRANCH  49  63
BRANCH  50  75
ATOM     75  C   UNL A   1      36.585  33.251  30.980  1.00  0.00     0.058 A 
ATOM     76  C   UNL A   1      36.817  34.075  29.869  1.00  0.00     0.135 A 
ATOM     77  C   UNL A   1      35.260  33.103  31.418  1.00  0.00     0.135 A 
ATOM     78  F   UNL A   1      38.066  34.253  29.415  1.00  0.00    -0.206 F 
ATOM     79  C   UNL A   1      35.778  34.747  29.230  1.00  0.00     0.059 A 
ATOM     80  C   UNL A   1      34.203  33.745  30.781  1.00  0.00     0.059 A 
ATOM     81  F   UNL A   1      34.983  32.310  32.465  1.00  0.00    -0.206 F 
ATOM     82  C   UNL A   1      34.474  34.576  29.695  1.00  0.00     0.060 A 
BRANCH  82  83
ATOM     83  S   UNL A   1      33.127  35.423  28.840  1.00  0.00     0.124 S 
ATOM     84  O   UNL A   1      32.351  35.944  29.958  1.00  0.00    -0.237 OA
ATOM     85  O   UNL A   1      33.842  36.412  28.041  1.00  0.00    -0.237 OA
ATOM     86  O   UNL A   1      32.494  34.352  28.075  1.00  0.00    -0.744 OA
ENDBRANCH  82  83
ENDBRANCH  50  75
BRANCH  62  87
ATOM     87  C   UNL A   1      39.874  34.298  37.039  1.00  0.00     0.058 A 
ATOM     88  C   UNL A   1      40.516  35.540  36.920  1.00  0.00     0.135 A 
ATOM     89  C   UNL A   1      39.052  34.085  38.156  1.00  0.00     0.135 A 
ATOM     90  F   UNL A   1      41.318  35.789  35.873  1.00  0.00    -0.206 F 
ATOM     91  C   UNL A   1      40.359  36.531  37.884  1.00  0.00     0.059 A 
ATOM     92  C   UNL A   1      38.862  35.070  39.120  1.00  0.00     0.059 A 
ATOM     93  F   UNL A   1      38.409  32.916  38.309  1.00  0.00    -0.206 F 
ATOM     94  C   UNL A   1      39.530  36.287  38.980  1.00  0.00     0.060 A 
BRANCH  94  95
ATOM     95  S   UNL A   1      39.303  37.593  40.205  1.00  0.00     0.124 S 
ATOM     96  O   UNL A   1      40.634  38.191  40.246  1.00  0.00    -0.237 OA
ATOM     97  O   UNL A   1      38.258  38.413  39.599  1.00  0.00    -0.237 OA
ATOM     98  O   UNL A   1      38.902  36.866  41.406  1.00  0.00    -0.744 OA
ENDBRANCH  94  95
ENDBRANCH  62  87
ENDBRANCH  36  37
ENDBRANCH  28  31
ENDBRANCH  26  27
ENDBRANCH   1  26
TORSDOF 16
ENDMDL
MODEL 2
REMARK VINA RESULT:     -12.3      4.891     10.462
REMARK SMILES C[C@@H]1CN(C(=O)NC[C@@H]2CC[C@H](C(=O)NCCCNC(=O)c3ccc(-c4c5nc(c(-c6c(F)cc(S(=O)(=O)[O-])cc6F)c6ccc([nH]6)c(-c6c(F)cc(S(=O)(=O)[O-])cc6F)c6nc(c(-c7c(F)cc(S(=O)(=O)[O-])cc7F)c7ccc4[nH]7)C=C6)C=C5)cc3)O2)CC(C)(C)O1
REMARK SMILES IDX 17 1 16 2 15 3 13 4 14 5 12 7 9 8 10 9 88 10 11 11 8 12 7 13
REMARK SMILES IDX 5 14 6 15 4 17 1 18 2 19 3 20 93 21 90 22 89 23 91 24 92 25
REMARK SMILES IDX 18 26 19 27 20 28 21 30 22 31 23 32 87 33 24 34 86 35 25 36
REMARK SMILES IDX 26 37 27 38 80 39 28 40 85 41 79 42 81 43 29 44 84 45 78 46
REMARK SMILES IDX 77 47 30 49 64 50 43 51 63 52 44 53 47 54 62 55 82 56 45 57
REMARK SMILES IDX 46 58 61 60 83 61 48 62 31 63 32 64 41 65 33 66 34 67 40 68
REMARK SMILES IDX 42 69 35 70 36 71 37 72 38 73 39 74 65 75 66 76 75 77 67 78
REMARK SMILES IDX 68 79 74 80 76 81 69 82 70 83 71 84 72 85 73 86 49 87 50 88
REMARK SMILES IDX 59 89 51 90 52 91 58 92 60 93 53 94 54 95 55 96 56 97 57 98
REMARK H PARENT 15 6 7 16 19 29 81 48 47 59
REMARK Flexibility Score: inf
ROOT
ATOM      1  C   UNL A   1      33.221  28.646  24.965  1.00  0.00     0.042 C 
ENDROOT
BRANCH   1   2
ATOM      2  C   UNL A   1      31.817  29.236  24.910  1.00  0.00     0.117 C 
BRANCH   2   3
ATOM      3  N   UNL A   1      31.452  29.705  23.592  1.00  0.00    -0.354 N 
ATOM      4  C   UNL A   1      30.619  29.130  22.680  1.00  0.00     0.249 C 
ATOM      5  O   UNL A   1      30.329  29.794  21.677  1.00  0.00    -0.272 OA
ATOM      6  H   UNL A   1      31.862  30.556  23.317  1.00  0.00     0.163 HD
BRANCH   4   7
ATOM      7  C   UNL A   1      30.138  27.661  22.807  1.00  0.00     0.207 C 
ATOM      8  C   UNL A   1      30.130  25.830  24.241  1.00  0.00     0.138 C 
ATOM      9  C   UNL A   1      31.461  25.789  23.515  1.00  0.00     0.037 C 
ATOM     10  O   UNL A   1      29.641  27.168  24.055  1.00  0.00    -0.363 OA
ATOM     11  C   UNL A   1      31.227  26.700  22.335  1.00  0.00     0.045 C 
BRANCH   8  12
ATOM     12  C   UNL A   1      30.225  25.393  25.718  1.00  0.00     0.149 C 
BRANCH  12  13
ATOM     13  N   UNL A   1      30.195  23.953  25.935  1.00  0.00    -0.335 N 
ATOM     14  C   UNL A   1      31.049  22.971  26.269  1.00  0.00     0.317 C 
ATOM     15  O   UNL A   1      30.627  21.829  26.037  1.00  0.00    -0.249 OA
ATOM     16  H   UNL A   1      29.288  23.596  25.798  1.00  0.00     0.165 HD
BRANCH  14  17
ATOM     17  N   UNL A   1      32.256  23.170  26.865  1.00  0.00    -0.319 N 
ATOM     18  C   UNL A   1      33.402  20.400  26.111  1.00  0.00     0.040 C 
ATOM     19  C   UNL A   1      34.016  21.489  26.985  1.00  0.00     0.135 C 
ATOM     20  C   UNL A   1      32.991  22.311  27.778  1.00  0.00     0.153 C 
ATOM     21  O   UNL A   1      34.907  22.341  26.240  1.00  0.00    -0.369 OA
ATOM     22  C   UNL A   1      34.319  23.437  25.494  1.00  0.00     0.081 C 
ATOM     23  C   UNL A   1      33.166  24.152  26.261  1.00  0.00     0.156 C 
ATOM     24  C   UNL A   1      33.872  22.968  24.103  1.00  0.00     0.044 C 
ATOM     25  C   UNL A   1      35.480  24.427  25.303  1.00  0.00     0.044 C 
ENDBRANCH  14  17
ENDBRANCH  12  13
ENDBRANCH   8  12
ENDBRANCH   4   7
ENDBRANCH   2   3
ENDBRANCH   1   2
BRANCH   1  26
ATOM     26  C   UNL A   1      33.807  28.624  26.368  1.00  0.00     0.118 C 
BRANCH  26  27
ATOM     27  N   UNL A   1      33.621  29.880  27.083  1.00  0.00    -0.352 N 
ATOM     28  C   UNL A   1      34.496  30.572  27.888  1.00  0.00     0.251 C 
ATOM     29  H   UNL A   1      32.736  30.296  26.974  1.00  0.00     0.163 HD
ATOM     30  O   UNL A   1      34.131  31.612  28.430  1.00  0.00    -0.269 OA
BRANCH  28  31
ATOM     31  C   UNL A   1      35.853  30.043  28.167  1.00  0.00     0.039 A 
ATOM     32  C   UNL A   1      36.811  30.121  27.150  1.00  0.00     0.014 A 
ATOM     33  C   UNL A   1      36.199  29.490  29.401  1.00  0.00     0.014 A 
ATOM     34  C   UNL A   1      38.127  29.717  27.394  1.00  0.00     0.010 A 
ATOM     35  C   UNL A   1      37.528  29.167  29.671  1.00  0.00     0.010 A 
ATOM     36  C   UNL A   1      38.506  29.277  28.671  1.00  0.00    -0.014 A 
BRANCH  36  37
ATOM     37  C   UNL A   1      39.916  28.920  28.979  1.00  0.00     0.031 A 
ATOM     38  C   UNL A   1      40.842  29.952  29.564  1.00  0.00     0.074 A 
ATOM     39  C   UNL A   1      40.378  27.693  28.662  1.00  0.00     0.049 A 
ATOM     40  N   UNL A   1      42.125  29.869  29.802  1.00  0.00    -0.248 NA
ATOM     41  C   UNL A   1      40.256  31.261  29.894  1.00  0.00     0.031 C 
ATOM     42  C   UNL A   1      39.593  26.624  28.039  1.00  0.00     0.029 A 
ATOM     43  N   UNL A   1      41.628  27.141  28.805  1.00  0.00    -0.354 N 
ATOM     44  C   UNL A   1      42.504  31.118  30.280  1.00  0.00     0.074 A 
ATOM     45  C   UNL A   1      41.325  31.954  30.258  1.00  0.00     0.031 C 
ATOM     46  C   UNL A   1      40.374  25.546  27.868  1.00  0.00     0.029 A 
ATOM     47  C   UNL A   1      41.721  25.852  28.334  1.00  0.00     0.049 A 
ATOM     48  H   UNL A   1      42.386  27.624  29.208  1.00  0.00     0.167 HD
ATOM     49  C   UNL A   1      43.719  31.523  30.717  1.00  0.00     0.037 A 
ATOM     50  C   UNL A   1      42.777  25.017  28.274  1.00  0.00     0.037 A 
ATOM     51  C   UNL A   1      44.876  30.670  30.787  1.00  0.00     0.049 A 
ATOM     52  C   UNL A   1      44.107  25.479  28.806  1.00  0.00     0.074 A 
ATOM     53  C   UNL A   1      46.132  30.963  31.287  1.00  0.00     0.029 A 
ATOM     54  N   UNL A   1      44.916  29.354  30.350  1.00  0.00    -0.354 N 
ATOM     55  N   UNL A   1      44.430  26.645  29.314  1.00  0.00    -0.248 NA
ATOM     56  C   UNL A   1      45.214  24.513  28.764  1.00  0.00     0.031 C 
ATOM     57  C   UNL A   1      46.941  29.834  31.125  1.00  0.00     0.029 A 
ATOM     58  C   UNL A   1      46.179  28.826  30.558  1.00  0.00     0.049 A 
ATOM     59  H   UNL A   1      44.159  28.868  29.950  1.00  0.00     0.167 HD
ATOM     60  C   UNL A   1      45.769  26.544  29.674  1.00  0.00     0.074 A 
ATOM     61  C   UNL A   1      46.192  25.200  29.338  1.00  0.00     0.031 C 
ATOM     62  C   UNL A   1      46.576  27.480  30.230  1.00  0.00     0.037 A 
BRANCH  49  63
ATOM     63  C   UNL A   1      43.862  32.949  31.171  1.00  0.00     0.058 A 
ATOM     64  C   UNL A   1      44.253  33.967  30.289  1.00  0.00     0.135 A 
ATOM     65  C   UNL A   1      43.553  33.310  32.494  1.00  0.00     0.135 A 
ATOM     66  F   UNL A   1      44.576  33.674  29.019  1.00  0.00    -0.206 F 
ATOM     67  C   UNL A   1      44.354  35.291  30.704  1.00  0.00     0.059 A 
ATOM     68  C   UNL A   1      43.623  34.632  32.925  1.00  0.00     0.059 A 
ATOM     69  F   UNL A   1      43.177  32.375  33.379  1.00  0.00    -0.206 F 
ATOM     70  C   UNL A   1      44.034  35.614  32.025  1.00  0.00     0.060 A 
BRANCH  70  71
ATOM     71  S   UNL A   1      44.147  37.340  32.541  1.00  0.00     0.124 S 
ATOM     72  O   UNL A   1      43.862  38.037  31.291  1.00  0.00    -0.237 OA
ATOM     73  O   UNL A   1      43.110  37.429  33.565  1.00  0.00    -0.237 OA
ATOM     74  O   UNL A   1      45.516  37.460  33.029  1.00  0.00    -0.744 OA
ENDBRANCH  70  71
ENDBRANCH  49  63
BRANCH  50  75
ATOM     75  C   UNL A   1      42.620  23.654  27.701  1.00  0.00     0.058 A 
ATOM     76  C   UNL A   1      42.401  22.543  28.530  1.00  0.00     0.135 A 
ATOM     77  C   UNL A   1      42.685  23.433  26.317  1.00  0.00     0.135 A 
ATOM     78  F   UNL A   1      42.336  22.702  29.860  1.00  0.00    -0.206 F 
ATOM     79  C   UNL A   1      42.276  21.258  28.010  1.00  0.00     0.059 A 
ATOM     80  C   UNL A   1      42.540  22.162  25.772  1.00  0.00     0.059 A 
ATOM     81  F   UNL A   1      42.873  24.465  25.480  1.00  0.00    -0.206 F 
ATOM     82  C   UNL A   1      42.349  21.078  26.628  1.00  0.00     0.060 A 
BRANCH  82  83
ATOM     83  S   UNL A   1      42.150  19.412  25.956  1.00  0.00     0.124 S 
ATOM     84  O   UNL A   1      40.710  19.352  25.743  1.00  0.00    -0.237 OA
ATOM     85  O   UNL A   1      42.974  19.464  24.753  1.00  0.00    -0.237 OA
ATOM     86  O   UNL A   1      42.668  18.560  27.023  1.00  0.00    -0.744 OA
ENDBRANCH  82  83
ENDBRANCH  50  75
BRANCH  62  87
ATOM     87  C   UNL A   1      47.987  27.076  30.547  1.00  0.00     0.058 A 
ATOM     88  C   UNL A   1      49.030  27.271  29.629  1.00  0.00     0.135 A 
ATOM     89  C   UNL A   1      48.307  26.541  31.805  1.00  0.00     0.135 A 
ATOM     90  F   UNL A   1      48.773  27.773  28.411  1.00  0.00    -0.206 F 
ATOM     91  C   UNL A   1      50.343  26.933  29.942  1.00  0.00     0.059 A 
ATOM     92  C   UNL A   1      49.617  26.219  32.148  1.00  0.00     0.059 A 
ATOM     93  F   UNL A   1      47.346  26.345  32.721  1.00  0.00    -0.206 F 
ATOM     94  C   UNL A   1      50.626  26.409  31.204  1.00  0.00     0.060 A 
BRANCH  94  95
ATOM     95  S   UNL A   1      52.338  26.010  31.614  1.00  0.00     0.124 S 
ATOM     96  O   UNL A   1      52.993  26.164  30.318  1.00  0.00    -0.237 OA
ATOM     97  O   UNL A   1      52.666  27.023  32.614  1.00  0.00    -0.237 OA
ATOM     98  O   UNL A   1      52.257  24.643  32.119  1.00  0.00    -0.744 OA
ENDBRANCH  94  95
ENDBRANCH  62  87
ENDBRANCH  36  37
ENDBRANCH  28  31
ENDBRANCH  26  27
ENDBRANCH   1  26
TORSDOF 16
ENDMDL
MODEL 3
REMARK VINA RESULT:     -12.1      4.851     10.406
REMARK SMILES C[C@@H]1CN(C(=O)NC[C@@H]2CC[C@H](C(=O)NCCCNC(=O)c3ccc(-c4c5nc(c(-c6c(F)cc(S(=O)(=O)[O-])cc6F)c6ccc([nH]6)c(-c6c(F)cc(S(=O)(=O)[O-])cc6F)c6nc(c(-c7c(F)cc(S(=O)(=O)[O-])cc7F)c7ccc4[nH]7)C=C6)C=C5)cc3)O2)CC(C)(C)O1
REMARK SMILES IDX 17 1 16 2 15 3 13 4 14 5 12 7 9 8 10 9 88 10 11 11 8 12 7 13
REMARK SMILES IDX 5 14 6 15 4 17 1 18 2 19 3 20 93 21 90 22 89 23 91 24 92 25
REMARK SMILES IDX 18 26 19 27 20 28 21 30 22 31 23 32 87 33 24 34 86 35 25 36
REMARK SMILES IDX 26 37 27 38 80 39 28 40 85 41 79 42 81 43 29 44 84 45 78 46
REMARK SMILES IDX 77 47 30 49 64 50 43 51 63 52 44 53 47 54 62 55 82 56 45 57
REMARK SMILES IDX 46 58 61 60 83 61 48 62 31 63 32 64 41 65 33 66 34 67 40 68
REMARK SMILES IDX 42 69 35 70 36 71 37 72 38 73 39 74 65 75 66 76 75 77 67 78
REMARK SMILES IDX 68 79 74 80 76 81 69 82 70 83 71 84 72 85 73 86 49 87 50 88
REMARK SMILES IDX 59 89 51 90 52 91 58 92 60 93 53 94 54 95 55 96 56 97 57 98
REMARK H PARENT 15 6 7 16 19 29 81 48 47 59
REMARK Flexibility Score: inf
ROOT
ATOM      1  C   UNL A   1      32.351  28.122  26.538  1.00  0.00     0.042 C 
ENDROOT
BRANCH   1   2
ATOM      2  C   UNL A   1      32.264  26.601  26.475  1.00  0.00     0.117 C 
BRANCH   2   3
ATOM      3  N   UNL A   1      30.960  26.095  26.844  1.00  0.00    -0.354 N 
ATOM      4  C   UNL A   1      30.108  25.318  26.118  1.00  0.00     0.249 C 
ATOM      5  O   UNL A   1      29.112  24.871  26.699  1.00  0.00    -0.272 OA
ATOM      6  H   UNL A   1      30.646  26.346  27.741  1.00  0.00     0.163 HD
BRANCH   4   7
ATOM      7  C   UNL A   1      30.290  25.088  24.594  1.00  0.00     0.207 C 
ATOM      8  C   UNL A   1      31.810  25.335  22.851  1.00  0.00     0.138 C 
ATOM      9  C   UNL A   1      31.128  26.681  23.007  1.00  0.00     0.037 C 
ATOM     10  O   UNL A   1      31.545  24.634  24.076  1.00  0.00    -0.363 OA
ATOM     11  C   UNL A   1      29.899  26.342  23.815  1.00  0.00     0.045 C 
BRANCH   8  12
ATOM     12  C   UNL A   1      33.308  25.445  22.498  1.00  0.00     0.149 C 
BRANCH  12  13
ATOM     13  N   UNL A   1      34.214  25.356  23.634  1.00  0.00    -0.335 N 
ATOM     14  C   UNL A   1      34.939  24.419  24.269  1.00  0.00     0.317 C 
ATOM     15  O   UNL A   1      35.333  24.757  25.393  1.00  0.00    -0.249 OA
ATOM     16  H   UNL A   1      34.331  26.236  24.059  1.00  0.00     0.165 HD
BRANCH  14  17
ATOM     17  N   UNL A   1      35.278  23.215  23.733  1.00  0.00    -0.319 N 
ATOM     18  C   UNL A   1      37.652  22.716  25.649  1.00  0.00     0.040 C 
ATOM     19  C   UNL A   1      37.195  21.891  24.449  1.00  0.00     0.135 C 
ATOM     20  C   UNL A   1      36.580  22.723  23.314  1.00  0.00     0.153 C 
ATOM     21  O   UNL A   1      36.328  20.809  24.836  1.00  0.00    -0.369 OA
ATOM     22  C   UNL A   1      34.920  21.109  25.014  1.00  0.00     0.081 C 
ATOM     23  C   UNL A   1      34.360  22.088  23.939  1.00  0.00     0.156 C 
ATOM     24  C   UNL A   1      34.650  21.613  26.438  1.00  0.00     0.044 C 
ATOM     25  C   UNL A   1      34.223  19.747  24.860  1.00  0.00     0.044 C 
ENDBRANCH  14  17
ENDBRANCH  12  13
ENDBRANCH   8  12
ENDBRANCH   4   7
ENDBRANCH   2   3
ENDBRANCH   1   2
BRANCH   1  26
ATOM     26  C   UNL A   1      33.682  28.623  27.076  1.00  0.00     0.118 C 
BRANCH  26  27
ATOM     27  N   UNL A   1      33.610  29.982  27.598  1.00  0.00    -0.352 N 
ATOM     28  C   UNL A   1      34.579  30.739  28.215  1.00  0.00     0.251 C 
ATOM     29  H   UNL A   1      32.738  30.425  27.493  1.00  0.00     0.163 HD
ATOM     30  O   UNL A   1      34.305  31.869  28.614  1.00  0.00    -0.269 OA
BRANCH  28  31
ATOM     31  C   UNL A   1      35.931  30.185  28.469  1.00  0.00     0.039 A 
ATOM     32  C   UNL A   1      36.865  30.230  27.429  1.00  0.00     0.014 A 
ATOM     33  C   UNL A   1      36.294  29.640  29.702  1.00  0.00     0.014 A 
ATOM     34  C   UNL A   1      38.178  29.801  27.647  1.00  0.00     0.010 A 
ATOM     35  C   UNL A   1      37.622  29.292  29.945  1.00  0.00     0.010 A 
ATOM     36  C   UNL A   1      38.578  29.368  28.921  1.00  0.00    -0.014 A 
BRANCH  36  37
ATOM     37  C   UNL A   1      39.987  28.985  29.200  1.00  0.00     0.031 A 
ATOM     38  C   UNL A   1      40.940  29.996  29.780  1.00  0.00     0.074 A 
ATOM     39  C   UNL A   1      40.424  27.755  28.862  1.00  0.00     0.049 A 
ATOM     40  N   UNL A   1      42.226  29.889  29.994  1.00  0.00    -0.248 NA
ATOM     41  C   UNL A   1      40.381  31.310  30.134  1.00  0.00     0.031 C 
ATOM     42  C   UNL A   1      39.611  26.706  28.241  1.00  0.00     0.029 A 
ATOM     43  N   UNL A   1      41.666  27.182  28.977  1.00  0.00    -0.354 N 
ATOM     44  C   UNL A   1      42.633  31.127  30.479  1.00  0.00     0.074 A 
ATOM     45  C   UNL A   1      41.467  31.982  30.487  1.00  0.00     0.031 C 
ATOM     46  C   UNL A   1      40.370  25.617  28.044  1.00  0.00     0.029 A 
ATOM     47  C   UNL A   1      41.731  25.896  28.490  1.00  0.00     0.049 A 
ATOM     48  H   UNL A   1      42.439  27.647  29.372  1.00  0.00     0.167 HD
ATOM     49  C   UNL A   1      43.862  31.508  30.900  1.00  0.00     0.037 A 
ATOM     50  C   UNL A   1      42.771  25.045  28.403  1.00  0.00     0.037 A 
ATOM     51  C   UNL A   1      45.006  30.635  30.940  1.00  0.00     0.049 A 
ATOM     52  C   UNL A   1      44.117  25.479  28.916  1.00  0.00     0.074 A 
ATOM     53  C   UNL A   1      46.275  30.902  31.422  1.00  0.00     0.029 A 
ATOM     54  N   UNL A   1      45.016  29.324  30.488  1.00  0.00    -0.354 N 
ATOM     55  N   UNL A   1      44.468  26.634  29.431  1.00  0.00    -0.248 NA
ATOM     56  C   UNL A   1      45.208  24.497  28.845  1.00  0.00     0.031 C 
ATOM     57  C   UNL A   1      47.063  29.762  31.233  1.00  0.00     0.029 A 
ATOM     58  C   UNL A   1      46.274  28.772  30.669  1.00  0.00     0.049 A 
ATOM     59  H   UNL A   1      44.245  28.854  30.096  1.00  0.00     0.167 HD
ATOM     60  C   UNL A   1      45.811  26.508  29.767  1.00  0.00     0.074 A 
ATOM     61  C   UNL A   1      46.207  25.161  29.409  1.00  0.00     0.031 C 
ATOM     62  C   UNL A   1      46.643  27.424  30.319  1.00  0.00     0.037 A 
BRANCH  49  63
ATOM     63  C   UNL A   1      44.036  32.925  31.367  1.00  0.00     0.058 A 
ATOM     64  C   UNL A   1      43.926  33.273  32.722  1.00  0.00     0.135 A 
ATOM     65  C   UNL A   1      44.367  33.942  30.455  1.00  0.00     0.135 A 
ATOM     66  F   UNL A   1      43.594  32.343  33.634  1.00  0.00    -0.206 F 
ATOM     67  C   UNL A   1      44.118  34.580  33.157  1.00  0.00     0.059 A 
ATOM     68  C   UNL A   1      44.589  35.251  30.870  1.00  0.00     0.059 A 
ATOM     69  F   UNL A   1      44.482  33.665  29.147  1.00  0.00    -0.206 F 
ATOM     70  C   UNL A   1      44.452  35.563  32.222  1.00  0.00     0.060 A 
BRANCH  70  71
ATOM     71  S   UNL A   1      44.722  37.250  32.806  1.00  0.00     0.124 S 
ATOM     72  O   UNL A   1      45.678  37.748  31.822  1.00  0.00    -0.237 OA
ATOM     73  O   UNL A   1      43.382  37.825  32.733  1.00  0.00    -0.237 OA
ATOM     74  O   UNL A   1      45.248  37.063  34.153  1.00  0.00    -0.744 OA
ENDBRANCH  70  71
ENDBRANCH  49  63
BRANCH  50  75
ATOM     75  C   UNL A   1      42.582  23.691  27.818  1.00  0.00     0.058 A 
ATOM     76  C   UNL A   1      42.450  22.562  28.640  1.00  0.00     0.135 A 
ATOM     77  C   UNL A   1      42.529  23.498  26.430  1.00  0.00     0.135 A 
ATOM     78  F   UNL A   1      42.499  22.694  29.974  1.00  0.00    -0.206 F 
ATOM     79  C   UNL A   1      42.296  21.285  28.106  1.00  0.00     0.059 A 
ATOM     80  C   UNL A   1      42.353  22.235  25.873  1.00  0.00     0.059 A 
ATOM     81  F   UNL A   1      42.631  24.548  25.600  1.00  0.00    -0.206 F 
ATOM     82  C   UNL A   1      42.250  21.132  26.720  1.00  0.00     0.060 A 
BRANCH  82  83
ATOM     83  S   UNL A   1      42.015  19.478  26.034  1.00  0.00     0.124 S 
ATOM     84  O   UNL A   1      42.875  19.523  24.858  1.00  0.00    -0.237 OA
ATOM     85  O   UNL A   1      42.469  18.624  27.126  1.00  0.00    -0.237 OA
ATOM     86  O   UNL A   1      40.580  19.429  25.767  1.00  0.00    -0.744 OA
ENDBRANCH  82  83
ENDBRANCH  50  75
BRANCH  62  87
ATOM     87  C   UNL A   1      48.053  26.994  30.607  1.00  0.00     0.058 A 
ATOM     88  C   UNL A   1      49.057  27.070  29.630  1.00  0.00     0.135 A 
ATOM     89  C   UNL A   1      48.414  26.555  31.891  1.00  0.00     0.135 A 
ATOM     90  F   UNL A   1      48.760  27.476  28.386  1.00  0.00    -0.206 F 
ATOM     91  C   UNL A   1      50.371  26.709  29.912  1.00  0.00     0.059 A 
ATOM     92  C   UNL A   1      49.726  26.212  32.202  1.00  0.00     0.059 A 
ATOM     93  F   UNL A   1      47.490  26.475  32.862  1.00  0.00    -0.206 F 
ATOM     94  C   UNL A   1      50.695  26.283  31.201  1.00  0.00     0.060 A 
BRANCH  94  95
ATOM     95  S   UNL A   1      52.410  25.854  31.568  1.00  0.00     0.124 S 
ATOM     96  O   UNL A   1      52.728  26.800  32.632  1.00  0.00    -0.237 OA
ATOM     97  O   UNL A   1      52.303  24.455  31.974  1.00  0.00    -0.237 OA
ATOM     98  O   UNL A   1      53.095  26.080  30.299  1.00  0.00    -0.744 OA
ENDBRANCH  94  95
ENDBRANCH  62  87
ENDBRANCH  36  37
ENDBRANCH  28  31
ENDBRANCH  26  27
ENDBRANCH   1  26
TORSDOF 16
ENDMDL
