MODEL 1
REMARK VINA RESULT:     -12.1      0.000      0.000
REMARK SMILES Cc1ccc(N2C(=O)/C(=C\c3ccccc3O[C@H](C)C(=O)NCCCNC(=O)c3ccc(-c4c5nc(c(-c6c(F)cc(S(=O)(=O)[O-])cc6F)c6ccc([nH]6)c(-c6c(F)cc(S(=O)(=O)[O-])cc6F)c6nc(c(-c7c(F)cc(S(=O)(=O)[O-])cc7F)c7ccc4[nH]7)C=C6)C=C5)cc3)SC2=S)c(C)c1
REMARK SMILES IDX 23 1 22 2 20 3 21 4 18 6 19 7 17 8 16 9 11 10 12 11 13 12
REMARK SMILES IDX 15 13 14 14 10 15 6 16 7 17 96 18 8 19 9 20 95 21 97 22 5 23
REMARK SMILES IDX 1 24 2 25 3 26 100 27 4 28 98 29 99 30 24 31 25 32 26 33
REMARK SMILES IDX 27 34 28 36 29 37 30 38 94 39 31 40 93 41 32 42 33 43 34 44
REMARK SMILES IDX 87 45 35 46 92 47 86 48 88 49 36 50 91 51 85 52 84 53 37 55
REMARK SMILES IDX 71 56 50 57 70 58 51 59 54 60 69 61 89 62 52 63 53 64 68 66
REMARK SMILES IDX 90 67 55 68 38 69 39 70 48 71 40 72 41 73 47 74 49 75 42 76
REMARK SMILES IDX 43 77 44 78 45 79 46 80 72 81 73 82 82 83 74 84 75 85 81 86
REMARK SMILES IDX 83 87 76 88 77 89 78 90 79 91 80 92 56 93 57 94 66 95 58 96
REMARK SMILES IDX 59 97 65 98 67 99 60 100 61 101 62 102 63 103 64 104
REMARK H PARENT 22 5 26 35 88 54 54 65
REMARK Flexibility Score: inf
ROOT
ATOM      1  C   UNL A   1      33.910  29.204  27.124  1.00  0.00     0.118 C 
ENDROOT
BRANCH   1   2
ATOM      2  N   UNL A   1      32.565  28.939  27.617  1.00  0.00    -0.353 N 
ATOM      3  C   UNL A   1      31.729  27.880  27.364  1.00  0.00     0.260 C 
ATOM      4  O   UNL A   1      30.657  27.833  27.976  1.00  0.00    -0.271 OA
ATOM      5  H   UNL A   1      32.201  29.622  28.225  1.00  0.00     0.163 HD
BRANCH   3   6
ATOM      6  C   UNL A   1      32.104  26.810  26.322  1.00  0.00     0.258 C 
ATOM      7  C   UNL A   1      31.586  25.462  26.809  1.00  0.00     0.064 C 
BRANCH   6   8
ATOM      8  O   UNL A   1      31.564  27.333  25.116  1.00  0.00    -0.480 OA
BRANCH   8   9
ATOM      9  C   UNL A   1      32.274  27.802  24.057  1.00  0.00     0.127 A 
ATOM     10  C   UNL A   1      32.415  26.878  22.996  1.00  0.00     0.018 A 
ATOM     11  C   UNL A   1      33.232  27.186  21.903  1.00  0.00     0.012 A 
ATOM     12  C   UNL A   1      33.868  28.423  21.839  1.00  0.00     0.001 A 
ATOM     13  C   UNL A   1      32.866  29.055  23.954  1.00  0.00     0.047 A 
ATOM     14  C   UNL A   1      33.669  29.360  22.851  1.00  0.00     0.004 A 
BRANCH  10  15
ATOM     15  C   UNL A   1      31.706  25.584  23.004  1.00  0.00     0.033 C 
ATOM     16  N   UNL A   1      33.810  22.854  24.252  1.00  0.00    -0.261 N 
ATOM     17  C   UNL A   1      33.590  24.210  24.032  1.00  0.00     0.270 C 
ATOM     18  C   UNL A   1      32.761  21.999  23.954  1.00  0.00     0.152 C 
ATOM     19  O   UNL A   1      34.370  25.120  24.285  1.00  0.00    -0.268 OA
ATOM     20  C   UNL A   1      32.235  24.426  23.432  1.00  0.00     0.081 C 
ATOM     21  S   UNL A   1      31.403  22.924  23.312  1.00  0.00    -0.054 SA
ATOM     22  S   UNL A   1      32.619  20.350  24.216  1.00  0.00    -0.051 S 
BRANCH  16  23
ATOM     23  C   UNL A   1      35.093  22.422  24.712  1.00  0.00     0.054 A 
ATOM     24  C   UNL A   1      39.136  21.520  25.963  1.00  0.00     0.044 C 
ATOM     25  C   UNL A   1      37.733  21.802  25.514  1.00  0.00    -0.051 A 
ATOM     26  C   UNL A   1      37.411  21.887  24.161  1.00  0.00     0.005 A 
ATOM     27  C   UNL A   1      36.726  22.009  26.464  1.00  0.00     0.009 A 
ATOM     28  C   UNL A   1      36.107  22.199  23.764  1.00  0.00     0.027 A 
ATOM     29  C   UNL A   1      35.402  22.300  26.084  1.00  0.00    -0.027 A 
ATOM     30  C   UNL A   1      34.394  22.468  27.189  1.00  0.00     0.046 C 
ENDBRANCH  16  23
ENDBRANCH  10  15
ENDBRANCH   8   9
ENDBRANCH   6   8
ENDBRANCH   3   6
ENDBRANCH   1   2
BRANCH   1  31
ATOM     31  C   UNL A   1      34.323  30.662  27.261  1.00  0.00     0.042 C 
BRANCH  31  32
ATOM     32  C   UNL A   1      35.637  30.868  28.001  1.00  0.00     0.118 C 
BRANCH  32  33
ATOM     33  N   UNL A   1      35.528  30.577  29.424  1.00  0.00    -0.352 N 
ATOM     34  C   UNL A   1      36.415  29.976  30.284  1.00  0.00     0.251 C 
ATOM     35  H   UNL A   1      34.680  30.858  29.837  1.00  0.00     0.163 HD
ATOM     36  O   UNL A   1      36.030  29.653  31.405  1.00  0.00    -0.269 OA
BRANCH  34  37
ATOM     37  C   UNL A   1      37.810  29.698  29.873  1.00  0.00     0.039 A 
ATOM     38  C   UNL A   1      38.756  29.399  30.857  1.00  0.00     0.014 A 
ATOM     39  C   UNL A   1      38.203  29.769  28.533  1.00  0.00     0.014 A 
ATOM     40  C   UNL A   1      40.073  29.106  30.494  1.00  0.00     0.010 A 
ATOM     41  C   UNL A   1      39.494  29.398  28.166  1.00  0.00     0.010 A 
ATOM     42  C   UNL A   1      40.444  29.067  29.141  1.00  0.00    -0.014 A 
BRANCH  42  43
ATOM     43  C   UNL A   1      41.821  28.690  28.723  1.00  0.00     0.031 A 
ATOM     44  C   UNL A   1      42.902  29.735  28.647  1.00  0.00     0.074 A 
ATOM     45  C   UNL A   1      42.077  27.423  28.343  1.00  0.00     0.049 A 
ATOM     46  N   UNL A   1      44.132  29.620  28.219  1.00  0.00    -0.248 NA
ATOM     47  C   UNL A   1      42.544  31.095  29.083  1.00  0.00     0.031 C 
ATOM     48  C   UNL A   1      41.103  26.328  28.328  1.00  0.00     0.029 A 
ATOM     49  N   UNL A   1      43.232  26.842  27.882  1.00  0.00    -0.354 N 
ATOM     50  C   UNL A   1      44.686  30.892  28.307  1.00  0.00     0.074 A 
ATOM     51  C   UNL A   1      43.646  31.772  28.792  1.00  0.00     0.031 C 
ATOM     52  C   UNL A   1      41.707  25.206  27.903  1.00  0.00     0.029 A 
ATOM     53  C   UNL A   1      43.098  25.507  27.579  1.00  0.00     0.049 A 
ATOM     54  H   UNL A   1      44.078  27.334  27.779  1.00  0.00     0.167 HD
ATOM     55  C   UNL A   1      45.951  31.287  28.025  1.00  0.00     0.037 A 
ATOM     56  C   UNL A   1      43.992  24.627  27.089  1.00  0.00     0.037 A 
ATOM     57  C   UNL A   1      46.995  30.398  27.587  1.00  0.00     0.049 A 
ATOM     58  C   UNL A   1      45.395  25.087  26.801  1.00  0.00     0.074 A 
ATOM     59  C   UNL A   1      48.328  30.687  27.356  1.00  0.00     0.029 A 
ATOM     60  N   UNL A   1      46.825  29.048  27.319  1.00  0.00    -0.354 N 
ATOM     61  N   UNL A   1      45.917  26.280  26.952  1.00  0.00    -0.248 NA
ATOM     62  C   UNL A   1      46.331  24.081  26.282  1.00  0.00     0.031 C 
ATOM     63  C   UNL A   1      48.958  29.520  26.911  1.00  0.00     0.029 A 
ATOM     64  C   UNL A   1      48.025  28.494  26.905  1.00  0.00     0.049 A 
ATOM     65  H   UNL A   1      45.977  28.556  27.408  1.00  0.00     0.167 HD
ATOM     66  C   UNL A   1      47.249  26.162  26.573  1.00  0.00     0.074 A 
ATOM     67  C   UNL A   1      47.455  24.779  26.194  1.00  0.00     0.031 C 
ATOM     68  C   UNL A   1      48.216  27.113  26.543  1.00  0.00     0.037 A 
BRANCH  55  69
ATOM     69  C   UNL A   1      46.283  32.744  28.189  1.00  0.00     0.058 A 
ATOM     70  C   UNL A   1      46.855  33.243  29.370  1.00  0.00     0.135 A 
ATOM     71  C   UNL A   1      46.069  33.646  27.134  1.00  0.00     0.135 A 
ATOM     72  F   UNL A   1      47.067  32.427  30.415  1.00  0.00    -0.206 F 
ATOM     73  C   UNL A   1      47.181  34.588  29.509  1.00  0.00     0.059 A 
ATOM     74  C   UNL A   1      46.410  34.991  27.241  1.00  0.00     0.059 A 
ATOM     75  F   UNL A   1      45.523  33.222  25.983  1.00  0.00    -0.206 F 
ATOM     76  C   UNL A   1      46.954  35.455  28.439  1.00  0.00     0.060 A 
BRANCH  76  77
ATOM     77  S   UNL A   1      47.394  37.195  28.629  1.00  0.00     0.124 S 
ATOM     78  O   UNL A   1      47.517  37.306  30.080  1.00  0.00    -0.237 OA
ATOM     79  O   UNL A   1      48.644  37.287  27.880  1.00  0.00    -0.237 OA
ATOM     80  O   UNL A   1      46.260  37.900  28.040  1.00  0.00    -0.744 OA
ENDBRANCH  76  77
ENDBRANCH  55  69
BRANCH  56  81
ATOM     81  C   UNL A   1      43.596  23.212  26.860  1.00  0.00     0.058 A 
ATOM     82  C   UNL A   1      43.428  22.716  25.558  1.00  0.00     0.135 A 
ATOM     83  C   UNL A   1      43.382  22.329  27.929  1.00  0.00     0.135 A 
ATOM     84  F   UNL A   1      43.616  23.525  24.504  1.00  0.00    -0.206 F 
ATOM     85  C   UNL A   1      43.043  21.401  25.323  1.00  0.00     0.059 A 
ATOM     86  C   UNL A   1      43.018  21.002  27.719  1.00  0.00     0.059 A 
ATOM     87  F   UNL A   1      43.548  22.750  29.193  1.00  0.00    -0.206 F 
ATOM     88  C   UNL A   1      42.840  20.551  26.411  1.00  0.00     0.060 A 
BRANCH  88  89
ATOM     89  S   UNL A   1      42.377  18.834  26.097  1.00  0.00     0.124 S 
ATOM     90  O   UNL A   1      42.629  18.219  27.394  1.00  0.00    -0.237 OA
ATOM     91  O   UNL A   1      40.974  18.959  25.710  1.00  0.00    -0.237 OA
ATOM     92  O   UNL A   1      43.282  18.437  25.021  1.00  0.00    -0.744 OA
ENDBRANCH  88  89
ENDBRANCH  56  81
BRANCH  68  93
ATOM     93  C   UNL A   1      49.593  26.684  26.123  1.00  0.00     0.058 A 
ATOM     94  C   UNL A   1      50.081  26.935  24.832  1.00  0.00     0.135 A 
ATOM     95  C   UNL A   1      50.453  26.059  27.041  1.00  0.00     0.135 A 
ATOM     96  F   UNL A   1      49.296  27.524  23.915  1.00  0.00    -0.206 F 
ATOM     97  C   UNL A   1      51.369  26.564  24.459  1.00  0.00     0.059 A 
ATOM     98  C   UNL A   1      51.752  25.702  26.697  1.00  0.00     0.059 A 
ATOM     99  F   UNL A   1      50.037  25.805  28.292  1.00  0.00    -0.206 F 
ATOM    100  C   UNL A   1      52.198  25.949  25.399  1.00  0.00     0.060 A 
BRANCH 100 101
ATOM    101  S   UNL A   1      53.879  25.505  24.916  1.00  0.00     0.124 S 
ATOM    102  O   UNL A   1      54.672  26.269  25.873  1.00  0.00    -0.237 OA
ATOM    103  O   UNL A   1      53.887  24.056  25.100  1.00  0.00    -0.237 OA
ATOM    104  O   UNL A   1      53.962  25.953  23.529  1.00  0.00    -0.744 OA
ENDBRANCH 100 101
ENDBRANCH  68  93
ENDBRANCH  42  43
ENDBRANCH  34  37
ENDBRANCH  32  33
ENDBRANCH  31  32
ENDBRANCH   1  31
TORSDOF 17
ENDMDL
MODEL 2
REMARK VINA RESULT:     -11.9      1.475      2.258
REMARK SMILES Cc1ccc(N2C(=O)/C(=C\c3ccccc3O[C@H](C)C(=O)NCCCNC(=O)c3ccc(-c4c5nc(c(-c6c(F)cc(S(=O)(=O)[O-])cc6F)c6ccc([nH]6)c(-c6c(F)cc(S(=O)(=O)[O-])cc6F)c6nc(c(-c7c(F)cc(S(=O)(=O)[O-])cc7F)c7ccc4[nH]7)C=C6)C=C5)cc3)SC2=S)c(C)c1
REMARK SMILES IDX 23 1 22 2 20 3 21 4 18 6 19 7 17 8 16 9 11 10 12 11 13 12
REMARK SMILES IDX 15 13 14 14 10 15 6 16 7 17 96 18 8 19 9 20 95 21 97 22 5 23
REMARK SMILES IDX 1 24 2 25 3 26 100 27 4 28 98 29 99 30 24 31 25 32 26 33
REMARK SMILES IDX 27 34 28 36 29 37 30 38 94 39 31 40 93 41 32 42 33 43 34 44
REMARK SMILES IDX 87 45 35 46 92 47 86 48 88 49 36 50 91 51 85 52 84 53 37 55
REMARK SMILES IDX 71 56 50 57 70 58 51 59 54 60 69 61 89 62 52 63 53 64 68 66
REMARK SMILES IDX 90 67 55 68 38 69 39 70 48 71 40 72 41 73 47 74 49 75 42 76
REMARK SMILES IDX 43 77 44 78 45 79 46 80 72 81 73 82 82 83 74 84 75 85 81 86
REMARK SMILES IDX 83 87 76 88 77 89 78 90 79 91 80 92 56 93 57 94 66 95 58 96
REMARK SMILES IDX 59 97 65 98 67 99 60 100 61 101 62 102 63 103 64 104
REMARK H PARENT 22 5 26 35 88 54 54 65
REMARK Flexibility Score: inf
ROOT
ATOM      1  C   UNL A   1      35.282  32.272  27.801  1.00  0.00     0.118 C 
ENDROOT
BRANCH   1   2
ATOM      2  N   UNL A   1      33.868  31.949  27.649  1.00  0.00    -0.353 N 
ATOM      3  C   UNL A   1      33.274  30.813  27.158  1.00  0.00     0.260 C 
ATOM      4  O   UNL A   1      32.043  30.738  27.213  1.00  0.00    -0.271 OA
ATOM      5  H   UNL A   1      33.246  32.652  27.944  1.00  0.00     0.163 HD
BRANCH   3   6
ATOM      6  C   UNL A   1      34.119  29.692  26.527  1.00  0.00     0.258 C 
ATOM      7  C   UNL A   1      34.856  28.959  27.643  1.00  0.00     0.064 C 
BRANCH   6   8
ATOM      8  O   UNL A   1      33.166  28.959  25.770  1.00  0.00    -0.480 OA
BRANCH   8   9
ATOM      9  C   UNL A   1      33.293  28.582  24.471  1.00  0.00     0.127 A 
ATOM     10  C   UNL A   1      32.368  27.596  24.058  1.00  0.00     0.018 A 
ATOM     11  C   UNL A   1      32.474  27.026  22.784  1.00  0.00     0.012 A 
ATOM     12  C   UNL A   1      33.462  27.465  21.907  1.00  0.00     0.001 A 
ATOM     13  C   UNL A   1      34.237  29.054  23.566  1.00  0.00     0.047 A 
ATOM     14  C   UNL A   1      34.326  28.489  22.290  1.00  0.00     0.004 A 
BRANCH  10  15
ATOM     15  C   UNL A   1      31.272  27.152  24.939  1.00  0.00     0.033 C 
ATOM     16  N   UNL A   1      31.493  23.582  25.743  1.00  0.00    -0.261 N 
ATOM     17  C   UNL A   1      32.041  24.736  25.190  1.00  0.00     0.270 C 
ATOM     18  C   UNL A   1      30.292  23.728  26.419  1.00  0.00     0.152 C 
ATOM     19  O   UNL A   1      33.115  24.819  24.608  1.00  0.00    -0.268 OA
ATOM     20  C   UNL A   1      31.125  25.900  25.405  1.00  0.00     0.081 C 
ATOM     21  S   UNL A   1      29.764  25.410  26.338  1.00  0.00    -0.054 SA
ATOM     22  S   UNL A   1      29.427  22.607  27.313  1.00  0.00    -0.051 S 
BRANCH  16  23
ATOM     23  C   UNL A   1      32.157  22.332  25.545  1.00  0.00     0.054 A 
ATOM     24  C   UNL A   1      34.373  18.741  24.586  1.00  0.00     0.044 C 
ATOM     25  C   UNL A   1      33.576  19.967  24.921  1.00  0.00    -0.051 A 
ATOM     26  C   UNL A   1      32.555  20.415  24.085  1.00  0.00     0.005 A 
ATOM     27  C   UNL A   1      33.872  20.694  26.079  1.00  0.00     0.009 A 
ATOM     28  C   UNL A   1      31.856  21.587  24.391  1.00  0.00     0.027 A 
ATOM     29  C   UNL A   1      33.163  21.863  26.416  1.00  0.00    -0.027 A 
ATOM     30  C   UNL A   1      33.542  22.546  27.704  1.00  0.00     0.046 C 
ENDBRANCH  16  23
ENDBRANCH  10  15
ENDBRANCH   8   9
ENDBRANCH   6   8
ENDBRANCH   3   6
ENDBRANCH   1   2
BRANCH   1  31
ATOM     31  C   UNL A   1      35.538  33.392  28.799  1.00  0.00     0.042 C 
BRANCH  31  32
ATOM     32  C   UNL A   1      36.497  33.016  29.920  1.00  0.00     0.118 C 
BRANCH  32  33
ATOM     33  N   UNL A   1      36.027  31.879  30.699  1.00  0.00    -0.352 N 
ATOM     34  C   UNL A   1      36.566  30.627  30.867  1.00  0.00     0.251 C 
ATOM     35  H   UNL A   1      35.185  32.033  31.186  1.00  0.00     0.163 HD
ATOM     36  O   UNL A   1      35.892  29.757  31.413  1.00  0.00    -0.269 OA
BRANCH  34  37
ATOM     37  C   UNL A   1      37.930  30.311  30.386  1.00  0.00     0.039 A 
ATOM     38  C   UNL A   1      38.964  30.192  31.320  1.00  0.00     0.014 A 
ATOM     39  C   UNL A   1      38.209  30.172  29.024  1.00  0.00     0.014 A 
ATOM     40  C   UNL A   1      40.255  29.868  30.896  1.00  0.00     0.010 A 
ATOM     41  C   UNL A   1      39.476  29.770  28.610  1.00  0.00     0.010 A 
ATOM     42  C   UNL A   1      40.515  29.618  29.540  1.00  0.00    -0.014 A 
BRANCH  42  43
ATOM     43  C   UNL A   1      41.863  29.203  29.070  1.00  0.00     0.031 A 
ATOM     44  C   UNL A   1      42.981  30.209  28.995  1.00  0.00     0.074 A 
ATOM     45  C   UNL A   1      42.060  27.940  28.642  1.00  0.00     0.049 A 
ATOM     46  N   UNL A   1      44.193  30.062  28.527  1.00  0.00    -0.248 NA
ATOM     47  C   UNL A   1      42.688  31.566  29.483  1.00  0.00     0.031 C 
ATOM     48  C   UNL A   1      41.044  26.884  28.622  1.00  0.00     0.029 A 
ATOM     49  N   UNL A   1      43.178  27.331  28.130  1.00  0.00    -0.354 N 
ATOM     50  C   UNL A   1      44.798  31.308  28.638  1.00  0.00     0.074 A 
ATOM     51  C   UNL A   1      43.807  32.211  29.182  1.00  0.00     0.031 C 
ATOM     52  C   UNL A   1      41.592  25.755  28.144  1.00  0.00     0.029 A 
ATOM     53  C   UNL A   1      42.984  26.013  27.789  1.00  0.00     0.049 A 
ATOM     54  H   UNL A   1      44.039  27.795  28.017  1.00  0.00     0.167 HD
ATOM     55  C   UNL A   1      46.069  31.664  28.332  1.00  0.00     0.037 A 
ATOM     56  C   UNL A   1      43.829  25.116  27.245  1.00  0.00     0.037 A 
ATOM     57  C   UNL A   1      47.065  30.751  27.836  1.00  0.00     0.049 A 
ATOM     58  C   UNL A   1      45.240  25.532  26.931  1.00  0.00     0.074 A 
ATOM     59  C   UNL A   1      48.401  30.997  27.575  1.00  0.00     0.029 A 
ATOM     60  N   UNL A   1      46.836  29.418  27.530  1.00  0.00    -0.354 N 
ATOM     61  N   UNL A   1      45.811  26.700  27.104  1.00  0.00    -0.248 NA
ATOM     62  C   UNL A   1      46.122  24.509  26.353  1.00  0.00     0.031 C 
ATOM     63  C   UNL A   1      48.973  29.822  27.075  1.00  0.00     0.029 A 
ATOM     64  C   UNL A   1      48.001  28.833  27.064  1.00  0.00     0.049 A 
ATOM     65  H   UNL A   1      45.972  28.955  27.630  1.00  0.00     0.167 HD
ATOM     66  C   UNL A   1      47.127  26.544  26.682  1.00  0.00     0.074 A 
ATOM     67  C   UNL A   1      47.269  25.167  26.255  1.00  0.00     0.031 C 
ATOM     68  C   UNL A   1      48.128  27.458  26.654  1.00  0.00     0.037 A 
BRANCH  55  69
ATOM     69  C   UNL A   1      46.461  33.102  28.532  1.00  0.00     0.058 A 
ATOM     70  C   UNL A   1      46.986  33.562  29.750  1.00  0.00     0.135 A 
ATOM     71  C   UNL A   1      46.354  34.022  27.477  1.00  0.00     0.135 A 
ATOM     72  F   UNL A   1      47.095  32.727  30.796  1.00  0.00    -0.206 F 
ATOM     73  C   UNL A   1      47.369  34.887  29.923  1.00  0.00     0.059 A 
ATOM     74  C   UNL A   1      46.753  35.348  27.618  1.00  0.00     0.059 A 
ATOM     75  F   UNL A   1      45.857  33.635  26.290  1.00  0.00    -0.206 F 
ATOM     76  C   UNL A   1      47.247  35.774  28.851  1.00  0.00     0.060 A 
BRANCH  76  77
ATOM     77  S   UNL A   1      47.760  37.488  29.087  1.00  0.00     0.124 S 
ATOM     78  O   UNL A   1      47.077  38.151  27.981  1.00  0.00    -0.237 OA
ATOM     79  O   UNL A   1      47.246  37.790  30.420  1.00  0.00    -0.237 OA
ATOM     80  O   UNL A   1      49.215  37.426  28.980  1.00  0.00    -0.744 OA
ENDBRANCH  76  77
ENDBRANCH  55  69
BRANCH  56  81
ATOM     81  C   UNL A   1      43.373  23.725  26.984  1.00  0.00     0.058 A 
ATOM     82  C   UNL A   1      43.297  22.789  28.026  1.00  0.00     0.135 A 
ATOM     83  C   UNL A   1      43.004  23.305  25.698  1.00  0.00     0.135 A 
ATOM     84  F   UNL A   1      43.645  23.143  29.272  1.00  0.00    -0.206 F 
ATOM     85  C   UNL A   1      42.889  21.478  27.800  1.00  0.00     0.059 A 
ATOM     86  C   UNL A   1      42.571  22.005  25.450  1.00  0.00     0.059 A 
ATOM     87  F   UNL A   1      43.043  24.168  24.671  1.00  0.00    -0.206 F 
ATOM     88  C   UNL A   1      42.529  21.096  26.507  1.00  0.00     0.060 A 
BRANCH  88  89
ATOM     89  S   UNL A   1      41.964  19.404  26.229  1.00  0.00     0.124 S 
ATOM     90  O   UNL A   1      42.257  18.780  27.514  1.00  0.00    -0.237 OA
ATOM     91  O   UNL A   1      40.550  19.597  25.919  1.00  0.00    -0.237 OA
ATOM     92  O   UNL A   1      42.787  18.958  25.107  1.00  0.00    -0.744 OA
ENDBRANCH  88  89
ENDBRANCH  56  81
BRANCH  68  93
ATOM     93  C   UNL A   1      49.476  26.991  26.180  1.00  0.00     0.058 A 
ATOM     94  C   UNL A   1      50.399  26.400  27.054  1.00  0.00     0.135 A 
ATOM     95  C   UNL A   1      49.825  27.091  24.823  1.00  0.00     0.135 A 
ATOM     96  F   UNL A   1      50.116  26.287  28.362  1.00  0.00    -0.206 F 
ATOM     97  C   UNL A   1      51.633  25.940  26.604  1.00  0.00     0.059 A 
ATOM     98  C   UNL A   1      51.042  26.617  24.347  1.00  0.00     0.059 A 
ATOM     99  F   UNL A   1      48.972  27.641  23.944  1.00  0.00    -0.206 F 
ATOM    100  C   UNL A   1      51.945  26.052  25.247  1.00  0.00     0.060 A 
BRANCH 100 101
ATOM    101  S   UNL A   1      53.533  25.421  24.667  1.00  0.00     0.124 S 
ATOM    102  O   UNL A   1      54.470  26.287  25.376  1.00  0.00    -0.237 OA
ATOM    103  O   UNL A   1      53.498  24.030  25.108  1.00  0.00    -0.237 OA
ATOM    104  O   UNL A   1      53.467  25.614  23.222  1.00  0.00    -0.744 OA
ENDBRANCH 100 101
ENDBRANCH  68  93
ENDBRANCH  42  43
ENDBRANCH  34  37
ENDBRANCH  32  33
ENDBRANCH  31  32
ENDBRANCH   1  31
TORSDOF 17
ENDMDL
MODEL 3
REMARK VINA RESULT:     -11.8      5.393      9.520
REMARK SMILES Cc1ccc(N2C(=O)/C(=C\c3ccccc3O[C@H](C)C(=O)NCCCNC(=O)c3ccc(-c4c5nc(c(-c6c(F)cc(S(=O)(=O)[O-])cc6F)c6ccc([nH]6)c(-c6c(F)cc(S(=O)(=O)[O-])cc6F)c6nc(c(-c7c(F)cc(S(=O)(=O)[O-])cc7F)c7ccc4[nH]7)C=C6)C=C5)cc3)SC2=S)c(C)c1
REMARK SMILES IDX 23 1 22 2 20 3 21 4 18 6 19 7 17 8 16 9 11 10 12 11 13 12
REMARK SMILES IDX 15 13 14 14 10 15 6 16 7 17 96 18 8 19 9 20 95 21 97 22 5 23
REMARK SMILES IDX 1 24 2 25 3 26 100 27 4 28 98 29 99 30 24 31 25 32 26 33
REMARK SMILES IDX 27 34 28 36 29 37 30 38 94 39 31 40 93 41 32 42 33 43 34 44
REMARK SMILES IDX 87 45 35 46 92 47 86 48 88 49 36 50 91 51 85 52 84 53 37 55
REMARK SMILES IDX 71 56 50 57 70 58 51 59 54 60 69 61 89 62 52 63 53 64 68 66
REMARK SMILES IDX 90 67 55 68 38 69 39 70 48 71 40 72 41 73 47 74 49 75 42 76
REMARK SMILES IDX 43 77 44 78 45 79 46 80 72 81 73 82 82 83 74 84 75 85 81 86
REMARK SMILES IDX 83 87 76 88 77 89 78 90 79 91 80 92 56 93 57 94 66 95 58 96
REMARK SMILES IDX 59 97 65 98 67 99 60 100 61 101 62 102 63 103 64 104
REMARK H PARENT 22 5 26 35 88 54 54 65
REMARK Flexibility Score: inf
ROOT
ATOM      1  C   UNL A   1      35.378  32.644  30.543  1.00  0.00     0.118 C 
ENDROOT
BRANCH   1   2
ATOM      2  N   UNL A   1      34.424  32.622  31.645  1.00  0.00    -0.353 N 
ATOM      3  C   UNL A   1      34.232  33.527  32.659  1.00  0.00     0.260 C 
ATOM      4  O   UNL A   1      33.290  33.332  33.433  1.00  0.00    -0.271 OA
ATOM      5  H   UNL A   1      33.826  31.841  31.663  1.00  0.00     0.163 HD
BRANCH   3   6
ATOM      6  C   UNL A   1      35.186  34.721  32.841  1.00  0.00     0.258 C 
ATOM      7  C   UNL A   1      34.433  35.831  33.567  1.00  0.00     0.064 C 
BRANCH   6   8
ATOM      8  O   UNL A   1      36.305  34.141  33.497  1.00  0.00    -0.480 OA
BRANCH   8   9
ATOM      9  C   UNL A   1      37.586  34.139  33.044  1.00  0.00     0.127 A 
ATOM     10  C   UNL A   1      38.526  33.615  33.961  1.00  0.00     0.018 A 
ATOM     11  C   UNL A   1      39.894  33.676  33.673  1.00  0.00     0.012 A 
ATOM     12  C   UNL A   1      40.325  34.208  32.461  1.00  0.00     0.001 A 
ATOM     13  C   UNL A   1      38.024  34.614  31.813  1.00  0.00     0.047 A 
ATOM     14  C   UNL A   1      39.393  34.657  31.528  1.00  0.00     0.004 A 
BRANCH  10  15
ATOM     15  C   UNL A   1      38.100  32.989  35.226  1.00  0.00     0.033 C 
ATOM     16  N   UNL A   1      39.068  34.970  38.155  1.00  0.00    -0.261 N 
ATOM     17  C   UNL A   1      38.938  34.829  36.777  1.00  0.00     0.270 C 
ATOM     18  C   UNL A   1      38.554  33.946  38.934  1.00  0.00     0.152 C 
ATOM     19  O   UNL A   1      39.276  35.648  35.931  1.00  0.00    -0.268 OA
ATOM     20  C   UNL A   1      38.307  33.513  36.446  1.00  0.00     0.081 C 
ATOM     21  S   UNL A   1      37.889  32.684  37.896  1.00  0.00    -0.054 SA
ATOM     22  S   UNL A   1      38.411  33.841  40.600  1.00  0.00    -0.051 S 
BRANCH  16  23
ATOM     23  C   UNL A   1      39.756  36.109  38.677  1.00  0.00     0.054 A 
ATOM     24  C   UNL A   1      41.671  39.441  40.666  1.00  0.00     0.044 C 
ATOM     25  C   UNL A   1      40.996  38.308  39.953  1.00  0.00    -0.051 A 
ATOM     26  C   UNL A   1      39.609  38.268  39.810  1.00  0.00     0.005 A 
ATOM     27  C   UNL A   1      41.760  37.255  39.439  1.00  0.00     0.009 A 
ATOM     28  C   UNL A   1      38.996  37.179  39.184  1.00  0.00     0.027 A 
ATOM     29  C   UNL A   1      41.162  36.162  38.784  1.00  0.00    -0.027 A 
ATOM     30  C   UNL A   1      42.084  35.102  38.239  1.00  0.00     0.046 C 
ENDBRANCH  16  23
ENDBRANCH  10  15
ENDBRANCH   8   9
ENDBRANCH   6   8
ENDBRANCH   3   6
ENDBRANCH   1   2
BRANCH   1  31
ATOM     31  C   UNL A   1      34.956  33.559  29.402  1.00  0.00     0.042 C 
BRANCH  31  32
ATOM     32  C   UNL A   1      35.049  32.916  28.025  1.00  0.00     0.118 C 
BRANCH  32  33
ATOM     33  N   UNL A   1      34.217  31.727  27.907  1.00  0.00    -0.352 N 
ATOM     34  C   UNL A   1      34.560  30.398  27.848  1.00  0.00     0.251 C 
ATOM     35  H   UNL A   1      33.250  31.904  27.863  1.00  0.00     0.163 HD
ATOM     36  O   UNL A   1      33.700  29.574  27.547  1.00  0.00    -0.269 OA
BRANCH  34  37
ATOM     37  C   UNL A   1      35.946  29.953  28.122  1.00  0.00     0.039 A 
ATOM     38  C   UNL A   1      36.901  30.061  27.108  1.00  0.00     0.014 A 
ATOM     39  C   UNL A   1      36.302  29.395  29.353  1.00  0.00     0.014 A 
ATOM     40  C   UNL A   1      38.223  29.674  27.348  1.00  0.00     0.010 A 
ATOM     41  C   UNL A   1      37.634  29.086  29.618  1.00  0.00     0.010 A 
ATOM     42  C   UNL A   1      38.608  29.218  28.618  1.00  0.00    -0.014 A 
BRANCH  42  43
ATOM     43  C   UNL A   1      40.020  28.866  28.922  1.00  0.00     0.031 A 
ATOM     44  C   UNL A   1      40.943  29.893  29.524  1.00  0.00     0.074 A 
ATOM     45  C   UNL A   1      40.490  27.648  28.588  1.00  0.00     0.049 A 
ATOM     46  N   UNL A   1      42.224  29.806  29.773  1.00  0.00    -0.248 NA
ATOM     47  C   UNL A   1      40.354  31.199  29.863  1.00  0.00     0.031 C 
ATOM     48  C   UNL A   1      39.709  26.581  27.958  1.00  0.00     0.029 A 
ATOM     49  N   UNL A   1      41.743  27.104  28.721  1.00  0.00    -0.354 N 
ATOM     50  C   UNL A   1      42.599  31.049  30.271  1.00  0.00     0.074 A 
ATOM     51  C   UNL A   1      41.419  31.885  30.252  1.00  0.00     0.031 C 
ATOM     52  C   UNL A   1      40.494  25.506  27.780  1.00  0.00     0.029 A 
ATOM     53  C   UNL A   1      41.841  25.817  28.246  1.00  0.00     0.049 A 
ATOM     54  H   UNL A   1      42.502  27.589  29.118  1.00  0.00     0.167 HD
ATOM     55  C   UNL A   1      43.813  31.450  30.720  1.00  0.00     0.037 A 
ATOM     56  C   UNL A   1      42.898  24.984  28.187  1.00  0.00     0.037 A 
ATOM     57  C   UNL A   1      44.972  30.600  30.780  1.00  0.00     0.049 A 
ATOM     58  C   UNL A   1      44.230  25.448  28.708  1.00  0.00     0.074 A 
ATOM     59  C   UNL A   1      46.224  30.889  31.295  1.00  0.00     0.029 A 
ATOM     60  N   UNL A   1      45.022  29.294  30.316  1.00  0.00    -0.354 N 
ATOM     61  N   UNL A   1      44.550  26.606  29.234  1.00  0.00    -0.248 NA
ATOM     62  C   UNL A   1      45.344  24.493  28.631  1.00  0.00     0.031 C 
ATOM     63  C   UNL A   1      47.043  29.770  31.108  1.00  0.00     0.029 A 
ATOM     64  C   UNL A   1      46.289  28.770  30.514  1.00  0.00     0.049 A 
ATOM     65  H   UNL A   1      44.269  28.810  29.906  1.00  0.00     0.167 HD
ATOM     66  C   UNL A   1      45.893  26.508  29.577  1.00  0.00     0.074 A 
ATOM     67  C   UNL A   1      46.324  25.176  29.207  1.00  0.00     0.031 C 
ATOM     68  C   UNL A   1      46.698  27.437  30.150  1.00  0.00     0.037 A 
BRANCH  55  69
ATOM     69  C   UNL A   1      43.951  32.872  31.189  1.00  0.00     0.058 A 
ATOM     70  C   UNL A   1      44.203  33.924  30.294  1.00  0.00     0.135 A 
ATOM     71  C   UNL A   1      43.783  33.193  32.546  1.00  0.00     0.135 A 
ATOM     72  F   UNL A   1      44.387  33.670  28.988  1.00  0.00    -0.206 F 
ATOM     73  C   UNL A   1      44.307  35.240  30.729  1.00  0.00     0.059 A 
ATOM     74  C   UNL A   1      43.859  34.506  33.001  1.00  0.00     0.059 A 
ATOM     75  F   UNL A   1      43.542  32.226  33.445  1.00  0.00    -0.206 F 
ATOM     76  C   UNL A   1      44.135  35.522  32.086  1.00  0.00     0.060 A 
BRANCH  76  77
ATOM     77  S   UNL A   1      44.260  37.237  32.633  1.00  0.00     0.124 S 
ATOM     78  O   UNL A   1      43.916  37.958  31.412  1.00  0.00    -0.237 OA
ATOM     79  O   UNL A   1      43.271  37.299  33.705  1.00  0.00    -0.237 OA
ATOM     80  O   UNL A   1      45.651  37.357  33.062  1.00  0.00    -0.744 OA
ENDBRANCH  76  77
ENDBRANCH  55  69
BRANCH  56  81
ATOM     81  C   UNL A   1      42.736  23.612  27.634  1.00  0.00     0.058 A 
ATOM     82  C   UNL A   1      42.512  22.519  28.484  1.00  0.00     0.135 A 
ATOM     83  C   UNL A   1      42.800  23.367  26.254  1.00  0.00     0.135 A 
ATOM     84  F   UNL A   1      42.449  22.704  29.811  1.00  0.00    -0.206 F 
ATOM     85  C   UNL A   1      42.376  21.227  27.988  1.00  0.00     0.059 A 
ATOM     86  C   UNL A   1      42.644  22.086  25.732  1.00  0.00     0.059 A 
ATOM     87  F   UNL A   1      42.995  24.383  25.398  1.00  0.00    -0.206 F 
ATOM     88  C   UNL A   1      42.443  21.021  26.610  1.00  0.00     0.060 A 
BRANCH  88  89
ATOM     89  S   UNL A   1      42.226  19.345  25.971  1.00  0.00     0.124 S 
ATOM     90  O   UNL A   1      40.791  19.311  25.717  1.00  0.00    -0.237 OA
ATOM     91  O   UNL A   1      43.086  19.352  24.791  1.00  0.00    -0.237 OA
ATOM     92  O   UNL A   1      42.694  18.506  27.072  1.00  0.00    -0.744 OA
ENDBRANCH  88  89
ENDBRANCH  56  81
BRANCH  68  93
ATOM     93  C   UNL A   1      48.115  27.035  30.447  1.00  0.00     0.058 A 
ATOM     94  C   UNL A   1      49.175  27.394  29.601  1.00  0.00     0.135 A 
ATOM     95  C   UNL A   1      48.420  26.326  31.620  1.00  0.00     0.135 A 
ATOM     96  F   UNL A   1      48.934  28.066  28.464  1.00  0.00    -0.206 F 
ATOM     97  C   UNL A   1      50.489  27.046  29.898  1.00  0.00     0.059 A 
ATOM     98  C   UNL A   1      49.729  25.990  31.949  1.00  0.00     0.059 A 
ATOM     99  F   UNL A   1      47.443  25.969  32.468  1.00  0.00    -0.206 F 
ATOM    100  C   UNL A   1      50.756  26.345  31.075  1.00  0.00     0.060 A 
BRANCH 100 101
ATOM    101  S   UNL A   1      52.468  25.930  31.469  1.00  0.00     0.124 S 
ATOM    102  O   UNL A   1      52.316  24.620  32.094  1.00  0.00    -0.237 OA
ATOM    103  O   UNL A   1      53.103  25.935  30.154  1.00  0.00    -0.237 OA
ATOM    104  O   UNL A   1      52.882  27.009  32.361  1.00  0.00    -0.744 OA
ENDBRANCH 100 101
ENDBRANCH  68  93
ENDBRANCH  42  43
ENDBRANCH  34  37
ENDBRANCH  32  33
ENDBRANCH  31  32
ENDBRANCH   1  31
TORSDOF 17
ENDMDL
