MODEL 1
REMARK VINA RESULT:     -10.7      0.000      0.000
REMARK SMILES COCCNC(=O)Cn1ccc(C(=O)NCCCNC(=O)c2ccc(-c3c4nc(c(-c5c(F)cc(S(=O)(=O)[O-])cc5F)c5ccc([nH]5)c(-c5c(F)cc(S(=O)(=O)[O-])cc5F)c5nc(c(-c6c(F)cc(S(=O)(=O)[O-])cc6F)c6ccc3[nH]6)C=C5)C=C4)cc2)c1
REMARK SMILES IDX 16 1 15 2 13 3 14 4 12 6 9 7 10 8 88 9 11 10 8 11 6 12 5 13
REMARK SMILES IDX 7 15 4 16 3 17 2 18 1 19 17 20 18 21 19 22 20 23 21 25 22 26
REMARK SMILES IDX 23 27 87 28 24 29 86 30 25 31 26 32 27 33 80 34 28 35 85 36
REMARK SMILES IDX 79 37 81 38 29 39 84 40 78 41 77 42 30 44 64 45 43 46 63 47
REMARK SMILES IDX 44 48 47 49 62 50 82 51 45 52 46 53 61 55 83 56 48 57 31 58
REMARK SMILES IDX 32 59 41 60 33 61 34 62 40 63 42 64 35 65 36 66 37 67 38 68
REMARK SMILES IDX 39 69 65 70 66 71 75 72 67 73 68 74 74 75 76 76 69 77 70 78
REMARK SMILES IDX 71 79 72 80 73 81 49 82 50 83 59 84 51 85 52 86 58 87 60 88
REMARK SMILES IDX 53 89 54 90 55 91 56 92 57 93
REMARK H PARENT 15 5 5 14 19 24 81 43 47 54
REMARK Flexibility Score: inf
ROOT
ATOM      1  C   UNL A   1      37.280  33.358  31.850  1.00  0.00     0.118 C 
ENDROOT
BRANCH   1   2
ATOM      2  N   UNL A   1      36.779  33.366  33.208  1.00  0.00    -0.352 N 
ATOM      3  C   UNL A   1      35.667  33.924  33.786  1.00  0.00     0.252 C 
ATOM      4  O   UNL A   1      35.473  33.668  34.971  1.00  0.00    -0.269 OA
ATOM      5  H   UNL A   1      37.348  32.872  33.842  1.00  0.00     0.163 HD
BRANCH   3   6
ATOM      6  C   UNL A   1      34.745  34.801  33.057  1.00  0.00     0.057 A 
ATOM      7  N   UNL A   1      33.353  35.755  31.574  1.00  0.00    -0.344 N 
ATOM      8  C   UNL A   1      33.646  36.725  32.491  1.00  0.00     0.087 A 
ATOM      9  C   UNL A   1      33.962  34.580  31.938  1.00  0.00     0.100 A 
ATOM     10  C   UNL A   1      34.517  36.174  33.403  1.00  0.00     0.033 A 
BRANCH   7  11
ATOM     11  C   UNL A   1      32.552  35.963  30.376  1.00  0.00     0.221 C 
BRANCH  11  12
ATOM     12  C   UNL A   1      33.300  36.631  29.240  1.00  0.00     0.239 C 
ATOM     13  N   UNL A   1      34.058  35.899  28.374  1.00  0.00    -0.352 N 
ATOM     14  H   UNL A   1      34.565  36.424  27.714  1.00  0.00     0.163 HD
ATOM     15  O   UNL A   1      33.279  37.857  29.099  1.00  0.00    -0.273 OA
BRANCH  13  16
ATOM     16  C   UNL A   1      34.230  34.451  28.277  1.00  0.00     0.144 C 
BRANCH  16  17
ATOM     17  C   UNL A   1      33.016  33.734  27.669  1.00  0.00     0.181 C 
BRANCH  17  18
ATOM     18  O   UNL A   1      33.175  32.314  27.615  1.00  0.00    -0.383 OA
ATOM     19  C   UNL A   1      32.175  31.631  26.876  1.00  0.00     0.194 C 
ENDBRANCH  17  18
ENDBRANCH  16  17
ENDBRANCH  13  16
ENDBRANCH  11  12
ENDBRANCH   7  11
ENDBRANCH   3   6
ENDBRANCH   1   2
BRANCH   1  20
ATOM     20  C   UNL A   1      36.764  32.157  31.053  1.00  0.00     0.042 C 
BRANCH  20  21
ATOM     21  C   UNL A   1      36.862  32.395  29.549  1.00  0.00     0.118 C 
BRANCH  21  22
ATOM     22  N   UNL A   1      35.935  31.531  28.829  1.00  0.00    -0.352 N 
ATOM     23  C   UNL A   1      36.149  30.316  28.226  1.00  0.00     0.251 C 
ATOM     24  H   UNL A   1      35.014  31.871  28.764  1.00  0.00     0.163 HD
ATOM     25  O   UNL A   1      35.323  29.888  27.431  1.00  0.00    -0.269 OA
BRANCH  23  26
ATOM     26  C   UNL A   1      37.371  29.543  28.513  1.00  0.00     0.039 A 
ATOM     27  C   UNL A   1      38.456  29.679  27.640  1.00  0.00     0.014 A 
ATOM     28  C   UNL A   1      37.429  28.656  29.593  1.00  0.00     0.014 A 
ATOM     29  C   UNL A   1      39.626  28.973  27.893  1.00  0.00     0.010 A 
ATOM     30  C   UNL A   1      38.609  27.989  29.877  1.00  0.00     0.010 A 
ATOM     31  C   UNL A   1      39.703  28.151  29.025  1.00  0.00    -0.014 A 
BRANCH  31  32
ATOM     32  C   UNL A   1      40.995  27.522  29.358  1.00  0.00     0.031 A 
ATOM     33  C   UNL A   1      41.244  26.290  28.462  1.00  0.00     0.074 A 
ATOM     34  C   UNL A   1      41.678  28.092  30.399  1.00  0.00     0.049 A 
ATOM     35  N   UNL A   1      41.723  25.122  28.762  1.00  0.00    -0.248 NA
ATOM     36  C   UNL A   1      40.771  26.312  27.048  1.00  0.00     0.031 C 
ATOM     37  C   UNL A   1      41.263  29.329  31.106  1.00  0.00     0.029 A 
ATOM     38  N   UNL A   1      42.836  27.784  31.082  1.00  0.00    -0.354 N 
ATOM     39  C   UNL A   1      41.809  24.363  27.567  1.00  0.00     0.074 A 
ATOM     40  C   UNL A   1      41.068  25.093  26.584  1.00  0.00     0.031 C 
ATOM     41  C   UNL A   1      42.083  29.603  32.141  1.00  0.00     0.029 A 
ATOM     42  C   UNL A   1      43.111  28.586  32.228  1.00  0.00     0.049 A 
ATOM     43  H   UNL A   1      43.434  27.056  30.797  1.00  0.00     0.167 HD
ATOM     44  C   UNL A   1      42.621  23.265  27.438  1.00  0.00     0.037 A 
ATOM     45  C   UNL A   1      44.051  28.398  33.209  1.00  0.00     0.037 A 
ATOM     46  C   UNL A   1      43.374  23.114  28.640  1.00  0.00     0.049 A 
ATOM     47  C   UNL A   1      44.808  27.216  32.769  1.00  0.00     0.074 A 
ATOM     48  C   UNL A   1      43.029  22.704  29.900  1.00  0.00     0.029 A 
ATOM     49  N   UNL A   1      44.567  23.800  28.691  1.00  0.00    -0.354 N 
ATOM     50  N   UNL A   1      45.644  27.190  31.776  1.00  0.00    -0.248 NA
ATOM     51  C   UNL A   1      44.495  25.924  33.396  1.00  0.00     0.031 C 
ATOM     52  C   UNL A   1      43.743  23.599  30.723  1.00  0.00     0.029 A 
ATOM     53  C   UNL A   1      44.685  24.304  29.961  1.00  0.00     0.049 A 
ATOM     54  H   UNL A   1      45.212  23.908  27.956  1.00  0.00     0.167 HD
ATOM     55  C   UNL A   1      45.683  25.854  31.460  1.00  0.00     0.074 A 
ATOM     56  C   UNL A   1      45.245  25.133  32.637  1.00  0.00     0.031 C 
ATOM     57  C   UNL A   1      45.525  25.462  30.171  1.00  0.00     0.037 A 
BRANCH  44  58
ATOM     58  C   UNL A   1      43.078  22.411  26.278  1.00  0.00     0.058 A 
ATOM     59  C   UNL A   1      42.706  21.038  26.286  1.00  0.00     0.135 A 
ATOM     60  C   UNL A   1      44.104  22.757  25.390  1.00  0.00     0.135 A 
ATOM     61  F   UNL A   1      41.676  20.610  27.038  1.00  0.00    -0.206 F 
ATOM     62  C   UNL A   1      43.413  20.058  25.598  1.00  0.00     0.059 A 
ATOM     63  C   UNL A   1      44.798  21.790  24.648  1.00  0.00     0.059 A 
ATOM     64  F   UNL A   1      44.513  24.027  25.270  1.00  0.00    -0.206 F 
ATOM     65  C   UNL A   1      44.487  20.440  24.809  1.00  0.00     0.060 A 
BRANCH  65  66
ATOM     66  S   UNL A   1      45.475  19.143  24.032  1.00  0.00     0.124 S 
ATOM     67  O   UNL A   1      45.404  18.078  25.027  1.00  0.00    -0.237 OA
ATOM     68  O   UNL A   1      44.744  18.898  22.792  1.00  0.00    -0.237 OA
ATOM     69  O   UNL A   1      46.782  19.771  23.866  1.00  0.00    -0.744 OA
ENDBRANCH  65  66
ENDBRANCH  44  58
BRANCH  45  70
ATOM     70  C   UNL A   1      44.355  28.915  34.606  1.00  0.00     0.058 A 
ATOM     71  C   UNL A   1      43.860  28.410  35.816  1.00  0.00     0.135 A 
ATOM     72  C   UNL A   1      45.335  29.940  34.775  1.00  0.00     0.135 A 
ATOM     73  F   UNL A   1      42.815  27.574  35.838  1.00  0.00    -0.206 F 
ATOM     74  C   UNL A   1      44.426  28.745  37.064  1.00  0.00     0.059 A 
ATOM     75  C   UNL A   1      45.947  30.248  35.986  1.00  0.00     0.059 A 
ATOM     76  F   UNL A   1      45.772  30.675  33.743  1.00  0.00    -0.206 F 
ATOM     77  C   UNL A   1      45.514  29.614  37.130  1.00  0.00     0.060 A 
BRANCH  77  78
ATOM     78  S   UNL A   1      46.451  29.825  38.661  1.00  0.00     0.124 S 
ATOM     79  O   UNL A   1      45.940  28.737  39.485  1.00  0.00    -0.237 OA
ATOM     80  O   UNL A   1      47.831  29.688  38.205  1.00  0.00    -0.237 OA
ATOM     81  O   UNL A   1      46.082  31.171  39.095  1.00  0.00    -0.744 OA
ENDBRANCH  77  78
ENDBRANCH  45  70
BRANCH  57  82
ATOM     82  C   UNL A   1      45.939  26.490  29.128  1.00  0.00     0.058 A 
ATOM     83  C   UNL A   1      47.294  26.831  28.982  1.00  0.00     0.135 A 
ATOM     84  C   UNL A   1      45.043  27.214  28.320  1.00  0.00     0.135 A 
ATOM     85  F   UNL A   1      48.224  26.188  29.706  1.00  0.00    -0.206 F 
ATOM     86  C   UNL A   1      47.730  27.822  28.096  1.00  0.00     0.059 A 
ATOM     87  C   UNL A   1      45.449  28.207  27.419  1.00  0.00     0.059 A 
ATOM     88  F   UNL A   1      43.734  26.982  28.390  1.00  0.00    -0.206 F 
ATOM     89  C   UNL A   1      46.800  28.504  27.312  1.00  0.00     0.060 A 
BRANCH  89  90
ATOM     90  S   UNL A   1      47.388  29.748  26.140  1.00  0.00     0.124 S 
ATOM     91  O   UNL A   1      48.838  29.597  26.221  1.00  0.00    -0.237 OA
ATOM     92  O   UNL A   1      46.777  29.303  24.891  1.00  0.00    -0.237 OA
ATOM     93  O   UNL A   1      46.866  31.003  26.675  1.00  0.00    -0.744 OA
ENDBRANCH  89  90
ENDBRANCH  57  82
ENDBRANCH  31  32
ENDBRANCH  23  26
ENDBRANCH  21  22
ENDBRANCH  20  21
ENDBRANCH   1  20
TORSDOF 18
ENDMDL
MODEL 2
REMARK VINA RESULT:     -10.7      3.508      9.635
REMARK SMILES COCCNC(=O)Cn1ccc(C(=O)NCCCNC(=O)c2ccc(-c3c4nc(c(-c5c(F)cc(S(=O)(=O)[O-])cc5F)c5ccc([nH]5)c(-c5c(F)cc(S(=O)(=O)[O-])cc5F)c5nc(c(-c6c(F)cc(S(=O)(=O)[O-])cc6F)c6ccc3[nH]6)C=C5)C=C4)cc2)c1
REMARK SMILES IDX 16 1 15 2 13 3 14 4 12 6 9 7 10 8 88 9 11 10 8 11 6 12 5 13
REMARK SMILES IDX 7 15 4 16 3 17 2 18 1 19 17 20 18 21 19 22 20 23 21 25 22 26
REMARK SMILES IDX 23 27 87 28 24 29 86 30 25 31 26 32 27 33 80 34 28 35 85 36
REMARK SMILES IDX 79 37 81 38 29 39 84 40 78 41 77 42 30 44 64 45 43 46 63 47
REMARK SMILES IDX 44 48 47 49 62 50 82 51 45 52 46 53 61 55 83 56 48 57 31 58
REMARK SMILES IDX 32 59 41 60 33 61 34 62 40 63 42 64 35 65 36 66 37 67 38 68
REMARK SMILES IDX 39 69 65 70 66 71 75 72 67 73 68 74 74 75 76 76 69 77 70 78
REMARK SMILES IDX 71 79 72 80 73 81 49 82 50 83 59 84 51 85 52 86 58 87 60 88
REMARK SMILES IDX 53 89 54 90 55 91 56 92 57 93
REMARK H PARENT 15 5 5 14 19 24 81 43 47 54
REMARK Flexibility Score: inf
ROOT
ATOM      1  C   UNL A   1      33.142  34.577  29.053  1.00  0.00     0.118 C 
ENDROOT
BRANCH   1   2
ATOM      2  N   UNL A   1      32.896  35.940  29.473  1.00  0.00    -0.352 N 
ATOM      3  C   UNL A   1      33.209  36.632  30.615  1.00  0.00     0.252 C 
ATOM      4  O   UNL A   1      32.934  37.829  30.629  1.00  0.00    -0.269 OA
ATOM      5  H   UNL A   1      32.409  36.477  28.807  1.00  0.00     0.163 HD
BRANCH   3   6
ATOM      6  C   UNL A   1      33.826  36.001  31.786  1.00  0.00     0.057 A 
ATOM      7  N   UNL A   1      34.729  34.589  33.284  1.00  0.00    -0.344 N 
ATOM      8  C   UNL A   1      34.503  35.757  33.957  1.00  0.00     0.087 A 
ATOM      9  C   UNL A   1      34.380  34.745  31.965  1.00  0.00     0.100 A 
ATOM     10  C   UNL A   1      33.929  36.636  33.068  1.00  0.00     0.033 A 
BRANCH   7  11
ATOM     11  C   UNL A   1      35.223  33.363  33.893  1.00  0.00     0.221 C 
BRANCH  11  12
ATOM     12  C   UNL A   1      36.254  32.630  33.059  1.00  0.00     0.239 C 
ATOM     13  N   UNL A   1      37.539  33.080  32.978  1.00  0.00    -0.352 N 
ATOM     14  H   UNL A   1      38.119  32.584  32.356  1.00  0.00     0.163 HD
ATOM     15  O   UNL A   1      35.945  31.635  32.398  1.00  0.00    -0.273 OA
BRANCH  13  16
ATOM     16  C   UNL A   1      38.187  34.189  33.676  1.00  0.00     0.144 C 
BRANCH  16  17
ATOM     17  C   UNL A   1      38.553  33.861  35.130  1.00  0.00     0.181 C 
BRANCH  17  18
ATOM     18  O   UNL A   1      39.933  33.526  35.296  1.00  0.00    -0.383 OA
ATOM     19  C   UNL A   1      40.193  32.558  36.300  1.00  0.00     0.194 C 
ENDBRANCH  17  18
ENDBRANCH  16  17
ENDBRANCH  13  16
ENDBRANCH  11  12
ENDBRANCH   7  11
ENDBRANCH   3   6
ENDBRANCH   1   2
BRANCH   1  20
ATOM     20  C   UNL A   1      34.173  34.499  27.924  1.00  0.00     0.042 C 
BRANCH  20  21
ATOM     21  C   UNL A   1      34.994  33.215  27.998  1.00  0.00     0.118 C 
BRANCH  21  22
ATOM     22  N   UNL A   1      34.129  32.046  27.908  1.00  0.00    -0.352 N 
ATOM     23  C   UNL A   1      34.451  30.712  27.865  1.00  0.00     0.251 C 
ATOM     24  H   UNL A   1      33.166  32.242  27.871  1.00  0.00     0.163 HD
ATOM     25  O   UNL A   1      33.608  29.903  27.500  1.00  0.00    -0.269 OA
BRANCH  23  26
ATOM     26  C   UNL A   1      35.805  30.256  28.231  1.00  0.00     0.039 A 
ATOM     27  C   UNL A   1      36.791  30.257  27.238  1.00  0.00     0.014 A 
ATOM     28  C   UNL A   1      36.086  29.784  29.517  1.00  0.00     0.014 A 
ATOM     29  C   UNL A   1      38.078  29.846  27.557  1.00  0.00     0.010 A 
ATOM     30  C   UNL A   1      37.380  29.421  29.853  1.00  0.00     0.010 A 
ATOM     31  C   UNL A   1      38.371  29.454  28.870  1.00  0.00    -0.014 A 
BRANCH  31  32
ATOM     32  C   UNL A   1      39.771  29.158  29.227  1.00  0.00     0.031 A 
ATOM     33  C   UNL A   1      40.509  30.450  29.639  1.00  0.00     0.074 A 
ATOM     34  C   UNL A   1      40.156  27.853  29.075  1.00  0.00     0.049 A 
ATOM     35  N   UNL A   1      41.707  30.856  29.349  1.00  0.00    -0.248 NA
ATOM     36  C   UNL A   1      39.763  31.509  30.376  1.00  0.00     0.031 C 
ATOM     37  C   UNL A   1      39.246  26.742  28.699  1.00  0.00     0.029 A 
ATOM     38  N   UNL A   1      41.351  27.175  29.197  1.00  0.00    -0.354 N 
ATOM     39  C   UNL A   1      41.930  32.083  30.025  1.00  0.00     0.074 A 
ATOM     40  C   UNL A   1      40.650  32.502  30.509  1.00  0.00     0.031 C 
ATOM     41  C   UNL A   1      39.922  25.585  28.542  1.00  0.00     0.029 A 
ATOM     42  C   UNL A   1      41.331  25.808  28.792  1.00  0.00     0.049 A 
ATOM     43  H   UNL A   1      42.165  27.606  29.542  1.00  0.00     0.167 HD
ATOM     44  C   UNL A   1      43.184  32.581  30.272  1.00  0.00     0.037 A 
ATOM     45  C   UNL A   1      42.383  24.948  28.602  1.00  0.00     0.037 A 
ATOM     46  C   UNL A   1      44.147  31.630  29.820  1.00  0.00     0.049 A 
ATOM     47  C   UNL A   1      43.566  25.720  29.013  1.00  0.00     0.074 A 
ATOM     48  C   UNL A   1      44.550  31.250  28.568  1.00  0.00     0.029 A 
ATOM     49  N   UNL A   1      44.516  30.669  30.733  1.00  0.00    -0.354 N 
ATOM     50  N   UNL A   1      43.867  26.032  30.238  1.00  0.00    -0.248 NA
ATOM     51  C   UNL A   1      44.400  26.316  27.961  1.00  0.00     0.031 C 
ATOM     52  C   UNL A   1      44.675  29.851  28.696  1.00  0.00     0.029 A 
ATOM     53  C   UNL A   1      44.624  29.486  30.048  1.00  0.00     0.049 A 
ATOM     54  H   UNL A   1      44.671  30.804  31.696  1.00  0.00     0.167 HD
ATOM     55  C   UNL A   1      44.699  27.112  30.068  1.00  0.00     0.074 A 
ATOM     56  C   UNL A   1      45.224  27.028  28.721  1.00  0.00     0.031 C 
ATOM     57  C   UNL A   1      44.481  28.247  30.779  1.00  0.00     0.037 A 
BRANCH  44  58
ATOM     58  C   UNL A   1      43.734  33.703  31.122  1.00  0.00     0.058 A 
ATOM     59  C   UNL A   1      43.348  33.740  32.490  1.00  0.00     0.135 A 
ATOM     60  C   UNL A   1      44.298  34.882  30.618  1.00  0.00     0.135 A 
ATOM     61  F   UNL A   1      42.875  32.639  33.101  1.00  0.00    -0.206 F 
ATOM     62  C   UNL A   1      43.359  34.905  33.249  1.00  0.00     0.059 A 
ATOM     63  C   UNL A   1      44.364  36.056  31.381  1.00  0.00     0.059 A 
ATOM     64  F   UNL A   1      44.730  34.952  29.352  1.00  0.00    -0.206 F 
ATOM     65  C   UNL A   1      43.834  36.073  32.671  1.00  0.00     0.060 A 
BRANCH  65  66
ATOM     66  S   UNL A   1      43.714  37.602  33.625  1.00  0.00     0.124 S 
ATOM     67  O   UNL A   1      42.570  37.328  34.487  1.00  0.00    -0.237 OA
ATOM     68  O   UNL A   1      45.011  37.653  34.293  1.00  0.00    -0.237 OA
ATOM     69  O   UNL A   1      43.507  38.621  32.599  1.00  0.00    -0.744 OA
ENDBRANCH  65  66
ENDBRANCH  44  58
BRANCH  45  70
ATOM     70  C   UNL A   1      42.647  23.603  27.943  1.00  0.00     0.058 A 
ATOM     71  C   UNL A   1      43.120  22.440  28.565  1.00  0.00     0.135 A 
ATOM     72  C   UNL A   1      42.278  23.409  26.577  1.00  0.00     0.135 A 
ATOM     73  F   UNL A   1      43.671  22.485  29.784  1.00  0.00    -0.206 F 
ATOM     74  C   UNL A   1      43.044  21.171  27.955  1.00  0.00     0.059 A 
ATOM     75  C   UNL A   1      42.142  22.164  25.971  1.00  0.00     0.059 A 
ATOM     76  F   UNL A   1      41.995  24.441  25.769  1.00  0.00    -0.206 F 
ATOM     77  C   UNL A   1      42.489  21.036  26.683  1.00  0.00     0.060 A 
BRANCH  77  78
ATOM     78  S   UNL A   1      42.097  19.410  26.001  1.00  0.00     0.124 S 
ATOM     79  O   UNL A   1      42.874  19.398  24.768  1.00  0.00    -0.237 OA
ATOM     80  O   UNL A   1      42.557  18.510  27.054  1.00  0.00    -0.237 OA
ATOM     81  O   UNL A   1      40.646  19.461  25.831  1.00  0.00    -0.744 OA
ENDBRANCH  77  78
ENDBRANCH  45  70
BRANCH  57  82
ATOM     82  C   UNL A   1      43.773  28.049  32.111  1.00  0.00     0.058 A 
ATOM     83  C   UNL A   1      44.430  27.385  33.160  1.00  0.00     0.135 A 
ATOM     84  C   UNL A   1      42.440  28.417  32.369  1.00  0.00     0.135 A 
ATOM     85  F   UNL A   1      45.708  27.002  33.009  1.00  0.00    -0.206 F 
ATOM     86  C   UNL A   1      43.807  27.105  34.381  1.00  0.00     0.059 A 
ATOM     87  C   UNL A   1      41.792  28.157  33.583  1.00  0.00     0.059 A 
ATOM     88  F   UNL A   1      41.719  29.037  31.438  1.00  0.00    -0.206 F 
ATOM     89  C   UNL A   1      42.486  27.500  34.588  1.00  0.00     0.060 A 
BRANCH  89  90
ATOM     90  S   UNL A   1      41.714  27.170  36.189  1.00  0.00     0.124 S 
ATOM     91  O   UNL A   1      40.932  25.967  35.920  1.00  0.00    -0.237 OA
ATOM     92  O   UNL A   1      42.875  26.987  37.055  1.00  0.00    -0.237 OA
ATOM     93  O   UNL A   1      40.929  28.374  36.449  1.00  0.00    -0.744 OA
ENDBRANCH  89  90
ENDBRANCH  57  82
ENDBRANCH  31  32
ENDBRANCH  23  26
ENDBRANCH  21  22
ENDBRANCH  20  21
ENDBRANCH   1  20
TORSDOF 18
ENDMDL
MODEL 3
REMARK VINA RESULT:     -10.6      4.958     11.244
REMARK SMILES COCCNC(=O)Cn1ccc(C(=O)NCCCNC(=O)c2ccc(-c3c4nc(c(-c5c(F)cc(S(=O)(=O)[O-])cc5F)c5ccc([nH]5)c(-c5c(F)cc(S(=O)(=O)[O-])cc5F)c5nc(c(-c6c(F)cc(S(=O)(=O)[O-])cc6F)c6ccc3[nH]6)C=C5)C=C4)cc2)c1
REMARK SMILES IDX 16 1 15 2 13 3 14 4 12 6 9 7 10 8 88 9 11 10 8 11 6 12 5 13
REMARK SMILES IDX 7 15 4 16 3 17 2 18 1 19 17 20 18 21 19 22 20 23 21 25 22 26
REMARK SMILES IDX 23 27 87 28 24 29 86 30 25 31 26 32 27 33 80 34 28 35 85 36
REMARK SMILES IDX 79 37 81 38 29 39 84 40 78 41 77 42 30 44 64 45 43 46 63 47
REMARK SMILES IDX 44 48 47 49 62 50 82 51 45 52 46 53 61 55 83 56 48 57 31 58
REMARK SMILES IDX 32 59 41 60 33 61 34 62 40 63 42 64 35 65 36 66 37 67 38 68
REMARK SMILES IDX 39 69 65 70 66 71 75 72 67 73 68 74 74 75 76 76 69 77 70 78
REMARK SMILES IDX 71 79 72 80 73 81 49 82 50 83 59 84 51 85 52 86 58 87 60 88
REMARK SMILES IDX 53 89 54 90 55 91 56 92 57 93
REMARK H PARENT 15 5 5 14 19 24 81 43 47 54
REMARK Flexibility Score: inf
ROOT
ATOM      1  C   UNL A   1      32.223  26.778  26.228  1.00  0.00     0.118 C 
ENDROOT
BRANCH   1   2
ATOM      2  N   UNL A   1      31.144  26.678  25.268  1.00  0.00    -0.352 N 
ATOM      3  C   UNL A   1      30.521  25.608  24.678  1.00  0.00     0.252 C 
ATOM      4  O   UNL A   1      29.558  25.858  23.959  1.00  0.00    -0.269 OA
ATOM      5  H   UNL A   1      30.787  27.550  24.983  1.00  0.00     0.163 HD
BRANCH   3   6
ATOM      6  C   UNL A   1      30.968  24.224  24.863  1.00  0.00     0.057 A 
ATOM      7  N   UNL A   1      31.752  22.132  24.620  1.00  0.00    -0.344 N 
ATOM      8  C   UNL A   1      31.190  22.179  25.864  1.00  0.00     0.087 A 
ATOM      9  C   UNL A   1      31.675  23.371  24.034  1.00  0.00     0.100 A 
ATOM     10  C   UNL A   1      30.680  23.447  26.034  1.00  0.00     0.033 A 
BRANCH   7  11
ATOM     11  C   UNL A   1      32.304  20.933  24.005  1.00  0.00     0.221 C 
BRANCH  11  12
ATOM     12  C   UNL A   1      33.003  20.005  24.979  1.00  0.00     0.239 C 
ATOM     13  N   UNL A   1      34.330  20.154  25.258  1.00  0.00    -0.352 N 
ATOM     14  H   UNL A   1      34.715  19.462  25.844  1.00  0.00     0.163 HD
ATOM     15  O   UNL A   1      32.401  19.065  25.505  1.00  0.00    -0.273 OA
BRANCH  13  16
ATOM     16  C   UNL A   1      35.267  21.187  24.822  1.00  0.00     0.144 C 
BRANCH  16  17
ATOM     17  C   UNL A   1      36.725  20.881  25.193  1.00  0.00     0.181 C 
BRANCH  17  18
ATOM     18  O   UNL A   1      37.535  22.056  25.288  1.00  0.00    -0.383 OA
ATOM     19  C   UNL A   1      36.815  23.257  25.515  1.00  0.00     0.194 C 
ENDBRANCH  17  18
ENDBRANCH  16  17
ENDBRANCH  13  16
ENDBRANCH  11  12
ENDBRANCH   7  11
ENDBRANCH   3   6
ENDBRANCH   1   2
BRANCH   1  20
ATOM     20  C   UNL A   1      32.172  28.089  27.017  1.00  0.00     0.042 C 
BRANCH  20  21
ATOM     21  C   UNL A   1      33.570  28.634  27.295  1.00  0.00     0.118 C 
BRANCH  21  22
ATOM     22  N   UNL A   1      33.525  30.072  27.527  1.00  0.00    -0.352 N 
ATOM     23  C   UNL A   1      34.407  30.887  28.193  1.00  0.00     0.251 C 
ATOM     24  H   UNL A   1      32.741  30.531  27.148  1.00  0.00     0.163 HD
ATOM     25  O   UNL A   1      34.052  32.009  28.527  1.00  0.00    -0.269 OA
BRANCH  23  26
ATOM     26  C   UNL A   1      35.761  30.408  28.527  1.00  0.00     0.039 A 
ATOM     27  C   UNL A   1      36.740  30.448  27.528  1.00  0.00     0.014 A 
ATOM     28  C   UNL A   1      36.049  29.876  29.789  1.00  0.00     0.014 A 
ATOM     29  C   UNL A   1      38.027  30.017  27.818  1.00  0.00     0.010 A 
ATOM     30  C   UNL A   1      37.343  29.492  30.098  1.00  0.00     0.010 A 
ATOM     31  C   UNL A   1      38.327  29.564  29.110  1.00  0.00    -0.014 A 
BRANCH  31  32
ATOM     32  C   UNL A   1      39.728  29.245  29.442  1.00  0.00     0.031 A 
ATOM     33  C   UNL A   1      40.483  30.517  29.885  1.00  0.00     0.074 A 
ATOM     34  C   UNL A   1      40.099  27.941  29.248  1.00  0.00     0.049 A 
ATOM     35  N   UNL A   1      41.681  30.921  29.594  1.00  0.00    -0.248 NA
ATOM     36  C   UNL A   1      39.754  31.561  30.661  1.00  0.00     0.031 C 
ATOM     37  C   UNL A   1      39.175  26.851  28.849  1.00  0.00     0.029 A 
ATOM     38  N   UNL A   1      41.289  27.249  29.337  1.00  0.00    -0.354 N 
ATOM     39  C   UNL A   1      41.923  32.125  30.303  1.00  0.00     0.074 A 
ATOM     40  C   UNL A   1      40.652  32.542  30.814  1.00  0.00     0.031 C 
ATOM     41  C   UNL A   1      39.838  25.692  28.651  1.00  0.00     0.029 A 
ATOM     42  C   UNL A   1      41.251  25.895  28.892  1.00  0.00     0.049 A 
ATOM     43  H   UNL A   1      42.111  27.663  29.685  1.00  0.00     0.167 HD
ATOM     44  C   UNL A   1      43.184  32.604  30.551  1.00  0.00     0.037 A 
ATOM     45  C   UNL A   1      42.293  25.031  28.665  1.00  0.00     0.037 A 
ATOM     46  C   UNL A   1      44.133  31.658  30.061  1.00  0.00     0.049 A 
ATOM     47  C   UNL A   1      43.487  25.780  29.086  1.00  0.00     0.074 A 
ATOM     48  C   UNL A   1      44.520  31.311  28.794  1.00  0.00     0.029 A 
ATOM     49  N   UNL A   1      44.503  30.667  30.941  1.00  0.00    -0.354 N 
ATOM     50  N   UNL A   1      43.805  26.053  30.316  1.00  0.00    -0.248 NA
ATOM     51  C   UNL A   1      44.316  26.399  28.043  1.00  0.00     0.031 C 
ATOM     52  C   UNL A   1      44.632  29.908  28.879  1.00  0.00     0.029 A 
ATOM     53  C   UNL A   1      44.593  29.504  30.220  1.00  0.00     0.049 A 
ATOM     54  H   UNL A   1      44.670  30.772  31.905  1.00  0.00     0.167 HD
ATOM     55  C   UNL A   1      44.645  27.129  30.169  1.00  0.00     0.074 A 
ATOM     56  C   UNL A   1      45.155  27.081  28.814  1.00  0.00     0.031 C 
ATOM     57  C   UNL A   1      44.446  28.245  30.915  1.00  0.00     0.037 A 
BRANCH  44  58
ATOM     58  C   UNL A   1      43.754  33.695  31.428  1.00  0.00     0.058 A 
ATOM     59  C   UNL A   1      43.659  33.522  32.836  1.00  0.00     0.135 A 
ATOM     60  C   UNL A   1      44.049  34.993  30.994  1.00  0.00     0.135 A 
ATOM     61  F   UNL A   1      43.464  32.302  33.368  1.00  0.00    -0.206 F 
ATOM     62  C   UNL A   1      43.681  34.585  33.732  1.00  0.00     0.059 A 
ATOM     63  C   UNL A   1      44.125  36.073  31.885  1.00  0.00     0.059 A 
ATOM     64  F   UNL A   1      44.198  35.267  29.690  1.00  0.00    -0.206 F 
ATOM     65  C   UNL A   1      43.876  35.867  33.242  1.00  0.00     0.060 A 
BRANCH  65  66
ATOM     66  S   UNL A   1      43.766  37.247  34.403  1.00  0.00     0.124 S 
ATOM     67  O   UNL A   1      44.055  36.592  35.674  1.00  0.00    -0.237 OA
ATOM     68  O   UNL A   1      44.801  38.151  33.909  1.00  0.00    -0.237 OA
ATOM     69  O   UNL A   1      42.396  37.723  34.230  1.00  0.00    -0.744 OA
ENDBRANCH  65  66
ENDBRANCH  44  58
BRANCH  45  70
ATOM     70  C   UNL A   1      42.538  23.704  27.964  1.00  0.00     0.058 A 
ATOM     71  C   UNL A   1      43.155  22.569  28.505  1.00  0.00     0.135 A 
ATOM     72  C   UNL A   1      41.995  23.492  26.660  1.00  0.00     0.135 A 
ATOM     73  F   UNL A   1      43.866  22.643  29.636  1.00  0.00    -0.206 F 
ATOM     74  C   UNL A   1      43.066  21.298  27.899  1.00  0.00     0.059 A 
ATOM     75  C   UNL A   1      41.845  22.242  26.068  1.00  0.00     0.059 A 
ATOM     76  F   UNL A   1      41.546  24.507  25.908  1.00  0.00    -0.206 F 
ATOM     77  C   UNL A   1      42.349  21.134  26.714  1.00  0.00     0.060 A 
BRANCH  77  78
ATOM     78  S   UNL A   1      41.956  19.489  26.078  1.00  0.00     0.124 S 
ATOM     79  O   UNL A   1      42.805  19.407  24.897  1.00  0.00    -0.237 OA
ATOM     80  O   UNL A   1      42.329  18.625  27.195  1.00  0.00    -0.237 OA
ATOM     81  O   UNL A   1      40.520  19.567  25.819  1.00  0.00    -0.744 OA
ENDBRANCH  77  78
ENDBRANCH  45  70
BRANCH  57  82
ATOM     82  C   UNL A   1      43.750  28.014  32.249  1.00  0.00     0.058 A 
ATOM     83  C   UNL A   1      44.397  27.281  33.257  1.00  0.00     0.135 A 
ATOM     84  C   UNL A   1      42.435  28.418  32.544  1.00  0.00     0.135 A 
ATOM     85  F   UNL A   1      45.657  26.858  33.069  1.00  0.00    -0.206 F 
ATOM     86  C   UNL A   1      43.781  26.970  34.474  1.00  0.00     0.059 A 
ATOM     87  C   UNL A   1      41.795  28.129  33.755  1.00  0.00     0.059 A 
ATOM     88  F   UNL A   1      41.725  29.106  31.652  1.00  0.00    -0.206 F 
ATOM     89  C   UNL A   1      42.479  27.403  34.719  1.00  0.00     0.060 A 
BRANCH  89  90
ATOM     90  S   UNL A   1      41.719  27.031  36.317  1.00  0.00     0.124 S 
ATOM     91  O   UNL A   1      42.880  26.841  37.182  1.00  0.00    -0.237 OA
ATOM     92  O   UNL A   1      40.936  28.237  36.570  1.00  0.00    -0.237 OA
ATOM     93  O   UNL A   1      40.937  25.825  36.056  1.00  0.00    -0.744 OA
ENDBRANCH  89  90
ENDBRANCH  57  82
ENDBRANCH  31  32
ENDBRANCH  23  26
ENDBRANCH  21  22
ENDBRANCH  20  21
ENDBRANCH   1  20
TORSDOF 18
ENDMDL
