MODEL 1
REMARK VINA RESULT:     -11.9      0.000      0.000
REMARK SMILES CCC[C@@]1(C(=O)NCCCNC(=O)c2ccc(-c3c4nc(c(-c5c(F)cc(S(=O)(=O)[O-])cc5F)c5ccc([nH]5)c(-c5c(F)cc(S(=O)(=O)[O-])cc5F)c5nc(c(-c6c(F)cc(S(=O)(=O)[O-])cc6F)c6ccc3[nH]6)C=C5)C=C4)cc2)CCCN(C(=O)C[C@H]2CCCCO2)C1
REMARK SMILES IDX 9 1 8 2 7 3 5 4 6 5 4 7 80 8 93 9 81 10 83 11 82 12 3 13
REMARK SMILES IDX 2 14 1 15 84 16 85 17 86 18 87 19 88 20 92 21 89 22 91 23
REMARK SMILES IDX 90 24 10 25 11 26 12 27 13 29 14 30 15 31 79 32 16 33 78 34
REMARK SMILES IDX 17 35 18 36 19 37 72 38 20 39 77 40 71 41 73 42 21 43 76 44
REMARK SMILES IDX 70 45 69 46 22 48 56 49 35 50 55 51 36 52 39 53 54 54 74 55
REMARK SMILES IDX 37 56 38 57 53 59 75 60 40 61 23 62 24 63 33 64 25 65 26 66
REMARK SMILES IDX 32 67 34 68 27 69 28 70 29 71 30 72 31 73 57 74 58 75 67 76
REMARK SMILES IDX 59 77 60 78 66 79 68 80 61 81 62 82 63 83 64 84 65 85 41 86
REMARK SMILES IDX 42 87 51 88 43 89 44 90 50 91 52 92 45 93 46 94 47 95 48 96
REMARK SMILES IDX 49 97
REMARK H PARENT 7 6 11 28 73 47 39 58
REMARK Flexibility Score: inf
ROOT
ATOM      1  C   UNL A   1      37.551  22.724  25.438  1.00  0.00     0.042 C 
ENDROOT
BRANCH   1   2
ATOM      2  C   UNL A   1      36.986  23.287  24.154  1.00  0.00     0.117 C 
BRANCH   2   3
ATOM      3  N   UNL A   1      35.701  22.761  23.645  1.00  0.00    -0.355 N 
ATOM      4  C   UNL A   1      34.571  23.548  23.359  1.00  0.00     0.228 C 
ATOM      5  O   UNL A   1      34.110  23.494  22.212  1.00  0.00    -0.274 OA
ATOM      6  H   UNL A   1      35.632  21.790  23.495  1.00  0.00     0.163 HD
BRANCH   4   7
ATOM      7  C   UNL A   1      33.706  24.147  24.530  1.00  0.00     0.067 C 
ATOM      8  C   UNL A   1      34.180  23.939  26.042  1.00  0.00     0.020 C 
ATOM      9  C   UNL A   1      32.314  23.527  24.482  1.00  0.00     0.136 C 
ATOM     10  C   UNL A   1      33.503  22.905  27.002  1.00  0.00     0.023 C 
ATOM     11  N   UNL A   1      32.334  22.135  25.099  1.00  0.00    -0.342 N 
ATOM     12  C   UNL A   1      32.214  22.249  26.522  1.00  0.00     0.119 C 
BRANCH   7  13
ATOM     13  C   UNL A   1      34.010  25.691  24.265  1.00  0.00     0.018 C 
BRANCH  13  14
ATOM     14  C   UNL A   1      33.797  26.820  25.258  1.00  0.00    -0.002 C 
ATOM     15  C   UNL A   1      32.371  27.142  25.629  1.00  0.00     0.004 C 
ENDBRANCH  13  14
ENDBRANCH   7  13
BRANCH  11  16
ATOM     16  C   UNL A   1      33.095  21.050  24.621  1.00  0.00     0.225 C 
ATOM     17  O   UNL A   1      34.161  20.702  25.122  1.00  0.00    -0.275 OA
BRANCH  16  18
ATOM     18  C   UNL A   1      32.577  20.067  23.592  1.00  0.00     0.132 C 
BRANCH  18  19
ATOM     19  C   UNL A   1      33.103  18.703  24.068  1.00  0.00     0.127 C 
ATOM     20  C   UNL A   1      32.227  18.047  25.121  1.00  0.00     0.033 C 
ATOM     21  O   UNL A   1      33.251  17.766  22.988  1.00  0.00    -0.378 OA
ATOM     22  C   UNL A   1      32.996  16.852  25.684  1.00  0.00     0.005 C 
ATOM     23  C   UNL A   1      34.094  16.678  23.390  1.00  0.00     0.160 C 
ATOM     24  C   UNL A   1      33.486  15.922  24.571  1.00  0.00     0.029 C 
ENDBRANCH  18  19
ENDBRANCH  16  18
ENDBRANCH  11  16
ENDBRANCH   4   7
ENDBRANCH   2   3
ENDBRANCH   1   2
BRANCH   1  25
ATOM     25  C   UNL A   1      38.264  23.811  26.236  1.00  0.00     0.118 C 
BRANCH  25  26
ATOM     26  N   UNL A   1      39.738  23.728  26.185  1.00  0.00    -0.352 N 
ATOM     27  C   UNL A   1      40.746  24.532  26.657  1.00  0.00     0.251 C 
ATOM     28  H   UNL A   1      40.067  22.928  25.712  1.00  0.00     0.163 HD
ATOM     29  O   UNL A   1      41.910  24.320  26.311  1.00  0.00    -0.269 OA
BRANCH  27  30
ATOM     30  C   UNL A   1      40.449  25.662  27.551  1.00  0.00     0.039 A 
ATOM     31  C   UNL A   1      39.517  25.519  28.584  1.00  0.00     0.014 A 
ATOM     32  C   UNL A   1      41.113  26.871  27.381  1.00  0.00     0.014 A 
ATOM     33  C   UNL A   1      39.360  26.549  29.513  1.00  0.00     0.010 A 
ATOM     34  C   UNL A   1      41.088  27.811  28.391  1.00  0.00     0.010 A 
ATOM     35  C   UNL A   1      40.204  27.671  29.467  1.00  0.00    -0.014 A 
BRANCH  35  36
ATOM     36  C   UNL A   1      40.204  28.716  30.519  1.00  0.00     0.031 A 
ATOM     37  C   UNL A   1      41.137  28.594  31.694  1.00  0.00     0.074 A 
ATOM     38  C   UNL A   1      39.278  29.695  30.477  1.00  0.00     0.049 A 
ATOM     39  N   UNL A   1      41.190  29.314  32.785  1.00  0.00    -0.248 NA
ATOM     40  C   UNL A   1      42.102  27.481  31.665  1.00  0.00     0.031 C 
ATOM     41  C   UNL A   1      38.272  29.871  29.425  1.00  0.00     0.029 A 
ATOM     42  N   UNL A   1      39.023  30.722  31.349  1.00  0.00    -0.354 N 
ATOM     43  C   UNL A   1      42.166  28.721  33.578  1.00  0.00     0.074 A 
ATOM     44  C   UNL A   1      42.618  27.538  32.883  1.00  0.00     0.031 C 
ATOM     45  C   UNL A   1      37.543  30.965  29.688  1.00  0.00     0.029 A 
ATOM     46  C   UNL A   1      37.989  31.538  30.953  1.00  0.00     0.049 A 
ATOM     47  H   UNL A   1      39.532  30.862  32.180  1.00  0.00     0.167 HD
ATOM     48  C   UNL A   1      42.667  29.144  34.762  1.00  0.00     0.037 A 
ATOM     49  C   UNL A   1      37.456  32.622  31.549  1.00  0.00     0.037 A 
ATOM     50  C   UNL A   1      42.230  30.345  35.423  1.00  0.00     0.049 A 
ATOM     51  C   UNL A   1      38.024  33.078  32.862  1.00  0.00     0.074 A 
ATOM     52  C   UNL A   1      42.721  30.917  36.581  1.00  0.00     0.029 A 
ATOM     53  N   UNL A   1      41.193  31.156  34.982  1.00  0.00    -0.354 N 
ATOM     54  N   UNL A   1      39.006  32.555  33.560  1.00  0.00    -0.248 NA
ATOM     55  C   UNL A   1      37.416  34.267  33.471  1.00  0.00     0.031 C 
ATOM     56  C   UNL A   1      41.943  32.043  36.871  1.00  0.00     0.029 A 
ATOM     57  C   UNL A   1      41.004  32.205  35.864  1.00  0.00     0.049 A 
ATOM     58  H   UNL A   1      40.669  31.006  34.161  1.00  0.00     0.167 HD
ATOM     59  C   UNL A   1      39.143  33.361  34.684  1.00  0.00     0.074 A 
ATOM     60  C   UNL A   1      38.156  34.416  34.561  1.00  0.00     0.031 C 
ATOM     61  C   UNL A   1      40.006  33.240  35.724  1.00  0.00     0.037 A 
BRANCH  48  62
ATOM     62  C   UNL A   1      43.738  28.300  35.403  1.00  0.00     0.058 A 
ATOM     63  C   UNL A   1      45.096  28.444  35.068  1.00  0.00     0.135 A 
ATOM     64  C   UNL A   1      43.404  27.322  36.353  1.00  0.00     0.135 A 
ATOM     65  F   UNL A   1      45.475  29.354  34.156  1.00  0.00    -0.206 F 
ATOM     66  C   UNL A   1      46.073  27.613  35.605  1.00  0.00     0.059 A 
ATOM     67  C   UNL A   1      44.370  26.503  36.933  1.00  0.00     0.059 A 
ATOM     68  F   UNL A   1      42.125  27.139  36.715  1.00  0.00    -0.206 F 
ATOM     69  C   UNL A   1      45.699  26.640  36.533  1.00  0.00     0.060 A 
BRANCH  69  70
ATOM     70  S   UNL A   1      46.974  25.550  37.199  1.00  0.00     0.124 S 
ATOM     71  O   UNL A   1      47.603  26.413  38.194  1.00  0.00    -0.237 OA
ATOM     72  O   UNL A   1      46.189  24.440  37.730  1.00  0.00    -0.237 OA
ATOM     73  O   UNL A   1      47.794  25.234  36.034  1.00  0.00    -0.744 OA
ENDBRANCH  69  70
ENDBRANCH  48  62
BRANCH  49  74
ATOM     74  C   UNL A   1      36.356  33.364  30.876  1.00  0.00     0.058 A 
ATOM     75  C   UNL A   1      35.051  33.325  31.389  1.00  0.00     0.135 A 
ATOM     76  C   UNL A   1      36.591  34.172  29.753  1.00  0.00     0.135 A 
ATOM     77  F   UNL A   1      34.774  32.562  32.459  1.00  0.00    -0.206 F 
ATOM     78  C   UNL A   1      34.018  34.059  30.815  1.00  0.00     0.059 A 
ATOM     79  C   UNL A   1      35.581  34.935  29.176  1.00  0.00     0.059 A 
ATOM     80  F   UNL A   1      37.826  34.259  29.233  1.00  0.00    -0.206 F 
ATOM     81  C   UNL A   1      34.296  34.870  29.713  1.00  0.00     0.060 A 
BRANCH  81  82
ATOM     82  S   UNL A   1      32.964  35.882  29.030  1.00  0.00     0.124 S 
ATOM     83  O   UNL A   1      33.711  36.941  28.363  1.00  0.00    -0.237 OA
ATOM     84  O   UNL A   1      32.279  34.934  28.156  1.00  0.00    -0.237 OA
ATOM     85  O   UNL A   1      32.211  36.288  30.214  1.00  0.00    -0.744 OA
ENDBRANCH  81  82
ENDBRANCH  49  74
BRANCH  61  86
ATOM     86  C   UNL A   1      39.925  34.276  36.810  1.00  0.00     0.058 A 
ATOM     87  C   UNL A   1      40.544  35.528  36.678  1.00  0.00     0.135 A 
ATOM     88  C   UNL A   1      39.167  34.035  37.968  1.00  0.00     0.135 A 
ATOM     89  F   UNL A   1      41.287  35.804  35.595  1.00  0.00    -0.206 F 
ATOM     90  C   UNL A   1      40.429  36.501  37.664  1.00  0.00     0.059 A 
ATOM     91  C   UNL A   1      39.013  35.005  38.953  1.00  0.00     0.059 A 
ATOM     92  F   UNL A   1      38.548  32.856  38.139  1.00  0.00    -0.206 F 
ATOM     93  C   UNL A   1      39.656  36.232  38.796  1.00  0.00     0.060 A 
BRANCH  93  94
ATOM     94  S   UNL A   1      39.479  37.522  40.045  1.00  0.00     0.124 S 
ATOM     95  O   UNL A   1      40.833  38.062  40.104  1.00  0.00    -0.237 OA
ATOM     96  O   UNL A   1      38.473  38.397  39.447  1.00  0.00    -0.237 OA
ATOM     97  O   UNL A   1      39.042  36.792  41.230  1.00  0.00    -0.744 OA
ENDBRANCH  93  94
ENDBRANCH  61  86
ENDBRANCH  35  36
ENDBRANCH  27  30
ENDBRANCH  25  26
ENDBRANCH   1  25
TORSDOF 18
ENDMDL
MODEL 2
REMARK VINA RESULT:     -11.7      1.035      3.612
REMARK SMILES CCC[C@@]1(C(=O)NCCCNC(=O)c2ccc(-c3c4nc(c(-c5c(F)cc(S(=O)(=O)[O-])cc5F)c5ccc([nH]5)c(-c5c(F)cc(S(=O)(=O)[O-])cc5F)c5nc(c(-c6c(F)cc(S(=O)(=O)[O-])cc6F)c6ccc3[nH]6)C=C5)C=C4)cc2)CCCN(C(=O)C[C@H]2CCCCO2)C1
REMARK SMILES IDX 9 1 8 2 7 3 5 4 6 5 4 7 80 8 93 9 81 10 83 11 82 12 3 13
REMARK SMILES IDX 2 14 1 15 84 16 85 17 86 18 87 19 88 20 92 21 89 22 91 23
REMARK SMILES IDX 90 24 10 25 11 26 12 27 13 29 14 30 15 31 79 32 16 33 78 34
REMARK SMILES IDX 17 35 18 36 19 37 72 38 20 39 77 40 71 41 73 42 21 43 76 44
REMARK SMILES IDX 70 45 69 46 22 48 56 49 35 50 55 51 36 52 39 53 54 54 74 55
REMARK SMILES IDX 37 56 38 57 53 59 75 60 40 61 23 62 24 63 33 64 25 65 26 66
REMARK SMILES IDX 32 67 34 68 27 69 28 70 29 71 30 72 31 73 57 74 58 75 67 76
REMARK SMILES IDX 59 77 60 78 66 79 68 80 61 81 62 82 63 83 64 84 65 85 41 86
REMARK SMILES IDX 42 87 51 88 43 89 44 90 50 91 52 92 45 93 46 94 47 95 48 96
REMARK SMILES IDX 49 97
REMARK H PARENT 7 6 11 28 73 47 39 58
REMARK Flexibility Score: inf
ROOT
ATOM      1  C   UNL A   1      37.534  22.986  25.237  1.00  0.00     0.042 C 
ENDROOT
BRANCH   1   2
ATOM      2  C   UNL A   1      36.297  23.600  24.622  1.00  0.00     0.117 C 
BRANCH   2   3
ATOM      3  N   UNL A   1      35.466  22.782  23.713  1.00  0.00    -0.355 N 
ATOM      4  C   UNL A   1      34.063  22.709  23.761  1.00  0.00     0.228 C 
ATOM      5  O   UNL A   1      33.438  23.010  22.736  1.00  0.00    -0.274 OA
ATOM      6  H   UNL A   1      35.929  22.250  23.026  1.00  0.00     0.163 HD
BRANCH   4   7
ATOM      7  C   UNL A   1      33.350  21.908  24.914  1.00  0.00     0.067 C 
ATOM      8  C   UNL A   1      31.765  21.703  24.863  1.00  0.00     0.020 C 
ATOM      9  C   UNL A   1      33.596  22.623  26.237  1.00  0.00     0.136 C 
ATOM     10  C   UNL A   1      30.782  22.517  25.768  1.00  0.00     0.023 C 
ATOM     11  N   UNL A   1      32.660  23.816  26.376  1.00  0.00    -0.342 N 
ATOM     12  C   UNL A   1      31.395  23.366  26.876  1.00  0.00     0.119 C 
BRANCH   7  13
ATOM     13  C   UNL A   1      33.913  20.458  24.559  1.00  0.00     0.018 C 
BRANCH  13  14
ATOM     14  C   UNL A   1      33.311  19.138  25.007  1.00  0.00    -0.002 C 
ATOM     15  C   UNL A   1      33.920  17.882  24.437  1.00  0.00     0.004 C 
ENDBRANCH  13  14
ENDBRANCH   7  13
BRANCH  11  16
ATOM     16  C   UNL A   1      32.630  24.924  25.507  1.00  0.00     0.225 C 
ATOM     17  O   UNL A   1      31.683  25.175  24.767  1.00  0.00    -0.275 OA
BRANCH  16  18
ATOM     18  C   UNL A   1      33.653  26.040  25.556  1.00  0.00     0.132 C 
BRANCH  18  19
ATOM     19  C   UNL A   1      32.816  27.320  25.715  1.00  0.00     0.127 C 
ATOM     20  C   UNL A   1      33.197  28.148  26.931  1.00  0.00     0.033 C 
ATOM     21  O   UNL A   1      32.904  28.179  24.566  1.00  0.00    -0.378 OA
ATOM     22  C   UNL A   1      32.128  29.225  27.110  1.00  0.00     0.005 C 
ATOM     23  C   UNL A   1      31.833  29.132  24.579  1.00  0.00     0.160 C 
ATOM     24  C   UNL A   1      31.908  30.021  25.821  1.00  0.00     0.029 C 
ENDBRANCH  18  19
ENDBRANCH  16  18
ENDBRANCH  11  16
ENDBRANCH   4   7
ENDBRANCH   2   3
ENDBRANCH   1   2
BRANCH   1  25
ATOM     25  C   UNL A   1      38.244  23.991  26.138  1.00  0.00     0.118 C 
BRANCH  25  26
ATOM     26  N   UNL A   1      39.699  23.765  26.265  1.00  0.00    -0.352 N 
ATOM     27  C   UNL A   1      40.713  24.463  26.873  1.00  0.00     0.251 C 
ATOM     28  H   UNL A   1      40.006  22.941  25.819  1.00  0.00     0.163 HD
ATOM     29  O   UNL A   1      41.886  24.142  26.666  1.00  0.00    -0.269 OA
BRANCH  27  30
ATOM     30  C   UNL A   1      40.418  25.608  27.748  1.00  0.00     0.039 A 
ATOM     31  C   UNL A   1      39.434  25.506  28.736  1.00  0.00     0.014 A 
ATOM     32  C   UNL A   1      41.134  26.790  27.604  1.00  0.00     0.014 A 
ATOM     33  C   UNL A   1      39.272  26.546  29.653  1.00  0.00     0.010 A 
ATOM     34  C   UNL A   1      41.098  27.737  28.609  1.00  0.00     0.010 A 
ATOM     35  C   UNL A   1      40.159  27.635  29.643  1.00  0.00    -0.014 A 
BRANCH  35  36
ATOM     36  C   UNL A   1      40.150  28.686  30.689  1.00  0.00     0.031 A 
ATOM     37  C   UNL A   1      41.069  28.567  31.876  1.00  0.00     0.074 A 
ATOM     38  C   UNL A   1      39.228  29.667  30.632  1.00  0.00     0.049 A 
ATOM     39  N   UNL A   1      41.112  29.291  32.964  1.00  0.00    -0.248 NA
ATOM     40  C   UNL A   1      42.032  27.451  31.864  1.00  0.00     0.031 C 
ATOM     41  C   UNL A   1      38.234  29.840  29.568  1.00  0.00     0.029 A 
ATOM     42  N   UNL A   1      38.965  30.699  31.496  1.00  0.00    -0.354 N 
ATOM     43  C   UNL A   1      42.076  28.699  33.772  1.00  0.00     0.074 A 
ATOM     44  C   UNL A   1      42.533  27.512  33.087  1.00  0.00     0.031 C 
ATOM     45  C   UNL A   1      37.506  30.938  29.817  1.00  0.00     0.029 A 
ATOM     46  C   UNL A   1      37.938  31.515  31.085  1.00  0.00     0.049 A 
ATOM     47  H   UNL A   1      39.465  30.841  32.332  1.00  0.00     0.167 HD
ATOM     48  C   UNL A   1      42.564  29.127  34.959  1.00  0.00     0.037 A 
ATOM     49  C   UNL A   1      37.400  32.603  31.669  1.00  0.00     0.037 A 
ATOM     50  C   UNL A   1      42.123  30.332  35.609  1.00  0.00     0.049 A 
ATOM     51  C   UNL A   1      37.955  33.064  32.986  1.00  0.00     0.074 A 
ATOM     52  C   UNL A   1      42.602  30.909  36.771  1.00  0.00     0.029 A 
ATOM     53  N   UNL A   1      41.094  31.144  35.152  1.00  0.00    -0.354 N 
ATOM     54  N   UNL A   1      38.927  32.542  33.698  1.00  0.00    -0.248 NA
ATOM     55  C   UNL A   1      37.342  34.257  33.582  1.00  0.00     0.031 C 
ATOM     56  C   UNL A   1      41.824  32.038  37.046  1.00  0.00     0.029 A 
ATOM     57  C   UNL A   1      40.896  32.198  36.027  1.00  0.00     0.049 A 
ATOM     58  H   UNL A   1      40.578  30.991  34.326  1.00  0.00     0.167 HD
ATOM     59  C   UNL A   1      39.053  33.353  34.820  1.00  0.00     0.074 A 
ATOM     60  C   UNL A   1      38.071  34.410  34.680  1.00  0.00     0.031 C 
ATOM     61  C   UNL A   1      39.903  33.234  35.870  1.00  0.00     0.037 A 
BRANCH  48  62
ATOM     62  C   UNL A   1      43.626  28.284  35.616  1.00  0.00     0.058 A 
ATOM     63  C   UNL A   1      43.307  27.284  36.552  1.00  0.00     0.135 A 
ATOM     64  C   UNL A   1      44.984  28.487  35.321  1.00  0.00     0.135 A 
ATOM     65  F   UNL A   1      42.026  27.053  36.884  1.00  0.00    -0.206 F 
ATOM     66  C   UNL A   1      44.294  26.560  37.212  1.00  0.00     0.059 A 
ATOM     67  C   UNL A   1      45.987  27.747  35.942  1.00  0.00     0.059 A 
ATOM     68  F   UNL A   1      45.350  29.425  34.434  1.00  0.00    -0.206 F 
ATOM     69  C   UNL A   1      45.633  26.803  36.904  1.00  0.00     0.060 A 
BRANCH  69  70
ATOM     70  S   UNL A   1      46.902  25.876  37.791  1.00  0.00     0.124 S 
ATOM     71  O   UNL A   1      47.074  24.716  36.922  1.00  0.00    -0.237 OA
ATOM     72  O   UNL A   1      48.016  26.819  37.816  1.00  0.00    -0.237 OA
ATOM     73  O   UNL A   1      46.285  25.605  39.085  1.00  0.00    -0.744 OA
ENDBRANCH  69  70
ENDBRANCH  48  62
BRANCH  49  74
ATOM     74  C   UNL A   1      36.311  33.345  30.980  1.00  0.00     0.058 A 
ATOM     75  C   UNL A   1      35.007  33.340  31.498  1.00  0.00     0.135 A 
ATOM     76  C   UNL A   1      36.555  34.119  29.834  1.00  0.00     0.135 A 
ATOM     77  F   UNL A   1      34.721  32.612  32.587  1.00  0.00    -0.206 F 
ATOM     78  C   UNL A   1      33.984  34.076  30.907  1.00  0.00     0.059 A 
ATOM     79  C   UNL A   1      35.555  34.883  29.240  1.00  0.00     0.059 A 
ATOM     80  F   UNL A   1      37.790  34.173  29.310  1.00  0.00    -0.206 F 
ATOM     81  C   UNL A   1      34.271  34.853  29.783  1.00  0.00     0.060 A 
BRANCH  81  82
ATOM     82  S   UNL A   1      32.954  35.868  29.077  1.00  0.00     0.124 S 
ATOM     83  O   UNL A   1      33.713  36.951  28.464  1.00  0.00    -0.237 OA
ATOM     84  O   UNL A   1      32.312  34.935  28.156  1.00  0.00    -0.237 OA
ATOM     85  O   UNL A   1      32.154  36.236  30.242  1.00  0.00    -0.744 OA
ENDBRANCH  81  82
ENDBRANCH  49  74
BRANCH  61  86
ATOM     86  C   UNL A   1      39.812  34.275  36.951  1.00  0.00     0.058 A 
ATOM     87  C   UNL A   1      40.453  35.518  36.829  1.00  0.00     0.135 A 
ATOM     88  C   UNL A   1      39.024  34.051  38.091  1.00  0.00     0.135 A 
ATOM     89  F   UNL A   1      41.225  35.779  35.763  1.00  0.00    -0.206 F 
ATOM     90  C   UNL A   1      40.329  36.496  37.809  1.00  0.00     0.059 A 
ATOM     91  C   UNL A   1      38.861  35.027  39.069  1.00  0.00     0.059 A 
ATOM     92  F   UNL A   1      38.384  32.882  38.252  1.00  0.00    -0.206 F 
ATOM     93  C   UNL A   1      39.526  36.244  38.923  1.00  0.00     0.060 A 
BRANCH  93  94
ATOM     94  S   UNL A   1      39.339  37.541  40.163  1.00  0.00     0.124 S 
ATOM     95  O   UNL A   1      40.680  38.114  40.193  1.00  0.00    -0.237 OA
ATOM     96  O   UNL A   1      38.302  38.385  39.575  1.00  0.00    -0.237 OA
ATOM     97  O   UNL A   1      38.940  36.812  41.362  1.00  0.00    -0.744 OA
ENDBRANCH  93  94
ENDBRANCH  61  86
ENDBRANCH  35  36
ENDBRANCH  27  30
ENDBRANCH  25  26
ENDBRANCH   1  25
TORSDOF 18
ENDMDL
MODEL 3
REMARK VINA RESULT:     -11.7      6.552     11.951
REMARK SMILES CCC[C@@]1(C(=O)NCCCNC(=O)c2ccc(-c3c4nc(c(-c5c(F)cc(S(=O)(=O)[O-])cc5F)c5ccc([nH]5)c(-c5c(F)cc(S(=O)(=O)[O-])cc5F)c5nc(c(-c6c(F)cc(S(=O)(=O)[O-])cc6F)c6ccc3[nH]6)C=C5)C=C4)cc2)CCCN(C(=O)C[C@H]2CCCCO2)C1
REMARK SMILES IDX 9 1 8 2 7 3 5 4 6 5 4 7 80 8 93 9 81 10 83 11 82 12 3 13
REMARK SMILES IDX 2 14 1 15 84 16 85 17 86 18 87 19 88 20 92 21 89 22 91 23
REMARK SMILES IDX 90 24 10 25 11 26 12 27 13 29 14 30 15 31 79 32 16 33 78 34
REMARK SMILES IDX 17 35 18 36 19 37 72 38 20 39 77 40 71 41 73 42 21 43 76 44
REMARK SMILES IDX 70 45 69 46 22 48 56 49 35 50 55 51 36 52 39 53 54 54 74 55
REMARK SMILES IDX 37 56 38 57 53 59 75 60 40 61 23 62 24 63 33 64 25 65 26 66
REMARK SMILES IDX 32 67 34 68 27 69 28 70 29 71 30 72 31 73 57 74 58 75 67 76
REMARK SMILES IDX 59 77 60 78 66 79 68 80 61 81 62 82 63 83 64 84 65 85 41 86
REMARK SMILES IDX 42 87 51 88 43 89 44 90 50 91 52 92 45 93 46 94 47 95 48 96
REMARK SMILES IDX 49 97
REMARK H PARENT 7 6 11 28 73 47 39 58
REMARK Flexibility Score: inf
ROOT
ATOM      1  C   UNL A   1      33.292  29.660  27.297  1.00  0.00     0.042 C 
ENDROOT
BRANCH   1   2
ATOM      2  C   UNL A   1      32.893  28.215  27.105  1.00  0.00     0.117 C 
BRANCH   2   3
ATOM      3  N   UNL A   1      31.540  27.906  26.594  1.00  0.00    -0.355 N 
ATOM      4  C   UNL A   1      31.275  27.135  25.448  1.00  0.00     0.228 C 
ATOM      5  O   UNL A   1      30.561  26.133  25.585  1.00  0.00    -0.274 OA
ATOM      6  H   UNL A   1      30.771  28.267  27.091  1.00  0.00     0.163 HD
BRANCH   4   7
ATOM      7  C   UNL A   1      31.532  27.731  24.014  1.00  0.00     0.067 C 
ATOM      8  C   UNL A   1      30.943  26.978  22.734  1.00  0.00     0.020 C 
ATOM      9  C   UNL A   1      33.034  27.784  23.764  1.00  0.00     0.136 C 
ATOM     10  C   UNL A   1      31.837  26.121  21.777  1.00  0.00     0.023 C 
ATOM     11  N   UNL A   1      33.554  26.407  23.374  1.00  0.00    -0.342 N 
ATOM     12  C   UNL A   1      33.347  26.205  21.971  1.00  0.00     0.119 C 
BRANCH   7  13
ATOM     13  C   UNL A   1      30.597  29.019  24.137  1.00  0.00     0.018 C 
BRANCH  13  14
ATOM     14  C   UNL A   1      29.897  29.720  22.986  1.00  0.00    -0.002 C 
ATOM     15  C   UNL A   1      28.402  29.545  22.891  1.00  0.00     0.004 C 
ENDBRANCH  13  14
ENDBRANCH   7  13
BRANCH  11  16
ATOM     16  C   UNL A   1      33.488  25.259  24.187  1.00  0.00     0.225 C 
ATOM     17  O   UNL A   1      32.835  24.262  23.892  1.00  0.00    -0.275 OA
BRANCH  16  18
ATOM     18  C   UNL A   1      34.385  25.044  25.388  1.00  0.00     0.132 C 
BRANCH  18  19
ATOM     19  C   UNL A   1      34.970  23.637  25.181  1.00  0.00     0.127 C 
ATOM     20  C   UNL A   1      36.327  23.637  24.499  1.00  0.00     0.033 C 
ATOM     21  O   UNL A   1      35.111  22.915  26.416  1.00  0.00    -0.378 OA
ATOM     22  C   UNL A   1      36.657  22.193  24.123  1.00  0.00     0.005 C 
ATOM     23  C   UNL A   1      35.272  21.515  26.155  1.00  0.00     0.160 C 
ATOM     24  C   UNL A   1      36.532  21.255  25.327  1.00  0.00     0.029 C 
ENDBRANCH  18  19
ENDBRANCH  16  18
ENDBRANCH  11  16
ENDBRANCH   4   7
ENDBRANCH   2   3
ENDBRANCH   1   2
BRANCH   1  25
ATOM     25  C   UNL A   1      34.779  29.772  27.617  1.00  0.00     0.118 C 
BRANCH  25  26
ATOM     26  N   UNL A   1      35.078  30.563  28.829  1.00  0.00    -0.352 N 
ATOM     27  C   UNL A   1      36.162  30.632  29.668  1.00  0.00     0.251 C 
ATOM     28  H   UNL A   1      34.345  31.169  29.089  1.00  0.00     0.163 HD
ATOM     29  O   UNL A   1      36.076  31.254  30.729  1.00  0.00    -0.269 OA
BRANCH  27  30
ATOM     30  C   UNL A   1      37.419  29.948  29.329  1.00  0.00     0.039 A 
ATOM     31  C   UNL A   1      37.858  29.894  28.002  1.00  0.00     0.014 A 
ATOM     32  C   UNL A   1      38.185  29.370  30.334  1.00  0.00     0.014 A 
ATOM     33  C   UNL A   1      39.123  29.376  27.717  1.00  0.00     0.010 A 
ATOM     34  C   UNL A   1      39.496  29.022  30.079  1.00  0.00     0.010 A 
ATOM     35  C   UNL A   1      39.983  29.009  28.766  1.00  0.00    -0.014 A 
BRANCH  35  36
ATOM     36  C   UNL A   1      41.394  28.613  28.542  1.00  0.00     0.031 A 
ATOM     37  C   UNL A   1      42.479  29.656  28.587  1.00  0.00     0.074 A 
ATOM     38  C   UNL A   1      41.674  27.348  28.173  1.00  0.00     0.049 A 
ATOM     39  N   UNL A   1      43.744  29.546  28.276  1.00  0.00    -0.248 NA
ATOM     40  C   UNL A   1      42.078  31.018  28.982  1.00  0.00     0.031 C 
ATOM     41  C   UNL A   1      40.694  26.269  28.022  1.00  0.00     0.029 A 
ATOM     42  N   UNL A   1      42.866  26.756  27.843  1.00  0.00    -0.354 N 
ATOM     43  C   UNL A   1      44.276  30.825  28.405  1.00  0.00     0.074 A 
ATOM     44  C   UNL A   1      43.182  31.706  28.740  1.00  0.00     0.031 C 
ATOM     45  C   UNL A   1      41.329  25.139  27.678  1.00  0.00     0.029 A 
ATOM     46  C   UNL A   1      42.752  25.423  27.527  1.00  0.00     0.049 A 
ATOM     47  H   UNL A   1      43.723  27.240  27.833  1.00  0.00     0.167 HD
ATOM     48  C   UNL A   1      45.564  31.221  28.292  1.00  0.00     0.037 A 
ATOM     49  C   UNL A   1      43.688  24.531  27.150  1.00  0.00     0.037 A 
ATOM     50  C   UNL A   1      46.647  30.321  27.993  1.00  0.00     0.049 A 
ATOM     51  C   UNL A   1      45.114  24.988  27.030  1.00  0.00     0.074 A 
ATOM     52  C   UNL A   1      48.001  30.593  27.935  1.00  0.00     0.029 A 
ATOM     53  N   UNL A   1      46.494  28.974  27.698  1.00  0.00    -0.354 N 
ATOM     54  N   UNL A   1      45.615  26.184  27.239  1.00  0.00    -0.248 NA
ATOM     55  C   UNL A   1      46.101  23.982  26.623  1.00  0.00     0.031 C 
ATOM     56  C   UNL A   1      48.661  29.422  27.549  1.00  0.00     0.029 A 
ATOM     57  C   UNL A   1      47.726  28.406  27.421  1.00  0.00     0.049 A 
ATOM     58  H   UNL A   1      45.634  28.492  27.687  1.00  0.00     0.167 HD
ATOM     59  C   UNL A   1      46.980  26.070  27.003  1.00  0.00     0.074 A 
ATOM     60  C   UNL A   1      47.226  24.683  26.655  1.00  0.00     0.031 C 
ATOM     61  C   UNL A   1      47.943  27.023  27.067  1.00  0.00     0.037 A 
BRANCH  48  62
ATOM     62  C   UNL A   1      45.860  32.684  28.495  1.00  0.00     0.058 A 
ATOM     63  C   UNL A   1      46.159  33.213  29.763  1.00  0.00     0.135 A 
ATOM     64  C   UNL A   1      45.827  33.577  27.411  1.00  0.00     0.135 A 
ATOM     65  F   UNL A   1      46.191  32.410  30.839  1.00  0.00    -0.206 F 
ATOM     66  C   UNL A   1      46.356  34.575  29.958  1.00  0.00     0.059 A 
ATOM     67  C   UNL A   1      46.060  34.940  27.577  1.00  0.00     0.059 A 
ATOM     68  F   UNL A   1      45.550  33.132  26.175  1.00  0.00    -0.206 F 
ATOM     69  C   UNL A   1      46.299  35.433  28.859  1.00  0.00     0.060 A 
BRANCH  69  70
ATOM     70  S   UNL A   1      46.528  37.201  29.134  1.00  0.00     0.124 S 
ATOM     71  O   UNL A   1      46.467  37.717  27.770  1.00  0.00    -0.237 OA
ATOM     72  O   UNL A   1      45.391  37.534  29.987  1.00  0.00    -0.237 OA
ATOM     73  O   UNL A   1      47.835  37.280  29.777  1.00  0.00    -0.744 OA
ENDBRANCH  69  70
ENDBRANCH  48  62
BRANCH  49  74
ATOM     74  C   UNL A   1      43.302  23.116  26.909  1.00  0.00     0.058 A 
ATOM     75  C   UNL A   1      43.281  22.594  25.607  1.00  0.00     0.135 A 
ATOM     76  C   UNL A   1      43.006  22.241  27.967  1.00  0.00     0.135 A 
ATOM     77  F   UNL A   1      43.551  23.390  24.562  1.00  0.00    -0.206 F 
ATOM     78  C   UNL A   1      42.982  21.257  25.361  1.00  0.00     0.059 A 
ATOM     79  C   UNL A   1      42.729  20.895  27.748  1.00  0.00     0.059 A 
ATOM     80  F   UNL A   1      43.030  22.686  29.234  1.00  0.00    -0.206 F 
ATOM     81  C   UNL A   1      42.718  20.413  26.441  1.00  0.00     0.060 A 
BRANCH  81  82
ATOM     82  S   UNL A   1      42.415  18.662  26.112  1.00  0.00     0.124 S 
ATOM     83  O   UNL A   1      42.732  18.061  27.401  1.00  0.00    -0.237 OA
ATOM     84  O   UNL A   1      41.004  18.663  25.737  1.00  0.00    -0.237 OA
ATOM     85  O   UNL A   1      43.344  18.359  25.027  1.00  0.00    -0.744 OA
ENDBRANCH  81  82
ENDBRANCH  49  74
BRANCH  61  86
ATOM     86  C   UNL A   1      49.352  26.601  26.759  1.00  0.00     0.058 A 
ATOM     87  C   UNL A   1      50.164  25.989  27.727  1.00  0.00     0.135 A 
ATOM     88  C   UNL A   1      49.874  26.752  25.464  1.00  0.00     0.135 A 
ATOM     89  F   UNL A   1      49.716  25.830  28.981  1.00  0.00    -0.206 F 
ATOM     90  C   UNL A   1      51.451  25.558  27.426  1.00  0.00     0.059 A 
ATOM     91  C   UNL A   1      51.147  26.300  25.132  1.00  0.00     0.059 A 
ATOM     92  F   UNL A   1      49.135  27.323  24.499  1.00  0.00    -0.206 F 
ATOM     93  C   UNL A   1      51.931  25.712  26.124  1.00  0.00     0.060 A 
BRANCH  93  94
ATOM     94  S   UNL A   1      53.586  25.105  25.738  1.00  0.00     0.124 S 
ATOM     95  O   UNL A   1      54.261  25.256  27.023  1.00  0.00    -0.237 OA
ATOM     96  O   UNL A   1      53.323  23.732  25.319  1.00  0.00    -0.237 OA
ATOM     97  O   UNL A   1      54.040  26.002  24.681  1.00  0.00    -0.744 OA
ENDBRANCH  93  94
ENDBRANCH  61  86
ENDBRANCH  35  36
ENDBRANCH  27  30
ENDBRANCH  25  26
ENDBRANCH   1  25
TORSDOF 18
ENDMDL
