MODEL 1
REMARK VINA RESULT:     -14.4      0.000      0.000
REMARK SMILES COc1cc([C@@H]2CC(=O)Nc3c(C(=O)NCCCNC(=O)c4ccc(-c5c6nc(c(-c7c(F)cc(S(=O)(=O)[O-])cc7F)c7ccc([nH]7)c(-c7c(F)cc(S(=O)(=O)[O-])cc7F)c7nc(c(-c8c(F)cc(S(=O)(=O)[O-])cc8F)c8ccc5[nH]8)C=C7)C=C6)cc4)cn(-c4ccc(F)cc4)c32)c(OC)c2c1OCO2
REMARK SMILES IDX 17 1 16 2 15 3 13 4 14 5 12 7 6 8 7 9 97 10 8 11 11 12 89 13
REMARK SMILES IDX 9 14 10 15 88 16 5 18 3 19 4 20 102 21 101 22 103 23 98 24
REMARK SMILES IDX 105 25 104 26 2 27 1 28 99 29 100 30 90 31 91 32 96 33 92 34
REMARK SMILES IDX 95 35 93 36 94 37 18 38 19 39 20 40 21 42 22 43 23 44 87 45
REMARK SMILES IDX 24 46 86 47 25 48 26 49 27 50 80 51 28 52 85 53 79 54 81 55
REMARK SMILES IDX 29 56 84 57 78 58 77 59 30 61 64 62 43 63 63 64 44 65 47 66
REMARK SMILES IDX 62 67 82 68 45 69 46 70 61 72 83 73 48 74 31 75 32 76 41 77
REMARK SMILES IDX 33 78 34 79 40 80 42 81 35 82 36 83 37 84 38 85 39 86 65 87
REMARK SMILES IDX 66 88 75 89 67 90 68 91 74 92 76 93 69 94 70 95 71 96 72 97
REMARK SMILES IDX 73 98 49 99 50 100 59 101 51 102 52 103 58 104 60 105 53 106
REMARK SMILES IDX 54 107 55 108 56 109 57 110
REMARK H PARENT 15 6 10 17 19 41 81 60 47 71
REMARK Flexibility Score: inf
ROOT
ATOM      1  C   UNL A   1      37.307  22.744  24.310  1.00  0.00     0.042 C 
ENDROOT
BRANCH   1   2
ATOM      2  C   UNL A   1      35.830  22.578  23.916  1.00  0.00     0.118 C 
BRANCH   2   3
ATOM      3  N   UNL A   1      34.981  22.390  25.067  1.00  0.00    -0.352 N 
ATOM      4  C   UNL A   1      33.980  23.134  25.627  1.00  0.00     0.254 C 
ATOM      5  O   UNL A   1      33.397  22.584  26.567  1.00  0.00    -0.269 OA
ATOM      6  H   UNL A   1      35.161  21.551  25.550  1.00  0.00     0.163 HD
BRANCH   4   7
ATOM      7  C   UNL A   1      33.569  24.478  25.191  1.00  0.00     0.081 A 
ATOM      8  C   UNL A   1      32.594  27.489  23.195  1.00  0.00     0.082 C 
ATOM      9  C   UNL A   1      33.065  27.004  21.818  1.00  0.00     0.115 C 
ATOM     10  C   UNL A   1      32.925  26.466  24.247  1.00  0.00     0.055 A 
ATOM     11  C   UNL A   1      32.830  25.530  21.610  1.00  0.00     0.225 C 
ATOM     12  C   UNL A   1      33.173  25.134  23.985  1.00  0.00     0.076 A 
ATOM     13  N   UNL A   1      33.179  26.694  25.579  1.00  0.00    -0.317 N 
ATOM     14  O   UNL A   1      32.611  25.049  20.498  1.00  0.00    -0.275 OA
ATOM     15  N   UNL A   1      33.004  24.710  22.690  1.00  0.00    -0.324 N 
ATOM     16  C   UNL A   1      33.619  25.517  26.125  1.00  0.00     0.107 A 
ATOM     17  H   UNL A   1      33.009  23.739  22.527  1.00  0.00     0.170 HD
BRANCH   8  18
ATOM     18  C   UNL A   1      31.136  27.955  23.141  1.00  0.00     0.012 A 
ATOM     19  C   UNL A   1      29.649  29.824  22.576  1.00  0.00     0.165 A 
ATOM     20  C   UNL A   1      30.915  29.250  22.604  1.00  0.00     0.059 A 
ATOM     21  C   UNL A   1      28.584  29.047  22.981  1.00  0.00     0.211 A 
ATOM     22  C   UNL A   1      28.765  27.764  23.459  1.00  0.00     0.211 A 
ATOM     23  O   UNL A   1      27.272  29.415  22.956  1.00  0.00    -0.449 OA
ATOM     24  C   UNL A   1      30.027  27.188  23.572  1.00  0.00     0.168 A 
ATOM     25  O   UNL A   1      27.571  27.192  23.794  1.00  0.00    -0.449 OA
ATOM     26  C   UNL A   1      26.637  28.199  23.376  1.00  0.00     0.468 C 
BRANCH  19  27
ATOM     27  O   UNL A   1      29.562  31.107  22.120  1.00  0.00    -0.493 OA
ATOM     28  C   UNL A   1      29.111  32.011  23.126  1.00  0.00     0.278 C 
ENDBRANCH  19  27
BRANCH  24  29
ATOM     29  O   UNL A   1      30.297  25.952  24.072  1.00  0.00    -0.492 OA
ATOM     30  C   UNL A   1      29.863  25.623  25.384  1.00  0.00     0.278 C 
ENDBRANCH  24  29
ENDBRANCH   8  18
BRANCH  13  31
ATOM     31  C   UNL A   1      33.126  27.933  26.251  1.00  0.00     0.046 A 
ATOM     32  C   UNL A   1      31.886  28.483  26.585  1.00  0.00     0.029 A 
ATOM     33  C   UNL A   1      34.310  28.637  26.493  1.00  0.00     0.029 A 
ATOM     34  C   UNL A   1      31.816  29.793  27.051  1.00  0.00     0.041 A 
ATOM     35  C   UNL A   1      34.232  29.949  26.962  1.00  0.00     0.041 A 
ATOM     36  C   UNL A   1      32.987  30.523  27.211  1.00  0.00     0.123 A 
ATOM     37  F   UNL A   1      32.913  31.800  27.607  1.00  0.00    -0.207 F 
ENDBRANCH  13  31
ENDBRANCH   4   7
ENDBRANCH   2   3
ENDBRANCH   1   2
BRANCH   1  38
ATOM     38  C   UNL A   1      37.478  23.108  25.767  1.00  0.00     0.118 C 
BRANCH  38  39
ATOM     39  N   UNL A   1      38.470  22.230  26.404  1.00  0.00    -0.352 N 
ATOM     40  C   UNL A   1      39.708  22.551  26.908  1.00  0.00     0.251 C 
ATOM     41  H   UNL A   1      38.213  21.281  26.479  1.00  0.00     0.163 HD
ATOM     42  O   UNL A   1      40.563  21.676  27.072  1.00  0.00    -0.269 OA
BRANCH  40  43
ATOM     43  C   UNL A   1      39.988  23.950  27.242  1.00  0.00     0.039 A 
ATOM     44  C   UNL A   1      39.051  24.963  27.025  1.00  0.00     0.014 A 
ATOM     45  C   UNL A   1      41.206  24.219  27.859  1.00  0.00     0.014 A 
ATOM     46  C   UNL A   1      39.331  26.235  27.511  1.00  0.00     0.010 A 
ATOM     47  C   UNL A   1      41.371  25.396  28.528  1.00  0.00     0.010 A 
ATOM     48  C   UNL A   1      40.486  26.435  28.285  1.00  0.00    -0.014 A 
BRANCH  48  49
ATOM     49  C   UNL A   1      40.739  27.689  28.978  1.00  0.00     0.031 A 
ATOM     50  C   UNL A   1      41.844  28.474  28.370  1.00  0.00     0.074 A 
ATOM     51  C   UNL A   1      39.896  28.182  29.914  1.00  0.00     0.049 A 
ATOM     52  N   UNL A   1      43.040  28.628  28.832  1.00  0.00    -0.248 NA
ATOM     53  C   UNL A   1      41.682  28.954  26.986  1.00  0.00     0.031 C 
ATOM     54  C   UNL A   1      38.603  27.637  30.351  1.00  0.00     0.029 A 
ATOM     55  N   UNL A   1      39.970  29.344  30.615  1.00  0.00    -0.354 N 
ATOM     56  C   UNL A   1      43.679  29.475  27.932  1.00  0.00     0.074 A 
ATOM     57  C   UNL A   1      42.907  29.417  26.722  1.00  0.00     0.031 C 
ATOM     58  C   UNL A   1      37.922  28.571  31.050  1.00  0.00     0.029 A 
ATOM     59  C   UNL A   1      38.791  29.711  31.267  1.00  0.00     0.049 A 
ATOM     60  H   UNL A   1      40.790  29.886  30.661  1.00  0.00     0.167 HD
ATOM     61  C   UNL A   1      44.601  30.378  28.372  1.00  0.00     0.037 A 
ATOM     62  C   UNL A   1      38.552  30.876  31.927  1.00  0.00     0.037 A 
ATOM     63  C   UNL A   1      45.010  30.057  29.721  1.00  0.00     0.049 A 
ATOM     64  C   UNL A   1      39.881  31.459  32.247  1.00  0.00     0.074 A 
ATOM     65  C   UNL A   1      45.604  28.966  30.327  1.00  0.00     0.029 A 
ATOM     66  N   UNL A   1      44.427  30.783  30.731  1.00  0.00    -0.354 N 
ATOM     67  N   UNL A   1      40.735  30.903  33.064  1.00  0.00    -0.248 NA
ATOM     68  C   UNL A   1      40.454  32.387  31.285  1.00  0.00     0.031 C 
ATOM     69  C   UNL A   1      44.962  28.853  31.595  1.00  0.00     0.029 A 
ATOM     70  C   UNL A   1      44.080  29.926  31.743  1.00  0.00     0.049 A 
ATOM     71  H   UNL A   1      44.281  31.757  30.729  1.00  0.00     0.167 HD
ATOM     72  C   UNL A   1      41.969  31.058  32.448  1.00  0.00     0.074 A 
ATOM     73  C   UNL A   1      41.743  32.055  31.401  1.00  0.00     0.031 C 
ATOM     74  C   UNL A   1      42.972  30.151  32.649  1.00  0.00     0.037 A 
BRANCH  61  75
ATOM     75  C   UNL A   1      44.810  31.761  27.786  1.00  0.00     0.058 A 
ATOM     76  C   UNL A   1      46.008  32.025  27.086  1.00  0.00     0.135 A 
ATOM     77  C   UNL A   1      44.042  32.903  28.108  1.00  0.00     0.135 A 
ATOM     78  F   UNL A   1      46.820  31.021  26.717  1.00  0.00    -0.206 F 
ATOM     79  C   UNL A   1      46.451  33.319  26.812  1.00  0.00     0.059 A 
ATOM     80  C   UNL A   1      44.440  34.199  27.799  1.00  0.00     0.059 A 
ATOM     81  F   UNL A   1      42.910  32.841  28.816  1.00  0.00    -0.206 F 
ATOM     82  C   UNL A   1      45.665  34.402  27.188  1.00  0.00     0.060 A 
BRANCH  82  83
ATOM     83  S   UNL A   1      46.266  36.074  26.908  1.00  0.00     0.124 S 
ATOM     84  O   UNL A   1      45.017  36.807  26.740  1.00  0.00    -0.237 OA
ATOM     85  O   UNL A   1      47.005  36.336  28.139  1.00  0.00    -0.237 OA
ATOM     86  O   UNL A   1      47.087  35.939  25.708  1.00  0.00    -0.744 OA
ENDBRANCH  82  83
ENDBRANCH  61  75
BRANCH  62  87
ATOM     87  C   UNL A   1      37.291  31.670  31.989  1.00  0.00     0.058 A 
ATOM     88  C   UNL A   1      36.750  32.099  33.218  1.00  0.00     0.135 A 
ATOM     89  C   UNL A   1      36.752  32.274  30.837  1.00  0.00     0.135 A 
ATOM     90  F   UNL A   1      37.218  31.597  34.371  1.00  0.00    -0.206 F 
ATOM     91  C   UNL A   1      35.769  33.096  33.299  1.00  0.00     0.059 A 
ATOM     92  C   UNL A   1      35.770  33.266  30.892  1.00  0.00     0.059 A 
ATOM     93  F   UNL A   1      37.231  31.982  29.618  1.00  0.00    -0.206 F 
ATOM     94  C   UNL A   1      35.299  33.690  32.128  1.00  0.00     0.060 A 
BRANCH  94  95
ATOM     95  S   UNL A   1      34.158  35.093  32.230  1.00  0.00     0.124 S 
ATOM     96  O   UNL A   1      33.993  35.454  30.826  1.00  0.00    -0.237 OA
ATOM     97  O   UNL A   1      32.992  34.500  32.877  1.00  0.00    -0.237 OA
ATOM     98  O   UNL A   1      34.888  36.066  33.040  1.00  0.00    -0.744 OA
ENDBRANCH  94  95
ENDBRANCH  62  87
BRANCH  74  99
ATOM     99  C   UNL A   1      42.837  29.179  33.798  1.00  0.00     0.058 A 
ATOM    100  C   UNL A   1      43.132  29.465  35.143  1.00  0.00     0.135 A 
ATOM    101  C   UNL A   1      42.230  27.942  33.529  1.00  0.00     0.135 A 
ATOM    102  F   UNL A   1      43.624  30.658  35.505  1.00  0.00    -0.206 F 
ATOM    103  C   UNL A   1      42.868  28.548  36.167  1.00  0.00     0.059 A 
ATOM    104  C   UNL A   1      41.928  27.029  34.534  1.00  0.00     0.059 A 
ATOM    105  F   UNL A   1      41.870  27.631  32.273  1.00  0.00    -0.206 F 
ATOM    106  C   UNL A   1      42.263  27.332  35.851  1.00  0.00     0.060 A 
BRANCH 106 107
ATOM    107  S   UNL A   1      41.861  26.170  37.173  1.00  0.00     0.124 S 
ATOM    108  O   UNL A   1      40.565  26.660  37.629  1.00  0.00    -0.237 OA
ATOM    109  O   UNL A   1      41.845  24.887  36.478  1.00  0.00    -0.237 OA
ATOM    110  O   UNL A   1      42.959  26.340  38.122  1.00  0.00    -0.744 OA
ENDBRANCH 106 107
ENDBRANCH  74  99
ENDBRANCH  48  49
ENDBRANCH  40  43
ENDBRANCH  38  39
ENDBRANCH   1  38
TORSDOF 17
ENDMDL
MODEL 2
REMARK VINA RESULT:     -13.5      3.196      9.574
REMARK SMILES COc1cc([C@@H]2CC(=O)Nc3c(C(=O)NCCCNC(=O)c4ccc(-c5c6nc(c(-c7c(F)cc(S(=O)(=O)[O-])cc7F)c7ccc([nH]7)c(-c7c(F)cc(S(=O)(=O)[O-])cc7F)c7nc(c(-c8c(F)cc(S(=O)(=O)[O-])cc8F)c8ccc5[nH]8)C=C7)C=C6)cc4)cn(-c4ccc(F)cc4)c32)c(OC)c2c1OCO2
REMARK SMILES IDX 17 1 16 2 15 3 13 4 14 5 12 7 6 8 7 9 97 10 8 11 11 12 89 13
REMARK SMILES IDX 9 14 10 15 88 16 5 18 3 19 4 20 102 21 101 22 103 23 98 24
REMARK SMILES IDX 105 25 104 26 2 27 1 28 99 29 100 30 90 31 91 32 96 33 92 34
REMARK SMILES IDX 95 35 93 36 94 37 18 38 19 39 20 40 21 42 22 43 23 44 87 45
REMARK SMILES IDX 24 46 86 47 25 48 26 49 27 50 80 51 28 52 85 53 79 54 81 55
REMARK SMILES IDX 29 56 84 57 78 58 77 59 30 61 64 62 43 63 63 64 44 65 47 66
REMARK SMILES IDX 62 67 82 68 45 69 46 70 61 72 83 73 48 74 31 75 32 76 41 77
REMARK SMILES IDX 33 78 34 79 40 80 42 81 35 82 36 83 37 84 38 85 39 86 65 87
REMARK SMILES IDX 66 88 75 89 67 90 68 91 74 92 76 93 69 94 70 95 71 96 72 97
REMARK SMILES IDX 73 98 49 99 50 100 59 101 51 102 52 103 58 104 60 105 53 106
REMARK SMILES IDX 54 107 55 108 56 109 57 110
REMARK H PARENT 15 6 10 17 19 41 81 60 47 71
REMARK Flexibility Score: inf
ROOT
ATOM      1  C   UNL A   1      33.493  29.993  26.780  1.00  0.00     0.042 C 
ENDROOT
BRANCH   1   2
ATOM      2  C   UNL A   1      33.590  28.516  26.363  1.00  0.00     0.118 C 
BRANCH   2   3
ATOM      3  N   UNL A   1      32.982  28.277  25.076  1.00  0.00    -0.352 N 
ATOM      4  C   UNL A   1      32.695  27.142  24.370  1.00  0.00     0.254 C 
ATOM      5  O   UNL A   1      32.058  27.334  23.328  1.00  0.00    -0.269 OA
ATOM      6  H   UNL A   1      32.720  29.104  24.610  1.00  0.00     0.163 HD
BRANCH   4   7
ATOM      7  C   UNL A   1      33.069  25.774  24.762  1.00  0.00     0.081 A 
ATOM      8  C   UNL A   1      33.127  22.305  26.166  1.00  0.00     0.082 C 
ATOM      9  C   UNL A   1      31.931  22.431  27.117  1.00  0.00     0.115 C 
ATOM     10  C   UNL A   1      33.387  23.620  25.482  1.00  0.00     0.055 A 
ATOM     11  C   UNL A   1      30.820  23.276  26.546  1.00  0.00     0.225 C 
ATOM     12  C   UNL A   1      32.454  24.629  25.355  1.00  0.00     0.076 A 
ATOM     13  N   UNL A   1      34.592  24.093  25.016  1.00  0.00    -0.317 N 
ATOM     14  O   UNL A   1      29.637  23.086  26.829  1.00  0.00    -0.275 OA
ATOM     15  N   UNL A   1      31.181  24.361  25.797  1.00  0.00    -0.324 N 
ATOM     16  C   UNL A   1      34.410  25.398  24.642  1.00  0.00     0.107 A 
ATOM     17  H   UNL A   1      30.474  25.002  25.556  1.00  0.00     0.170 HD
BRANCH   8  18
ATOM     18  C   UNL A   1      32.973  21.088  25.251  1.00  0.00     0.012 A 
ATOM     19  C   UNL A   1      33.292  18.660  25.074  1.00  0.00     0.165 A 
ATOM     20  C   UNL A   1      33.308  19.832  25.822  1.00  0.00     0.059 A 
ATOM     21  C   UNL A   1      32.823  18.733  23.779  1.00  0.00     0.211 A 
ATOM     22  C   UNL A   1      32.439  19.935  23.215  1.00  0.00     0.211 A 
ATOM     23  O   UNL A   1      32.670  17.683  22.925  1.00  0.00    -0.449 OA
ATOM     24  C   UNL A   1      32.517  21.137  23.911  1.00  0.00     0.168 A 
ATOM     25  O   UNL A   1      32.009  19.758  21.931  1.00  0.00    -0.449 OA
ATOM     26  C   UNL A   1      32.060  18.330  21.799  1.00  0.00     0.468 C 
BRANCH  19  27
ATOM     27  O   UNL A   1      33.717  17.524  25.697  1.00  0.00    -0.493 OA
ATOM     28  C   UNL A   1      32.674  16.563  25.844  1.00  0.00     0.278 C 
ENDBRANCH  19  27
BRANCH  24  29
ATOM     29  O   UNL A   1      32.203  22.365  23.418  1.00  0.00    -0.492 OA
ATOM     30  C   UNL A   1      32.808  22.804  22.209  1.00  0.00     0.278 C 
ENDBRANCH  24  29
ENDBRANCH   8  18
BRANCH  13  31
ATOM     31  C   UNL A   1      35.830  23.417  25.032  1.00  0.00     0.046 A 
ATOM     32  C   UNL A   1      36.016  22.301  24.212  1.00  0.00     0.029 A 
ATOM     33  C   UNL A   1      36.821  23.816  25.934  1.00  0.00     0.029 A 
ATOM     34  C   UNL A   1      37.146  21.505  24.375  1.00  0.00     0.041 A 
ATOM     35  C   UNL A   1      37.953  23.013  26.091  1.00  0.00     0.041 A 
ATOM     36  C   UNL A   1      38.092  21.854  25.331  1.00  0.00     0.123 A 
ATOM     37  F   UNL A   1      39.151  21.058  25.524  1.00  0.00    -0.207 F 
ENDBRANCH  13  31
ENDBRANCH   4   7
ENDBRANCH   2   3
ENDBRANCH   1   2
BRANCH   1  38
ATOM     38  C   UNL A   1      34.777  30.506  27.389  1.00  0.00     0.118 C 
BRANCH  38  39
ATOM     39  N   UNL A   1      34.500  31.613  28.316  1.00  0.00    -0.352 N 
ATOM     40  C   UNL A   1      35.008  31.829  29.576  1.00  0.00     0.251 C 
ATOM     41  H   UNL A   1      33.863  32.291  27.992  1.00  0.00     0.163 HD
ATOM     42  O   UNL A   1      34.424  32.576  30.366  1.00  0.00    -0.269 OA
BRANCH  40  43
ATOM     43  C   UNL A   1      36.251  31.154  29.956  1.00  0.00     0.039 A 
ATOM     44  C   UNL A   1      36.323  29.767  30.108  1.00  0.00     0.014 A 
ATOM     45  C   UNL A   1      37.386  31.949  30.087  1.00  0.00     0.014 A 
ATOM     46  C   UNL A   1      37.570  29.190  30.316  1.00  0.00     0.010 A 
ATOM     47  C   UNL A   1      38.618  31.366  30.059  1.00  0.00     0.010 A 
ATOM     48  C   UNL A   1      38.718  30.000  30.265  1.00  0.00    -0.014 A 
BRANCH  48  49
ATOM     49  C   UNL A   1      40.058  29.434  30.286  1.00  0.00     0.031 A 
ATOM     50  C   UNL A   1      40.580  29.232  31.661  1.00  0.00     0.074 A 
ATOM     51  C   UNL A   1      40.648  28.928  29.178  1.00  0.00     0.049 A 
ATOM     52  N   UNL A   1      41.475  29.935  32.269  1.00  0.00    -0.248 NA
ATOM     53  C   UNL A   1      39.872  28.289  32.547  1.00  0.00     0.031 C 
ATOM     54  C   UNL A   1      40.081  28.785  27.830  1.00  0.00     0.029 A 
ATOM     55  N   UNL A   1      41.864  28.337  29.042  1.00  0.00    -0.354 N 
ATOM     56  C   UNL A   1      41.648  29.327  33.509  1.00  0.00     0.074 A 
ATOM     57  C   UNL A   1      40.479  28.519  33.715  1.00  0.00     0.031 C 
ATOM     58  C   UNL A   1      40.847  27.951  27.094  1.00  0.00     0.029 A 
ATOM     59  C   UNL A   1      42.048  27.642  27.845  1.00  0.00     0.049 A 
ATOM     60  H   UNL A   1      42.563  28.393  29.733  1.00  0.00     0.167 HD
ATOM     61  C   UNL A   1      42.876  29.306  34.101  1.00  0.00     0.037 A 
ATOM     62  C   UNL A   1      43.110  26.861  27.509  1.00  0.00     0.037 A 
ATOM     63  C   UNL A   1      43.759  30.250  33.454  1.00  0.00     0.049 A 
ATOM     64  C   UNL A   1      44.227  27.264  28.403  1.00  0.00     0.074 A 
ATOM     65  C   UNL A   1      43.743  31.616  33.248  1.00  0.00     0.029 A 
ATOM     66  N   UNL A   1      44.648  29.737  32.541  1.00  0.00    -0.354 N 
ATOM     67  N   UNL A   1      44.789  28.443  28.370  1.00  0.00    -0.248 NA
ATOM     68  C   UNL A   1      44.380  26.536  29.652  1.00  0.00     0.031 C 
ATOM     69  C   UNL A   1      44.268  31.798  31.934  1.00  0.00     0.029 A 
ATOM     70  C   UNL A   1      44.664  30.553  31.440  1.00  0.00     0.049 A 
ATOM     71  H   UNL A   1      45.183  28.919  32.657  1.00  0.00     0.167 HD
ATOM     72  C   UNL A   1      44.971  28.786  29.703  1.00  0.00     0.074 A 
ATOM     73  C   UNL A   1      44.782  27.537  30.441  1.00  0.00     0.031 C 
ATOM     74  C   UNL A   1      44.962  30.095  30.098  1.00  0.00     0.037 A 
BRANCH  61  75
ATOM     75  C   UNL A   1      43.412  28.166  34.946  1.00  0.00     0.058 A 
ATOM     76  C   UNL A   1      43.924  28.459  36.229  1.00  0.00     0.135 A 
ATOM     77  C   UNL A   1      43.707  26.869  34.466  1.00  0.00     0.135 A 
ATOM     78  F   UNL A   1      43.704  29.656  36.797  1.00  0.00    -0.206 F 
ATOM     79  C   UNL A   1      44.737  27.573  36.936  1.00  0.00     0.059 A 
ATOM     80  C   UNL A   1      44.473  25.952  35.176  1.00  0.00     0.059 A 
ATOM     81  F   UNL A   1      43.348  26.446  33.249  1.00  0.00    -0.206 F 
ATOM     82  C   UNL A   1      45.019  26.325  36.392  1.00  0.00     0.060 A 
BRANCH  82  83
ATOM     83  S   UNL A   1      46.130  25.209  37.261  1.00  0.00     0.124 S 
ATOM     84  O   UNL A   1      47.372  25.402  36.521  1.00  0.00    -0.237 OA
ATOM     85  O   UNL A   1      46.099  25.750  38.616  1.00  0.00    -0.237 OA
ATOM     86  O   UNL A   1      45.493  23.906  37.097  1.00  0.00    -0.744 OA
ENDBRANCH  82  83
ENDBRANCH  61  75
BRANCH  62  87
ATOM     87  C   UNL A   1      43.123  25.590  26.730  1.00  0.00     0.058 A 
ATOM     88  C   UNL A   1      43.817  25.481  25.509  1.00  0.00     0.135 A 
ATOM     89  C   UNL A   1      42.704  24.376  27.309  1.00  0.00     0.135 A 
ATOM     90  F   UNL A   1      44.276  26.582  24.895  1.00  0.00    -0.206 F 
ATOM     91  C   UNL A   1      44.115  24.243  24.922  1.00  0.00     0.059 A 
ATOM     92  C   UNL A   1      42.985  23.132  26.741  1.00  0.00     0.059 A 
ATOM     93  F   UNL A   1      42.084  24.358  28.498  1.00  0.00    -0.206 F 
ATOM     94  C   UNL A   1      43.712  23.070  25.559  1.00  0.00     0.060 A 
BRANCH  94  95
ATOM     95  S   UNL A   1      44.237  21.467  24.901  1.00  0.00     0.124 S 
ATOM     96  O   UNL A   1      43.131  20.599  25.293  1.00  0.00    -0.237 OA
ATOM     97  O   UNL A   1      44.355  21.740  23.472  1.00  0.00    -0.237 OA
ATOM     98  O   UNL A   1      45.501  21.215  25.589  1.00  0.00    -0.744 OA
ENDBRANCH  94  95
ENDBRANCH  62  87
BRANCH  74  99
ATOM     99  C   UNL A   1      45.089  31.162  29.036  1.00  0.00     0.058 A 
ATOM    100  C   UNL A   1      46.294  31.582  28.445  1.00  0.00     0.135 A 
ATOM    101  C   UNL A   1      43.901  31.671  28.488  1.00  0.00     0.135 A 
ATOM    102  F   UNL A   1      47.470  31.076  28.840  1.00  0.00    -0.206 F 
ATOM    103  C   UNL A   1      46.316  32.494  27.384  1.00  0.00     0.059 A 
ATOM    104  C   UNL A   1      43.897  32.552  27.412  1.00  0.00     0.059 A 
ATOM    105  F   UNL A   1      42.713  31.266  28.969  1.00  0.00    -0.206 F 
ATOM    106  C   UNL A   1      45.109  32.971  26.872  1.00  0.00     0.060 A 
BRANCH 106 107
ATOM    107  S   UNL A   1      45.127  34.098  25.461  1.00  0.00     0.124 S 
ATOM    108  O   UNL A   1      44.358  35.231  25.963  1.00  0.00    -0.237 OA
ATOM    109  O   UNL A   1      46.554  34.339  25.263  1.00  0.00    -0.237 OA
ATOM    110  O   UNL A   1      44.482  33.327  24.401  1.00  0.00    -0.744 OA
ENDBRANCH 106 107
ENDBRANCH  74  99
ENDBRANCH  48  49
ENDBRANCH  40  43
ENDBRANCH  38  39
ENDBRANCH   1  38
TORSDOF 17
ENDMDL
MODEL 3
REMARK VINA RESULT:     -12.2      3.059      8.286
REMARK SMILES COc1cc([C@@H]2CC(=O)Nc3c(C(=O)NCCCNC(=O)c4ccc(-c5c6nc(c(-c7c(F)cc(S(=O)(=O)[O-])cc7F)c7ccc([nH]7)c(-c7c(F)cc(S(=O)(=O)[O-])cc7F)c7nc(c(-c8c(F)cc(S(=O)(=O)[O-])cc8F)c8ccc5[nH]8)C=C7)C=C6)cc4)cn(-c4ccc(F)cc4)c32)c(OC)c2c1OCO2
REMARK SMILES IDX 17 1 16 2 15 3 13 4 14 5 12 7 6 8 7 9 97 10 8 11 11 12 89 13
REMARK SMILES IDX 9 14 10 15 88 16 5 18 3 19 4 20 102 21 101 22 103 23 98 24
REMARK SMILES IDX 105 25 104 26 2 27 1 28 99 29 100 30 90 31 91 32 96 33 92 34
REMARK SMILES IDX 95 35 93 36 94 37 18 38 19 39 20 40 21 42 22 43 23 44 87 45
REMARK SMILES IDX 24 46 86 47 25 48 26 49 27 50 80 51 28 52 85 53 79 54 81 55
REMARK SMILES IDX 29 56 84 57 78 58 77 59 30 61 64 62 43 63 63 64 44 65 47 66
REMARK SMILES IDX 62 67 82 68 45 69 46 70 61 72 83 73 48 74 31 75 32 76 41 77
REMARK SMILES IDX 33 78 34 79 40 80 42 81 35 82 36 83 37 84 38 85 39 86 65 87
REMARK SMILES IDX 66 88 75 89 67 90 68 91 74 92 76 93 69 94 70 95 71 96 72 97
REMARK SMILES IDX 73 98 49 99 50 100 59 101 51 102 52 103 58 104 60 105 53 106
REMARK SMILES IDX 54 107 55 108 56 109 57 110
REMARK H PARENT 15 6 10 17 19 41 81 60 47 71
REMARK Flexibility Score: inf
ROOT
ATOM      1  C   UNL A   1      31.828  32.825  26.213  1.00  0.00     0.042 C 
ENDROOT
BRANCH   1   2
ATOM      2  C   UNL A   1      31.028  31.513  26.270  1.00  0.00     0.118 C 
BRANCH   2   3
ATOM      3  N   UNL A   1      30.283  31.281  25.056  1.00  0.00    -0.352 N 
ATOM      4  C   UNL A   1      30.261  30.258  24.150  1.00  0.00     0.254 C 
ATOM      5  O   UNL A   1      29.394  30.366  23.276  1.00  0.00    -0.269 OA
ATOM      6  H   UNL A   1      29.663  32.013  24.834  1.00  0.00     0.163 HD
BRANCH   4   7
ATOM      7  C   UNL A   1      31.154  29.088  24.159  1.00  0.00     0.081 A 
ATOM      8  C   UNL A   1      33.862  26.615  24.905  1.00  0.00     0.082 C 
ATOM      9  C   UNL A   1      34.769  27.525  25.741  1.00  0.00     0.115 C 
ATOM     10  C   UNL A   1      32.674  27.389  24.398  1.00  0.00     0.055 A 
ATOM     11  C   UNL A   1      33.992  28.473  26.618  1.00  0.00     0.225 C 
ATOM     12  C   UNL A   1      32.217  28.565  24.958  1.00  0.00     0.076 A 
ATOM     13  N   UNL A   1      31.958  27.156  23.248  1.00  0.00    -0.317 N 
ATOM     14  O   UNL A   1      34.424  28.873  27.700  1.00  0.00    -0.275 OA
ATOM     15  N   UNL A   1      32.834  28.990  26.109  1.00  0.00    -0.324 N 
ATOM     16  C   UNL A   1      31.092  28.203  23.079  1.00  0.00     0.107 A 
ATOM     17  H   UNL A   1      32.407  29.725  26.606  1.00  0.00     0.170 HD
BRANCH   8  18
ATOM     18  C   UNL A   1      33.551  25.316  25.653  1.00  0.00     0.012 A 
ATOM     19  C   UNL A   1      31.816  24.060  26.852  1.00  0.00     0.165 A 
ATOM     20  C   UNL A   1      32.210  25.154  26.090  1.00  0.00     0.059 A 
ATOM     21  C   UNL A   1      32.747  23.067  27.076  1.00  0.00     0.211 A 
ATOM     22  C   UNL A   1      34.045  23.175  26.617  1.00  0.00     0.211 A 
ATOM     23  O   UNL A   1      32.522  21.897  27.737  1.00  0.00    -0.449 OA
ATOM     24  C   UNL A   1      34.492  24.292  25.918  1.00  0.00     0.168 A 
ATOM     25  O   UNL A   1      34.778  22.073  26.956  1.00  0.00    -0.449 OA
ATOM     26  C   UNL A   1      33.784  21.236  27.565  1.00  0.00     0.468 C 
BRANCH  19  27
ATOM     27  O   UNL A   1      30.526  24.047  27.293  1.00  0.00    -0.493 OA
ATOM     28  C   UNL A   1      29.678  24.892  26.518  1.00  0.00     0.278 C 
ENDBRANCH  19  27
BRANCH  24  29
ATOM     29  O   UNL A   1      35.760  24.497  25.471  1.00  0.00    -0.492 OA
ATOM     30  C   UNL A   1      36.280  23.662  24.446  1.00  0.00     0.278 C 
ENDBRANCH  24  29
ENDBRANCH   8  18
BRANCH  13  31
ATOM     31  C   UNL A   1      32.151  26.104  22.328  1.00  0.00     0.046 A 
ATOM     32  C   UNL A   1      32.230  24.789  22.792  1.00  0.00     0.029 A 
ATOM     33  C   UNL A   1      32.354  26.400  20.976  1.00  0.00     0.029 A 
ATOM     34  C   UNL A   1      32.631  23.775  21.927  1.00  0.00     0.041 A 
ATOM     35  C   UNL A   1      32.755  25.377  20.115  1.00  0.00     0.041 A 
ATOM     36  C   UNL A   1      32.915  24.082  20.603  1.00  0.00     0.123 A 
ATOM     37  F   UNL A   1      33.354  23.116  19.786  1.00  0.00    -0.207 F 
ENDBRANCH  13  31
ENDBRANCH   4   7
ENDBRANCH   2   3
ENDBRANCH   1   2
BRANCH   1  38
ATOM     38  C   UNL A   1      32.762  32.983  27.391  1.00  0.00     0.118 C 
BRANCH  38  39
ATOM     39  N   UNL A   1      32.490  34.243  28.097  1.00  0.00    -0.352 N 
ATOM     40  C   UNL A   1      33.102  34.752  29.218  1.00  0.00     0.251 C 
ATOM     41  H   UNL A   1      31.770  34.798  27.716  1.00  0.00     0.163 HD
ATOM     42  O   UNL A   1      32.541  35.615  29.900  1.00  0.00    -0.269 OA
BRANCH  40  43
ATOM     43  C   UNL A   1      34.429  34.248  29.582  1.00  0.00     0.039 A 
ATOM     44  C   UNL A   1      34.602  33.243  30.536  1.00  0.00     0.014 A 
ATOM     45  C   UNL A   1      35.514  34.763  28.878  1.00  0.00     0.014 A 
ATOM     46  C   UNL A   1      35.874  32.711  30.711  1.00  0.00     0.010 A 
ATOM     47  C   UNL A   1      36.699  34.088  28.888  1.00  0.00     0.010 A 
ATOM     48  C   UNL A   1      36.914  33.126  29.861  1.00  0.00    -0.014 A 
BRANCH  48  49
ATOM     49  C   UNL A   1      38.216  32.476  29.867  1.00  0.00     0.031 A 
ATOM     50  C   UNL A   1      38.155  31.055  29.439  1.00  0.00     0.074 A 
ATOM     51  C   UNL A   1      39.369  33.168  30.012  1.00  0.00     0.049 A 
ATOM     52  N   UNL A   1      38.255  30.008  30.187  1.00  0.00    -0.248 NA
ATOM     53  C   UNL A   1      37.707  30.757  28.066  1.00  0.00     0.031 C 
ATOM     54  C   UNL A   1      39.552  34.622  30.115  1.00  0.00     0.029 A 
ATOM     55  N   UNL A   1      40.652  32.717  30.000  1.00  0.00    -0.354 N 
ATOM     56  C   UNL A   1      38.179  28.923  29.319  1.00  0.00     0.074 A 
ATOM     57  C   UNL A   1      37.587  29.427  28.112  1.00  0.00     0.031 C 
ATOM     58  C   UNL A   1      40.850  34.939  29.920  1.00  0.00     0.029 A 
ATOM     59  C   UNL A   1      41.621  33.712  29.857  1.00  0.00     0.049 A 
ATOM     60  H   UNL A   1      40.881  31.764  30.086  1.00  0.00     0.167 HD
ATOM     61  C   UNL A   1      38.895  27.790  29.568  1.00  0.00     0.037 A 
ATOM     62  C   UNL A   1      42.959  33.531  29.689  1.00  0.00     0.037 A 
ATOM     63  C   UNL A   1      39.380  27.795  30.931  1.00  0.00     0.049 A 
ATOM     64  C   UNL A   1      43.260  32.155  30.166  1.00  0.00     0.074 A 
ATOM     65  C   UNL A   1      38.785  27.844  32.177  1.00  0.00     0.029 A 
ATOM     66  N   UNL A   1      40.689  28.168  31.118  1.00  0.00    -0.354 N 
ATOM     67  N   UNL A   1      43.131  31.779  31.410  1.00  0.00    -0.248 NA
ATOM     68  C   UNL A   1      43.223  31.084  29.184  1.00  0.00     0.031 C 
ATOM     69  C   UNL A   1      39.638  28.676  32.961  1.00  0.00     0.029 A 
ATOM     70  C   UNL A   1      40.753  29.017  32.192  1.00  0.00     0.049 A 
ATOM     71  H   UNL A   1      41.454  27.874  30.571  1.00  0.00     0.167 HD
ATOM     72  C   UNL A   1      42.561  30.515  31.341  1.00  0.00     0.074 A 
ATOM     73  C   UNL A   1      42.723  30.106  29.945  1.00  0.00     0.031 C 
ATOM     74  C   UNL A   1      41.754  30.054  32.344  1.00  0.00     0.037 A 
BRANCH  61  75
ATOM     75  C   UNL A   1      39.520  26.906  28.506  1.00  0.00     0.058 A 
ATOM     76  C   UNL A   1      39.395  25.506  28.632  1.00  0.00     0.135 A 
ATOM     77  C   UNL A   1      40.459  27.339  27.540  1.00  0.00     0.135 A 
ATOM     78  F   UNL A   1      38.531  24.972  29.510  1.00  0.00    -0.206 F 
ATOM     79  C   UNL A   1      40.200  24.611  27.927  1.00  0.00     0.059 A 
ATOM     80  C   UNL A   1      41.235  26.463  26.790  1.00  0.00     0.059 A 
ATOM     81  F   UNL A   1      40.743  28.628  27.331  1.00  0.00    -0.206 F 
ATOM     82  C   UNL A   1      41.130  25.103  27.017  1.00  0.00     0.060 A 
BRANCH  82  83
ATOM     83  S   UNL A   1      42.225  23.959  26.163  1.00  0.00     0.124 S 
ATOM     84  O   UNL A   1      43.249  23.728  27.174  1.00  0.00    -0.237 OA
ATOM     85  O   UNL A   1      41.331  22.839  25.885  1.00  0.00    -0.237 OA
ATOM     86  O   UNL A   1      42.653  24.717  24.991  1.00  0.00    -0.744 OA
ENDBRANCH  82  83
ENDBRANCH  61  75
BRANCH  62  87
ATOM     87  C   UNL A   1      43.906  34.313  28.846  1.00  0.00     0.058 A 
ATOM     88  C   UNL A   1      44.989  35.016  29.411  1.00  0.00     0.135 A 
ATOM     89  C   UNL A   1      43.945  34.149  27.447  1.00  0.00     0.135 A 
ATOM     90  F   UNL A   1      45.052  35.201  30.738  1.00  0.00    -0.206 F 
ATOM     91  C   UNL A   1      46.064  35.485  28.643  1.00  0.00     0.059 A 
ATOM     92  C   UNL A   1      45.001  34.613  26.660  1.00  0.00     0.059 A 
ATOM     93  F   UNL A   1      42.994  33.449  26.810  1.00  0.00    -0.206 F 
ATOM     94  C   UNL A   1      46.071  35.260  27.267  1.00  0.00     0.060 A 
BRANCH  94  95
ATOM     95  S   UNL A   1      47.528  35.711  26.292  1.00  0.00     0.124 S 
ATOM     96  O   UNL A   1      47.573  34.642  25.299  1.00  0.00    -0.237 OA
ATOM     97  O   UNL A   1      47.169  37.033  25.788  1.00  0.00    -0.237 OA
ATOM     98  O   UNL A   1      48.611  35.694  27.273  1.00  0.00    -0.744 OA
ENDBRANCH  94  95
ENDBRANCH  62  87
BRANCH  74  99
ATOM     99  C   UNL A   1      41.764  30.789  33.664  1.00  0.00     0.058 A 
ATOM    100  C   UNL A   1      40.904  31.845  34.013  1.00  0.00     0.135 A 
ATOM    101  C   UNL A   1      42.594  30.283  34.677  1.00  0.00     0.135 A 
ATOM    102  F   UNL A   1      40.011  32.327  33.138  1.00  0.00    -0.206 F 
ATOM    103  C   UNL A   1      40.897  32.395  35.300  1.00  0.00     0.059 A 
ATOM    104  C   UNL A   1      42.580  30.791  35.972  1.00  0.00     0.059 A 
ATOM    105  F   UNL A   1      43.398  29.236  34.425  1.00  0.00    -0.206 F 
ATOM    106  C   UNL A   1      41.739  31.858  36.274  1.00  0.00     0.060 A 
BRANCH 106 107
ATOM    107  S   UNL A   1      41.689  32.520  37.953  1.00  0.00     0.124 S 
ATOM    108  O   UNL A   1      42.328  33.821  37.789  1.00  0.00    -0.237 OA
ATOM    109  O   UNL A   1      40.259  32.549  38.243  1.00  0.00    -0.237 OA
ATOM    110  O   UNL A   1      42.453  31.545  38.727  1.00  0.00    -0.744 OA
ENDBRANCH 106 107
ENDBRANCH  74  99
ENDBRANCH  48  49
ENDBRANCH  40  43
ENDBRANCH  38  39
ENDBRANCH   1  38
TORSDOF 17
ENDMDL
