MODEL 1
REMARK VINA RESULT:     -11.8      0.000      0.000
REMARK SMILES CC(=O)N(c1ccccc1)c1nc(/C=C(/C#N)C(=O)NCCCNC(=O)c2ccc(-c3c4nc(c(-c5c(F)cc(S(=O)(=O)[O-])cc5F)c5ccc([nH]5)c(-c5c(F)cc(S(=O)(=O)[O-])cc5F)c5nc(c(-c6c(F)cc(S(=O)(=O)[O-])cc6F)c6ccc3[nH]6)C=C5)C=C4)cc2)cs1
REMARK SMILES IDX 22 1 21 2 20 3 18 4 19 5 15 7 14 8 13 9 11 10 12 11 94 12
REMARK SMILES IDX 93 13 4 14 2 15 1 16 3 17 5 18 6 19 10 20 7 21 9 22 8 23
REMARK SMILES IDX 16 24 17 25 23 26 24 27 25 28 26 30 27 31 28 32 92 33 29 34
REMARK SMILES IDX 91 35 30 36 31 37 32 38 85 39 33 40 90 41 84 42 86 43 34 44
REMARK SMILES IDX 89 45 83 46 82 47 35 49 69 50 48 51 68 52 49 53 52 54 67 55
REMARK SMILES IDX 87 56 50 57 51 58 66 60 88 61 53 62 36 63 37 64 46 65 38 66
REMARK SMILES IDX 39 67 45 68 47 69 40 70 41 71 42 72 43 73 44 74 70 75 71 76
REMARK SMILES IDX 80 77 72 78 73 79 79 80 81 81 74 82 75 83 76 84 77 85 78 86
REMARK SMILES IDX 54 87 55 88 64 89 56 90 57 91 63 92 65 93 58 94 59 95 60 96
REMARK SMILES IDX 61 97 62 98
REMARK H PARENT 20 6 24 29 86 48 52 59
REMARK Flexibility Score: inf
ROOT
ATOM      1  C   UNL A   1      38.880  22.845  26.192  1.00  0.00     0.042 C 
ENDROOT
BRANCH   1   2
ATOM      2  C   UNL A   1      37.622  23.704  26.023  1.00  0.00     0.118 C 
BRANCH   2   3
ATOM      3  N   UNL A   1      37.150  23.643  24.646  1.00  0.00    -0.351 N 
ATOM      4  C   UNL A   1      36.677  22.630  23.866  1.00  0.00     0.262 C 
ATOM      5  O   UNL A   1      36.702  22.828  22.651  1.00  0.00    -0.268 OA
ATOM      6  H   UNL A   1      37.179  24.511  24.184  1.00  0.00     0.163 HD
BRANCH   4   7
ATOM      7  C   UNL A   1      36.129  21.351  24.436  1.00  0.00     0.119 C 
ATOM      8  C   UNL A   1      34.801  21.138  24.569  1.00  0.00     0.054 C 
BRANCH   8   9
ATOM      9  C   UNL A   1      33.720  22.059  24.319  1.00  0.00     0.078 A 
ATOM     10  C   UNL A   1      32.394  23.738  24.893  1.00  0.00     0.197 A 
ATOM     11  N   UNL A   1      33.474  23.062  25.243  1.00  0.00    -0.220 NA
ATOM     12  S   UNL A   1      31.673  23.255  23.404  1.00  0.00    -0.104 S 
ATOM     13  C   UNL A   1      32.917  22.104  23.196  1.00  0.00     0.097 A 
BRANCH  10  14
ATOM     14  N   UNL A   1      31.864  24.879  25.502  1.00  0.00    -0.256 N 
BRANCH  14  15
ATOM     15  C   UNL A   1      30.717  24.683  26.263  1.00  0.00     0.230 C 
ATOM     16  C   UNL A   1      29.493  25.499  25.904  1.00  0.00     0.115 C 
ATOM     17  O   UNL A   1      30.633  23.911  27.223  1.00  0.00    -0.274 OA
ENDBRANCH  14  15
BRANCH  14  18
ATOM     18  C   UNL A   1      32.591  26.105  25.381  1.00  0.00     0.051 A 
ATOM     19  C   UNL A   1      33.149  26.482  24.146  1.00  0.00     0.027 A 
ATOM     20  C   UNL A   1      32.778  26.955  26.482  1.00  0.00     0.027 A 
ATOM     21  C   UNL A   1      33.853  27.684  24.015  1.00  0.00     0.002 A 
ATOM     22  C   UNL A   1      33.489  28.153  26.350  1.00  0.00     0.002 A 
ATOM     23  C   UNL A   1      34.021  28.518  25.116  1.00  0.00     0.000 A 
ENDBRANCH  14  18
ENDBRANCH  10  14
ENDBRANCH   8   9
BRANCH   7  24
ATOM     24  C   UNL A   1      37.178  20.308  24.786  1.00  0.00     0.105 C 
ATOM     25  N   UNL A   1      38.048  19.443  25.076  1.00  0.00    -0.192 NA
ENDBRANCH   7  24
ENDBRANCH   4   7
ENDBRANCH   2   3
ENDBRANCH   1   2
BRANCH   1  26
ATOM     26  C   UNL A   1      40.003  23.569  26.938  1.00  0.00     0.118 C 
BRANCH  26  27
ATOM     27  N   UNL A   1      40.933  24.208  26.017  1.00  0.00    -0.352 N 
ATOM     28  C   UNL A   1      41.391  25.497  25.993  1.00  0.00     0.251 C 
ATOM     29  H   UNL A   1      41.284  23.626  25.306  1.00  0.00     0.163 HD
ATOM     30  O   UNL A   1      41.970  25.907  24.982  1.00  0.00    -0.269 OA
BRANCH  28  31
ATOM     31  C   UNL A   1      41.206  26.393  27.152  1.00  0.00     0.039 A 
ATOM     32  C   UNL A   1      42.008  27.535  27.255  1.00  0.00     0.014 A 
ATOM     33  C   UNL A   1      40.301  26.080  28.170  1.00  0.00     0.014 A 
ATOM     34  C   UNL A   1      41.875  28.380  28.357  1.00  0.00     0.010 A 
ATOM     35  C   UNL A   1      40.131  26.952  29.244  1.00  0.00     0.010 A 
ATOM     36  C   UNL A   1      40.923  28.105  29.353  1.00  0.00    -0.014 A 
BRANCH  36  37
ATOM     37  C   UNL A   1      40.743  29.018  30.510  1.00  0.00     0.031 A 
ATOM     38  C   UNL A   1      41.596  28.865  31.740  1.00  0.00     0.074 A 
ATOM     39  C   UNL A   1      39.770  29.949  30.470  1.00  0.00     0.049 A 
ATOM     40  N   UNL A   1      41.545  29.527  32.866  1.00  0.00    -0.248 NA
ATOM     41  C   UNL A   1      42.623  27.812  31.708  1.00  0.00     0.031 C 
ATOM     42  C   UNL A   1      38.848  30.160  29.353  1.00  0.00     0.029 A 
ATOM     43  N   UNL A   1      39.387  30.884  31.397  1.00  0.00    -0.354 N 
ATOM     44  C   UNL A   1      42.518  28.962  33.684  1.00  0.00     0.074 A 
ATOM     45  C   UNL A   1      43.117  27.877  32.937  1.00  0.00     0.031 C 
ATOM     46  C   UNL A   1      38.015  31.169  29.653  1.00  0.00     0.029 A 
ATOM     47  C   UNL A   1      38.325  31.658  30.993  1.00  0.00     0.049 A 
ATOM     48  H   UNL A   1      39.830  30.991  32.270  1.00  0.00     0.167 HD
ATOM     49  C   UNL A   1      42.889  29.327  34.935  1.00  0.00     0.037 A 
ATOM     50  C   UNL A   1      37.672  32.647  31.632  1.00  0.00     0.037 A 
ATOM     51  C   UNL A   1      42.309  30.429  35.659  1.00  0.00     0.049 A 
ATOM     52  C   UNL A   1      38.120  33.053  33.008  1.00  0.00     0.074 A 
ATOM     53  C   UNL A   1      42.660  30.922  36.904  1.00  0.00     0.029 A 
ATOM     54  N   UNL A   1      41.258  31.212  35.202  1.00  0.00    -0.354 N 
ATOM     55  N   UNL A   1      39.083  32.548  33.742  1.00  0.00    -0.248 NA
ATOM     56  C   UNL A   1      37.402  34.167  33.640  1.00  0.00     0.031 C 
ATOM     57  C   UNL A   1      41.801  31.983  37.214  1.00  0.00     0.029 A 
ATOM     58  C   UNL A   1      40.939  32.175  36.146  1.00  0.00     0.049 A 
ATOM     59  H   UNL A   1      40.807  31.100  34.334  1.00  0.00     0.167 HD
ATOM     60  C   UNL A   1      39.098  33.295  34.914  1.00  0.00     0.074 A 
ATOM     61  C   UNL A   1      38.058  34.294  34.785  1.00  0.00     0.031 C 
ATOM     62  C   UNL A   1      39.900  33.164  35.999  1.00  0.00     0.037 A 
BRANCH  49  63
ATOM     63  C   UNL A   1      43.977  28.531  35.600  1.00  0.00     0.058 A 
ATOM     64  C   UNL A   1      43.685  27.433  36.426  1.00  0.00     0.135 A 
ATOM     65  C   UNL A   1      45.329  28.846  35.384  1.00  0.00     0.135 A 
ATOM     66  F   UNL A   1      42.410  27.097  36.678  1.00  0.00    -0.206 F 
ATOM     67  C   UNL A   1      44.693  26.695  37.037  1.00  0.00     0.059 A 
ATOM     68  C   UNL A   1      46.353  28.105  35.965  1.00  0.00     0.059 A 
ATOM     69  F   UNL A   1      45.663  29.884  34.602  1.00  0.00    -0.206 F 
ATOM     70  C   UNL A   1      46.025  27.040  36.803  1.00  0.00     0.060 A 
BRANCH  70  71
ATOM     71  S   UNL A   1      47.323  26.072  37.603  1.00  0.00     0.124 S 
ATOM     72  O   UNL A   1      47.774  26.994  38.641  1.00  0.00    -0.237 OA
ATOM     73  O   UNL A   1      46.595  24.897  38.073  1.00  0.00    -0.237 OA
ATOM     74  O   UNL A   1      48.275  25.825  36.526  1.00  0.00    -0.744 OA
ENDBRANCH  70  71
ENDBRANCH  49  63
BRANCH  50  75
ATOM     75  C   UNL A   1      36.541  33.337  30.961  1.00  0.00     0.058 A 
ATOM     76  C   UNL A   1      35.219  33.130  31.383  1.00  0.00     0.135 A 
ATOM     77  C   UNL A   1      36.758  34.235  29.904  1.00  0.00     0.135 A 
ATOM     78  F   UNL A   1      34.962  32.277  32.386  1.00  0.00    -0.206 F 
ATOM     79  C   UNL A   1      34.150  33.778  30.774  1.00  0.00     0.059 A 
ATOM     80  C   UNL A   1      35.707  34.912  29.293  1.00  0.00     0.059 A 
ATOM     81  F   UNL A   1      38.006  34.481  29.476  1.00  0.00    -0.206 F 
ATOM     82  C   UNL A   1      34.405  34.669  29.730  1.00  0.00     0.060 A 
BRANCH  82  83
ATOM     83  S   UNL A   1      33.017  35.548  28.980  1.00  0.00     0.124 S 
ATOM     84  O   UNL A   1      32.387  34.489  28.199  1.00  0.00    -0.237 OA
ATOM     85  O   UNL A   1      32.273  36.006  30.150  1.00  0.00    -0.237 OA
ATOM     86  O   UNL A   1      33.666  36.603  28.209  1.00  0.00    -0.744 OA
ENDBRANCH  82  83
ENDBRANCH  50  75
BRANCH  62  87
ATOM     87  C   UNL A   1      39.700  34.139  37.122  1.00  0.00     0.058 A 
ATOM     88  C   UNL A   1      39.010  33.781  38.291  1.00  0.00     0.135 A 
ATOM     89  C   UNL A   1      40.237  35.433  37.047  1.00  0.00     0.135 A 
ATOM     90  F   UNL A   1      38.471  32.557  38.408  1.00  0.00    -0.206 F 
ATOM     91  C   UNL A   1      38.842  34.679  39.339  1.00  0.00     0.059 A 
ATOM     92  C   UNL A   1      40.101  36.342  38.093  1.00  0.00     0.059 A 
ATOM     93  F   UNL A   1      40.913  35.823  35.954  1.00  0.00    -0.206 F 
ATOM     94  C   UNL A   1      39.390  35.958  39.229  1.00  0.00     0.060 A 
BRANCH  94  95
ATOM     95  S   UNL A   1      39.192  37.108  40.607  1.00  0.00     0.124 S 
ATOM     96  O   UNL A   1      38.296  38.105  40.031  1.00  0.00    -0.237 OA
ATOM     97  O   UNL A   1      38.615  36.260  41.646  1.00  0.00    -0.237 OA
ATOM     98  O   UNL A   1      40.555  37.564  40.866  1.00  0.00    -0.744 OA
ENDBRANCH  94  95
ENDBRANCH  62  87
ENDBRANCH  36  37
ENDBRANCH  28  31
ENDBRANCH  26  27
ENDBRANCH   1  26
TORSDOF 18
ENDMDL
MODEL 2
REMARK VINA RESULT:     -11.8      4.306      6.932
REMARK SMILES CC(=O)N(c1ccccc1)c1nc(/C=C(/C#N)C(=O)NCCCNC(=O)c2ccc(-c3c4nc(c(-c5c(F)cc(S(=O)(=O)[O-])cc5F)c5ccc([nH]5)c(-c5c(F)cc(S(=O)(=O)[O-])cc5F)c5nc(c(-c6c(F)cc(S(=O)(=O)[O-])cc6F)c6ccc3[nH]6)C=C5)C=C4)cc2)cs1
REMARK SMILES IDX 22 1 21 2 20 3 18 4 19 5 15 7 14 8 13 9 11 10 12 11 94 12
REMARK SMILES IDX 93 13 4 14 2 15 1 16 3 17 5 18 6 19 10 20 7 21 9 22 8 23
REMARK SMILES IDX 16 24 17 25 23 26 24 27 25 28 26 30 27 31 28 32 92 33 29 34
REMARK SMILES IDX 91 35 30 36 31 37 32 38 85 39 33 40 90 41 84 42 86 43 34 44
REMARK SMILES IDX 89 45 83 46 82 47 35 49 69 50 48 51 68 52 49 53 52 54 67 55
REMARK SMILES IDX 87 56 50 57 51 58 66 60 88 61 53 62 36 63 37 64 46 65 38 66
REMARK SMILES IDX 39 67 45 68 47 69 40 70 41 71 42 72 43 73 44 74 70 75 71 76
REMARK SMILES IDX 80 77 72 78 73 79 79 80 81 81 74 82 75 83 76 84 77 85 78 86
REMARK SMILES IDX 54 87 55 88 64 89 56 90 57 91 63 92 65 93 58 94 59 95 60 96
REMARK SMILES IDX 61 97 62 98
REMARK H PARENT 20 6 24 29 86 48 52 59
REMARK Flexibility Score: inf
ROOT
ATOM      1  C   UNL A   1      41.056  20.118  26.959  1.00  0.00     0.042 C 
ENDROOT
BRANCH   1   2
ATOM      2  C   UNL A   1      42.506  20.191  26.468  1.00  0.00     0.118 C 
BRANCH   2   3
ATOM      3  N   UNL A   1      42.626  21.168  25.394  1.00  0.00    -0.351 N 
ATOM      4  C   UNL A   1      43.688  21.813  24.834  1.00  0.00     0.262 C 
ATOM      5  O   UNL A   1      43.426  22.834  24.198  1.00  0.00    -0.268 OA
ATOM      6  H   UNL A   1      41.763  21.413  24.990  1.00  0.00     0.163 HD
BRANCH   4   7
ATOM      7  C   UNL A   1      45.101  21.309  24.952  1.00  0.00     0.119 C 
ATOM      8  C   UNL A   1      46.054  22.002  25.613  1.00  0.00     0.054 C 
BRANCH   8   9
ATOM      9  C   UNL A   1      45.958  23.315  26.201  1.00  0.00     0.078 A 
ATOM     10  C   UNL A   1      46.069  25.526  26.106  1.00  0.00     0.197 A 
ATOM     11  N   UNL A   1      46.088  24.423  25.379  1.00  0.00    -0.220 NA
ATOM     12  S   UNL A   1      45.816  25.289  27.795  1.00  0.00    -0.104 S 
ATOM     13  C   UNL A   1      45.672  23.610  27.520  1.00  0.00     0.097 A 
BRANCH  10  14
ATOM     14  N   UNL A   1      46.080  26.849  25.657  1.00  0.00    -0.256 N 
BRANCH  14  15
ATOM     15  C   UNL A   1      47.168  27.215  24.872  1.00  0.00     0.230 C 
ATOM     16  C   UNL A   1      48.403  27.722  25.584  1.00  0.00     0.115 C 
ATOM     17  O   UNL A   1      47.188  27.177  23.637  1.00  0.00    -0.274 OA
ENDBRANCH  14  15
BRANCH  14  18
ATOM     18  C   UNL A   1      44.942  27.666  25.946  1.00  0.00     0.051 A 
ATOM     19  C   UNL A   1      45.045  28.732  26.858  1.00  0.00     0.027 A 
ATOM     20  C   UNL A   1      43.697  27.424  25.345  1.00  0.00     0.027 A 
ATOM     21  C   UNL A   1      43.941  29.543  27.140  1.00  0.00     0.002 A 
ATOM     22  C   UNL A   1      42.592  28.231  25.635  1.00  0.00     0.002 A 
ATOM     23  C   UNL A   1      42.716  29.293  26.528  1.00  0.00     0.000 A 
ENDBRANCH  14  18
ENDBRANCH  10  14
ENDBRANCH   8   9
BRANCH   7  24
ATOM     24  C   UNL A   1      45.346  19.946  24.327  1.00  0.00     0.105 C 
ATOM     25  N   UNL A   1      45.549  18.815  23.808  1.00  0.00    -0.192 NA
ENDBRANCH   7  24
ENDBRANCH   4   7
ENDBRANCH   2   3
ENDBRANCH   1   2
BRANCH   1  26
ATOM     26  C   UNL A   1      40.470  21.490  27.298  1.00  0.00     0.118 C 
BRANCH  26  27
ATOM     27  N   UNL A   1      39.451  21.889  26.338  1.00  0.00    -0.352 N 
ATOM     28  C   UNL A   1      38.775  23.074  26.223  1.00  0.00     0.251 C 
ATOM     29  H   UNL A   1      39.213  21.205  25.672  1.00  0.00     0.163 HD
ATOM     30  O   UNL A   1      37.769  23.121  25.507  1.00  0.00    -0.269 OA
BRANCH  28  31
ATOM     31  C   UNL A   1      39.232  24.284  26.934  1.00  0.00     0.039 A 
ATOM     32  C   UNL A   1      38.805  24.495  28.249  1.00  0.00     0.014 A 
ATOM     33  C   UNL A   1      40.020  25.245  26.292  1.00  0.00     0.014 A 
ATOM     34  C   UNL A   1      39.197  25.647  28.931  1.00  0.00     0.010 A 
ATOM     35  C   UNL A   1      40.455  26.369  26.992  1.00  0.00     0.010 A 
ATOM     36  C   UNL A   1      40.039  26.586  28.314  1.00  0.00    -0.014 A 
BRANCH  36  37
ATOM     37  C   UNL A   1      40.498  27.796  29.043  1.00  0.00     0.031 A 
ATOM     38  C   UNL A   1      41.855  27.825  29.690  1.00  0.00     0.074 A 
ATOM     39  C   UNL A   1      39.664  28.847  29.166  1.00  0.00     0.049 A 
ATOM     40  N   UNL A   1      42.403  28.766  30.414  1.00  0.00    -0.248 NA
ATOM     41  C   UNL A   1      42.697  26.629  29.523  1.00  0.00     0.031 C 
ATOM     42  C   UNL A   1      38.305  28.915  28.624  1.00  0.00     0.029 A 
ATOM     43  N   UNL A   1      39.831  30.053  29.796  1.00  0.00    -0.354 N 
ATOM     44  C   UNL A   1      43.644  28.273  30.805  1.00  0.00     0.074 A 
ATOM     45  C   UNL A   1      43.750  26.933  30.269  1.00  0.00     0.031 C 
ATOM     46  C   UNL A   1      37.768  30.106  28.933  1.00  0.00     0.029 A 
ATOM     47  C   UNL A   1      38.731  30.873  29.716  1.00  0.00     0.049 A 
ATOM     48  H   UNL A   1      40.660  30.309  30.261  1.00  0.00     0.167 HD
ATOM     49  C   UNL A   1      44.611  28.888  31.528  1.00  0.00     0.037 A 
ATOM     50  C   UNL A   1      38.520  32.104  30.222  1.00  0.00     0.037 A 
ATOM     51  C   UNL A   1      44.509  30.234  32.030  1.00  0.00     0.049 A 
ATOM     52  C   UNL A   1      39.617  32.777  30.996  1.00  0.00     0.074 A 
ATOM     53  C   UNL A   1      45.458  30.971  32.716  1.00  0.00     0.029 A 
ATOM     54  N   UNL A   1      43.391  31.046  31.899  1.00  0.00    -0.354 N 
ATOM     55  N   UNL A   1      40.808  32.319  31.303  1.00  0.00    -0.248 NA
ATOM     56  C   UNL A   1      39.350  34.135  31.486  1.00  0.00     0.031 C 
ATOM     57  C   UNL A   1      44.904  32.218  33.027  1.00  0.00     0.029 A 
ATOM     58  C   UNL A   1      43.622  32.271  32.503  1.00  0.00     0.049 A 
ATOM     59  H   UNL A   1      42.557  30.789  31.443  1.00  0.00     0.167 HD
ATOM     60  C   UNL A   1      41.438  33.339  32.005  1.00  0.00     0.074 A 
ATOM     61  C   UNL A   1      40.502  34.443  32.065  1.00  0.00     0.031 C 
ATOM     62  C   UNL A   1      42.679  33.360  32.551  1.00  0.00     0.037 A 
BRANCH  49  63
ATOM     63  C   UNL A   1      45.866  28.112  31.815  1.00  0.00     0.058 A 
ATOM     64  C   UNL A   1      46.010  27.353  32.987  1.00  0.00     0.135 A 
ATOM     65  C   UNL A   1      46.926  28.100  30.893  1.00  0.00     0.135 A 
ATOM     66  F   UNL A   1      45.033  27.341  33.908  1.00  0.00    -0.206 F 
ATOM     67  C   UNL A   1      47.170  26.632  33.249  1.00  0.00     0.059 A 
ATOM     68  C   UNL A   1      48.086  27.366  31.124  1.00  0.00     0.059 A 
ATOM     69  F   UNL A   1      46.841  28.807  29.756  1.00  0.00    -0.206 F 
ATOM     70  C   UNL A   1      48.205  26.648  32.313  1.00  0.00     0.060 A 
BRANCH  70  71
ATOM     71  S   UNL A   1      49.706  25.707  32.666  1.00  0.00     0.124 S 
ATOM     72  O   UNL A   1      50.005  25.136  31.357  1.00  0.00    -0.237 OA
ATOM     73  O   UNL A   1      50.625  26.744  33.130  1.00  0.00    -0.237 OA
ATOM     74  O   UNL A   1      49.278  24.754  33.684  1.00  0.00    -0.744 OA
ENDBRANCH  70  71
ENDBRANCH  49  63
BRANCH  50  75
ATOM     75  C   UNL A   1      37.221  32.785  29.985  1.00  0.00     0.058 A 
ATOM     76  C   UNL A   1      36.124  32.557  30.830  1.00  0.00     0.135 A 
ATOM     77  C   UNL A   1      37.057  33.695  28.929  1.00  0.00     0.135 A 
ATOM     78  F   UNL A   1      36.233  31.693  31.850  1.00  0.00    -0.206 F 
ATOM     79  C   UNL A   1      34.906  33.197  30.630  1.00  0.00     0.059 A 
ATOM     80  C   UNL A   1      35.855  34.364  28.721  1.00  0.00     0.059 A 
ATOM     81  F   UNL A   1      38.082  33.960  28.105  1.00  0.00    -0.206 F 
ATOM     82  C   UNL A   1      34.782  34.101  29.572  1.00  0.00     0.060 A 
BRANCH  82  83
ATOM     83  S   UNL A   1      33.213  34.968  29.352  1.00  0.00     0.124 S 
ATOM     84  O   UNL A   1      32.689  34.976  30.713  1.00  0.00    -0.237 OA
ATOM     85  O   UNL A   1      33.645  36.261  28.828  1.00  0.00    -0.237 OA
ATOM     86  O   UNL A   1      32.495  34.124  28.402  1.00  0.00    -0.744 OA
ENDBRANCH  82  83
ENDBRANCH  50  75
BRANCH  62  87
ATOM     87  C   UNL A   1      43.104  34.624  33.241  1.00  0.00     0.058 A 
ATOM     88  C   UNL A   1      42.840  34.841  34.602  1.00  0.00     0.135 A 
ATOM     89  C   UNL A   1      43.818  35.611  32.544  1.00  0.00     0.135 A 
ATOM     90  F   UNL A   1      42.153  33.931  35.311  1.00  0.00    -0.206 F 
ATOM     91  C   UNL A   1      43.252  36.004  35.244  1.00  0.00     0.059 A 
ATOM     92  C   UNL A   1      44.260  36.771  33.172  1.00  0.00     0.059 A 
ATOM     93  F   UNL A   1      44.103  35.446  31.242  1.00  0.00    -0.206 F 
ATOM     94  C   UNL A   1      43.960  36.964  34.520  1.00  0.00     0.060 A 
BRANCH  94  95
ATOM     95  S   UNL A   1      44.516  38.457  35.369  1.00  0.00     0.124 S 
ATOM     96  O   UNL A   1      44.116  38.178  36.745  1.00  0.00    -0.237 OA
ATOM     97  O   UNL A   1      45.953  38.450  35.113  1.00  0.00    -0.237 OA
ATOM     98  O   UNL A   1      43.773  39.522  34.703  1.00  0.00    -0.744 OA
ENDBRANCH  94  95
ENDBRANCH  62  87
ENDBRANCH  36  37
ENDBRANCH  28  31
ENDBRANCH  26  27
ENDBRANCH   1  26
TORSDOF 18
ENDMDL
MODEL 3
REMARK VINA RESULT:     -11.8      1.329      2.481
REMARK SMILES CC(=O)N(c1ccccc1)c1nc(/C=C(/C#N)C(=O)NCCCNC(=O)c2ccc(-c3c4nc(c(-c5c(F)cc(S(=O)(=O)[O-])cc5F)c5ccc([nH]5)c(-c5c(F)cc(S(=O)(=O)[O-])cc5F)c5nc(c(-c6c(F)cc(S(=O)(=O)[O-])cc6F)c6ccc3[nH]6)C=C5)C=C4)cc2)cs1
REMARK SMILES IDX 22 1 21 2 20 3 18 4 19 5 15 7 14 8 13 9 11 10 12 11 94 12
REMARK SMILES IDX 93 13 4 14 2 15 1 16 3 17 5 18 6 19 10 20 7 21 9 22 8 23
REMARK SMILES IDX 16 24 17 25 23 26 24 27 25 28 26 30 27 31 28 32 92 33 29 34
REMARK SMILES IDX 91 35 30 36 31 37 32 38 85 39 33 40 90 41 84 42 86 43 34 44
REMARK SMILES IDX 89 45 83 46 82 47 35 49 69 50 48 51 68 52 49 53 52 54 67 55
REMARK SMILES IDX 87 56 50 57 51 58 66 60 88 61 53 62 36 63 37 64 46 65 38 66
REMARK SMILES IDX 39 67 45 68 47 69 40 70 41 71 42 72 43 73 44 74 70 75 71 76
REMARK SMILES IDX 80 77 72 78 73 79 79 80 81 81 74 82 75 83 76 84 77 85 78 86
REMARK SMILES IDX 54 87 55 88 64 89 56 90 57 91 63 92 65 93 58 94 59 95 60 96
REMARK SMILES IDX 61 97 62 98
REMARK H PARENT 20 6 24 29 86 48 52 59
REMARK Flexibility Score: inf
ROOT
ATOM      1  C   UNL A   1      37.630  23.209  25.820  1.00  0.00     0.042 C 
ENDROOT
BRANCH   1   2
ATOM      2  C   UNL A   1      36.170  23.650  25.672  1.00  0.00     0.118 C 
BRANCH   2   3
ATOM      3  N   UNL A   1      35.362  23.086  26.746  1.00  0.00    -0.351 N 
ATOM      4  C   UNL A   1      34.085  22.613  26.803  1.00  0.00     0.262 C 
ATOM      5  O   UNL A   1      33.585  22.542  27.926  1.00  0.00    -0.268 OA
ATOM      6  H   UNL A   1      35.835  23.037  27.608  1.00  0.00     0.163 HD
BRANCH   4   7
ATOM      7  C   UNL A   1      33.324  22.173  25.581  1.00  0.00     0.119 C 
ATOM      8  C   UNL A   1      32.527  23.019  24.892  1.00  0.00     0.054 C 
BRANCH   8   9
ATOM      9  C   UNL A   1      32.175  24.379  25.217  1.00  0.00     0.078 A 
ATOM     10  C   UNL A   1      32.492  26.569  25.118  1.00  0.00     0.197 A 
ATOM     11  N   UNL A   1      32.891  25.409  24.627  1.00  0.00    -0.220 NA
ATOM     12  S   UNL A   1      31.191  26.484  26.246  1.00  0.00    -0.104 S 
ATOM     13  C   UNL A   1      31.130  24.793  26.020  1.00  0.00     0.097 A 
BRANCH  10  14
ATOM     14  N   UNL A   1      32.892  27.849  24.723  1.00  0.00    -0.256 N 
BRANCH  14  15
ATOM     15  C   UNL A   1      32.738  28.144  23.373  1.00  0.00     0.230 C 
ATOM     16  C   UNL A   1      33.967  28.592  22.612  1.00  0.00     0.115 C 
ATOM     17  O   UNL A   1      31.667  28.090  22.760  1.00  0.00    -0.274 OA
ENDBRANCH  14  15
BRANCH  14  18
ATOM     18  C   UNL A   1      33.317  28.763  25.738  1.00  0.00     0.051 A 
ATOM     19  C   UNL A   1      34.408  28.448  26.568  1.00  0.00     0.027 A 
ATOM     20  C   UNL A   1      32.658  29.985  25.943  1.00  0.00     0.027 A 
ATOM     21  C   UNL A   1      34.838  29.340  27.556  1.00  0.00     0.002 A 
ATOM     22  C   UNL A   1      33.084  30.871  26.938  1.00  0.00     0.002 A 
ATOM     23  C   UNL A   1      34.177  30.550  27.740  1.00  0.00     0.000 A 
ENDBRANCH  14  18
ENDBRANCH  10  14
ENDBRANCH   8   9
BRANCH   7  24
ATOM     24  C   UNL A   1      33.575  20.735  25.158  1.00  0.00     0.105 C 
ATOM     25  N   UNL A   1      33.782  19.542  24.807  1.00  0.00    -0.192 NA
ENDBRANCH   7  24
ENDBRANCH   4   7
ENDBRANCH   2   3
ENDBRANCH   1   2
BRANCH   1  26
ATOM     26  C   UNL A   1      38.506  24.263  26.501  1.00  0.00     0.118 C 
BRANCH  26  27
ATOM     27  N   UNL A   1      39.913  24.085  26.170  1.00  0.00    -0.352 N 
ATOM     28  C   UNL A   1      40.997  24.840  26.528  1.00  0.00     0.251 C 
ATOM     29  H   UNL A   1      40.115  23.306  25.605  1.00  0.00     0.163 HD
ATOM     30  O   UNL A   1      42.066  24.671  25.934  1.00  0.00    -0.269 OA
BRANCH  28  31
ATOM     31  C   UNL A   1      40.904  25.841  27.610  1.00  0.00     0.039 A 
ATOM     32  C   UNL A   1      39.906  25.696  28.578  1.00  0.00     0.014 A 
ATOM     33  C   UNL A   1      41.748  26.956  27.635  1.00  0.00     0.014 A 
ATOM     34  C   UNL A   1      39.778  26.647  29.591  1.00  0.00     0.010 A 
ATOM     35  C   UNL A   1      41.653  27.877  28.678  1.00  0.00     0.010 A 
ATOM     36  C   UNL A   1      40.661  27.736  29.660  1.00  0.00    -0.014 A 
BRANCH  36  37
ATOM     37  C   UNL A   1      40.562  28.732  30.757  1.00  0.00     0.031 A 
ATOM     38  C   UNL A   1      41.445  28.619  31.970  1.00  0.00     0.074 A 
ATOM     39  C   UNL A   1      39.635  29.707  30.680  1.00  0.00     0.049 A 
ATOM     40  N   UNL A   1      41.462  29.357  33.049  1.00  0.00    -0.248 NA
ATOM     41  C   UNL A   1      42.418  27.515  31.981  1.00  0.00     0.031 C 
ATOM     42  C   UNL A   1      38.689  29.888  29.578  1.00  0.00     0.029 A 
ATOM     43  N   UNL A   1      39.327  30.720  31.551  1.00  0.00    -0.354 N 
ATOM     44  C   UNL A   1      42.431  28.800  33.876  1.00  0.00     0.074 A 
ATOM     45  C   UNL A   1      42.953  27.638  33.189  1.00  0.00     0.031 C 
ATOM     46  C   UNL A   1      37.916  30.957  29.831  1.00  0.00     0.029 A 
ATOM     47  C   UNL A   1      38.292  31.518  31.125  1.00  0.00     0.049 A 
ATOM     48  H   UNL A   1      39.802  30.863  32.402  1.00  0.00     0.167 HD
ATOM     49  C   UNL A   1      42.859  29.229  35.088  1.00  0.00     0.037 A 
ATOM     50  C   UNL A   1      37.708  32.580  31.713  1.00  0.00     0.037 A 
ATOM     51  C   UNL A   1      42.357  30.406  35.750  1.00  0.00     0.049 A 
ATOM     52  C   UNL A   1      38.218  33.054  33.044  1.00  0.00     0.074 A 
ATOM     53  C   UNL A   1      42.770  30.962  36.948  1.00  0.00     0.029 A 
ATOM     54  N   UNL A   1      41.332  31.208  35.270  1.00  0.00    -0.354 N 
ATOM     55  N   UNL A   1      39.179  32.552  33.784  1.00  0.00    -0.248 NA
ATOM     56  C   UNL A   1      37.576  34.243  33.618  1.00  0.00     0.031 C 
ATOM     57  C   UNL A   1      41.974  32.084  37.208  1.00  0.00     0.029 A 
ATOM     58  C   UNL A   1      41.090  32.247  36.154  1.00  0.00     0.049 A 
ATOM     59  H   UNL A   1      40.848  31.061  34.425  1.00  0.00     0.167 HD
ATOM     60  C   UNL A   1      39.267  33.373  34.901  1.00  0.00     0.074 A 
ATOM     61  C   UNL A   1      38.273  34.414  34.733  1.00  0.00     0.031 C 
ATOM     62  C   UNL A   1      40.096  33.275  35.969  1.00  0.00     0.037 A 
BRANCH  49  63
ATOM     63  C   UNL A   1      43.927  28.425  35.775  1.00  0.00     0.058 A 
ATOM     64  C   UNL A   1      43.609  27.400  36.680  1.00  0.00     0.135 A 
ATOM     65  C   UNL A   1      45.286  28.658  35.502  1.00  0.00     0.135 A 
ATOM     66  F   UNL A   1      42.327  27.144  36.988  1.00  0.00    -0.206 F 
ATOM     67  C   UNL A   1      44.598  26.654  37.311  1.00  0.00     0.059 A 
ATOM     68  C   UNL A   1      46.291  27.908  36.104  1.00  0.00     0.059 A 
ATOM     69  F   UNL A   1      45.646  29.625  34.644  1.00  0.00    -0.206 F 
ATOM     70  C   UNL A   1      45.937  26.917  37.019  1.00  0.00     0.060 A 
BRANCH  70  71
ATOM     71  S   UNL A   1      47.212  25.940  37.847  1.00  0.00     0.124 S 
ATOM     72  O   UNL A   1      46.526  25.548  39.074  1.00  0.00    -0.237 OA
ATOM     73  O   UNL A   1      47.457  24.866  36.888  1.00  0.00    -0.237 OA
ATOM     74  O   UNL A   1      48.309  26.886  38.015  1.00  0.00    -0.744 OA
ENDBRANCH  70  71
ENDBRANCH  49  63
BRANCH  50  75
ATOM     75  C   UNL A   1      36.591  33.280  31.028  1.00  0.00     0.058 A 
ATOM     76  C   UNL A   1      36.829  34.090  29.908  1.00  0.00     0.135 A 
ATOM     77  C   UNL A   1      35.264  33.133  31.460  1.00  0.00     0.135 A 
ATOM     78  F   UNL A   1      38.082  34.263  29.460  1.00  0.00    -0.206 F 
ATOM     79  C   UNL A   1      35.793  34.742  29.248  1.00  0.00     0.059 A 
ATOM     80  C   UNL A   1      34.208  33.757  30.804  1.00  0.00     0.059 A 
ATOM     81  F   UNL A   1      34.983  32.353  32.517  1.00  0.00    -0.206 F 
ATOM     82  C   UNL A   1      34.485  34.567  29.703  1.00  0.00     0.060 A 
BRANCH  82  83
ATOM     83  S   UNL A   1      33.140  35.373  28.807  1.00  0.00     0.124 S 
ATOM     84  O   UNL A   1      33.865  36.361  28.017  1.00  0.00    -0.237 OA
ATOM     85  O   UNL A   1      32.556  34.262  28.060  1.00  0.00    -0.237 OA
ATOM     86  O   UNL A   1      32.300  35.908  29.874  1.00  0.00    -0.744 OA
ENDBRANCH  82  83
ENDBRANCH  50  75
BRANCH  62  87
ATOM     87  C   UNL A   1      39.979  34.333  37.028  1.00  0.00     0.058 A 
ATOM     88  C   UNL A   1      40.708  35.529  36.954  1.00  0.00     0.135 A 
ATOM     89  C   UNL A   1      39.097  34.167  38.107  1.00  0.00     0.135 A 
ATOM     90  F   UNL A   1      41.571  35.733  35.945  1.00  0.00    -0.206 F 
ATOM     91  C   UNL A   1      40.583  36.517  37.925  1.00  0.00     0.059 A 
ATOM     92  C   UNL A   1      38.938  35.151  39.078  1.00  0.00     0.059 A 
ATOM     93  F   UNL A   1      38.369  33.043  38.219  1.00  0.00    -0.206 F 
ATOM     94  C   UNL A   1      39.696  36.317  38.984  1.00  0.00     0.060 A 
BRANCH  94  95
ATOM     95  S   UNL A   1      39.519  37.618  40.224  1.00  0.00     0.124 S 
ATOM     96  O   UNL A   1      39.570  36.850  41.464  1.00  0.00    -0.237 OA
ATOM     97  O   UNL A   1      40.675  38.468  39.957  1.00  0.00    -0.237 OA
ATOM     98  O   UNL A   1      38.224  38.214  39.907  1.00  0.00    -0.744 OA
ENDBRANCH  94  95
ENDBRANCH  62  87
ENDBRANCH  36  37
ENDBRANCH  28  31
ENDBRANCH  26  27
ENDBRANCH   1  26
TORSDOF 18
ENDMDL
