MODEL 1
REMARK VINA RESULT:     -12.6      0.000      0.000
REMARK SMILES O=C(NCCCNC(=O)c1ccccc1/C=N\NC(=S)NCc1ccccc1)c1ccc(-c2c3nc(c(-c4c(F)cc(S(=O)(=O)[O-])cc4F)c4ccc([nH]4)c(-c4c(F)cc(S(=O)(=O)[O-])cc4F)c4nc(c(-c5c(F)cc(S(=O)(=O)[O-])cc5F)c5ccc2[nH]5)C=C4)C=C3)cc1
REMARK SMILES IDX 7 1 8 2 9 3 6 5 5 6 4 7 3 8 1 9 2 10 29 12 30 13 94 14 31 15
REMARK SMILES IDX 93 16 32 17 33 18 34 19 87 20 35 21 92 22 86 23 88 24 36 25
REMARK SMILES IDX 91 26 85 27 84 28 37 30 71 31 50 32 70 33 51 34 54 35 69 36
REMARK SMILES IDX 89 37 52 38 53 39 68 41 90 42 55 43 38 44 39 45 48 46 40 47
REMARK SMILES IDX 41 48 47 49 49 50 42 51 43 52 44 53 45 54 46 55 72 56 73 57
REMARK SMILES IDX 82 58 74 59 75 60 81 61 83 62 76 63 77 64 78 65 79 66 80 67
REMARK SMILES IDX 56 68 57 69 66 70 58 71 59 72 65 73 67 74 60 75 61 76 62 77
REMARK SMILES IDX 63 78 64 79 10 80 11 81 15 82 12 83 14 84 13 85 16 86 17 87
REMARK SMILES IDX 18 88 19 90 20 91 21 92 22 94 23 95 24 96 28 97 25 98 27 99
REMARK SMILES IDX 26 100
REMARK H PARENT 7 4 3 11 88 29 54 40 18 89 21 93
REMARK Flexibility Score: inf
ROOT
ATOM      1  N   UNL A   1      33.851  29.405  25.479  1.00  0.00    -0.352 N 
ATOM      2  C   UNL A   1      33.228  28.742  24.442  1.00  0.00     0.251 C 
ATOM      3  O   UNL A   1      33.894  28.273  23.526  1.00  0.00    -0.269 OA
ATOM      4  H   UNL A   1      34.833  29.431  25.406  1.00  0.00     0.163 HD
ENDROOT
BRANCH   1   5
ATOM      5  C   UNL A   1      33.324  30.076  26.661  1.00  0.00     0.118 C 
BRANCH   5   6
ATOM      6  C   UNL A   1      34.347  30.832  27.497  1.00  0.00     0.042 C 
BRANCH   6   7
ATOM      7  C   UNL A   1      35.463  29.957  28.046  1.00  0.00     0.118 C 
BRANCH   7   8
ATOM      8  N   UNL A   1      35.559  30.038  29.500  1.00  0.00    -0.352 N 
ATOM      9  O   UNL A   1      36.294  29.556  31.558  1.00  0.00    -0.269 OA
ATOM     10  C   UNL A   1      36.565  29.697  30.368  1.00  0.00     0.251 C 
ATOM     11  H   UNL A   1      34.757  30.406  29.937  1.00  0.00     0.163 HD
BRANCH  10  12
ATOM     12  C   UNL A   1      37.957  29.515  29.898  1.00  0.00     0.039 A 
ATOM     13  C   UNL A   1      38.954  29.092  30.775  1.00  0.00     0.014 A 
ATOM     14  C   UNL A   1      38.253  29.676  28.539  1.00  0.00     0.014 A 
ATOM     15  C   UNL A   1      40.265  28.980  30.337  1.00  0.00     0.010 A 
ATOM     16  C   UNL A   1      39.552  29.443  28.074  1.00  0.00     0.010 A 
ATOM     17  C   UNL A   1      40.572  29.111  28.976  1.00  0.00    -0.014 A 
BRANCH  17  18
ATOM     18  C   UNL A   1      41.950  28.791  28.525  1.00  0.00     0.031 A 
ATOM     19  C   UNL A   1      43.024  29.838  28.500  1.00  0.00     0.074 A 
ATOM     20  C   UNL A   1      42.224  27.518  28.172  1.00  0.00     0.049 A 
ATOM     21  N   UNL A   1      44.282  29.713  28.162  1.00  0.00    -0.248 NA
ATOM     22  C   UNL A   1      42.642  31.203  28.896  1.00  0.00     0.031 C 
ATOM     23  C   UNL A   1      41.246  26.426  28.142  1.00  0.00     0.029 A 
ATOM     24  N   UNL A   1      43.396  26.919  27.794  1.00  0.00    -0.354 N 
ATOM     25  C   UNL A   1      44.838  30.981  28.284  1.00  0.00     0.074 A 
ATOM     26  C   UNL A   1      43.774  31.867  28.704  1.00  0.00     0.031 C 
ATOM     27  C   UNL A   1      41.867  25.283  27.819  1.00  0.00     0.029 A 
ATOM     28  C   UNL A   1      43.268  25.573  27.543  1.00  0.00     0.049 A 
ATOM     29  H   UNL A   1      44.248  27.405  27.709  1.00  0.00     0.167 HD
ATOM     30  C   UNL A   1      46.120  31.363  28.069  1.00  0.00     0.037 A 
ATOM     31  C   UNL A   1      44.170  24.671  27.114  1.00  0.00     0.037 A 
ATOM     32  C   UNL A   1      47.169  30.462  27.659  1.00  0.00     0.049 A 
ATOM     33  C   UNL A   1      45.579  25.125  26.867  1.00  0.00     0.074 A 
ATOM     34  C   UNL A   1      48.509  30.740  27.448  1.00  0.00     0.029 A 
ATOM     35  N   UNL A   1      46.996  29.111  27.390  1.00  0.00    -0.354 N 
ATOM     36  N   UNL A   1      46.095  26.322  27.022  1.00  0.00    -0.248 NA
ATOM     37  C   UNL A   1      46.526  24.115  26.383  1.00  0.00     0.031 C 
ATOM     38  C   UNL A   1      49.133  29.570  27.004  1.00  0.00     0.029 A 
ATOM     39  C   UNL A   1      48.198  28.547  26.991  1.00  0.00     0.049 A 
ATOM     40  H   UNL A   1      46.144  28.623  27.471  1.00  0.00     0.167 HD
ATOM     41  C   UNL A   1      47.432  26.206  26.667  1.00  0.00     0.074 A 
ATOM     42  C   UNL A   1      47.648  24.818  26.310  1.00  0.00     0.031 C 
ATOM     43  C   UNL A   1      48.392  27.163  26.636  1.00  0.00     0.037 A 
BRANCH  30  44
ATOM     44  C   UNL A   1      46.457  32.819  28.246  1.00  0.00     0.058 A 
ATOM     45  C   UNL A   1      46.926  33.328  29.468  1.00  0.00     0.135 A 
ATOM     46  C   UNL A   1      46.344  33.712  27.168  1.00  0.00     0.135 A 
ATOM     47  F   UNL A   1      47.040  32.525  30.538  1.00  0.00    -0.206 F 
ATOM     48  C   UNL A   1      47.241  34.676  29.621  1.00  0.00     0.059 A 
ATOM     49  C   UNL A   1      46.678  35.058  27.291  1.00  0.00     0.059 A 
ATOM     50  F   UNL A   1      45.901  33.279  25.977  1.00  0.00    -0.206 F 
ATOM     51  C   UNL A   1      47.112  35.533  28.527  1.00  0.00     0.060 A 
BRANCH  51  52
ATOM     52  S   UNL A   1      47.520  37.278  28.746  1.00  0.00     0.124 S 
ATOM     53  O   UNL A   1      46.501  37.920  27.921  1.00  0.00    -0.237 OA
ATOM     54  O   UNL A   1      47.371  37.455  30.186  1.00  0.00    -0.237 OA
ATOM     55  O   UNL A   1      48.886  37.375  28.242  1.00  0.00    -0.744 OA
ENDBRANCH  51  52
ENDBRANCH  30  44
BRANCH  31  56
ATOM     56  C   UNL A   1      43.751  23.265  26.878  1.00  0.00     0.058 A 
ATOM     57  C   UNL A   1      43.412  22.419  27.942  1.00  0.00     0.135 A 
ATOM     58  C   UNL A   1      43.641  22.754  25.574  1.00  0.00     0.135 A 
ATOM     59  F   UNL A   1      43.503  22.859  29.206  1.00  0.00    -0.206 F 
ATOM     60  C   UNL A   1      42.988  21.111  27.725  1.00  0.00     0.059 A 
ATOM     61  C   UNL A   1      43.190  21.462  25.331  1.00  0.00     0.059 A 
ATOM     62  F   UNL A   1      43.933  23.532  24.520  1.00  0.00    -0.206 F 
ATOM     63  C   UNL A   1      42.876  20.644  26.414  1.00  0.00     0.060 A 
BRANCH  63  64
ATOM     64  S   UNL A   1      42.269  18.966  26.139  1.00  0.00     0.124 S 
ATOM     65  O   UNL A   1      42.496  18.357  27.445  1.00  0.00    -0.237 OA
ATOM     66  O   UNL A   1      40.875  19.200  25.775  1.00  0.00    -0.237 OA
ATOM     67  O   UNL A   1      43.118  18.475  25.057  1.00  0.00    -0.744 OA
ENDBRANCH  63  64
ENDBRANCH  31  56
BRANCH  43  68
ATOM     68  C   UNL A   1      49.772  26.731  26.225  1.00  0.00     0.058 A 
ATOM     69  C   UNL A   1      50.224  26.870  24.904  1.00  0.00     0.135 A 
ATOM     70  C   UNL A   1      50.664  26.209  27.175  1.00  0.00     0.135 A 
ATOM     71  F   UNL A   1      49.406  27.354  23.956  1.00  0.00    -0.206 F 
ATOM     72  C   UNL A   1      51.507  26.482  24.533  1.00  0.00     0.059 A 
ATOM     73  C   UNL A   1      51.961  25.843  26.832  1.00  0.00     0.059 A 
ATOM     74  F   UNL A   1      50.282  26.064  28.454  1.00  0.00    -0.206 F 
ATOM     75  C   UNL A   1      52.369  25.971  25.506  1.00  0.00     0.060 A 
BRANCH  75  76
ATOM     76  S   UNL A   1      54.043  25.502  25.018  1.00  0.00     0.124 S 
ATOM     77  O   UNL A   1      54.842  26.144  26.057  1.00  0.00    -0.237 OA
ATOM     78  O   UNL A   1      53.986  24.045  25.069  1.00  0.00    -0.237 OA
ATOM     79  O   UNL A   1      54.178  26.072  23.681  1.00  0.00    -0.744 OA
ENDBRANCH  75  76
ENDBRANCH  43  68
ENDBRANCH  17  18
ENDBRANCH  10  12
ENDBRANCH   7   8
ENDBRANCH   6   7
ENDBRANCH   5   6
ENDBRANCH   1   5
BRANCH   2  80
ATOM     80  C   UNL A   1      31.795  28.403  24.521  1.00  0.00     0.048 A 
ATOM     81  C   UNL A   1      30.754  29.269  23.317  1.00  0.00     0.014 A 
ATOM     82  C   UNL A   1      31.210  26.838  25.214  1.00  0.00     0.007 A 
ATOM     83  C   UNL A   1      29.117  28.619  22.872  1.00  0.00     0.001 A 
ATOM     84  C   UNL A   1      29.551  26.178  24.798  1.00  0.00     0.010 A 
ATOM     85  C   UNL A   1      28.522  27.084  23.624  1.00  0.00     0.001 A 
BRANCH  82  86
ATOM     86  C   UNL A   1      31.667  26.528  26.536  1.00  0.00     0.142 C 
ATOM     87  N   UNL A   1      32.427  25.502  26.675  1.00  0.00    -0.181 NA
BRANCH  87  88
ATOM     88  N   UNL A   1      32.613  24.699  25.572  1.00  0.00    -0.254 N 
ATOM     89  H   UNL A   1      32.836  25.202  24.756  1.00  0.00     0.193 HD
BRANCH  88  90
ATOM     90  C   UNL A   1      32.552  23.350  25.377  1.00  0.00     0.187 C 
ATOM     91  S   UNL A   1      31.048  22.650  25.704  1.00  0.00    -0.039 S 
BRANCH  90  92
ATOM     92  N   UNL A   1      33.579  22.457  24.974  1.00  0.00    -0.357 N 
ATOM     93  H   UNL A   1      33.099  21.620  24.778  1.00  0.00     0.163 HD
BRANCH  92  94
ATOM     94  C   UNL A   1      35.569  21.991  24.581  1.00  0.00     0.151 C 
BRANCH  94  95
ATOM     95  C   UNL A   1      37.070  22.536  25.060  1.00  0.00    -0.029 A 
ATOM     96  C   UNL A   1      37.183  23.809  25.670  1.00  0.00     0.005 A 
ATOM     97  C   UNL A   1      38.097  21.598  25.272  1.00  0.00     0.005 A 
ATOM     98  C   UNL A   1      38.273  24.113  26.487  1.00  0.00     0.000 A 
ATOM     99  C   UNL A   1      39.184  21.914  26.088  1.00  0.00     0.000 A 
ATOM    100  C   UNL A   1      39.261  23.160  26.708  1.00  0.00     0.000 A 
ENDBRANCH  94  95
ENDBRANCH  92  94
ENDBRANCH  90  92
ENDBRANCH  88  90
ENDBRANCH  87  88
ENDBRANCH  82  86
ENDBRANCH   2  80
TORSDOF 19
ENDMDL
MODEL 2
REMARK VINA RESULT:     -12.5      6.708     12.482
REMARK SMILES O=C(NCCCNC(=O)c1ccccc1/C=N\NC(=S)NCc1ccccc1)c1ccc(-c2c3nc(c(-c4c(F)cc(S(=O)(=O)[O-])cc4F)c4ccc([nH]4)c(-c4c(F)cc(S(=O)(=O)[O-])cc4F)c4nc(c(-c5c(F)cc(S(=O)(=O)[O-])cc5F)c5ccc2[nH]5)C=C4)C=C3)cc1
REMARK SMILES IDX 7 1 8 2 9 3 6 5 5 6 4 7 3 8 1 9 2 10 29 12 30 13 94 14 31 15
REMARK SMILES IDX 93 16 32 17 33 18 34 19 87 20 35 21 92 22 86 23 88 24 36 25
REMARK SMILES IDX 91 26 85 27 84 28 37 30 71 31 50 32 70 33 51 34 54 35 69 36
REMARK SMILES IDX 89 37 52 38 53 39 68 41 90 42 55 43 38 44 39 45 48 46 40 47
REMARK SMILES IDX 41 48 47 49 49 50 42 51 43 52 44 53 45 54 46 55 72 56 73 57
REMARK SMILES IDX 82 58 74 59 75 60 81 61 83 62 76 63 77 64 78 65 79 66 80 67
REMARK SMILES IDX 56 68 57 69 66 70 58 71 59 72 65 73 67 74 60 75 61 76 62 77
REMARK SMILES IDX 63 78 64 79 10 80 11 81 15 82 12 83 14 84 13 85 16 86 17 87
REMARK SMILES IDX 18 88 19 90 20 91 21 92 22 94 23 95 24 96 28 97 25 98 27 99
REMARK SMILES IDX 26 100
REMARK H PARENT 7 4 3 11 88 29 54 40 18 89 21 93
REMARK Flexibility Score: inf
ROOT
ATOM      1  N   UNL A   1      36.090  23.495  26.317  1.00  0.00    -0.352 N 
ATOM      2  C   UNL A   1      34.786  23.060  26.202  1.00  0.00     0.251 C 
ATOM      3  O   UNL A   1      33.962  23.360  27.059  1.00  0.00    -0.269 OA
ATOM      4  H   UNL A   1      36.257  24.058  27.107  1.00  0.00     0.163 HD
ENDROOT
BRANCH   1   5
ATOM      5  C   UNL A   1      37.266  23.273  25.484  1.00  0.00     0.118 C 
BRANCH   5   6
ATOM      6  C   UNL A   1      38.399  22.499  26.142  1.00  0.00     0.042 C 
BRANCH   6   7
ATOM      7  C   UNL A   1      39.368  23.369  26.926  1.00  0.00     0.118 C 
BRANCH   7   8
ATOM      8  N   UNL A   1      40.327  24.044  26.058  1.00  0.00    -0.352 N 
ATOM      9  O   UNL A   1      41.381  25.751  25.068  1.00  0.00    -0.269 OA
ATOM     10  C   UNL A   1      40.843  25.315  26.082  1.00  0.00     0.251 C 
ATOM     11  H   UNL A   1      40.666  23.486  25.322  1.00  0.00     0.163 HD
BRANCH  10  12
ATOM     12  C   UNL A   1      40.772  26.149  27.302  1.00  0.00     0.039 A 
ATOM     13  C   UNL A   1      41.623  27.241  27.468  1.00  0.00     0.014 A 
ATOM     14  C   UNL A   1      39.777  25.897  28.255  1.00  0.00     0.014 A 
ATOM     15  C   UNL A   1      41.587  27.981  28.640  1.00  0.00     0.010 A 
ATOM     16  C   UNL A   1      39.662  26.720  29.381  1.00  0.00     0.010 A 
ATOM     17  C   UNL A   1      40.581  27.758  29.590  1.00  0.00    -0.014 A 
BRANCH  17  18
ATOM     18  C   UNL A   1      40.462  28.698  30.732  1.00  0.00     0.031 A 
ATOM     19  C   UNL A   1      41.374  28.600  31.919  1.00  0.00     0.074 A 
ATOM     20  C   UNL A   1      39.533  29.673  30.659  1.00  0.00     0.049 A 
ATOM     21  N   UNL A   1      41.419  29.360  32.983  1.00  0.00    -0.248 NA
ATOM     22  C   UNL A   1      42.357  27.504  31.923  1.00  0.00     0.031 C 
ATOM     23  C   UNL A   1      38.582  29.847  29.557  1.00  0.00     0.029 A 
ATOM     24  N   UNL A   1      39.245  30.710  31.507  1.00  0.00    -0.354 N 
ATOM     25  C   UNL A   1      42.417  28.828  33.791  1.00  0.00     0.074 A 
ATOM     26  C   UNL A   1      42.936  27.664  33.106  1.00  0.00     0.031 C 
ATOM     27  C   UNL A   1      37.854  30.952  29.768  1.00  0.00     0.029 A 
ATOM     28  C   UNL A   1      38.232  31.522  31.055  1.00  0.00     0.049 A 
ATOM     29  H   UNL A   1      39.718  30.860  32.357  1.00  0.00     0.167 HD
ATOM     30  C   UNL A   1      42.858  29.278  34.991  1.00  0.00     0.037 A 
ATOM     31  C   UNL A   1      37.648  32.594  31.622  1.00  0.00     0.037 A 
ATOM     32  C   UNL A   1      42.333  30.446  35.654  1.00  0.00     0.049 A 
ATOM     33  C   UNL A   1      38.145  33.060  32.960  1.00  0.00     0.074 A 
ATOM     34  C   UNL A   1      42.735  31.006  36.854  1.00  0.00     0.029 A 
ATOM     35  N   UNL A   1      41.290  31.228  35.178  1.00  0.00    -0.354 N 
ATOM     36  N   UNL A   1      39.115  32.565  33.693  1.00  0.00    -0.248 NA
ATOM     37  C   UNL A   1      37.471  34.221  33.550  1.00  0.00     0.031 C 
ATOM     38  C   UNL A   1      41.900  32.096  37.128  1.00  0.00     0.029 A 
ATOM     39  C   UNL A   1      41.015  32.251  36.073  1.00  0.00     0.049 A 
ATOM     40  H   UNL A   1      40.813  31.078  34.329  1.00  0.00     0.167 HD
ATOM     41  C   UNL A   1      39.175  33.363  34.827  1.00  0.00     0.074 A 
ATOM     42  C   UNL A   1      38.159  34.385  34.671  1.00  0.00     0.031 C 
ATOM     43  C   UNL A   1      39.996  33.257  35.901  1.00  0.00     0.037 A 
BRANCH  30  44
ATOM     44  C   UNL A   1      43.943  28.492  35.678  1.00  0.00     0.058 A 
ATOM     45  C   UNL A   1      43.652  27.457  36.580  1.00  0.00     0.135 A 
ATOM     46  C   UNL A   1      45.295  28.757  35.402  1.00  0.00     0.135 A 
ATOM     47  F   UNL A   1      42.379  27.170  36.894  1.00  0.00    -0.206 F 
ATOM     48  C   UNL A   1      44.662  26.732  37.206  1.00  0.00     0.059 A 
ATOM     49  C   UNL A   1      46.321  28.027  35.996  1.00  0.00     0.059 A 
ATOM     50  F   UNL A   1      45.631  29.736  34.547  1.00  0.00    -0.206 F 
ATOM     51  C   UNL A   1      45.995  27.026  36.909  1.00  0.00     0.060 A 
BRANCH  51  52
ATOM     52  S   UNL A   1      47.291  26.079  37.734  1.00  0.00     0.124 S 
ATOM     53  O   UNL A   1      46.504  25.120  38.504  1.00  0.00    -0.237 OA
ATOM     54  O   UNL A   1      48.038  25.526  36.610  1.00  0.00    -0.237 OA
ATOM     55  O   UNL A   1      47.998  27.084  38.522  1.00  0.00    -0.744 OA
ENDBRANCH  51  52
ENDBRANCH  30  44
BRANCH  31  56
ATOM     56  C   UNL A   1      36.524  33.274  30.928  1.00  0.00     0.058 A 
ATOM     57  C   UNL A   1      35.205  33.148  31.383  1.00  0.00     0.135 A 
ATOM     58  C   UNL A   1      36.757  34.101  29.816  1.00  0.00     0.135 A 
ATOM     59  F   UNL A   1      34.931  32.368  32.440  1.00  0.00    -0.206 F 
ATOM     60  C   UNL A   1      34.153  33.808  30.756  1.00  0.00     0.059 A 
ATOM     61  C   UNL A   1      35.726  34.795  29.192  1.00  0.00     0.059 A 
ATOM     62  F   UNL A   1      38.006  34.272  29.354  1.00  0.00    -0.206 F 
ATOM     63  C   UNL A   1      34.425  34.634  29.663  1.00  0.00     0.060 A 
BRANCH  63  64
ATOM     64  S   UNL A   1      33.062  35.532  28.892  1.00  0.00     0.124 S 
ATOM     65  O   UNL A   1      33.777  36.555  28.138  1.00  0.00    -0.237 OA
ATOM     66  O   UNL A   1      32.416  34.489  28.102  1.00  0.00    -0.237 OA
ATOM     67  O   UNL A   1      32.289  36.012  30.033  1.00  0.00    -0.744 OA
ENDBRANCH  63  64
ENDBRANCH  31  56
BRANCH  43  68
ATOM     68  C   UNL A   1      39.843  34.291  36.981  1.00  0.00     0.058 A 
ATOM     69  C   UNL A   1      40.411  35.569  36.863  1.00  0.00     0.135 A 
ATOM     70  C   UNL A   1      39.086  34.010  38.129  1.00  0.00     0.135 A 
ATOM     71  F   UNL A   1      41.152  35.884  35.790  1.00  0.00    -0.206 F 
ATOM     72  C   UNL A   1      40.252  36.526  37.860  1.00  0.00     0.059 A 
ATOM     73  C   UNL A   1      38.891  34.962  39.124  1.00  0.00     0.059 A 
ATOM     74  F   UNL A   1      38.516  32.805  38.285  1.00  0.00    -0.206 F 
ATOM     75  C   UNL A   1      39.489  36.213  38.986  1.00  0.00     0.060 A 
BRANCH  75  76
ATOM     76  S   UNL A   1      39.264  37.476  40.257  1.00  0.00     0.124 S 
ATOM     77  O   UNL A   1      40.613  38.021  40.370  1.00  0.00    -0.237 OA
ATOM     78  O   UNL A   1      38.272  38.356  39.650  1.00  0.00    -0.237 OA
ATOM     79  O   UNL A   1      38.796  36.714  41.411  1.00  0.00    -0.744 OA
ENDBRANCH  75  76
ENDBRANCH  43  68
ENDBRANCH  17  18
ENDBRANCH  10  12
ENDBRANCH   7   8
ENDBRANCH   6   7
ENDBRANCH   5   6
ENDBRANCH   1   5
BRANCH   2  80
ATOM     80  C   UNL A   1      34.314  22.419  24.960  1.00  0.00     0.048 A 
ATOM     81  C   UNL A   1      33.964  20.648  25.119  1.00  0.00     0.014 A 
ATOM     82  C   UNL A   1      33.508  23.353  23.637  1.00  0.00     0.007 A 
ATOM     83  C   UNL A   1      32.884  19.808  23.925  1.00  0.00     0.001 A 
ATOM     84  C   UNL A   1      32.435  22.519  22.407  1.00  0.00     0.010 A 
ATOM     85  C   UNL A   1      32.135  20.747  22.570  1.00  0.00     0.001 A 
BRANCH  82  86
ATOM     86  C   UNL A   1      34.231  24.484  23.138  1.00  0.00     0.142 C 
ATOM     87  N   UNL A   1      33.693  25.642  23.280  1.00  0.00    -0.181 NA
BRANCH  87  88
ATOM     88  N   UNL A   1      32.403  25.685  23.759  1.00  0.00    -0.254 N 
ATOM     89  H   UNL A   1      31.836  24.955  23.421  1.00  0.00     0.193 HD
BRANCH  88  90
ATOM     90  C   UNL A   1      31.748  26.530  24.607  1.00  0.00     0.187 C 
ATOM     91  S   UNL A   1      32.158  26.363  26.239  1.00  0.00    -0.039 S 
BRANCH  90  92
ATOM     92  N   UNL A   1      30.752  27.498  24.312  1.00  0.00    -0.357 N 
ATOM     93  H   UNL A   1      30.798  28.120  25.073  1.00  0.00     0.163 HD
BRANCH  92  94
ATOM     94  C   UNL A   1      29.246  28.288  23.113  1.00  0.00     0.151 C 
BRANCH  94  95
ATOM     95  C   UNL A   1      28.622  29.794  22.766  1.00  0.00    -0.029 A 
ATOM     96  C   UNL A   1      28.891  30.874  23.643  1.00  0.00     0.005 A 
ATOM     97  C   UNL A   1      28.241  30.084  21.443  1.00  0.00     0.005 A 
ATOM     98  C   UNL A   1      28.811  32.193  23.194  1.00  0.00     0.000 A 
ATOM     99  C   UNL A   1      28.161  31.407  21.006  1.00  0.00     0.000 A 
ATOM    100  C   UNL A   1      28.463  32.456  21.873  1.00  0.00     0.000 A 
ENDBRANCH  94  95
ENDBRANCH  92  94
ENDBRANCH  90  92
ENDBRANCH  88  90
ENDBRANCH  87  88
ENDBRANCH  82  86
ENDBRANCH   2  80
TORSDOF 19
ENDMDL
MODEL 3
REMARK VINA RESULT:     -12.5      2.841      9.551
REMARK SMILES O=C(NCCCNC(=O)c1ccccc1/C=N\NC(=S)NCc1ccccc1)c1ccc(-c2c3nc(c(-c4c(F)cc(S(=O)(=O)[O-])cc4F)c4ccc([nH]4)c(-c4c(F)cc(S(=O)(=O)[O-])cc4F)c4nc(c(-c5c(F)cc(S(=O)(=O)[O-])cc5F)c5ccc2[nH]5)C=C4)C=C3)cc1
REMARK SMILES IDX 7 1 8 2 9 3 6 5 5 6 4 7 3 8 1 9 2 10 29 12 30 13 94 14 31 15
REMARK SMILES IDX 93 16 32 17 33 18 34 19 87 20 35 21 92 22 86 23 88 24 36 25
REMARK SMILES IDX 91 26 85 27 84 28 37 30 71 31 50 32 70 33 51 34 54 35 69 36
REMARK SMILES IDX 89 37 52 38 53 39 68 41 90 42 55 43 38 44 39 45 48 46 40 47
REMARK SMILES IDX 41 48 47 49 49 50 42 51 43 52 44 53 45 54 46 55 72 56 73 57
REMARK SMILES IDX 82 58 74 59 75 60 81 61 83 62 76 63 77 64 78 65 79 66 80 67
REMARK SMILES IDX 56 68 57 69 66 70 58 71 59 72 65 73 67 74 60 75 61 76 62 77
REMARK SMILES IDX 63 78 64 79 10 80 11 81 15 82 12 83 14 84 13 85 16 86 17 87
REMARK SMILES IDX 18 88 19 90 20 91 21 92 22 94 23 95 24 96 28 97 25 98 27 99
REMARK SMILES IDX 26 100
REMARK H PARENT 7 4 3 11 88 29 54 40 18 89 21 93
REMARK Flexibility Score: inf
ROOT
ATOM      1  N   UNL A   1      33.784  26.548  23.469  1.00  0.00    -0.352 N 
ATOM      2  C   UNL A   1      33.663  25.450  22.643  1.00  0.00     0.251 C 
ATOM      3  O   UNL A   1      33.583  25.602  21.429  1.00  0.00    -0.269 OA
ATOM      4  H   UNL A   1      33.820  27.408  22.990  1.00  0.00     0.163 HD
ENDROOT
BRANCH   1   5
ATOM      5  C   UNL A   1      33.866  26.670  24.919  1.00  0.00     0.118 C 
BRANCH   5   6
ATOM      6  C   UNL A   1      34.025  28.087  25.450  1.00  0.00     0.042 C 
BRANCH   6   7
ATOM      7  C   UNL A   1      33.709  28.232  26.930  1.00  0.00     0.118 C 
BRANCH   7   8
ATOM      8  N   UNL A   1      33.647  29.629  27.344  1.00  0.00    -0.352 N 
ATOM      9  O   UNL A   1      34.077  31.445  28.579  1.00  0.00    -0.269 OA
ATOM     10  C   UNL A   1      34.499  30.396  28.098  1.00  0.00     0.251 C 
ATOM     11  H   UNL A   1      32.849  30.109  27.024  1.00  0.00     0.163 HD
BRANCH  10  12
ATOM     12  C   UNL A   1      35.903  29.989  28.324  1.00  0.00     0.039 A 
ATOM     13  C   UNL A   1      36.852  30.110  27.310  1.00  0.00     0.014 A 
ATOM     14  C   UNL A   1      36.303  29.567  29.598  1.00  0.00     0.014 A 
ATOM     15  C   UNL A   1      38.151  29.671  27.514  1.00  0.00     0.010 A 
ATOM     16  C   UNL A   1      37.642  29.240  29.838  1.00  0.00     0.010 A 
ATOM     17  C   UNL A   1      38.573  29.273  28.790  1.00  0.00    -0.014 A 
BRANCH  17  18
ATOM     18  C   UNL A   1      40.015  28.999  29.007  1.00  0.00     0.031 A 
ATOM     19  C   UNL A   1      40.623  27.680  28.629  1.00  0.00     0.074 A 
ATOM     20  C   UNL A   1      40.779  29.984  29.520  1.00  0.00     0.049 A 
ATOM     21  N   UNL A   1      41.869  27.295  28.726  1.00  0.00    -0.248 NA
ATOM     22  C   UNL A   1      39.720  26.657  28.079  1.00  0.00     0.031 C 
ATOM     23  C   UNL A   1      40.284  31.300  29.940  1.00  0.00     0.029 A 
ATOM     24  N   UNL A   1      42.127  30.051  29.758  1.00  0.00    -0.354 N 
ATOM     25  C   UNL A   1      41.900  25.982  28.271  1.00  0.00     0.074 A 
ATOM     26  C   UNL A   1      40.542  25.627  27.920  1.00  0.00     0.031 C 
ATOM     27  C   UNL A   1      41.316  32.058  30.332  1.00  0.00     0.029 A 
ATOM     28  C   UNL A   1      42.535  31.262  30.266  1.00  0.00     0.049 A 
ATOM     29  H   UNL A   1      42.743  29.304  29.583  1.00  0.00     0.167 HD
ATOM     30  C   UNL A   1      42.968  25.156  28.155  1.00  0.00     0.037 A 
ATOM     31  C   UNL A   1      43.751  31.682  30.661  1.00  0.00     0.037 A 
ATOM     32  C   UNL A   1      44.316  25.531  28.502  1.00  0.00     0.049 A 
ATOM     33  C   UNL A   1      44.912  30.740  30.538  1.00  0.00     0.074 A 
ATOM     34  C   UNL A   1      45.474  24.780  28.388  1.00  0.00     0.029 A 
ATOM     35  N   UNL A   1      44.687  26.757  29.037  1.00  0.00    -0.354 N 
ATOM     36  N   UNL A   1      44.928  29.513  30.071  1.00  0.00    -0.248 NA
ATOM     37  C   UNL A   1      46.216  31.231  30.996  1.00  0.00     0.031 C 
ATOM     38  C   UNL A   1      46.535  25.534  28.901  1.00  0.00     0.029 A 
ATOM     39  C   UNL A   1      46.051  26.775  29.284  1.00  0.00     0.049 A 
ATOM     40  H   UNL A   1      44.072  27.504  29.217  1.00  0.00     0.167 HD
ATOM     41  C   UNL A   1      46.247  29.090  30.168  1.00  0.00     0.074 A 
ATOM     42  C   UNL A   1      47.001  30.199  30.716  1.00  0.00     0.031 C 
ATOM     43  C   UNL A   1      46.784  27.890  29.834  1.00  0.00     0.037 A 
BRANCH  30  44
ATOM     44  C   UNL A   1      42.721  23.757  27.656  1.00  0.00     0.058 A 
ATOM     45  C   UNL A   1      42.528  22.679  28.534  1.00  0.00     0.135 A 
ATOM     46  C   UNL A   1      42.640  23.498  26.277  1.00  0.00     0.135 A 
ATOM     47  F   UNL A   1      42.609  22.864  29.861  1.00  0.00    -0.206 F 
ATOM     48  C   UNL A   1      42.294  21.390  28.063  1.00  0.00     0.059 A 
ATOM     49  C   UNL A   1      42.381  22.222  25.784  1.00  0.00     0.059 A 
ATOM     50  F   UNL A   1      42.817  24.492  25.392  1.00  0.00    -0.206 F 
ATOM     51  C   UNL A   1      42.224  21.171  26.686  1.00  0.00     0.060 A 
BRANCH  51  52
ATOM     52  S   UNL A   1      41.925  19.492  26.094  1.00  0.00     0.124 S 
ATOM     53  O   UNL A   1      42.316  18.701  27.257  1.00  0.00    -0.237 OA
ATOM     54  O   UNL A   1      40.497  19.515  25.796  1.00  0.00    -0.237 OA
ATOM     55  O   UNL A   1      42.804  19.378  24.935  1.00  0.00    -0.744 OA
ENDBRANCH  51  52
ENDBRANCH  30  44
BRANCH  31  56
ATOM     56  C   UNL A   1      43.911  33.048  31.224  1.00  0.00     0.058 A 
ATOM     57  C   UNL A   1      44.123  34.157  30.394  1.00  0.00     0.135 A 
ATOM     58  C   UNL A   1      43.812  33.275  32.607  1.00  0.00     0.135 A 
ATOM     59  F   UNL A   1      44.227  33.991  29.066  1.00  0.00    -0.206 F 
ATOM     60  C   UNL A   1      44.242  35.442  30.913  1.00  0.00     0.059 A 
ATOM     61  C   UNL A   1      43.896  34.554  33.146  1.00  0.00     0.059 A 
ATOM     62  F   UNL A   1      43.588  32.249  33.443  1.00  0.00    -0.206 F 
ATOM     63  C   UNL A   1      44.122  35.630  32.291  1.00  0.00     0.060 A 
BRANCH  63  64
ATOM     64  S   UNL A   1      44.219  37.308  32.950  1.00  0.00     0.124 S 
ATOM     65  O   UNL A   1      44.135  38.105  31.732  1.00  0.00    -0.237 OA
ATOM     66  O   UNL A   1      43.055  37.360  33.830  1.00  0.00    -0.237 OA
ATOM     67  O   UNL A   1      45.510  37.328  33.631  1.00  0.00    -0.744 OA
ENDBRANCH  63  64
ENDBRANCH  31  56
BRANCH  43  68
ATOM     68  C   UNL A   1      48.264  27.726  30.033  1.00  0.00     0.058 A 
ATOM     69  C   UNL A   1      49.184  28.069  29.031  1.00  0.00     0.135 A 
ATOM     70  C   UNL A   1      48.768  27.256  31.256  1.00  0.00     0.135 A 
ATOM     71  F   UNL A   1      48.753  28.514  27.840  1.00  0.00    -0.206 F 
ATOM     72  C   UNL A   1      50.554  27.930  29.226  1.00  0.00     0.059 A 
ATOM     73  C   UNL A   1      50.134  27.136  31.483  1.00  0.00     0.059 A 
ATOM     74  F   UNL A   1      47.929  26.922  32.249  1.00  0.00    -0.206 F 
ATOM     75  C   UNL A   1      51.019  27.463  30.458  1.00  0.00     0.060 A 
BRANCH  75  76
ATOM     76  S   UNL A   1      52.801  27.317  30.710  1.00  0.00     0.124 S 
ATOM     77  O   UNL A   1      53.222  26.682  29.466  1.00  0.00    -0.237 OA
ATOM     78  O   UNL A   1      53.207  28.708  30.882  1.00  0.00    -0.237 OA
ATOM     79  O   UNL A   1      52.907  26.487  31.906  1.00  0.00    -0.744 OA
ENDBRANCH  75  76
ENDBRANCH  43  68
ENDBRANCH  17  18
ENDBRANCH  10  12
ENDBRANCH   7   8
ENDBRANCH   6   7
ENDBRANCH   5   6
ENDBRANCH   1   5
BRANCH   2  80
ATOM     80  C   UNL A   1      33.840  24.086  23.175  1.00  0.00     0.048 A 
ATOM     81  C   UNL A   1      35.528  23.708  23.715  1.00  0.00     0.014 A 
ATOM     82  C   UNL A   1      32.467  23.134  23.870  1.00  0.00     0.007 A 
ATOM     83  C   UNL A   1      35.845  22.346  24.874  1.00  0.00     0.001 A 
ATOM     84  C   UNL A   1      32.768  21.739  25.020  1.00  0.00     0.010 A 
ATOM     85  C   UNL A   1      34.464  21.364  25.511  1.00  0.00     0.001 A 
BRANCH  82  86
ATOM     86  C   UNL A   1      31.320  22.983  23.026  1.00  0.00     0.142 C 
ATOM     87  N   UNL A   1      30.346  23.803  23.198  1.00  0.00    -0.181 NA
BRANCH  87  88
ATOM     88  N   UNL A   1      30.420  24.657  24.275  1.00  0.00    -0.254 N 
ATOM     89  H   UNL A   1      30.990  24.318  25.002  1.00  0.00     0.193 HD
BRANCH  88  90
ATOM     90  C   UNL A   1      29.868  25.875  24.542  1.00  0.00     0.187 C 
ATOM     91  S   UNL A   1      30.464  26.640  25.927  1.00  0.00    -0.039 S 
BRANCH  90  92
ATOM     92  N   UNL A   1      28.845  26.567  23.842  1.00  0.00    -0.357 N 
ATOM     93  H   UNL A   1      28.222  25.854  23.571  1.00  0.00     0.163 HD
BRANCH  92  94
ATOM     94  C   UNL A   1      27.973  28.300  23.089  1.00  0.00     0.151 C 
BRANCH  94  95
ATOM     95  C   UNL A   1      28.477  29.818  22.619  1.00  0.00    -0.029 A 
ATOM     96  C   UNL A   1      28.152  30.285  21.321  1.00  0.00     0.005 A 
ATOM     97  C   UNL A   1      28.802  30.763  23.609  1.00  0.00     0.005 A 
ATOM     98  C   UNL A   1      28.125  31.652  21.043  1.00  0.00     0.000 A 
ATOM     99  C   UNL A   1      28.775  32.127  23.318  1.00  0.00     0.000 A 
ATOM    100  C   UNL A   1      28.419  32.570  22.045  1.00  0.00     0.000 A 
ENDBRANCH  94  95
ENDBRANCH  92  94
ENDBRANCH  90  92
ENDBRANCH  88  90
ENDBRANCH  87  88
ENDBRANCH  82  86
ENDBRANCH   2  80
TORSDOF 19
ENDMDL
