MODEL 1
REMARK VINA RESULT:     -13.0      0.000      0.000
REMARK SMILES O=C(NCCCNC(=O)c1ccnc(-n2cnnn2)c1)c1ccc(-c2c3nc(c(-c4c(F)cc(S(=O)(=O)[O-])cc4F)c4ccc([nH]4)c(-c4c(F)cc(S(=O)(=O)[O-])cc4F)c4nc(c(-c5c(F)cc(S(=O)(=O)[O-])cc5F)c5ccc2[nH]5)C=C4)C=C3)cc1
REMARK SMILES IDX 4 1 3 2 1 3 2 4 21 6 22 7 86 8 23 9 85 10 24 11 25 12 26 13
REMARK SMILES IDX 79 14 27 15 84 16 78 17 80 18 28 19 83 20 77 21 76 22 29 24
REMARK SMILES IDX 63 25 42 26 62 27 43 28 46 29 61 30 81 31 44 32 45 33 60 35
REMARK SMILES IDX 82 36 47 37 30 38 31 39 40 40 32 41 33 42 39 43 41 44 34 45
REMARK SMILES IDX 35 46 36 47 37 48 38 49 64 50 65 51 74 52 66 53 67 54 73 55
REMARK SMILES IDX 75 56 68 57 69 58 70 59 71 60 72 61 48 62 49 63 58 64 50 65
REMARK SMILES IDX 51 66 57 67 59 68 52 69 53 70 54 71 55 72 56 73 5 74 6 75
REMARK SMILES IDX 7 76 8 77 9 79 10 80 11 81 20 82 12 83 14 84 13 85 15 86
REMARK SMILES IDX 16 87 19 88 17 89 18 90
REMARK H PARENT 3 5 80 23 46 34 7 78
REMARK Flexibility Score: inf
ROOT
ATOM      1  C   UNL A   1      32.955  29.413  27.059  1.00  0.00     0.118 C 
ENDROOT
BRANCH   1   2
ATOM      2  N   UNL A   1      33.174  30.742  27.591  1.00  0.00    -0.352 N 
ATOM      3  O   UNL A   1      34.074  32.675  28.137  1.00  0.00    -0.269 OA
ATOM      4  C   UNL A   1      34.281  31.479  27.910  1.00  0.00     0.251 C 
ATOM      5  H   UNL A   1      32.334  31.225  27.763  1.00  0.00     0.163 HD
BRANCH   4   6
ATOM      6  C   UNL A   1      35.661  30.945  28.070  1.00  0.00     0.039 A 
ATOM      7  C   UNL A   1      36.067  29.635  27.812  1.00  0.00     0.014 A 
ATOM      8  C   UNL A   1      36.608  31.848  28.589  1.00  0.00     0.014 A 
ATOM      9  C   UNL A   1      37.346  29.208  28.165  1.00  0.00     0.010 A 
ATOM     10  C   UNL A   1      37.892  31.435  28.925  1.00  0.00     0.010 A 
ATOM     11  C   UNL A   1      38.245  30.100  28.753  1.00  0.00    -0.014 A 
BRANCH  11  12
ATOM     12  C   UNL A   1      39.595  29.628  29.054  1.00  0.00     0.031 A 
ATOM     13  C   UNL A   1      39.887  29.453  30.508  1.00  0.00     0.074 A 
ATOM     14  C   UNL A   1      40.461  29.217  28.106  1.00  0.00     0.049 A 
ATOM     15  N   UNL A   1      40.799  30.023  31.228  1.00  0.00    -0.248 NA
ATOM     16  C   UNL A   1      38.963  28.608  31.284  1.00  0.00     0.031 C 
ATOM     17  C   UNL A   1      40.207  29.037  26.673  1.00  0.00     0.029 A 
ATOM     18  N   UNL A   1      41.738  28.761  28.247  1.00  0.00    -0.354 N 
ATOM     19  C   UNL A   1      40.699  29.454  32.499  1.00  0.00     0.074 A 
ATOM     20  C   UNL A   1      39.462  28.720  32.513  1.00  0.00     0.031 C 
ATOM     21  C   UNL A   1      41.206  28.303  26.132  1.00  0.00     0.029 A 
ATOM     22  C   UNL A   1      42.226  28.073  27.141  1.00  0.00     0.049 A 
ATOM     23  H   UNL A   1      42.270  28.906  29.063  1.00  0.00     0.167 HD
ATOM     24  C   UNL A   1      41.744  29.451  33.375  1.00  0.00     0.037 A 
ATOM     25  C   UNL A   1      43.348  27.309  27.085  1.00  0.00     0.037 A 
ATOM     26  C   UNL A   1      42.716  30.457  33.030  1.00  0.00     0.049 A 
ATOM     27  C   UNL A   1      44.215  27.710  28.224  1.00  0.00     0.074 A 
ATOM     28  C   UNL A   1      42.690  31.831  32.895  1.00  0.00     0.029 A 
ATOM     29  N   UNL A   1      43.883  30.051  32.430  1.00  0.00    -0.354 N 
ATOM     30  N   UNL A   1      44.785  28.878  28.332  1.00  0.00    -0.248 NA
ATOM     31  C   UNL A   1      44.090  26.959  29.464  1.00  0.00     0.031 C 
ATOM     32  C   UNL A   1      43.560  32.111  31.801  1.00  0.00     0.029 A 
ATOM     33  C   UNL A   1      44.103  30.898  31.375  1.00  0.00     0.049 A 
ATOM     34  H   UNL A   1      44.452  29.297  32.704  1.00  0.00     0.167 HD
ATOM     35  C   UNL A   1      44.710  29.187  29.682  1.00  0.00     0.074 A 
ATOM     36  C   UNL A   1      44.351  27.932  30.340  1.00  0.00     0.031 C 
ATOM     37  C   UNL A   1      44.674  30.482  30.115  1.00  0.00     0.037 A 
BRANCH  24  38
ATOM     38  C   UNL A   1      42.070  28.309  34.320  1.00  0.00     0.058 A 
ATOM     39  C   UNL A   1      41.887  28.492  35.709  1.00  0.00     0.135 A 
ATOM     40  C   UNL A   1      42.832  27.176  33.958  1.00  0.00     0.135 A 
ATOM     41  F   UNL A   1      41.163  29.521  36.176  1.00  0.00    -0.206 F 
ATOM     42  C   UNL A   1      42.513  27.685  36.661  1.00  0.00     0.059 A 
ATOM     43  C   UNL A   1      43.419  26.328  34.891  1.00  0.00     0.059 A 
ATOM     44  F   UNL A   1      43.129  26.883  32.688  1.00  0.00    -0.206 F 
ATOM     45  C   UNL A   1      43.302  26.621  36.237  1.00  0.00     0.060 A 
BRANCH  45  46
ATOM     46  S   UNL A   1      44.238  25.676  37.452  1.00  0.00     0.124 S 
ATOM     47  O   UNL A   1      43.672  24.347  37.281  1.00  0.00    -0.237 OA
ATOM     48  O   UNL A   1      45.608  25.859  36.988  1.00  0.00    -0.237 OA
ATOM     49  O   UNL A   1      43.915  26.346  38.713  1.00  0.00    -0.744 OA
ENDBRANCH  45  46
ENDBRANCH  24  38
BRANCH  25  50
ATOM     50  C   UNL A   1      43.544  26.032  26.343  1.00  0.00     0.058 A 
ATOM     51  C   UNL A   1      44.645  25.837  25.488  1.00  0.00     0.135 A 
ATOM     52  C   UNL A   1      42.806  24.876  26.672  1.00  0.00     0.135 A 
ATOM     53  F   UNL A   1      45.421  26.875  25.143  1.00  0.00    -0.206 F 
ATOM     54  C   UNL A   1      45.014  24.570  25.019  1.00  0.00     0.059 A 
ATOM     55  C   UNL A   1      43.147  23.606  26.209  1.00  0.00     0.059 A 
ATOM     56  F   UNL A   1      41.780  24.932  27.534  1.00  0.00    -0.206 F 
ATOM     57  C   UNL A   1      44.266  23.455  25.401  1.00  0.00     0.060 A 
BRANCH  57  58
ATOM     58  S   UNL A   1      44.825  21.798  24.935  1.00  0.00     0.124 S 
ATOM     59  O   UNL A   1      44.614  21.803  23.492  1.00  0.00    -0.237 OA
ATOM     60  O   UNL A   1      46.216  21.806  25.377  1.00  0.00    -0.237 OA
ATOM     61  O   UNL A   1      43.939  20.917  25.692  1.00  0.00    -0.744 OA
ENDBRANCH  57  58
ENDBRANCH  25  50
BRANCH  37  62
ATOM     62  C   UNL A   1      45.013  31.576  29.138  1.00  0.00     0.058 A 
ATOM     63  C   UNL A   1      46.320  32.017  28.865  1.00  0.00     0.135 A 
ATOM     64  C   UNL A   1      43.987  32.072  28.319  1.00  0.00     0.135 A 
ATOM     65  F   UNL A   1      47.371  31.517  29.530  1.00  0.00    -0.206 F 
ATOM     66  C   UNL A   1      46.590  32.931  27.845  1.00  0.00     0.059 A 
ATOM     67  C   UNL A   1      44.236  32.958  27.276  1.00  0.00     0.059 A 
ATOM     68  F   UNL A   1      42.725  31.640  28.487  1.00  0.00    -0.206 F 
ATOM     69  C   UNL A   1      45.541  33.391  27.049  1.00  0.00     0.060 A 
BRANCH  69  70
ATOM     70  S   UNL A   1      45.908  34.485  25.661  1.00  0.00     0.124 S 
ATOM     71  O   UNL A   1      47.320  34.211  25.419  1.00  0.00    -0.237 OA
ATOM     72  O   UNL A   1      44.984  34.012  24.633  1.00  0.00    -0.237 OA
ATOM     73  O   UNL A   1      45.611  35.816  26.187  1.00  0.00    -0.744 OA
ENDBRANCH  69  70
ENDBRANCH  37  62
ENDBRANCH  11  12
ENDBRANCH   4   6
ENDBRANCH   1   2
BRANCH   1  74
ATOM     74  C   UNL A   1      32.482  29.369  25.605  1.00  0.00     0.042 C 
BRANCH  74  75
ATOM     75  C   UNL A   1      31.577  28.191  25.255  1.00  0.00     0.118 C 
BRANCH  75  76
ATOM     76  N   UNL A   1      31.828  27.679  23.916  1.00  0.00    -0.352 N 
ATOM     77  C   UNL A   1      30.977  27.517  22.865  1.00  0.00     0.251 C 
ATOM     78  H   UNL A   1      32.758  27.408  23.743  1.00  0.00     0.163 HD
ATOM     79  O   UNL A   1      31.339  26.859  21.877  1.00  0.00    -0.269 OA
BRANCH  77  80
ATOM     80  C   UNL A   1      29.626  28.106  22.855  1.00  0.00     0.045 A 
ATOM     81  C   UNL A   1      28.541  27.429  23.406  1.00  0.00     0.034 A 
ATOM     82  C   UNL A   1      29.486  29.423  22.413  1.00  0.00     0.063 A 
ATOM     83  C   UNL A   1      27.341  28.107  23.489  1.00  0.00     0.114 A 
ATOM     84  C   UNL A   1      28.246  30.034  22.555  1.00  0.00     0.157 A 
ATOM     85  N   UNL A   1      27.182  29.391  23.103  1.00  0.00    -0.237 NA
BRANCH  84  86
ATOM     86  N   UNL A   1      28.082  31.385  22.155  1.00  0.00    -0.182 N 
ATOM     87  C   UNL A   1      27.927  31.899  20.893  1.00  0.00     0.254 A 
ATOM     88  N   UNL A   1      28.088  32.418  23.028  1.00  0.00    -0.039 NA
ATOM     89  N   UNL A   1      27.912  33.211  20.956  1.00  0.00    -0.117 NA
ATOM     90  N   UNL A   1      28.021  33.517  22.288  1.00  0.00    -0.024 NA
ENDBRANCH  84  86
ENDBRANCH  77  80
ENDBRANCH  75  76
ENDBRANCH  74  75
ENDBRANCH   1  74
TORSDOF 14
ENDMDL
MODEL 2
REMARK VINA RESULT:     -12.9      5.011     10.580
REMARK SMILES O=C(NCCCNC(=O)c1ccnc(-n2cnnn2)c1)c1ccc(-c2c3nc(c(-c4c(F)cc(S(=O)(=O)[O-])cc4F)c4ccc([nH]4)c(-c4c(F)cc(S(=O)(=O)[O-])cc4F)c4nc(c(-c5c(F)cc(S(=O)(=O)[O-])cc5F)c5ccc2[nH]5)C=C4)C=C3)cc1
REMARK SMILES IDX 4 1 3 2 1 3 2 4 21 6 22 7 86 8 23 9 85 10 24 11 25 12 26 13
REMARK SMILES IDX 79 14 27 15 84 16 78 17 80 18 28 19 83 20 77 21 76 22 29 24
REMARK SMILES IDX 63 25 42 26 62 27 43 28 46 29 61 30 81 31 44 32 45 33 60 35
REMARK SMILES IDX 82 36 47 37 30 38 31 39 40 40 32 41 33 42 39 43 41 44 34 45
REMARK SMILES IDX 35 46 36 47 37 48 38 49 64 50 65 51 74 52 66 53 67 54 73 55
REMARK SMILES IDX 75 56 68 57 69 58 70 59 71 60 72 61 48 62 49 63 58 64 50 65
REMARK SMILES IDX 51 66 57 67 59 68 52 69 53 70 54 71 55 72 56 73 5 74 6 75
REMARK SMILES IDX 7 76 8 77 9 79 10 80 11 81 20 82 12 83 14 84 13 85 15 86
REMARK SMILES IDX 16 87 19 88 17 89 18 90
REMARK H PARENT 3 5 80 23 46 34 7 78
REMARK Flexibility Score: inf
ROOT
ATOM      1  C   UNL A   1      37.178  22.424  25.335  1.00  0.00     0.118 C 
ENDROOT
BRANCH   1   2
ATOM      2  N   UNL A   1      38.532  21.920  25.422  1.00  0.00    -0.352 N 
ATOM      3  O   UNL A   1      40.563  21.434  26.119  1.00  0.00    -0.269 OA
ATOM      4  C   UNL A   1      39.633  22.245  26.165  1.00  0.00     0.251 C 
ATOM      5  H   UNL A   1      38.699  21.171  24.806  1.00  0.00     0.163 HD
BRANCH   4   6
ATOM      6  C   UNL A   1      39.813  23.503  26.941  1.00  0.00     0.039 A 
ATOM      7  C   UNL A   1      38.968  24.613  26.908  1.00  0.00     0.014 A 
ATOM      8  C   UNL A   1      40.984  23.576  27.720  1.00  0.00     0.014 A 
ATOM      9  C   UNL A   1      39.333  25.799  27.544  1.00  0.00     0.010 A 
ATOM     10  C   UNL A   1      41.345  24.749  28.373  1.00  0.00     0.010 A 
ATOM     11  C   UNL A   1      40.538  25.876  28.246  1.00  0.00    -0.014 A 
BRANCH  11  12
ATOM     12  C   UNL A   1      40.855  27.118  28.947  1.00  0.00     0.031 A 
ATOM     13  C   UNL A   1      41.977  27.905  28.350  1.00  0.00     0.074 A 
ATOM     14  C   UNL A   1      40.100  27.615  29.948  1.00  0.00     0.049 A 
ATOM     15  N   UNL A   1      43.096  28.262  28.891  1.00  0.00    -0.248 NA
ATOM     16  C   UNL A   1      41.876  28.242  26.920  1.00  0.00     0.031 C 
ATOM     17  C   UNL A   1      38.807  27.120  30.428  1.00  0.00     0.029 A 
ATOM     18  N   UNL A   1      40.282  28.749  30.681  1.00  0.00    -0.354 N 
ATOM     19  C   UNL A   1      43.752  29.046  27.939  1.00  0.00     0.074 A 
ATOM     20  C   UNL A   1      43.034  28.863  26.707  1.00  0.00     0.031 C 
ATOM     21  C   UNL A   1      38.225  28.067  31.197  1.00  0.00     0.029 A 
ATOM     22  C   UNL A   1      39.150  29.174  31.369  1.00  0.00     0.049 A 
ATOM     23  H   UNL A   1      41.142  29.228  30.720  1.00  0.00     0.167 HD
ATOM     24  C   UNL A   1      44.708  29.955  28.285  1.00  0.00     0.037 A 
ATOM     25  C   UNL A   1      38.965  30.379  31.969  1.00  0.00     0.037 A 
ATOM     26  C   UNL A   1      45.249  29.672  29.589  1.00  0.00     0.049 A 
ATOM     27  C   UNL A   1      40.308  30.974  32.194  1.00  0.00     0.074 A 
ATOM     28  C   UNL A   1      45.908  28.600  30.159  1.00  0.00     0.029 A 
ATOM     29  N   UNL A   1      44.848  30.457  30.642  1.00  0.00    -0.354 N 
ATOM     30  N   UNL A   1      41.195  30.486  33.017  1.00  0.00    -0.248 NA
ATOM     31  C   UNL A   1      40.831  31.867  31.171  1.00  0.00     0.031 C 
ATOM     32  C   UNL A   1      45.427  28.541  31.499  1.00  0.00     0.029 A 
ATOM     33  C   UNL A   1      44.549  29.612  31.678  1.00  0.00     0.049 A 
ATOM     34  H   UNL A   1      44.786  31.440  30.651  1.00  0.00     0.167 HD
ATOM     35  C   UNL A   1      42.412  30.664  32.375  1.00  0.00     0.074 A 
ATOM     36  C   UNL A   1      42.133  31.596  31.285  1.00  0.00     0.031 C 
ATOM     37  C   UNL A   1      43.470  29.834  32.613  1.00  0.00     0.037 A 
BRANCH  24  38
ATOM     38  C   UNL A   1      44.893  31.303  27.613  1.00  0.00     0.058 A 
ATOM     39  C   UNL A   1      46.060  31.537  26.851  1.00  0.00     0.135 A 
ATOM     40  C   UNL A   1      44.143  32.457  27.931  1.00  0.00     0.135 A 
ATOM     41  F   UNL A   1      46.845  30.518  26.468  1.00  0.00    -0.206 F 
ATOM     42  C   UNL A   1      46.508  32.822  26.540  1.00  0.00     0.059 A 
ATOM     43  C   UNL A   1      44.544  33.742  27.584  1.00  0.00     0.059 A 
ATOM     44  F   UNL A   1      43.034  32.411  28.678  1.00  0.00    -0.206 F 
ATOM     45  C   UNL A   1      45.753  33.920  26.938  1.00  0.00     0.060 A 
BRANCH  45  46
ATOM     46  S   UNL A   1      46.403  35.580  26.680  1.00  0.00     0.124 S 
ATOM     47  O   UNL A   1      45.178  36.361  26.608  1.00  0.00    -0.237 OA
ATOM     48  O   UNL A   1      47.223  35.773  27.870  1.00  0.00    -0.237 OA
ATOM     49  O   UNL A   1      47.149  35.453  25.426  1.00  0.00    -0.744 OA
ENDBRANCH  45  46
ENDBRANCH  24  38
BRANCH  25  50
ATOM     50  C   UNL A   1      37.715  31.187  32.022  1.00  0.00     0.058 A 
ATOM     51  C   UNL A   1      37.150  31.593  33.245  1.00  0.00     0.135 A 
ATOM     52  C   UNL A   1      37.201  31.813  30.867  1.00  0.00     0.135 A 
ATOM     53  F   UNL A   1      37.596  31.072  34.398  1.00  0.00    -0.206 F 
ATOM     54  C   UNL A   1      36.164  32.586  33.322  1.00  0.00     0.059 A 
ATOM     55  C   UNL A   1      36.212  32.794  30.917  1.00  0.00     0.059 A 
ATOM     56  F   UNL A   1      37.712  31.555  29.655  1.00  0.00    -0.206 F 
ATOM     57  C   UNL A   1      35.713  33.194  32.150  1.00  0.00     0.060 A 
BRANCH  57  58
ATOM     58  S   UNL A   1      34.561  34.586  32.248  1.00  0.00     0.124 S 
ATOM     59  O   UNL A   1      34.336  34.891  30.840  1.00  0.00    -0.237 OA
ATOM     60  O   UNL A   1      33.431  34.002  32.963  1.00  0.00    -0.237 OA
ATOM     61  O   UNL A   1      35.311  35.594  32.992  1.00  0.00    -0.744 OA
ENDBRANCH  57  58
ENDBRANCH  25  50
BRANCH  37  62
ATOM     62  C   UNL A   1      43.402  28.902  33.793  1.00  0.00     0.058 A 
ATOM     63  C   UNL A   1      43.729  29.269  35.111  1.00  0.00     0.135 A 
ATOM     64  C   UNL A   1      42.813  27.642  33.607  1.00  0.00     0.135 A 
ATOM     65  F   UNL A   1      44.198  30.492  35.391  1.00  0.00    -0.206 F 
ATOM     66  C   UNL A   1      43.508  28.409  36.189  1.00  0.00     0.059 A 
ATOM     67  C   UNL A   1      42.554  26.782  34.669  1.00  0.00     0.059 A 
ATOM     68  F   UNL A   1      42.420  27.258  32.380  1.00  0.00    -0.206 F 
ATOM     69  C   UNL A   1      42.912  27.169  35.959  1.00  0.00     0.060 A 
BRANCH  69  70
ATOM     70  S   UNL A   1      42.526  26.108  37.368  1.00  0.00     0.124 S 
ATOM     71  O   UNL A   1      41.131  26.440  37.629  1.00  0.00    -0.237 OA
ATOM     72  O   UNL A   1      42.771  24.771  36.833  1.00  0.00    -0.237 OA
ATOM     73  O   UNL A   1      43.475  26.541  38.392  1.00  0.00    -0.744 OA
ENDBRANCH  69  70
ENDBRANCH  37  62
ENDBRANCH  11  12
ENDBRANCH   4   6
ENDBRANCH   1   2
BRANCH   1  74
ATOM     74  C   UNL A   1      36.663  22.653  23.913  1.00  0.00     0.042 C 
BRANCH  74  75
ATOM     75  C   UNL A   1      35.150  22.545  23.748  1.00  0.00     0.118 C 
BRANCH  75  76
ATOM     76  N   UNL A   1      34.458  22.481  25.027  1.00  0.00    -0.352 N 
ATOM     77  C   UNL A   1      33.455  21.658  25.442  1.00  0.00     0.251 C 
ATOM     78  H   UNL A   1      34.763  23.135  25.698  1.00  0.00     0.163 HD
ATOM     79  O   UNL A   1      32.851  21.908  26.497  1.00  0.00    -0.269 OA
BRANCH  77  80
ATOM     80  C   UNL A   1      33.058  20.464  24.677  1.00  0.00     0.045 A 
ATOM     81  C   UNL A   1      32.390  20.575  23.460  1.00  0.00     0.034 A 
ATOM     82  C   UNL A   1      33.498  19.218  25.128  1.00  0.00     0.063 A 
ATOM     83  C   UNL A   1      32.183  19.419  22.736  1.00  0.00     0.114 A 
ATOM     84  C   UNL A   1      33.265  18.109  24.323  1.00  0.00     0.157 A 
ATOM     85  N   UNL A   1      32.627  18.205  23.128  1.00  0.00    -0.237 NA
BRANCH  84  86
ATOM     86  N   UNL A   1      33.737  16.836  24.733  1.00  0.00    -0.182 N 
ATOM     87  C   UNL A   1      35.029  16.404  24.893  1.00  0.00     0.254 A 
ATOM     88  N   UNL A   1      32.914  15.798  25.010  1.00  0.00    -0.039 NA
ATOM     89  N   UNL A   1      35.027  15.124  25.186  1.00  0.00    -0.117 NA
ATOM     90  N   UNL A   1      33.707  14.760  25.246  1.00  0.00    -0.024 NA
ENDBRANCH  84  86
ENDBRANCH  77  80
ENDBRANCH  75  76
ENDBRANCH  74  75
ENDBRANCH   1  74
TORSDOF 14
ENDMDL
MODEL 3
REMARK VINA RESULT:     -12.7      3.922      9.692
REMARK SMILES O=C(NCCCNC(=O)c1ccnc(-n2cnnn2)c1)c1ccc(-c2c3nc(c(-c4c(F)cc(S(=O)(=O)[O-])cc4F)c4ccc([nH]4)c(-c4c(F)cc(S(=O)(=O)[O-])cc4F)c4nc(c(-c5c(F)cc(S(=O)(=O)[O-])cc5F)c5ccc2[nH]5)C=C4)C=C3)cc1
REMARK SMILES IDX 4 1 3 2 1 3 2 4 21 6 22 7 86 8 23 9 85 10 24 11 25 12 26 13
REMARK SMILES IDX 79 14 27 15 84 16 78 17 80 18 28 19 83 20 77 21 76 22 29 24
REMARK SMILES IDX 63 25 42 26 62 27 43 28 46 29 61 30 81 31 44 32 45 33 60 35
REMARK SMILES IDX 82 36 47 37 30 38 31 39 40 40 32 41 33 42 39 43 41 44 34 45
REMARK SMILES IDX 35 46 36 47 37 48 38 49 64 50 65 51 74 52 66 53 67 54 73 55
REMARK SMILES IDX 75 56 68 57 69 58 70 59 71 60 72 61 48 62 49 63 58 64 50 65
REMARK SMILES IDX 51 66 57 67 59 68 52 69 53 70 54 71 55 72 56 73 5 74 6 75
REMARK SMILES IDX 7 76 8 77 9 79 10 80 11 81 20 82 12 83 14 84 13 85 15 86
REMARK SMILES IDX 16 87 19 88 17 89 18 90
REMARK H PARENT 3 5 80 23 46 34 7 78
REMARK Flexibility Score: inf
ROOT
ATOM      1  C   UNL A   1      37.322  22.544  25.098  1.00  0.00     0.118 C 
ENDROOT
BRANCH   1   2
ATOM      2  N   UNL A   1      38.622  21.956  25.342  1.00  0.00    -0.352 N 
ATOM      3  O   UNL A   1      40.528  21.358  26.267  1.00  0.00    -0.269 OA
ATOM      4  C   UNL A   1      39.654  22.228  26.197  1.00  0.00     0.251 C 
ATOM      5  H   UNL A   1      38.806  21.184  24.760  1.00  0.00     0.163 HD
BRANCH   4   6
ATOM      6  C   UNL A   1      39.831  23.489  26.969  1.00  0.00     0.039 A 
ATOM      7  C   UNL A   1      38.963  24.581  26.961  1.00  0.00     0.014 A 
ATOM      8  C   UNL A   1      41.022  23.586  27.714  1.00  0.00     0.014 A 
ATOM      9  C   UNL A   1      39.322  25.774  27.587  1.00  0.00     0.010 A 
ATOM     10  C   UNL A   1      41.378  24.766  28.357  1.00  0.00     0.010 A 
ATOM     11  C   UNL A   1      40.545  25.875  28.254  1.00  0.00    -0.014 A 
BRANCH  11  12
ATOM     12  C   UNL A   1      40.857  27.124  28.947  1.00  0.00     0.031 A 
ATOM     13  C   UNL A   1      41.986  27.902  28.355  1.00  0.00     0.074 A 
ATOM     14  C   UNL A   1      40.091  27.632  29.934  1.00  0.00     0.049 A 
ATOM     15  N   UNL A   1      43.100  28.262  28.906  1.00  0.00    -0.248 NA
ATOM     16  C   UNL A   1      41.903  28.225  26.921  1.00  0.00     0.031 C 
ATOM     17  C   UNL A   1      38.791  27.144  30.404  1.00  0.00     0.029 A 
ATOM     18  N   UNL A   1      40.267  28.773  30.658  1.00  0.00    -0.354 N 
ATOM     19  C   UNL A   1      43.769  29.036  27.954  1.00  0.00     0.074 A 
ATOM     20  C   UNL A   1      43.065  28.842  26.715  1.00  0.00     0.031 C 
ATOM     21  C   UNL A   1      38.202  28.100  31.157  1.00  0.00     0.029 A 
ATOM     22  C   UNL A   1      39.128  29.206  31.329  1.00  0.00     0.049 A 
ATOM     23  H   UNL A   1      41.127  29.250  30.703  1.00  0.00     0.167 HD
ATOM     24  C   UNL A   1      44.722  29.947  28.302  1.00  0.00     0.037 A 
ATOM     25  C   UNL A   1      38.939  30.417  31.915  1.00  0.00     0.037 A 
ATOM     26  C   UNL A   1      45.248  29.675  29.615  1.00  0.00     0.049 A 
ATOM     27  C   UNL A   1      40.280  31.012  32.150  1.00  0.00     0.074 A 
ATOM     28  C   UNL A   1      45.898  28.607  30.202  1.00  0.00     0.029 A 
ATOM     29  N   UNL A   1      44.836  30.471  30.655  1.00  0.00    -0.354 N 
ATOM     30  N   UNL A   1      41.157  30.530  32.988  1.00  0.00    -0.248 NA
ATOM     31  C   UNL A   1      40.816  31.894  31.125  1.00  0.00     0.031 C 
ATOM     32  C   UNL A   1      45.401  28.562  31.538  1.00  0.00     0.029 A 
ATOM     33  C   UNL A   1      44.524  29.636  31.696  1.00  0.00     0.049 A 
ATOM     34  H   UNL A   1      44.777  31.454  30.655  1.00  0.00     0.167 HD
ATOM     35  C   UNL A   1      42.381  30.700  32.359  1.00  0.00     0.074 A 
ATOM     36  C   UNL A   1      42.117  31.622  31.256  1.00  0.00     0.031 C 
ATOM     37  C   UNL A   1      43.435  29.869  32.616  1.00  0.00     0.037 A 
BRANCH  24  38
ATOM     38  C   UNL A   1      44.918  31.288  27.619  1.00  0.00     0.058 A 
ATOM     39  C   UNL A   1      46.098  31.515  26.875  1.00  0.00     0.135 A 
ATOM     40  C   UNL A   1      44.161  32.444  27.912  1.00  0.00     0.135 A 
ATOM     41  F   UNL A   1      46.890  30.492  26.516  1.00  0.00    -0.206 F 
ATOM     42  C   UNL A   1      46.550  32.796  26.558  1.00  0.00     0.059 A 
ATOM     43  C   UNL A   1      44.567  33.726  27.559  1.00  0.00     0.059 A 
ATOM     44  F   UNL A   1      43.040  32.405  28.641  1.00  0.00    -0.206 F 
ATOM     45  C   UNL A   1      45.788  33.898  26.932  1.00  0.00     0.060 A 
BRANCH  45  46
ATOM     46  S   UNL A   1      46.441  35.556  26.667  1.00  0.00     0.124 S 
ATOM     47  O   UNL A   1      45.227  36.299  26.367  1.00  0.00    -0.237 OA
ATOM     48  O   UNL A   1      47.072  35.841  27.950  1.00  0.00    -0.237 OA
ATOM     49  O   UNL A   1      47.366  35.373  25.548  1.00  0.00    -0.744 OA
ENDBRANCH  45  46
ENDBRANCH  24  38
BRANCH  25  50
ATOM     50  C   UNL A   1      37.689  31.228  31.946  1.00  0.00     0.058 A 
ATOM     51  C   UNL A   1      37.072  31.587  33.159  1.00  0.00     0.135 A 
ATOM     52  C   UNL A   1      37.229  31.904  30.796  1.00  0.00     0.135 A 
ATOM     53  F   UNL A   1      37.465  31.017  34.308  1.00  0.00    -0.206 F 
ATOM     54  C   UNL A   1      36.087  32.580  33.233  1.00  0.00     0.059 A 
ATOM     55  C   UNL A   1      36.242  32.887  30.844  1.00  0.00     0.059 A 
ATOM     56  F   UNL A   1      37.793  31.693  29.598  1.00  0.00    -0.206 F 
ATOM     57  C   UNL A   1      35.690  33.238  32.068  1.00  0.00     0.060 A 
BRANCH  57  58
ATOM     58  S   UNL A   1      34.539  34.630  32.172  1.00  0.00     0.124 S 
ATOM     59  O   UNL A   1      35.321  35.614  32.911  1.00  0.00    -0.237 OA
ATOM     60  O   UNL A   1      34.294  34.934  30.766  1.00  0.00    -0.237 OA
ATOM     61  O   UNL A   1      33.397  34.072  32.894  1.00  0.00    -0.744 OA
ENDBRANCH  57  58
ENDBRANCH  25  50
BRANCH  37  62
ATOM     62  C   UNL A   1      43.351  28.949  33.805  1.00  0.00     0.058 A 
ATOM     63  C   UNL A   1      43.625  29.338  35.128  1.00  0.00     0.135 A 
ATOM     64  C   UNL A   1      42.800  27.672  33.614  1.00  0.00     0.135 A 
ATOM     65  F   UNL A   1      44.055  30.576  35.409  1.00  0.00    -0.206 F 
ATOM     66  C   UNL A   1      43.391  28.485  36.208  1.00  0.00     0.059 A 
ATOM     67  C   UNL A   1      42.528  26.818  34.678  1.00  0.00     0.059 A 
ATOM     68  F   UNL A   1      42.458  27.266  32.379  1.00  0.00    -0.206 F 
ATOM     69  C   UNL A   1      42.834  27.228  35.974  1.00  0.00     0.060 A 
BRANCH  69  70
ATOM     70  S   UNL A   1      42.428  26.173  37.382  1.00  0.00     0.124 S 
ATOM     71  O   UNL A   1      43.312  26.692  38.419  1.00  0.00    -0.237 OA
ATOM     72  O   UNL A   1      41.004  26.434  37.572  1.00  0.00    -0.237 OA
ATOM     73  O   UNL A   1      42.746  24.829  36.904  1.00  0.00    -0.744 OA
ENDBRANCH  69  70
ENDBRANCH  37  62
ENDBRANCH  11  12
ENDBRANCH   4   6
ENDBRANCH   1   2
BRANCH   1  74
ATOM     74  C   UNL A   1      36.225  21.549  24.713  1.00  0.00     0.042 C 
BRANCH  74  75
ATOM     75  C   UNL A   1      35.308  21.124  25.857  1.00  0.00     0.118 C 
BRANCH  75  76
ATOM     76  N   UNL A   1      34.243  20.238  25.410  1.00  0.00    -0.352 N 
ATOM     77  C   UNL A   1      32.939  20.508  25.126  1.00  0.00     0.251 C 
ATOM     78  H   UNL A   1      34.507  19.296  25.297  1.00  0.00     0.163 HD
ATOM     79  O   UNL A   1      32.137  19.573  24.972  1.00  0.00    -0.269 OA
BRANCH  77  80
ATOM     80  C   UNL A   1      32.439  21.886  24.988  1.00  0.00     0.045 A 
ATOM     81  C   UNL A   1      31.706  22.493  26.006  1.00  0.00     0.034 A 
ATOM     82  C   UNL A   1      32.842  22.624  23.874  1.00  0.00     0.063 A 
ATOM     83  C   UNL A   1      31.400  23.832  25.862  1.00  0.00     0.114 A 
ATOM     84  C   UNL A   1      32.507  23.972  23.822  1.00  0.00     0.157 A 
ATOM     85  N   UNL A   1      31.805  24.580  24.814  1.00  0.00    -0.237 NA
BRANCH  84  86
ATOM     86  N   UNL A   1      32.939  24.759  22.724  1.00  0.00    -0.182 N 
ATOM     87  C   UNL A   1      33.428  26.041  22.720  1.00  0.00     0.254 A 
ATOM     88  N   UNL A   1      32.894  24.326  21.443  1.00  0.00    -0.039 NA
ATOM     89  N   UNL A   1      33.612  26.431  21.479  1.00  0.00    -0.117 NA
ATOM     90  N   UNL A   1      33.268  25.358  20.699  1.00  0.00    -0.024 NA
ENDBRANCH  84  86
ENDBRANCH  77  80
ENDBRANCH  75  76
ENDBRANCH  74  75
ENDBRANCH   1  74
TORSDOF 14
ENDMDL
