MODEL 1
REMARK VINA RESULT:     -12.9      0.000      0.000
REMARK SMILES O=C(C[C@@H](c1ccc(Cl)c(Cl)c1)N1Cc2ccccc2C1=O)NCCCNC(=O)c1ccc(-c2c3nc(c(-c4c(F)cc(S(=O)(=O)[O-])cc4F)c4ccc([nH]4)c(-c4c(F)cc(S(=O)(=O)[O-])cc4F)c4nc(c(-c5c(F)cc(S(=O)(=O)[O-])cc5F)c5ccc2[nH]5)C=C4)C=C3)cc1
REMARK SMILES IDX 25 1 24 2 23 3 1 4 2 5 3 7 4 8 5 9 6 10 12 11 7 12 10 13
REMARK SMILES IDX 8 14 11 15 9 16 13 17 14 18 21 19 15 20 20 21 22 22 16 23
REMARK SMILES IDX 19 24 17 25 18 26 26 27 27 28 28 29 29 31 30 32 31 33 95 34
REMARK SMILES IDX 32 35 94 36 33 37 34 38 35 39 88 40 36 41 93 42 87 43 89 44
REMARK SMILES IDX 37 45 92 46 86 47 85 48 38 50 72 51 51 52 71 53 52 54 55 55
REMARK SMILES IDX 70 56 90 57 53 58 54 59 69 61 91 62 56 63 39 64 40 65 49 66
REMARK SMILES IDX 41 67 42 68 48 69 50 70 43 71 44 72 45 73 46 74 47 75 73 76
REMARK SMILES IDX 74 77 83 78 75 79 76 80 82 81 84 82 77 83 78 84 79 85 80 86
REMARK SMILES IDX 81 87 57 88 58 89 67 90 59 91 60 92 66 93 68 94 61 95 62 96
REMARK SMILES IDX 63 97 64 98 65 99
REMARK H PARENT 23 6 27 30 89 49 55 60
REMARK Flexibility Score: inf
ROOT
ATOM      1  C   UNL A   1      40.385  22.266  27.463  1.00  0.00     0.042 C 
ENDROOT
BRANCH   1   2
ATOM      2  C   UNL A   1      39.663  21.945  26.159  1.00  0.00     0.117 C 
BRANCH   2   3
ATOM      3  N   UNL A   1      38.224  21.958  26.325  1.00  0.00    -0.356 N 
ATOM      4  O   UNL A   1      37.869  24.110  25.606  1.00  0.00    -0.275 OA
ATOM      5  C   UNL A   1      37.435  23.038  26.014  1.00  0.00     0.222 C 
ATOM      6  H   UNL A   1      37.789  21.150  26.681  1.00  0.00     0.163 HD
BRANCH   5   7
ATOM      7  C   UNL A   1      35.954  22.816  26.244  1.00  0.00     0.130 C 
BRANCH   7   8
ATOM      8  C   UNL A   1      35.125  22.945  24.952  1.00  0.00     0.125 C 
BRANCH   8   9
ATOM      9  C   UNL A   1      34.358  21.656  24.642  1.00  0.00    -0.023 A 
ATOM     10  C   UNL A   1      33.090  21.728  24.043  1.00  0.00     0.007 A 
ATOM     11  C   UNL A   1      34.917  20.389  24.876  1.00  0.00     0.028 A 
ATOM     12  C   UNL A   1      32.418  20.568  23.649  1.00  0.00     0.022 A 
ATOM     13  C   UNL A   1      34.249  19.226  24.473  1.00  0.00     0.060 A 
ATOM     14  C   UNL A   1      32.999  19.314  23.854  1.00  0.00     0.059 A 
ATOM     15  Cl  UNL A   1      35.055  17.718  24.718  1.00  0.00    -0.083 Cl
ATOM     16  Cl  UNL A   1      32.136  17.926  23.306  1.00  0.00    -0.083 Cl
ENDBRANCH   8   9
BRANCH   8  17
ATOM     17  N   UNL A   1      34.210  24.090  24.952  1.00  0.00    -0.327 N 
ATOM     18  C   UNL A   1      33.526  24.603  26.133  1.00  0.00     0.157 C 
ATOM     19  C   UNL A   1      33.955  24.858  23.825  1.00  0.00     0.255 C 
ATOM     20  C   UNL A   1      32.780  25.778  25.598  1.00  0.00    -0.016 A 
ATOM     21  C   UNL A   1      33.024  25.916  24.233  1.00  0.00     0.045 A 
ATOM     22  O   UNL A   1      34.406  24.728  22.701  1.00  0.00    -0.269 OA
ATOM     23  C   UNL A   1      31.960  26.677  26.257  1.00  0.00     0.006 A 
ATOM     24  C   UNL A   1      32.460  26.922  23.472  1.00  0.00     0.014 A 
ATOM     25  C   UNL A   1      31.382  27.710  25.510  1.00  0.00     0.000 A 
ATOM     26  C   UNL A   1      31.625  27.828  24.129  1.00  0.00     0.001 A 
ENDBRANCH   8  17
ENDBRANCH   7   8
ENDBRANCH   5   7
ENDBRANCH   2   3
ENDBRANCH   1   2
BRANCH   1  27
ATOM     27  C   UNL A   1      41.642  23.123  27.315  1.00  0.00     0.118 C 
BRANCH  27  28
ATOM     28  N   UNL A   1      41.593  24.026  26.178  1.00  0.00    -0.352 N 
ATOM     29  C   UNL A   1      41.303  25.369  26.132  1.00  0.00     0.251 C 
ATOM     30  H   UNL A   1      41.799  23.614  25.308  1.00  0.00     0.163 HD
ATOM     31  O   UNL A   1      41.156  25.906  25.038  1.00  0.00    -0.269 OA
BRANCH  29  32
ATOM     32  C   UNL A   1      41.127  26.158  27.377  1.00  0.00     0.039 A 
ATOM     33  C   UNL A   1      42.081  27.131  27.685  1.00  0.00     0.014 A 
ATOM     34  C   UNL A   1      40.054  25.945  28.248  1.00  0.00     0.014 A 
ATOM     35  C   UNL A   1      41.928  27.923  28.826  1.00  0.00     0.010 A 
ATOM     36  C   UNL A   1      39.858  26.794  29.340  1.00  0.00     0.010 A 
ATOM     37  C   UNL A   1      40.794  27.792  29.646  1.00  0.00    -0.014 A 
BRANCH  37  38
ATOM     38  C   UNL A   1      40.590  28.710  30.802  1.00  0.00     0.031 A 
ATOM     39  C   UNL A   1      41.428  28.588  32.049  1.00  0.00     0.074 A 
ATOM     40  C   UNL A   1      39.628  29.654  30.735  1.00  0.00     0.049 A 
ATOM     41  N   UNL A   1      41.414  29.329  33.128  1.00  0.00    -0.248 NA
ATOM     42  C   UNL A   1      42.392  27.478  32.103  1.00  0.00     0.031 C 
ATOM     43  C   UNL A   1      38.704  29.838  29.614  1.00  0.00     0.029 A 
ATOM     44  N   UNL A   1      39.271  30.641  31.620  1.00  0.00    -0.354 N 
ATOM     45  C   UNL A   1      42.361  28.779  33.985  1.00  0.00     0.074 A 
ATOM     46  C   UNL A   1      42.885  27.602  33.326  1.00  0.00     0.031 C 
ATOM     47  C   UNL A   1      37.918  30.900  29.858  1.00  0.00     0.029 A 
ATOM     48  C   UNL A   1      38.253  31.450  31.167  1.00  0.00     0.049 A 
ATOM     49  H   UNL A   1      39.702  30.760  32.497  1.00  0.00     0.167 HD
ATOM     50  C   UNL A   1      42.776  29.225  35.196  1.00  0.00     0.037 A 
ATOM     51  C   UNL A   1      37.658  32.518  31.735  1.00  0.00     0.037 A 
ATOM     52  C   UNL A   1      42.258  30.404  35.845  1.00  0.00     0.049 A 
ATOM     53  C   UNL A   1      38.140  32.996  33.079  1.00  0.00     0.074 A 
ATOM     54  C   UNL A   1      42.650  30.967  37.048  1.00  0.00     0.029 A 
ATOM     55  N   UNL A   1      41.232  31.198  35.352  1.00  0.00    -0.354 N 
ATOM     56  N   UNL A   1      39.091  32.506  33.838  1.00  0.00    -0.248 NA
ATOM     57  C   UNL A   1      37.478  34.184  33.634  1.00  0.00     0.031 C 
ATOM     58  C   UNL A   1      41.824  32.066  37.309  1.00  0.00     0.029 A 
ATOM     59  C   UNL A   1      40.961  32.230  36.238  1.00  0.00     0.049 A 
ATOM     60  H   UNL A   1      40.764  31.051  34.498  1.00  0.00     0.167 HD
ATOM     61  C   UNL A   1      39.160  33.342  34.948  1.00  0.00     0.074 A 
ATOM     62  C   UNL A   1      38.169  34.380  34.747  1.00  0.00     0.031 C 
ATOM     63  C   UNL A   1      39.969  33.257  36.034  1.00  0.00     0.037 A 
BRANCH  50  64
ATOM     64  C   UNL A   1      43.848  28.436  35.904  1.00  0.00     0.058 A 
ATOM     65  C   UNL A   1      45.213  28.712  35.720  1.00  0.00     0.135 A 
ATOM     66  C   UNL A   1      43.507  27.422  36.815  1.00  0.00     0.135 A 
ATOM     67  F   UNL A   1      45.601  29.662  34.853  1.00  0.00    -0.206 F 
ATOM     68  C   UNL A   1      46.200  27.993  36.387  1.00  0.00     0.059 A 
ATOM     69  C   UNL A   1      44.476  26.711  37.518  1.00  0.00     0.059 A 
ATOM     70  F   UNL A   1      42.219  27.115  37.035  1.00  0.00    -0.206 F 
ATOM     71  C   UNL A   1      45.821  26.995  37.287  1.00  0.00     0.060 A 
BRANCH  71  72
ATOM     72  S   UNL A   1      47.115  26.079  38.152  1.00  0.00     0.124 S 
ATOM     73  O   UNL A   1      47.367  24.982  37.223  1.00  0.00    -0.237 OA
ATOM     74  O   UNL A   1      48.178  27.073  38.262  1.00  0.00    -0.237 OA
ATOM     75  O   UNL A   1      46.481  25.701  39.411  1.00  0.00    -0.744 OA
ENDBRANCH  71  72
ENDBRANCH  50  64
BRANCH  51  76
ATOM     76  C   UNL A   1      36.559  33.225  31.022  1.00  0.00     0.058 A 
ATOM     77  C   UNL A   1      35.225  33.107  31.444  1.00  0.00     0.135 A 
ATOM     78  C   UNL A   1      36.819  34.036  29.906  1.00  0.00     0.135 A 
ATOM     79  F   UNL A   1      34.921  32.338  32.501  1.00  0.00    -0.206 F 
ATOM     80  C   UNL A   1      34.188  33.749  30.774  1.00  0.00     0.059 A 
ATOM     81  C   UNL A   1      35.804  34.712  29.239  1.00  0.00     0.059 A 
ATOM     82  F   UNL A   1      38.078  34.197  29.472  1.00  0.00    -0.206 F 
ATOM     83  C   UNL A   1      34.488  34.553  29.673  1.00  0.00     0.060 A 
BRANCH  83  84
ATOM     84  S   UNL A   1      33.141  35.417  28.838  1.00  0.00     0.124 S 
ATOM     85  O   UNL A   1      33.868  36.412  28.059  1.00  0.00    -0.237 OA
ATOM     86  O   UNL A   1      32.514  34.342  28.076  1.00  0.00    -0.237 OA
ATOM     87  O   UNL A   1      32.342  35.940  29.943  1.00  0.00    -0.744 OA
ENDBRANCH  83  84
ENDBRANCH  51  76
BRANCH  63  88
ATOM     88  C   UNL A   1      39.842  34.342  37.072  1.00  0.00     0.058 A 
ATOM     89  C   UNL A   1      39.007  34.205  38.193  1.00  0.00     0.135 A 
ATOM     90  C   UNL A   1      40.573  35.535  36.946  1.00  0.00     0.135 A 
ATOM     91  F   UNL A   1      38.284  33.087  38.365  1.00  0.00    -0.206 F 
ATOM     92  C   UNL A   1      38.861  35.230  39.122  1.00  0.00     0.059 A 
ATOM     93  C   UNL A   1      40.471  36.560  37.883  1.00  0.00     0.059 A 
ATOM     94  F   UNL A   1      41.400  35.716  35.904  1.00  0.00    -0.206 F 
ATOM     95  C   UNL A   1      39.594  36.407  38.955  1.00  0.00     0.060 A 
BRANCH  95  96
ATOM     96  S   UNL A   1      39.385  37.735  40.160  1.00  0.00     0.124 S 
ATOM     97  O   UNL A   1      40.669  38.422  40.064  1.00  0.00    -0.237 OA
ATOM     98  O   UNL A   1      38.237  38.462  39.629  1.00  0.00    -0.237 OA
ATOM     99  O   UNL A   1      39.146  37.024  41.412  1.00  0.00    -0.744 OA
ENDBRANCH  95  96
ENDBRANCH  63  88
ENDBRANCH  37  38
ENDBRANCH  29  32
ENDBRANCH  27  28
ENDBRANCH   1  27
TORSDOF 16
ENDMDL
MODEL 2
REMARK VINA RESULT:     -12.7      1.605      3.117
REMARK SMILES O=C(C[C@@H](c1ccc(Cl)c(Cl)c1)N1Cc2ccccc2C1=O)NCCCNC(=O)c1ccc(-c2c3nc(c(-c4c(F)cc(S(=O)(=O)[O-])cc4F)c4ccc([nH]4)c(-c4c(F)cc(S(=O)(=O)[O-])cc4F)c4nc(c(-c5c(F)cc(S(=O)(=O)[O-])cc5F)c5ccc2[nH]5)C=C4)C=C3)cc1
REMARK SMILES IDX 25 1 24 2 23 3 1 4 2 5 3 7 4 8 5 9 6 10 12 11 7 12 10 13
REMARK SMILES IDX 8 14 11 15 9 16 13 17 14 18 21 19 15 20 20 21 22 22 16 23
REMARK SMILES IDX 19 24 17 25 18 26 26 27 27 28 28 29 29 31 30 32 31 33 95 34
REMARK SMILES IDX 32 35 94 36 33 37 34 38 35 39 88 40 36 41 93 42 87 43 89 44
REMARK SMILES IDX 37 45 92 46 86 47 85 48 38 50 72 51 51 52 71 53 52 54 55 55
REMARK SMILES IDX 70 56 90 57 53 58 54 59 69 61 91 62 56 63 39 64 40 65 49 66
REMARK SMILES IDX 41 67 42 68 48 69 50 70 43 71 44 72 45 73 46 74 47 75 73 76
REMARK SMILES IDX 74 77 83 78 75 79 76 80 82 81 84 82 77 83 78 84 79 85 80 86
REMARK SMILES IDX 81 87 57 88 58 89 67 90 59 91 60 92 66 93 68 94 61 95 62 96
REMARK SMILES IDX 63 97 64 98 65 99
REMARK H PARENT 23 6 27 30 89 49 55 60
REMARK Flexibility Score: inf
ROOT
ATOM      1  C   UNL A   1      40.086  22.599  27.456  1.00  0.00     0.042 C 
ENDROOT
BRANCH   1   2
ATOM      2  C   UNL A   1      39.351  22.118  26.210  1.00  0.00     0.117 C 
BRANCH   2   3
ATOM      3  N   UNL A   1      38.263  23.005  25.854  1.00  0.00    -0.356 N 
ATOM      4  O   UNL A   1      37.142  21.550  24.475  1.00  0.00    -0.275 OA
ATOM      5  C   UNL A   1      37.228  22.641  25.027  1.00  0.00     0.222 C 
ATOM      6  H   UNL A   1      38.264  23.916  26.224  1.00  0.00     0.163 HD
BRANCH   5   7
ATOM      7  C   UNL A   1      36.187  23.722  24.817  1.00  0.00     0.130 C 
BRANCH   7   8
ATOM      8  C   UNL A   1      34.897  23.470  25.621  1.00  0.00     0.125 C 
BRANCH   8   9
ATOM      9  C   UNL A   1      33.936  24.660  25.534  1.00  0.00    -0.023 A 
ATOM     10  C   UNL A   1      34.383  25.876  24.994  1.00  0.00     0.007 A 
ATOM     11  C   UNL A   1      32.589  24.550  25.916  1.00  0.00     0.028 A 
ATOM     12  C   UNL A   1      33.498  26.941  24.802  1.00  0.00     0.022 A 
ATOM     13  C   UNL A   1      31.699  25.613  25.714  1.00  0.00     0.060 A 
ATOM     14  C   UNL A   1      32.152  26.810  25.152  1.00  0.00     0.059 A 
ATOM     15  Cl  UNL A   1      30.042  25.355  26.128  1.00  0.00    -0.083 Cl
ATOM     16  Cl  UNL A   1      31.106  28.146  24.848  1.00  0.00    -0.083 Cl
ENDBRANCH   8   9
BRANCH   8  17
ATOM     17  N   UNL A   1      34.205  22.233  25.248  1.00  0.00    -0.327 N 
ATOM     18  C   UNL A   1      33.712  21.931  23.910  1.00  0.00     0.157 C 
ATOM     19  C   UNL A   1      34.010  21.178  26.129  1.00  0.00     0.255 C 
ATOM     20  C   UNL A   1      33.152  20.558  24.067  1.00  0.00    -0.016 A 
ATOM     21  C   UNL A   1      33.316  20.123  25.381  1.00  0.00     0.045 A 
ATOM     22  O   UNL A   1      34.347  21.093  27.296  1.00  0.00    -0.269 OA
ATOM     23  C   UNL A   1      32.556  19.734  23.128  1.00  0.00     0.006 A 
ATOM     24  C   UNL A   1      32.887  18.884  25.817  1.00  0.00     0.014 A 
ATOM     25  C   UNL A   1      32.120  18.470  23.542  1.00  0.00     0.000 A 
ATOM     26  C   UNL A   1      32.278  18.051  24.877  1.00  0.00     0.001 A 
ENDBRANCH   8  17
ENDBRANCH   7   8
ENDBRANCH   5   7
ENDBRANCH   2   3
ENDBRANCH   1   2
BRANCH   1  27
ATOM     27  C   UNL A   1      41.522  23.069  27.223  1.00  0.00     0.118 C 
BRANCH  27  28
ATOM     28  N   UNL A   1      41.650  23.996  26.111  1.00  0.00    -0.352 N 
ATOM     29  C   UNL A   1      41.489  25.361  26.080  1.00  0.00     0.251 C 
ATOM     30  H   UNL A   1      41.889  23.584  25.250  1.00  0.00     0.163 HD
ATOM     31  O   UNL A   1      41.483  25.932  24.992  1.00  0.00    -0.269 OA
BRANCH  29  32
ATOM     32  C   UNL A   1      41.282  26.137  27.327  1.00  0.00     0.039 A 
ATOM     33  C   UNL A   1      42.282  27.028  27.727  1.00  0.00     0.014 A 
ATOM     34  C   UNL A   1      40.136  25.991  28.114  1.00  0.00     0.014 A 
ATOM     35  C   UNL A   1      42.106  27.808  28.873  1.00  0.00     0.010 A 
ATOM     36  C   UNL A   1      39.925  26.833  29.210  1.00  0.00     0.010 A 
ATOM     37  C   UNL A   1      40.909  27.749  29.606  1.00  0.00    -0.014 A 
BRANCH  37  38
ATOM     38  C   UNL A   1      40.691  28.658  30.767  1.00  0.00     0.031 A 
ATOM     39  C   UNL A   1      41.525  28.538  32.016  1.00  0.00     0.074 A 
ATOM     40  C   UNL A   1      39.720  29.593  30.701  1.00  0.00     0.049 A 
ATOM     41  N   UNL A   1      41.499  29.272  33.100  1.00  0.00    -0.248 NA
ATOM     42  C   UNL A   1      42.500  27.437  32.067  1.00  0.00     0.031 C 
ATOM     43  C   UNL A   1      38.799  29.775  29.577  1.00  0.00     0.029 A 
ATOM     44  N   UNL A   1      39.349  30.572  31.591  1.00  0.00    -0.354 N 
ATOM     45  C   UNL A   1      42.448  28.726  33.958  1.00  0.00     0.074 A 
ATOM     46  C   UNL A   1      42.987  27.559  33.294  1.00  0.00     0.031 C 
ATOM     47  C   UNL A   1      38.001  30.827  29.824  1.00  0.00     0.029 A 
ATOM     48  C   UNL A   1      38.325  31.373  31.137  1.00  0.00     0.049 A 
ATOM     49  H   UNL A   1      39.776  30.690  32.470  1.00  0.00     0.167 HD
ATOM     50  C   UNL A   1      42.853  29.169  35.173  1.00  0.00     0.037 A 
ATOM     51  C   UNL A   1      37.717  32.431  31.710  1.00  0.00     0.037 A 
ATOM     52  C   UNL A   1      42.321  30.339  35.826  1.00  0.00     0.049 A 
ATOM     53  C   UNL A   1      38.189  32.907  33.058  1.00  0.00     0.074 A 
ATOM     54  C   UNL A   1      42.702  30.899  37.034  1.00  0.00     0.029 A 
ATOM     55  N   UNL A   1      41.289  31.126  35.334  1.00  0.00    -0.354 N 
ATOM     56  N   UNL A   1      39.141  32.421  33.818  1.00  0.00    -0.248 NA
ATOM     57  C   UNL A   1      37.513  34.084  33.618  1.00  0.00     0.031 C 
ATOM     58  C   UNL A   1      41.864  31.988  37.298  1.00  0.00     0.029 A 
ATOM     59  C   UNL A   1      41.004  32.149  36.225  1.00  0.00     0.049 A 
ATOM     60  H   UNL A   1      40.826  30.979  34.477  1.00  0.00     0.167 HD
ATOM     61  C   UNL A   1      39.197  33.251  34.934  1.00  0.00     0.074 A 
ATOM     62  C   UNL A   1      38.197  34.281  34.735  1.00  0.00     0.031 C 
ATOM     63  C   UNL A   1      40.003  33.168  36.022  1.00  0.00     0.037 A 
BRANCH  50  64
ATOM     64  C   UNL A   1      43.931  28.387  35.881  1.00  0.00     0.058 A 
ATOM     65  C   UNL A   1      45.281  28.769  35.824  1.00  0.00     0.135 A 
ATOM     66  C   UNL A   1      43.604  27.267  36.664  1.00  0.00     0.135 A 
ATOM     67  F   UNL A   1      45.655  29.824  35.082  1.00  0.00    -0.206 F 
ATOM     68  C   UNL A   1      46.271  28.055  36.492  1.00  0.00     0.059 A 
ATOM     69  C   UNL A   1      44.574  26.556  37.367  1.00  0.00     0.059 A 
ATOM     70  F   UNL A   1      42.330  26.855  36.759  1.00  0.00    -0.206 F 
ATOM     71  C   UNL A   1      45.907  26.950  37.263  1.00  0.00     0.060 A 
BRANCH  71  72
ATOM     72  S   UNL A   1      47.203  26.041  38.132  1.00  0.00     0.124 S 
ATOM     73  O   UNL A   1      47.748  27.074  39.006  1.00  0.00    -0.237 OA
ATOM     74  O   UNL A   1      46.448  24.983  38.796  1.00  0.00    -0.237 OA
ATOM     75  O   UNL A   1      48.086  25.598  37.059  1.00  0.00    -0.744 OA
ENDBRANCH  71  72
ENDBRANCH  50  64
BRANCH  51  76
ATOM     76  C   UNL A   1      36.614  33.131  30.996  1.00  0.00     0.058 A 
ATOM     77  C   UNL A   1      35.282  33.011  31.421  1.00  0.00     0.135 A 
ATOM     78  C   UNL A   1      36.868  33.938  29.877  1.00  0.00     0.135 A 
ATOM     79  F   UNL A   1      34.983  32.245  32.482  1.00  0.00    -0.206 F 
ATOM     80  C   UNL A   1      34.241  33.646  30.751  1.00  0.00     0.059 A 
ATOM     81  C   UNL A   1      35.850  34.609  29.209  1.00  0.00     0.059 A 
ATOM     82  F   UNL A   1      38.126  34.102  29.438  1.00  0.00    -0.206 F 
ATOM     83  C   UNL A   1      34.536  34.447  29.647  1.00  0.00     0.060 A 
BRANCH  83  84
ATOM     84  S   UNL A   1      33.183  35.303  28.811  1.00  0.00     0.124 S 
ATOM     85  O   UNL A   1      32.425  35.827  29.940  1.00  0.00    -0.237 OA
ATOM     86  O   UNL A   1      33.897  36.290  28.007  1.00  0.00    -0.237 OA
ATOM     87  O   UNL A   1      32.532  34.240  28.051  1.00  0.00    -0.744 OA
ENDBRANCH  83  84
ENDBRANCH  51  76
BRANCH  63  88
ATOM     88  C   UNL A   1      39.860  34.245  37.067  1.00  0.00     0.058 A 
ATOM     89  C   UNL A   1      39.072  34.069  38.216  1.00  0.00     0.135 A 
ATOM     90  C   UNL A   1      40.529  35.472  36.918  1.00  0.00     0.135 A 
ATOM     91  F   UNL A   1      38.409  32.918  38.410  1.00  0.00    -0.206 F 
ATOM     92  C   UNL A   1      38.910  35.086  39.151  1.00  0.00     0.059 A 
ATOM     93  C   UNL A   1      40.411  36.490  37.859  1.00  0.00     0.059 A 
ATOM     94  F   UNL A   1      41.310  35.692  35.848  1.00  0.00    -0.206 F 
ATOM     95  C   UNL A   1      39.580  36.296  38.961  1.00  0.00     0.060 A 
BRANCH  95  96
ATOM     96  S   UNL A   1      39.351  37.612  40.175  1.00  0.00     0.124 S 
ATOM     97  O   UNL A   1      38.998  36.852  41.369  1.00  0.00    -0.237 OA
ATOM     98  O   UNL A   1      40.662  38.252  40.195  1.00  0.00    -0.237 OA
ATOM     99  O   UNL A   1      38.276  38.418  39.603  1.00  0.00    -0.744 OA
ENDBRANCH  95  96
ENDBRANCH  63  88
ENDBRANCH  37  38
ENDBRANCH  29  32
ENDBRANCH  27  28
ENDBRANCH   1  27
TORSDOF 16
ENDMDL
MODEL 3
REMARK VINA RESULT:     -12.4      6.601     12.016
REMARK SMILES O=C(C[C@@H](c1ccc(Cl)c(Cl)c1)N1Cc2ccccc2C1=O)NCCCNC(=O)c1ccc(-c2c3nc(c(-c4c(F)cc(S(=O)(=O)[O-])cc4F)c4ccc([nH]4)c(-c4c(F)cc(S(=O)(=O)[O-])cc4F)c4nc(c(-c5c(F)cc(S(=O)(=O)[O-])cc5F)c5ccc2[nH]5)C=C4)C=C3)cc1
REMARK SMILES IDX 25 1 24 2 23 3 1 4 2 5 3 7 4 8 5 9 6 10 12 11 7 12 10 13
REMARK SMILES IDX 8 14 11 15 9 16 13 17 14 18 21 19 15 20 20 21 22 22 16 23
REMARK SMILES IDX 19 24 17 25 18 26 26 27 27 28 28 29 29 31 30 32 31 33 95 34
REMARK SMILES IDX 32 35 94 36 33 37 34 38 35 39 88 40 36 41 93 42 87 43 89 44
REMARK SMILES IDX 37 45 92 46 86 47 85 48 38 50 72 51 51 52 71 53 52 54 55 55
REMARK SMILES IDX 70 56 90 57 53 58 54 59 69 61 91 62 56 63 39 64 40 65 49 66
REMARK SMILES IDX 41 67 42 68 48 69 50 70 43 71 44 72 45 73 46 74 47 75 73 76
REMARK SMILES IDX 74 77 83 78 75 79 76 80 82 81 84 82 77 83 78 84 79 85 80 86
REMARK SMILES IDX 81 87 57 88 58 89 67 90 59 91 60 92 66 93 68 94 61 95 62 96
REMARK SMILES IDX 63 97 64 98 65 99
REMARK H PARENT 23 6 27 30 89 49 55 60
REMARK Flexibility Score: inf
ROOT
ATOM      1  C   UNL A   1      35.230  31.887  27.735  1.00  0.00     0.042 C 
ENDROOT
BRANCH   1   2
ATOM      2  C   UNL A   1      33.886  31.219  28.003  1.00  0.00     0.117 C 
BRANCH   2   3
ATOM      3  N   UNL A   1      33.912  29.810  27.673  1.00  0.00    -0.356 N 
ATOM      4  O   UNL A   1      31.698  29.605  27.099  1.00  0.00    -0.275 OA
ATOM      5  C   UNL A   1      32.815  29.115  27.225  1.00  0.00     0.222 C 
ATOM      6  H   UNL A   1      34.761  29.323  27.775  1.00  0.00     0.163 HD
BRANCH   5   7
ATOM      7  C   UNL A   1      33.083  27.656  26.915  1.00  0.00     0.130 C 
BRANCH   7   8
ATOM      8  C   UNL A   1      33.249  27.388  25.408  1.00  0.00     0.125 C 
BRANCH   8   9
ATOM      9  C   UNL A   1      33.606  25.925  25.130  1.00  0.00    -0.023 A 
ATOM     10  C   UNL A   1      34.013  25.541  23.843  1.00  0.00     0.007 A 
ATOM     11  C   UNL A   1      33.606  24.958  26.150  1.00  0.00     0.028 A 
ATOM     12  C   UNL A   1      34.449  24.237  23.590  1.00  0.00     0.022 A 
ATOM     13  C   UNL A   1      34.053  23.655  25.899  1.00  0.00     0.060 A 
ATOM     14  C   UNL A   1      34.480  23.294  24.619  1.00  0.00     0.059 A 
ATOM     15  Cl  UNL A   1      34.105  22.560  27.235  1.00  0.00    -0.083 Cl
ATOM     16  Cl  UNL A   1      35.071  21.716  24.249  1.00  0.00    -0.083 Cl
ENDBRANCH   8   9
BRANCH   8  17
ATOM     17  N   UNL A   1      32.086  27.785  24.609  1.00  0.00    -0.327 N 
ATOM     18  C   UNL A   1      30.746  27.232  24.765  1.00  0.00     0.157 C 
ATOM     19  C   UNL A   1      32.128  28.795  23.658  1.00  0.00     0.255 C 
ATOM     20  C   UNL A   1      29.952  28.003  23.765  1.00  0.00    -0.016 A 
ATOM     21  C   UNL A   1      30.774  28.914  23.104  1.00  0.00     0.045 A 
ATOM     22  O   UNL A   1      33.075  29.486  23.327  1.00  0.00    -0.269 OA
ATOM     23  C   UNL A   1      28.604  27.931  23.464  1.00  0.00     0.006 A 
ATOM     24  C   UNL A   1      30.306  29.763  22.120  1.00  0.00     0.014 A 
ATOM     25  C   UNL A   1      28.103  28.787  22.476  1.00  0.00     0.000 A 
ATOM     26  C   UNL A   1      28.948  29.691  21.805  1.00  0.00     0.001 A 
ENDBRANCH   8  17
ENDBRANCH   7   8
ENDBRANCH   5   7
ENDBRANCH   2   3
ENDBRANCH   1   2
BRANCH   1  27
ATOM     27  C   UNL A   1      36.041  32.239  28.981  1.00  0.00     0.118 C 
BRANCH  27  28
ATOM     28  N   UNL A   1      35.809  31.333  30.093  1.00  0.00    -0.352 N 
ATOM     29  C   UNL A   1      36.582  30.295  30.560  1.00  0.00     0.251 C 
ATOM     30  H   UNL A   1      34.972  31.486  30.589  1.00  0.00     0.163 HD
ATOM     31  O   UNL A   1      36.116  29.549  31.417  1.00  0.00    -0.269 OA
BRANCH  29  32
ATOM     32  C   UNL A   1      37.939  30.045  30.015  1.00  0.00     0.039 A 
ATOM     33  C   UNL A   1      39.001  29.920  30.915  1.00  0.00     0.014 A 
ATOM     34  C   UNL A   1      38.185  29.950  28.643  1.00  0.00     0.014 A 
ATOM     35  C   UNL A   1      40.287  29.642  30.444  1.00  0.00     0.010 A 
ATOM     36  C   UNL A   1      39.453  29.588  28.180  1.00  0.00     0.010 A 
ATOM     37  C   UNL A   1      40.521  29.433  29.074  1.00  0.00    -0.014 A 
BRANCH  37  38
ATOM     38  C   UNL A   1      41.876  29.038  28.594  1.00  0.00     0.031 A 
ATOM     39  C   UNL A   1      43.000  30.039  28.527  1.00  0.00     0.074 A 
ATOM     40  C   UNL A   1      42.092  27.766  28.198  1.00  0.00     0.049 A 
ATOM     41  N   UNL A   1      44.248  29.856  28.176  1.00  0.00    -0.248 NA
ATOM     42  C   UNL A   1      42.679  31.432  28.876  1.00  0.00     0.031 C 
ATOM     43  C   UNL A   1      41.074  26.713  28.152  1.00  0.00     0.029 A 
ATOM     44  N   UNL A   1      43.234  27.137  27.769  1.00  0.00    -0.354 N 
ATOM     45  C   UNL A   1      44.859  31.103  28.263  1.00  0.00     0.074 A 
ATOM     46  C   UNL A   1      43.828  32.047  28.636  1.00  0.00     0.031 C 
ATOM     47  C   UNL A   1      41.646  25.562  27.763  1.00  0.00     0.029 A 
ATOM     48  C   UNL A   1      43.061  25.799  27.495  1.00  0.00     0.049 A 
ATOM     49  H   UNL A   1      44.097  27.599  27.667  1.00  0.00     0.167 HD
ATOM     50  C   UNL A   1      46.162  31.428  28.075  1.00  0.00     0.037 A 
ATOM     51  C   UNL A   1      43.939  24.865  27.080  1.00  0.00     0.037 A 
ATOM     52  C   UNL A   1      47.188  30.483  27.713  1.00  0.00     0.049 A 
ATOM     53  C   UNL A   1      45.381  25.250  26.883  1.00  0.00     0.074 A 
ATOM     54  C   UNL A   1      48.545  30.705  27.551  1.00  0.00     0.029 A 
ATOM     55  N   UNL A   1      46.973  29.137  27.448  1.00  0.00    -0.354 N 
ATOM     56  N   UNL A   1      45.952  26.420  27.045  1.00  0.00    -0.248 NA
ATOM     57  C   UNL A   1      46.300  24.184  26.463  1.00  0.00     0.031 C 
ATOM     58  C   UNL A   1      49.141  29.509  27.134  1.00  0.00     0.029 A 
ATOM     59  C   UNL A   1      48.167  28.524  27.101  1.00  0.00     0.049 A 
ATOM     60  H   UNL A   1      46.101  28.683  27.501  1.00  0.00     0.167 HD
ATOM     61  C   UNL A   1      47.303  26.223  26.773  1.00  0.00     0.074 A 
ATOM     62  C   UNL A   1      47.463  24.818  26.459  1.00  0.00     0.031 C 
ATOM     63  C   UNL A   1      48.317  27.125  26.784  1.00  0.00     0.037 A 
BRANCH  50  64
ATOM     64  C   UNL A   1      46.557  32.872  28.260  1.00  0.00     0.058 A 
ATOM     65  C   UNL A   1      46.472  33.803  27.212  1.00  0.00     0.135 A 
ATOM     66  C   UNL A   1      46.983  33.341  29.514  1.00  0.00     0.135 A 
ATOM     67  F   UNL A   1      46.083  33.409  25.988  1.00  0.00    -0.206 F 
ATOM     68  C   UNL A   1      46.822  35.138  27.390  1.00  0.00     0.059 A 
ATOM     69  C   UNL A   1      47.308  34.679  29.724  1.00  0.00     0.059 A 
ATOM     70  F   UNL A   1      47.082  32.500  30.555  1.00  0.00    -0.206 F 
ATOM     71  C   UNL A   1      47.237  35.567  28.652  1.00  0.00     0.060 A 
BRANCH  71  72
ATOM     72  S   UNL A   1      47.677  37.305  28.868  1.00  0.00     0.124 S 
ATOM     73  O   UNL A   1      49.046  37.324  28.361  1.00  0.00    -0.237 OA
ATOM     74  O   UNL A   1      46.686  37.982  28.038  1.00  0.00    -0.237 OA
ATOM     75  O   UNL A   1      47.538  37.516  30.305  1.00  0.00    -0.744 OA
ENDBRANCH  71  72
ENDBRANCH  50  64
BRANCH  51  76
ATOM     76  C   UNL A   1      43.485  23.466  26.849  1.00  0.00     0.058 A 
ATOM     77  C   UNL A   1      43.296  22.967  25.551  1.00  0.00     0.135 A 
ATOM     78  C   UNL A   1      43.233  22.597  27.922  1.00  0.00     0.135 A 
ATOM     79  F   UNL A   1      43.516  23.759  24.490  1.00  0.00    -0.206 F 
ATOM     80  C   UNL A   1      42.855  21.668  25.324  1.00  0.00     0.059 A 
ATOM     81  C   UNL A   1      42.822  21.284  27.721  1.00  0.00     0.059 A 
ATOM     82  F   UNL A   1      43.414  23.017  29.184  1.00  0.00    -0.206 F 
ATOM     83  C   UNL A   1      42.623  20.831  26.418  1.00  0.00     0.060 A 
BRANCH  83  84
ATOM     84  S   UNL A   1      42.093  19.132  26.112  1.00  0.00     0.124 S 
ATOM     85  O   UNL A   1      40.662  19.304  25.897  1.00  0.00    -0.237 OA
ATOM     86  O   UNL A   1      42.878  18.774  24.935  1.00  0.00    -0.237 OA
ATOM     87  O   UNL A   1      42.469  18.438  27.340  1.00  0.00    -0.744 OA
ENDBRANCH  83  84
ENDBRANCH  51  76
BRANCH  63  88
ATOM     88  C   UNL A   1      49.700  26.607  26.481  1.00  0.00     0.058 A 
ATOM     89  C   UNL A   1      50.185  26.502  25.168  1.00  0.00     0.135 A 
ATOM     90  C   UNL A   1      50.555  26.214  27.524  1.00  0.00     0.135 A 
ATOM     91  F   UNL A   1      49.412  26.862  24.131  1.00  0.00    -0.206 F 
ATOM     92  C   UNL A   1      51.446  25.980  24.895  1.00  0.00     0.059 A 
ATOM     93  C   UNL A   1      51.834  25.723  27.279  1.00  0.00     0.059 A 
ATOM     94  F   UNL A   1      50.152  26.307  28.802  1.00  0.00    -0.206 F 
ATOM     95  C   UNL A   1      52.261  25.588  25.959  1.00  0.00     0.060 A 
BRANCH  95  96
ATOM     96  S   UNL A   1      53.889  24.899  25.593  1.00  0.00     0.124 S 
ATOM     97  O   UNL A   1      53.546  23.547  25.163  1.00  0.00    -0.237 OA
ATOM     98  O   UNL A   1      54.379  25.791  24.547  1.00  0.00    -0.237 OA
ATOM     99  O   UNL A   1      54.593  24.993  26.869  1.00  0.00    -0.744 OA
ENDBRANCH  95  96
ENDBRANCH  63  88
ENDBRANCH  37  38
ENDBRANCH  29  32
ENDBRANCH  27  28
ENDBRANCH   1  27
TORSDOF 16
ENDMDL
