MODEL 1
REMARK VINA RESULT:      -9.2      0.000      0.000
REMARK SMILES CC(C)CCOCC[N@@H+]1[C@@H](C(=O)NCCCNC(=O)c2ccc(-c3c4nc(c(-c5c(F)cc(S(=O)(=O)[O-])cc5F)c5ccc([nH]5)c(-c5c(F)cc(S(=O)(=O)[O-])cc5F)c5nc(c(-c6c(F)cc(S(=O)(=O)[O-])cc6F)c6ccc3[nH]6)C=C5)C=C4)cc2)CC[C@H]2CCCC[C@H]21
REMARK SMILES IDX 11 1 12 2 13 3 10 5 9 6 93 7 86 9 88 10 92 11 87 12 89 13
REMARK SMILES IDX 91 14 90 15 8 16 7 17 6 18 5 19 4 20 2 21 1 22 3 23 14 24
REMARK SMILES IDX 15 25 16 26 17 27 18 28 19 30 20 31 21 32 85 33 22 34 84 35
REMARK SMILES IDX 23 36 24 37 25 38 78 39 26 40 83 41 77 42 79 43 27 44 82 45
REMARK SMILES IDX 76 46 75 47 28 49 62 50 41 51 61 52 42 53 45 54 60 55 80 56
REMARK SMILES IDX 43 57 44 58 59 60 81 61 46 62 29 63 30 64 39 65 31 66 32 67
REMARK SMILES IDX 38 68 40 69 33 70 34 71 35 72 36 73 37 74 63 75 64 76 73 77
REMARK SMILES IDX 65 78 66 79 72 80 74 81 67 82 68 83 69 84 70 85 71 86 47 87
REMARK SMILES IDX 48 88 57 89 49 90 50 91 56 92 58 93 51 94 52 95 53 96 54 97
REMARK SMILES IDX 55 98
REMARK H PARENT 13 4 9 8 17 29 79 48 45 59
REMARK Flexibility Score: inf
ROOT
ATOM      1  C   UNL A   1      45.561  24.857  28.231  1.00  0.00     0.278 C 
ATOM      2  O   UNL A   1      46.718  24.437  28.095  1.00  0.00    -0.268 OA
ATOM      3  N   UNL A   1      44.703  23.960  28.752  1.00  0.00    -0.351 N 
ATOM      4  H   UNL A   1      45.116  23.128  29.077  1.00  0.00     0.163 HD
ENDROOT
BRANCH   1   5
ATOM      5  C   UNL A   1      45.185  26.335  27.899  1.00  0.00     0.274 C 
ATOM      6  N   UNL A   1      46.151  26.859  26.917  1.00  0.00    -0.320 N 
ATOM      7  C   UNL A   1      46.360  28.317  26.832  1.00  0.00     0.187 C 
ATOM      8  H   UNL A   1      47.036  26.568  27.332  1.00  0.00     0.349 HD
ATOM      9  C   UNL A   1      44.742  27.254  29.051  1.00  0.00     0.076 C 
ATOM     10  C   UNL A   1      46.065  29.141  28.105  1.00  0.00     0.048 C 
ATOM     11  C   UNL A   1      47.806  28.641  26.411  1.00  0.00     0.065 C 
ATOM     12  C   UNL A   1      44.714  28.731  28.676  1.00  0.00     0.016 C 
ATOM     13  C   UNL A   1      47.132  29.123  29.216  1.00  0.00     0.010 C 
ATOM     14  C   UNL A   1      48.808  28.204  27.471  1.00  0.00     0.006 C 
ATOM     15  C   UNL A   1      48.582  28.885  28.812  1.00  0.00     0.001 C 
BRANCH   6  16
ATOM     16  C   UNL A   1      46.001  26.212  25.572  1.00  0.00     0.291 C 
BRANCH  16  17
ATOM     17  C   UNL A   1      47.139  25.377  24.871  1.00  0.00     0.221 C 
BRANCH  17  18
ATOM     18  O   UNL A   1      47.835  25.906  23.740  1.00  0.00    -0.376 OA
BRANCH  18  19
ATOM     19  C   UNL A   1      49.156  26.383  23.906  1.00  0.00     0.160 C 
BRANCH  19  20
ATOM     20  C   UNL A   1      49.732  27.494  22.982  1.00  0.00     0.031 C 
BRANCH  20  21
ATOM     21  C   UNL A   1      49.985  27.418  21.444  1.00  0.00    -0.015 C 
ATOM     22  C   UNL A   1      48.804  27.043  20.535  1.00  0.00     0.007 C 
ATOM     23  C   UNL A   1      50.323  28.849  20.972  1.00  0.00     0.007 C 
ENDBRANCH  20  21
ENDBRANCH  19  20
ENDBRANCH  18  19
ENDBRANCH  17  18
ENDBRANCH  16  17
ENDBRANCH   6  16
ENDBRANCH   1   5
BRANCH   3  24
ATOM     24  C   UNL A   1      43.279  24.031  28.907  1.00  0.00     0.118 C 
BRANCH  24  25
ATOM     25  C   UNL A   1      42.588  23.280  27.774  1.00  0.00     0.042 C 
BRANCH  25  26
ATOM     26  C   UNL A   1      42.501  24.096  26.487  1.00  0.00     0.118 C 
BRANCH  26  27
ATOM     27  N   UNL A   1      41.142  24.152  25.967  1.00  0.00    -0.352 N 
ATOM     28  C   UNL A   1      40.025  24.742  26.507  1.00  0.00     0.251 C 
ATOM     29  H   UNL A   1      41.002  23.700  25.103  1.00  0.00     0.163 HD
ATOM     30  O   UNL A   1      38.911  24.435  26.105  1.00  0.00    -0.269 OA
BRANCH  28  31
ATOM     31  C   UNL A   1      40.192  25.742  27.579  1.00  0.00     0.039 A 
ATOM     32  C   UNL A   1      41.067  26.813  27.389  1.00  0.00     0.014 A 
ATOM     33  C   UNL A   1      39.474  25.612  28.769  1.00  0.00     0.014 A 
ATOM     34  C   UNL A   1      41.165  27.800  28.373  1.00  0.00     0.010 A 
ATOM     35  C   UNL A   1      39.505  26.636  29.703  1.00  0.00     0.010 A 
ATOM     36  C   UNL A   1      40.354  27.738  29.519  1.00  0.00    -0.014 A 
BRANCH  36  37
ATOM     37  C   UNL A   1      40.370  28.795  30.559  1.00  0.00     0.031 A 
ATOM     38  C   UNL A   1      41.287  28.652  31.742  1.00  0.00     0.074 A 
ATOM     39  C   UNL A   1      39.484  29.809  30.498  1.00  0.00     0.049 A 
ATOM     40  N   UNL A   1      41.327  29.348  32.847  1.00  0.00    -0.248 NA
ATOM     41  C   UNL A   1      42.269  27.555  31.687  1.00  0.00     0.031 C 
ATOM     42  C   UNL A   1      38.527  30.037  29.414  1.00  0.00     0.029 A 
ATOM     43  N   UNL A   1      39.226  30.826  31.385  1.00  0.00    -0.354 N 
ATOM     44  C   UNL A   1      42.314  28.759  33.627  1.00  0.00     0.074 A 
ATOM     45  C   UNL A   1      42.815  27.621  32.891  1.00  0.00     0.031 C 
ATOM     46  C   UNL A   1      37.792  31.124  29.696  1.00  0.00     0.029 A 
ATOM     47  C   UNL A   1      38.185  31.639  31.003  1.00  0.00     0.049 A 
ATOM     48  H   UNL A   1      39.739  30.959  32.216  1.00  0.00     0.167 HD
ATOM     49  C   UNL A   1      42.772  29.146  34.841  1.00  0.00     0.037 A 
ATOM     50  C   UNL A   1      37.596  32.666  31.648  1.00  0.00     0.037 A 
ATOM     51  C   UNL A   1      42.277  30.295  35.552  1.00  0.00     0.049 A 
ATOM     52  C   UNL A   1      38.105  33.064  33.008  1.00  0.00     0.074 A 
ATOM     53  C   UNL A   1      42.705  30.803  36.766  1.00  0.00     0.029 A 
ATOM     54  N   UNL A   1      41.245  31.114  35.115  1.00  0.00    -0.354 N 
ATOM     55  N   UNL A   1      39.070  32.525  33.716  1.00  0.00    -0.248 NA
ATOM     56  C   UNL A   1      37.452  34.210  33.658  1.00  0.00     0.031 C 
ATOM     57  C   UNL A   1      41.896  31.896  37.089  1.00  0.00     0.029 A 
ATOM     58  C   UNL A   1      41.011  32.111  36.045  1.00  0.00     0.049 A 
ATOM     59  H   UNL A   1      40.755  31.001  34.270  1.00  0.00     0.167 HD
ATOM     60  C   UNL A   1      39.169  33.293  34.871  1.00  0.00     0.074 A 
ATOM     61  C   UNL A   1      38.162  34.329  34.772  1.00  0.00     0.031 C 
ATOM     62  C   UNL A   1      40.024  33.157  35.914  1.00  0.00     0.037 A 
BRANCH  49  63
ATOM     63  C   UNL A   1      43.855  28.320  35.480  1.00  0.00     0.058 A 
ATOM     64  C   UNL A   1      45.215  28.561  35.228  1.00  0.00     0.135 A 
ATOM     65  C   UNL A   1      43.531  27.299  36.388  1.00  0.00     0.135 A 
ATOM     66  F   UNL A   1      45.584  29.514  34.357  1.00  0.00    -0.206 F 
ATOM     67  C   UNL A   1      46.213  27.800  35.827  1.00  0.00     0.059 A 
ATOM     68  C   UNL A   1      44.513  26.546  37.025  1.00  0.00     0.059 A 
ATOM     69  F   UNL A   1      42.246  27.024  36.667  1.00  0.00    -0.206 F 
ATOM     70  C   UNL A   1      45.851  26.795  36.727  1.00  0.00     0.060 A 
BRANCH  70  71
ATOM     71  S   UNL A   1      47.160  25.823  37.502  1.00  0.00     0.124 S 
ATOM     72  O   UNL A   1      46.640  25.665  38.856  1.00  0.00    -0.237 OA
ATOM     73  O   UNL A   1      47.174  24.614  36.683  1.00  0.00    -0.237 OA
ATOM     74  O   UNL A   1      48.337  26.676  37.378  1.00  0.00    -0.744 OA
ENDBRANCH  70  71
ENDBRANCH  49  63
BRANCH  50  75
ATOM     75  C   UNL A   1      36.466  33.395  31.010  1.00  0.00     0.058 A 
ATOM     76  C   UNL A   1      36.671  34.183  29.869  1.00  0.00     0.135 A 
ATOM     77  C   UNL A   1      35.159  33.307  31.516  1.00  0.00     0.135 A 
ATOM     78  F   UNL A   1      37.902  34.304  29.349  1.00  0.00    -0.206 F 
ATOM     79  C   UNL A   1      35.627  34.875  29.261  1.00  0.00     0.059 A 
ATOM     80  C   UNL A   1      34.094  33.966  30.910  1.00  0.00     0.059 A 
ATOM     81  F   UNL A   1      34.904  32.551  32.596  1.00  0.00    -0.206 F 
ATOM     82  C   UNL A   1      34.340  34.756  29.788  1.00  0.00     0.060 A 
BRANCH  82  83
ATOM     83  S   UNL A   1      32.985  35.622  28.965  1.00  0.00     0.124 S 
ATOM     84  O   UNL A   1      32.411  34.559  28.149  1.00  0.00    -0.237 OA
ATOM     85  O   UNL A   1      32.178  36.069  30.095  1.00  0.00    -0.237 OA
ATOM     86  O   UNL A   1      33.665  36.685  28.231  1.00  0.00    -0.744 OA
ENDBRANCH  82  83
ENDBRANCH  50  75
BRANCH  62  87
ATOM     87  C   UNL A   1      39.974  34.187  37.008  1.00  0.00     0.058 A 
ATOM     88  C   UNL A   1      40.588  35.441  36.881  1.00  0.00     0.135 A 
ATOM     89  C   UNL A   1      39.200  33.948  38.157  1.00  0.00     0.135 A 
ATOM     90  F   UNL A   1      41.346  35.717  35.809  1.00  0.00    -0.206 F 
ATOM     91  C   UNL A   1      40.435  36.425  37.853  1.00  0.00     0.059 A 
ATOM     92  C   UNL A   1      39.009  34.925  39.126  1.00  0.00     0.059 A 
ATOM     93  F   UNL A   1      38.586  32.765  38.323  1.00  0.00    -0.206 F 
ATOM     94  C   UNL A   1      39.631  36.161  38.966  1.00  0.00     0.060 A 
BRANCH  94  95
ATOM     95  S   UNL A   1      39.373  37.476  40.176  1.00  0.00     0.124 S 
ATOM     96  O   UNL A   1      40.728  37.984  40.355  1.00  0.00    -0.237 OA
ATOM     97  O   UNL A   1      38.450  38.365  39.476  1.00  0.00    -0.237 OA
ATOM     98  O   UNL A   1      38.808  36.775  41.325  1.00  0.00    -0.744 OA
ENDBRANCH  94  95
ENDBRANCH  62  87
ENDBRANCH  36  37
ENDBRANCH  28  31
ENDBRANCH  26  27
ENDBRANCH  25  26
ENDBRANCH  24  25
ENDBRANCH   3  24
TORSDOF 19
ENDMDL
MODEL 2
REMARK VINA RESULT:      -9.2      4.046     11.723
REMARK SMILES CC(C)CCOCC[N@@H+]1[C@@H](C(=O)NCCCNC(=O)c2ccc(-c3c4nc(c(-c5c(F)cc(S(=O)(=O)[O-])cc5F)c5ccc([nH]5)c(-c5c(F)cc(S(=O)(=O)[O-])cc5F)c5nc(c(-c6c(F)cc(S(=O)(=O)[O-])cc6F)c6ccc3[nH]6)C=C5)C=C4)cc2)CC[C@H]2CCCC[C@H]21
REMARK SMILES IDX 11 1 12 2 13 3 10 5 9 6 93 7 86 9 88 10 92 11 87 12 89 13
REMARK SMILES IDX 91 14 90 15 8 16 7 17 6 18 5 19 4 20 2 21 1 22 3 23 14 24
REMARK SMILES IDX 15 25 16 26 17 27 18 28 19 30 20 31 21 32 85 33 22 34 84 35
REMARK SMILES IDX 23 36 24 37 25 38 78 39 26 40 83 41 77 42 79 43 27 44 82 45
REMARK SMILES IDX 76 46 75 47 28 49 62 50 41 51 61 52 42 53 45 54 60 55 80 56
REMARK SMILES IDX 43 57 44 58 59 60 81 61 46 62 29 63 30 64 39 65 31 66 32 67
REMARK SMILES IDX 38 68 40 69 33 70 34 71 35 72 36 73 37 74 63 75 64 76 73 77
REMARK SMILES IDX 65 78 66 79 72 80 74 81 67 82 68 83 69 84 70 85 71 86 47 87
REMARK SMILES IDX 48 88 57 89 49 90 50 91 56 92 58 93 51 94 52 95 53 96 54 97
REMARK SMILES IDX 55 98
REMARK H PARENT 13 4 9 8 17 29 79 48 45 59
REMARK Flexibility Score: inf
ROOT
ATOM      1  C   UNL A   1      36.912  33.488  34.380  1.00  0.00     0.278 C 
ATOM      2  O   UNL A   1      36.193  33.257  35.362  1.00  0.00    -0.268 OA
ATOM      3  N   UNL A   1      36.238  33.658  33.228  1.00  0.00    -0.351 N 
ATOM      4  H   UNL A   1      35.259  33.704  33.320  1.00  0.00     0.163 HD
ENDROOT
BRANCH   1   5
ATOM      5  C   UNL A   1      38.458  33.648  34.521  1.00  0.00     0.274 C 
ATOM      6  N   UNL A   1      38.892  32.977  35.759  1.00  0.00    -0.320 N 
ATOM      7  C   UNL A   1      40.151  33.406  36.399  1.00  0.00     0.187 C 
ATOM      8  H   UNL A   1      38.212  33.334  36.429  1.00  0.00     0.349 HD
ATOM      9  C   UNL A   1      39.088  35.007  34.167  1.00  0.00     0.076 C 
ATOM     10  C   UNL A   1      40.610  34.857  36.133  1.00  0.00     0.048 C 
ATOM     11  C   UNL A   1      40.079  33.228  37.927  1.00  0.00     0.065 C 
ATOM     12  C   UNL A   1      40.529  35.153  34.642  1.00  0.00     0.016 C 
ATOM     13  C   UNL A   1      39.906  35.972  36.930  1.00  0.00     0.010 C 
ATOM     14  C   UNL A   1      39.037  34.149  38.548  1.00  0.00     0.006 C 
ATOM     15  C   UNL A   1      39.326  35.620  38.294  1.00  0.00     0.001 C 
BRANCH   6  16
ATOM     16  C   UNL A   1      38.762  31.485  35.671  1.00  0.00     0.291 C 
BRANCH  16  17
ATOM     17  C   UNL A   1      39.884  30.479  36.134  1.00  0.00     0.221 C 
BRANCH  17  18
ATOM     18  O   UNL A   1      40.154  29.296  35.380  1.00  0.00    -0.376 OA
BRANCH  18  19
ATOM     19  C   UNL A   1      41.416  28.670  35.508  1.00  0.00     0.160 C 
BRANCH  19  20
ATOM     20  C   UNL A   1      41.695  27.282  34.863  1.00  0.00     0.031 C 
BRANCH  20  21
ATOM     21  C   UNL A   1      41.494  25.875  35.505  1.00  0.00    -0.015 C 
ATOM     22  C   UNL A   1      42.515  24.775  35.171  1.00  0.00     0.007 C 
ATOM     23  C   UNL A   1      41.681  26.044  37.029  1.00  0.00     0.007 C 
ENDBRANCH  20  21
ENDBRANCH  19  20
ENDBRANCH  18  19
ENDBRANCH  17  18
ENDBRANCH  16  17
ENDBRANCH   6  16
ENDBRANCH   1   5
BRANCH   3  24
ATOM     24  C   UNL A   1      36.728  33.784  31.886  1.00  0.00     0.118 C 
BRANCH  24  25
ATOM     25  C   UNL A   1      35.569  33.747  30.897  1.00  0.00     0.042 C 
BRANCH  25  26
ATOM     26  C   UNL A   1      34.778  32.442  30.956  1.00  0.00     0.118 C 
BRANCH  26  27
ATOM     27  N   UNL A   1      34.613  31.845  29.638  1.00  0.00    -0.352 N 
ATOM     28  C   UNL A   1      35.545  31.242  28.830  1.00  0.00     0.251 C 
ATOM     29  H   UNL A   1      33.698  31.878  29.273  1.00  0.00     0.163 HD
ATOM     30  O   UNL A   1      35.314  31.074  27.641  1.00  0.00    -0.269 OA
BRANCH  28  31
ATOM     31  C   UNL A   1      36.828  30.809  29.418  1.00  0.00     0.039 A 
ATOM     32  C   UNL A   1      36.852  29.718  30.288  1.00  0.00     0.014 A 
ATOM     33  C   UNL A   1      38.003  31.490  29.099  1.00  0.00     0.014 A 
ATOM     34  C   UNL A   1      38.077  29.262  30.782  1.00  0.00     0.010 A 
ATOM     35  C   UNL A   1      39.225  30.983  29.517  1.00  0.00     0.010 A 
ATOM     36  C   UNL A   1      39.274  29.868  30.367  1.00  0.00    -0.014 A 
BRANCH  36  37
ATOM     37  C   UNL A   1      40.604  29.378  30.807  1.00  0.00     0.031 A 
ATOM     38  C   UNL A   1      41.366  30.151  31.849  1.00  0.00     0.074 A 
ATOM     39  C   UNL A   1      41.167  28.321  30.191  1.00  0.00     0.049 A 
ATOM     40  N   UNL A   1      42.606  30.015  32.236  1.00  0.00    -0.248 NA
ATOM     41  C   UNL A   1      40.643  31.246  32.518  1.00  0.00     0.031 C 
ATOM     42  C   UNL A   1      40.535  27.510  29.148  1.00  0.00     0.029 A 
ATOM     43  N   UNL A   1      42.413  27.761  30.334  1.00  0.00    -0.354 N 
ATOM     44  C   UNL A   1      42.820  31.020  33.172  1.00  0.00     0.074 A 
ATOM     45  C   UNL A   1      41.599  31.788  33.258  1.00  0.00     0.031 C 
ATOM     46  C   UNL A   1      41.393  26.557  28.750  1.00  0.00     0.029 A 
ATOM     47  C   UNL A   1      42.654  26.721  29.467  1.00  0.00     0.049 A 
ATOM     48  H   UNL A   1      43.072  28.077  30.994  1.00  0.00     0.167 HD
ATOM     49  C   UNL A   1      43.931  31.266  33.904  1.00  0.00     0.037 A 
ATOM     50  C   UNL A   1      43.773  26.000  29.255  1.00  0.00     0.037 A 
ATOM     51  C   UNL A   1      45.133  30.479  33.823  1.00  0.00     0.049 A 
ATOM     52  C   UNL A   1      45.004  26.307  30.065  1.00  0.00     0.074 A 
ATOM     53  C   UNL A   1      46.298  30.613  34.556  1.00  0.00     0.029 A 
ATOM     54  N   UNL A   1      45.324  29.411  32.958  1.00  0.00    -0.354 N 
ATOM     55  N   UNL A   1      45.180  27.233  30.978  1.00  0.00    -0.248 NA
ATOM     56  C   UNL A   1      46.191  25.474  29.820  1.00  0.00     0.031 C 
ATOM     57  C   UNL A   1      47.214  29.662  34.096  1.00  0.00     0.029 A 
ATOM     58  C   UNL A   1      46.595  28.891  33.126  1.00  0.00     0.049 A 
ATOM     59  H   UNL A   1      44.654  29.075  32.320  1.00  0.00     0.167 HD
ATOM     60  C   UNL A   1      46.477  27.064  31.448  1.00  0.00     0.074 A 
ATOM     61  C   UNL A   1      47.046  25.952  30.714  1.00  0.00     0.031 C 
ATOM     62  C   UNL A   1      47.133  27.760  32.408  1.00  0.00     0.037 A 
BRANCH  49  63
ATOM     63  C   UNL A   1      43.904  32.436  34.851  1.00  0.00     0.058 A 
ATOM     64  C   UNL A   1      43.682  32.268  36.228  1.00  0.00     0.135 A 
ATOM     65  C   UNL A   1      44.141  33.738  34.383  1.00  0.00     0.135 A 
ATOM     66  F   UNL A   1      43.434  31.047  36.730  1.00  0.00    -0.206 F 
ATOM     67  C   UNL A   1      43.666  33.350  37.100  1.00  0.00     0.059 A 
ATOM     68  C   UNL A   1      44.163  34.832  35.242  1.00  0.00     0.059 A 
ATOM     69  F   UNL A   1      44.359  33.957  33.076  1.00  0.00    -0.206 F 
ATOM     70  C   UNL A   1      43.910  34.630  36.597  1.00  0.00     0.060 A 
BRANCH  70  71
ATOM     71  S   UNL A   1      43.893  36.023  37.745  1.00  0.00     0.124 S 
ATOM     72  O   UNL A   1      43.343  37.083  36.906  1.00  0.00    -0.237 OA
ATOM     73  O   UNL A   1      43.019  35.538  38.808  1.00  0.00    -0.237 OA
ATOM     74  O   UNL A   1      45.296  36.179  38.113  1.00  0.00    -0.744 OA
ENDBRANCH  70  71
ENDBRANCH  49  63
BRANCH  50  75
ATOM     75  C   UNL A   1      43.774  24.911  28.241  1.00  0.00     0.058 A 
ATOM     76  C   UNL A   1      44.210  25.149  26.930  1.00  0.00     0.135 A 
ATOM     77  C   UNL A   1      43.356  23.609  28.563  1.00  0.00     0.135 A 
ATOM     78  F   UNL A   1      44.615  26.377  26.570  1.00  0.00    -0.206 F 
ATOM     79  C   UNL A   1      44.214  24.144  25.967  1.00  0.00     0.059 A 
ATOM     80  C   UNL A   1      43.377  22.581  27.627  1.00  0.00     0.059 A 
ATOM     81  F   UNL A   1      42.946  23.323  29.809  1.00  0.00    -0.206 F 
ATOM     82  C   UNL A   1      43.799  22.860  26.327  1.00  0.00     0.060 A 
BRANCH  82  83
ATOM     83  S   UNL A   1      43.851  21.554  25.082  1.00  0.00     0.124 S 
ATOM     84  O   UNL A   1      42.637  20.808  25.389  1.00  0.00    -0.237 OA
ATOM     85  O   UNL A   1      43.836  22.318  23.838  1.00  0.00    -0.237 OA
ATOM     86  O   UNL A   1      45.105  20.866  25.370  1.00  0.00    -0.744 OA
ENDBRANCH  82  83
ENDBRANCH  50  75
BRANCH  62  87
ATOM     87  C   UNL A   1      48.516  27.308  32.788  1.00  0.00     0.058 A 
ATOM     88  C   UNL A   1      48.742  26.361  33.797  1.00  0.00     0.135 A 
ATOM     89  C   UNL A   1      49.624  27.754  32.046  1.00  0.00     0.135 A 
ATOM     90  F   UNL A   1      47.720  25.910  34.541  1.00  0.00    -0.206 F 
ATOM     91  C   UNL A   1      50.017  25.869  34.057  1.00  0.00     0.059 A 
ATOM     92  C   UNL A   1      50.902  27.255  32.269  1.00  0.00     0.059 A 
ATOM     93  F   UNL A   1      49.461  28.657  31.065  1.00  0.00    -0.206 F 
ATOM     94  C   UNL A   1      51.089  26.312  33.277  1.00  0.00     0.060 A 
BRANCH  94  95
ATOM     95  S   UNL A   1      52.722  25.600  33.570  1.00  0.00     0.124 S 
ATOM     96  O   UNL A   1      53.033  26.110  34.900  1.00  0.00    -0.237 OA
ATOM     97  O   UNL A   1      52.456  24.168  33.485  1.00  0.00    -0.237 OA
ATOM     98  O   UNL A   1      53.531  26.147  32.484  1.00  0.00    -0.744 OA
ENDBRANCH  94  95
ENDBRANCH  62  87
ENDBRANCH  36  37
ENDBRANCH  28  31
ENDBRANCH  26  27
ENDBRANCH  25  26
ENDBRANCH  24  25
ENDBRANCH   3  24
TORSDOF 19
ENDMDL
MODEL 3
REMARK VINA RESULT:      -9.1      1.531      2.809
REMARK SMILES CC(C)CCOCC[N@@H+]1[C@@H](C(=O)NCCCNC(=O)c2ccc(-c3c4nc(c(-c5c(F)cc(S(=O)(=O)[O-])cc5F)c5ccc([nH]5)c(-c5c(F)cc(S(=O)(=O)[O-])cc5F)c5nc(c(-c6c(F)cc(S(=O)(=O)[O-])cc6F)c6ccc3[nH]6)C=C5)C=C4)cc2)CC[C@H]2CCCC[C@H]21
REMARK SMILES IDX 11 1 12 2 13 3 10 5 9 6 93 7 86 9 88 10 92 11 87 12 89 13
REMARK SMILES IDX 91 14 90 15 8 16 7 17 6 18 5 19 4 20 2 21 1 22 3 23 14 24
REMARK SMILES IDX 15 25 16 26 17 27 18 28 19 30 20 31 21 32 85 33 22 34 84 35
REMARK SMILES IDX 23 36 24 37 25 38 78 39 26 40 83 41 77 42 79 43 27 44 82 45
REMARK SMILES IDX 76 46 75 47 28 49 62 50 41 51 61 52 42 53 45 54 60 55 80 56
REMARK SMILES IDX 43 57 44 58 59 60 81 61 46 62 29 63 30 64 39 65 31 66 32 67
REMARK SMILES IDX 38 68 40 69 33 70 34 71 35 72 36 73 37 74 63 75 64 76 73 77
REMARK SMILES IDX 65 78 66 79 72 80 74 81 67 82 68 83 69 84 70 85 71 86 47 87
REMARK SMILES IDX 48 88 57 89 49 90 50 91 56 92 58 93 51 94 52 95 53 96 54 97
REMARK SMILES IDX 55 98
REMARK H PARENT 13 4 9 8 17 29 79 48 45 59
REMARK Flexibility Score: inf
ROOT
ATOM      1  C   UNL A   1      46.526  24.712  26.831  1.00  0.00     0.278 C 
ATOM      2  O   UNL A   1      47.537  24.069  27.145  1.00  0.00    -0.268 OA
ATOM      3  N   UNL A   1      45.890  24.249  25.739  1.00  0.00    -0.351 N 
ATOM      4  H   UNL A   1      46.226  23.390  25.394  1.00  0.00     0.163 HD
ENDROOT
BRANCH   1   5
ATOM      5  C   UNL A   1      46.012  25.901  27.702  1.00  0.00     0.274 C 
ATOM      6  N   UNL A   1      47.125  26.839  27.926  1.00  0.00    -0.320 N 
ATOM      7  C   UNL A   1      47.082  27.729  29.102  1.00  0.00     0.187 C 
ATOM      8  H   UNL A   1      47.872  26.202  28.202  1.00  0.00     0.349 HD
ATOM      9  C   UNL A   1      45.070  25.591  28.879  1.00  0.00     0.076 C 
ATOM     10  C   UNL A   1      46.257  27.244  30.315  1.00  0.00     0.048 C 
ATOM     11  C   UNL A   1      48.503  28.031  29.616  1.00  0.00     0.065 C 
ATOM     12  C   UNL A   1      44.893  26.759  29.843  1.00  0.00     0.016 C 
ATOM     13  C   UNL A   1      46.905  26.185  31.227  1.00  0.00     0.010 C 
ATOM     14  C   UNL A   1      49.183  26.776  30.149  1.00  0.00     0.006 C 
ATOM     15  C   UNL A   1      48.426  26.143  31.306  1.00  0.00     0.001 C 
BRANCH   6  16
ATOM     16  C   UNL A   1      47.527  27.554  26.670  1.00  0.00     0.291 C 
BRANCH  16  17
ATOM     17  C   UNL A   1      46.883  28.910  26.189  1.00  0.00     0.221 C 
BRANCH  17  18
ATOM     18  O   UNL A   1      47.609  30.136  26.299  1.00  0.00    -0.376 OA
BRANCH  18  19
ATOM     19  C   UNL A   1      47.147  31.133  27.190  1.00  0.00     0.160 C 
BRANCH  19  20
ATOM     20  C   UNL A   1      45.998  30.841  28.197  1.00  0.00     0.031 C 
BRANCH  20  21
ATOM     21  C   UNL A   1      44.508  31.293  28.102  1.00  0.00    -0.015 C 
ATOM     22  C   UNL A   1      43.744  30.994  26.803  1.00  0.00     0.007 C 
ATOM     23  C   UNL A   1      43.720  30.470  29.144  1.00  0.00     0.007 C 
ENDBRANCH  20  21
ENDBRANCH  19  20
ENDBRANCH  18  19
ENDBRANCH  17  18
ENDBRANCH  16  17
ENDBRANCH   6  16
ENDBRANCH   1   5
BRANCH   3  24
ATOM     24  C   UNL A   1      44.800  24.814  25.000  1.00  0.00     0.118 C 
BRANCH  24  25
ATOM     25  C   UNL A   1      43.480  24.207  25.463  1.00  0.00     0.042 C 
BRANCH  25  26
ATOM     26  C   UNL A   1      42.397  25.255  25.707  1.00  0.00     0.118 C 
BRANCH  26  27
ATOM     27  N   UNL A   1      41.066  24.667  25.745  1.00  0.00    -0.352 N 
ATOM     28  C   UNL A   1      40.126  24.698  26.746  1.00  0.00     0.251 C 
ATOM     29  H   UNL A   1      40.800  24.173  24.935  1.00  0.00     0.163 HD
ATOM     30  O   UNL A   1      39.196  23.903  26.744  1.00  0.00    -0.269 OA
BRANCH  28  31
ATOM     31  C   UNL A   1      40.261  25.698  27.822  1.00  0.00     0.039 A 
ATOM     32  C   UNL A   1      41.339  26.585  27.806  1.00  0.00     0.014 A 
ATOM     33  C   UNL A   1      39.313  25.752  28.845  1.00  0.00     0.014 A 
ATOM     34  C   UNL A   1      41.423  27.581  28.782  1.00  0.00     0.010 A 
ATOM     35  C   UNL A   1      39.348  26.794  29.759  1.00  0.00     0.010 A 
ATOM     36  C   UNL A   1      40.406  27.716  29.741  1.00  0.00    -0.014 A 
BRANCH  36  37
ATOM     37  C   UNL A   1      40.412  28.798  30.756  1.00  0.00     0.031 A 
ATOM     38  C   UNL A   1      41.317  28.682  31.951  1.00  0.00     0.074 A 
ATOM     39  C   UNL A   1      39.530  29.812  30.661  1.00  0.00     0.049 A 
ATOM     40  N   UNL A   1      41.346  29.404  33.040  1.00  0.00    -0.248 NA
ATOM     41  C   UNL A   1      42.297  27.582  31.933  1.00  0.00     0.031 C 
ATOM     42  C   UNL A   1      38.585  30.014  29.561  1.00  0.00     0.029 A 
ATOM     43  N   UNL A   1      39.264  30.850  31.520  1.00  0.00    -0.354 N 
ATOM     44  C   UNL A   1      42.324  28.833  33.845  1.00  0.00     0.074 A 
ATOM     45  C   UNL A   1      42.830  27.676  33.142  1.00  0.00     0.031 C 
ATOM     46  C   UNL A   1      37.848  31.110  29.809  1.00  0.00     0.029 A 
ATOM     47  C   UNL A   1      38.228  31.656  31.108  1.00  0.00     0.049 A 
ATOM     48  H   UNL A   1      39.768  31.002  32.353  1.00  0.00     0.167 HD
ATOM     49  C   UNL A   1      42.769  29.249  35.053  1.00  0.00     0.037 A 
ATOM     50  C   UNL A   1      37.634  32.699  31.721  1.00  0.00     0.037 A 
ATOM     51  C   UNL A   1      42.269  30.415  35.731  1.00  0.00     0.049 A 
ATOM     52  C   UNL A   1      38.130  33.129  33.076  1.00  0.00     0.074 A 
ATOM     53  C   UNL A   1      42.685  30.952  36.937  1.00  0.00     0.029 A 
ATOM     54  N   UNL A   1      41.244  31.224  35.264  1.00  0.00    -0.354 N 
ATOM     55  N   UNL A   1      39.086  32.605  33.808  1.00  0.00    -0.248 NA
ATOM     56  C   UNL A   1      37.472  34.291  33.692  1.00  0.00     0.031 C 
ATOM     57  C   UNL A   1      41.874  32.054  37.225  1.00  0.00     0.029 A 
ATOM     58  C   UNL A   1      41.001  32.245  36.166  1.00  0.00     0.049 A 
ATOM     59  H   UNL A   1      40.762  31.092  34.416  1.00  0.00     0.167 HD
ATOM     60  C   UNL A   1      39.174  33.401  34.945  1.00  0.00     0.074 A 
ATOM     61  C   UNL A   1      38.170  34.435  34.810  1.00  0.00     0.031 C 
ATOM     62  C   UNL A   1      40.018  33.288  36.000  1.00  0.00     0.037 A 
BRANCH  49  63
ATOM     63  C   UNL A   1      43.844  28.436  35.724  1.00  0.00     0.058 A 
ATOM     64  C   UNL A   1      43.537  27.410  36.633  1.00  0.00     0.135 A 
ATOM     65  C   UNL A   1      45.197  28.657  35.423  1.00  0.00     0.135 A 
ATOM     66  F   UNL A   1      42.260  27.164  36.970  1.00  0.00    -0.206 F 
ATOM     67  C   UNL A   1      44.532  26.656  37.243  1.00  0.00     0.059 A 
ATOM     68  C   UNL A   1      46.209  27.893  35.996  1.00  0.00     0.059 A 
ATOM     69  F   UNL A   1      45.549  29.624  34.561  1.00  0.00    -0.206 F 
ATOM     70  C   UNL A   1      45.867  26.904  36.917  1.00  0.00     0.060 A 
BRANCH  70  71
ATOM     71  S   UNL A   1      47.146  25.910  37.713  1.00  0.00     0.124 S 
ATOM     72  O   UNL A   1      47.563  25.041  36.616  1.00  0.00    -0.237 OA
ATOM     73  O   UNL A   1      48.115  26.921  38.123  1.00  0.00    -0.237 OA
ATOM     74  O   UNL A   1      46.435  25.247  38.801  1.00  0.00    -0.744 OA
ENDBRANCH  70  71
ENDBRANCH  49  63
BRANCH  50  75
ATOM     75  C   UNL A   1      36.513  33.413  31.053  1.00  0.00     0.058 A 
ATOM     76  C   UNL A   1      35.191  33.245  31.488  1.00  0.00     0.135 A 
ATOM     77  C   UNL A   1      36.739  34.289  29.979  1.00  0.00     0.135 A 
ATOM     78  F   UNL A   1      34.921  32.415  32.508  1.00  0.00    -0.206 F 
ATOM     79  C   UNL A   1      34.130  33.902  30.873  1.00  0.00     0.059 A 
ATOM     80  C   UNL A   1      35.699  34.979  29.365  1.00  0.00     0.059 A 
ATOM     81  F   UNL A   1      37.989  34.501  29.534  1.00  0.00    -0.206 F 
ATOM     82  C   UNL A   1      34.395  34.771  29.813  1.00  0.00     0.060 A 
BRANCH  82  83
ATOM     83  S   UNL A   1      33.015  35.652  29.051  1.00  0.00     0.124 S 
ATOM     84  O   UNL A   1      33.708  36.710  28.325  1.00  0.00    -0.237 OA
ATOM     85  O   UNL A   1      32.403  34.610  28.233  1.00  0.00    -0.237 OA
ATOM     86  O   UNL A   1      32.222  36.086  30.196  1.00  0.00    -0.744 OA
ENDBRANCH  82  83
ENDBRANCH  50  75
BRANCH  62  87
ATOM     87  C   UNL A   1      39.958  34.345  37.068  1.00  0.00     0.058 A 
ATOM     88  C   UNL A   1      40.649  35.560  36.956  1.00  0.00     0.135 A 
ATOM     89  C   UNL A   1      39.101  34.176  38.169  1.00  0.00     0.135 A 
ATOM     90  F   UNL A   1      41.488  35.768  35.929  1.00  0.00    -0.206 F 
ATOM     91  C   UNL A   1      40.492  36.572  37.897  1.00  0.00     0.059 A 
ATOM     92  C   UNL A   1      38.905  35.184  39.105  1.00  0.00     0.059 A 
ATOM     93  F   UNL A   1      38.411  33.033  38.319  1.00  0.00    -0.206 F 
ATOM     94  C   UNL A   1      39.606  36.380  38.961  1.00  0.00     0.060 A 
BRANCH  94  95
ATOM     95  S   UNL A   1      39.348  37.735  40.126  1.00  0.00     0.124 S 
ATOM     96  O   UNL A   1      38.186  38.402  39.550  1.00  0.00    -0.237 OA
ATOM     97  O   UNL A   1      39.115  37.026  41.380  1.00  0.00    -0.237 OA
ATOM     98  O   UNL A   1      40.599  38.485  40.058  1.00  0.00    -0.744 OA
ENDBRANCH  94  95
ENDBRANCH  62  87
ENDBRANCH  36  37
ENDBRANCH  28  31
ENDBRANCH  26  27
ENDBRANCH  25  26
ENDBRANCH  24  25
ENDBRANCH   3  24
TORSDOF 19
ENDMDL
