MODEL 1
REMARK VINA RESULT:      -9.9      0.000      0.000
REMARK SMILES C[C@H]1C[C@](C(=O)NCCCNC(=O)c2ccc(-c3c4nc(c(-c5c(F)cc(S(=O)(=O)[O-])cc5F)c5ccc([nH]5)c(-c5c(F)cc(S(=O)(=O)[O-])cc5F)c5nc(c(-c6c(F)cc(S(=O)(=O)[O-])cc6F)c6ccc3[nH]6)C=C5)C=C4)cc2)(N(C=O)C2CC2)CS1
REMARK SMILES IDX 9 1 8 2 7 3 5 4 6 5 4 7 1 8 2 9 3 10 87 11 86 12 80 13 81 14
REMARK SMILES IDX 82 15 83 16 84 17 85 18 10 19 11 20 12 21 13 23 14 24 15 25
REMARK SMILES IDX 79 26 16 27 78 28 17 29 18 30 19 31 72 32 20 33 77 34 71 35
REMARK SMILES IDX 73 36 21 37 76 38 70 39 69 40 22 42 56 43 35 44 55 45 36 46
REMARK SMILES IDX 39 47 54 48 74 49 37 50 38 51 53 53 75 54 40 55 23 56 24 57
REMARK SMILES IDX 33 58 25 59 26 60 32 61 34 62 27 63 28 64 29 65 30 66 31 67
REMARK SMILES IDX 57 68 58 69 67 70 59 71 60 72 66 73 68 74 61 75 62 76 63 77
REMARK SMILES IDX 64 78 65 79 41 80 42 81 51 82 43 83 44 84 50 85 52 86 45 87
REMARK SMILES IDX 46 88 47 89 48 90 49 91
REMARK H PARENT 7 6 11 22 73 41 39 52
REMARK Flexibility Score: inf
ROOT
ATOM      1  C   UNL A   1      35.308  23.029  26.402  1.00  0.00     0.042 C 
ENDROOT
BRANCH   1   2
ATOM      2  C   UNL A   1      34.031  23.226  25.594  1.00  0.00     0.117 C 
BRANCH   2   3
ATOM      3  N   UNL A   1      32.947  23.724  26.428  1.00  0.00    -0.354 N 
ATOM      4  C   UNL A   1      32.136  24.815  26.311  1.00  0.00     0.246 C 
ATOM      5  O   UNL A   1      31.220  24.873  27.137  1.00  0.00    -0.272 OA
ATOM      6  H   UNL A   1      32.766  23.171  27.221  1.00  0.00     0.163 HD
BRANCH   4   7
ATOM      7  C   UNL A   1      32.266  25.846  25.132  1.00  0.00     0.131 C 
ATOM      8  C   UNL A   1      33.775  28.350  27.101  1.00  0.00     0.019 C 
ATOM      9  C   UNL A   1      33.484  28.066  25.631  1.00  0.00     0.046 C 
ATOM     10  C   UNL A   1      33.626  26.585  25.281  1.00  0.00     0.054 C 
ATOM     11  S   UNL A   1      31.806  28.551  25.183  1.00  0.00    -0.156 SA
ATOM     12  C   UNL A   1      31.119  26.878  25.298  1.00  0.00     0.108 C 
BRANCH   7  13
ATOM     13  N   UNL A   1      32.149  25.124  23.799  1.00  0.00    -0.327 N 
BRANCH  13  14
ATOM     14  C   UNL A   1      31.032  24.355  23.452  1.00  0.00     0.341 C 
ATOM     15  O   UNL A   1      31.006  23.130  23.369  1.00  0.00    -0.279 OA
ENDBRANCH  13  14
BRANCH  13  16
ATOM     16  C   UNL A   1      32.986  25.493  22.662  1.00  0.00     0.086 C 
ATOM     17  C   UNL A   1      32.712  25.427  21.189  1.00  0.00     0.027 C 
ATOM     18  C   UNL A   1      32.668  26.750  21.885  1.00  0.00     0.027 C 
ENDBRANCH  13  16
ENDBRANCH   7  13
ENDBRANCH   4   7
ENDBRANCH   2   3
ENDBRANCH   1   2
BRANCH   1  19
ATOM     19  C   UNL A   1      36.561  23.545  25.703  1.00  0.00     0.118 C 
BRANCH  19  20
ATOM     20  N   UNL A   1      37.684  22.627  25.822  1.00  0.00    -0.352 N 
ATOM     21  C   UNL A   1      38.966  22.878  26.260  1.00  0.00     0.251 C 
ATOM     22  H   UNL A   1      37.503  21.698  25.552  1.00  0.00     0.163 HD
ATOM     23  O   UNL A   1      39.839  22.036  26.114  1.00  0.00    -0.269 OA
BRANCH  21  24
ATOM     24  C   UNL A   1      39.276  24.184  26.880  1.00  0.00     0.039 A 
ATOM     25  C   UNL A   1      38.835  24.443  28.180  1.00  0.00     0.014 A 
ATOM     26  C   UNL A   1      40.025  25.138  26.185  1.00  0.00     0.014 A 
ATOM     27  C   UNL A   1      39.214  25.630  28.813  1.00  0.00     0.010 A 
ATOM     28  C   UNL A   1      40.467  26.280  26.845  1.00  0.00     0.010 A 
ATOM     29  C   UNL A   1      40.070  26.536  28.167  1.00  0.00    -0.014 A 
BRANCH  29  30
ATOM     30  C   UNL A   1      40.575  27.757  28.845  1.00  0.00     0.031 A 
ATOM     31  C   UNL A   1      41.950  27.758  29.456  1.00  0.00     0.074 A 
ATOM     32  C   UNL A   1      39.764  28.823  28.998  1.00  0.00     0.049 A 
ATOM     33  N   UNL A   1      42.518  28.663  30.210  1.00  0.00    -0.248 NA
ATOM     34  C   UNL A   1      42.784  26.570  29.212  1.00  0.00     0.031 C 
ATOM     35  C   UNL A   1      38.396  28.927  28.484  1.00  0.00     0.029 A 
ATOM     36  N   UNL A   1      39.962  30.015  29.649  1.00  0.00    -0.354 N 
ATOM     37  C   UNL A   1      43.763  28.146  30.549  1.00  0.00     0.074 A 
ATOM     38  C   UNL A   1      43.848  26.828  29.957  1.00  0.00     0.031 C 
ATOM     39  C   UNL A   1      37.884  30.119  28.832  1.00  0.00     0.029 A 
ATOM     40  C   UNL A   1      38.865  30.844  29.632  1.00  0.00     0.049 A 
ATOM     41  H   UNL A   1      40.811  30.253  30.088  1.00  0.00     0.167 HD
ATOM     42  C   UNL A   1      44.752  28.725  31.270  1.00  0.00     0.037 A 
ATOM     43  C   UNL A   1      38.664  32.044  30.212  1.00  0.00     0.037 A 
ATOM     44  C   UNL A   1      44.667  30.048  31.832  1.00  0.00     0.049 A 
ATOM     45  C   UNL A   1      39.773  32.666  31.016  1.00  0.00     0.074 A 
ATOM     46  C   UNL A   1      45.636  30.748  32.530  1.00  0.00     0.029 A 
ATOM     47  N   UNL A   1      43.550  30.869  31.763  1.00  0.00    -0.354 N 
ATOM     48  N   UNL A   1      40.966  32.186  31.280  1.00  0.00    -0.248 NA
ATOM     49  C   UNL A   1      39.516  33.990  31.600  1.00  0.00     0.031 C 
ATOM     50  C   UNL A   1      45.088  31.971  32.926  1.00  0.00     0.029 A 
ATOM     51  C   UNL A   1      43.799  32.060  32.424  1.00  0.00     0.049 A 
ATOM     52  H   UNL A   1      42.707  30.639  31.311  1.00  0.00     0.167 HD
ATOM     53  C   UNL A   1      41.612  33.163  32.029  1.00  0.00     0.074 A 
ATOM     54  C   UNL A   1      40.680  34.262  32.175  1.00  0.00     0.031 C 
ATOM     55  C   UNL A   1      42.866  33.154  32.543  1.00  0.00     0.037 A 
BRANCH  42  56
ATOM     56  C   UNL A   1      46.010  27.932  31.496  1.00  0.00     0.058 A 
ATOM     57  C   UNL A   1      46.090  26.937  32.484  1.00  0.00     0.135 A 
ATOM     58  C   UNL A   1      47.141  28.145  30.691  1.00  0.00     0.135 A 
ATOM     59  F   UNL A   1      45.045  26.701  33.293  1.00  0.00    -0.206 F 
ATOM     60  C   UNL A   1      47.255  26.204  32.686  1.00  0.00     0.059 A 
ATOM     61  C   UNL A   1      48.307  27.402  30.855  1.00  0.00     0.059 A 
ATOM     62  F   UNL A   1      47.121  29.083  29.731  1.00  0.00    -0.206 F 
ATOM     63  C   UNL A   1      48.359  26.444  31.866  1.00  0.00     0.060 A 
BRANCH  63  64
ATOM     64  S   UNL A   1      49.861  25.483  32.142  1.00  0.00     0.124 S 
ATOM     65  O   UNL A   1      50.073  24.891  30.824  1.00  0.00    -0.237 OA
ATOM     66  O   UNL A   1      50.820  26.510  32.537  1.00  0.00    -0.237 OA
ATOM     67  O   UNL A   1      49.478  24.547  33.195  1.00  0.00    -0.744 OA
ENDBRANCH  63  64
ENDBRANCH  42  56
BRANCH  43  68
ATOM     68  C   UNL A   1      37.361  32.742  30.039  1.00  0.00     0.058 A 
ATOM     69  C   UNL A   1      37.190  33.717  29.045  1.00  0.00     0.135 A 
ATOM     70  C   UNL A   1      36.256  32.434  30.849  1.00  0.00     0.135 A 
ATOM     71  F   UNL A   1      38.218  34.051  28.250  1.00  0.00    -0.206 F 
ATOM     72  C   UNL A   1      35.976  34.374  28.868  1.00  0.00     0.059 A 
ATOM     73  C   UNL A   1      35.024  33.058  30.674  1.00  0.00     0.059 A 
ATOM     74  F   UNL A   1      36.360  31.496  31.803  1.00  0.00    -0.206 F 
ATOM     75  C   UNL A   1      34.897  34.033  29.686  1.00  0.00     0.060 A 
BRANCH  75  76
ATOM     76  S   UNL A   1      33.311  34.853  29.412  1.00  0.00     0.124 S 
ATOM     77  O   UNL A   1      32.620  33.885  28.568  1.00  0.00    -0.237 OA
ATOM     78  O   UNL A   1      32.802  34.995  30.773  1.00  0.00    -0.237 OA
ATOM     79  O   UNL A   1      33.690  36.104  28.760  1.00  0.00    -0.744 OA
ENDBRANCH  75  76
ENDBRANCH  43  68
BRANCH  55  80
ATOM     80  C   UNL A   1      43.336  34.384  33.269  1.00  0.00     0.058 A 
ATOM     81  C   UNL A   1      44.050  35.401  32.619  1.00  0.00     0.135 A 
ATOM     82  C   UNL A   1      42.989  34.583  34.615  1.00  0.00     0.135 A 
ATOM     83  F   UNL A   1      44.415  35.257  31.335  1.00  0.00    -0.206 F 
ATOM     84  C   UNL A   1      44.411  36.571  33.280  1.00  0.00     0.059 A 
ATOM     85  C   UNL A   1      43.314  35.755  35.289  1.00  0.00     0.059 A 
ATOM     86  F   UNL A   1      42.297  33.644  35.281  1.00  0.00    -0.206 F 
ATOM     87  C   UNL A   1      44.031  36.742  34.613  1.00  0.00     0.060 A 
BRANCH  87  88
ATOM     88  S   UNL A   1      44.450  38.291  35.441  1.00  0.00     0.124 S 
ATOM     89  O   UNL A   1      44.031  38.015  36.811  1.00  0.00    -0.237 OA
ATOM     90  O   UNL A   1      45.892  38.379  35.225  1.00  0.00    -0.237 OA
ATOM     91  O   UNL A   1      43.654  39.285  34.728  1.00  0.00    -0.744 OA
ENDBRANCH  87  88
ENDBRANCH  55  80
ENDBRANCH  29  30
ENDBRANCH  21  24
ENDBRANCH  19  20
ENDBRANCH   1  19
TORSDOF 16
ENDMDL
MODEL 2
REMARK VINA RESULT:      -9.9      1.137      2.586
REMARK SMILES C[C@H]1C[C@](C(=O)NCCCNC(=O)c2ccc(-c3c4nc(c(-c5c(F)cc(S(=O)(=O)[O-])cc5F)c5ccc([nH]5)c(-c5c(F)cc(S(=O)(=O)[O-])cc5F)c5nc(c(-c6c(F)cc(S(=O)(=O)[O-])cc6F)c6ccc3[nH]6)C=C5)C=C4)cc2)(N(C=O)C2CC2)CS1
REMARK SMILES IDX 9 1 8 2 7 3 5 4 6 5 4 7 1 8 2 9 3 10 87 11 86 12 80 13 81 14
REMARK SMILES IDX 82 15 83 16 84 17 85 18 10 19 11 20 12 21 13 23 14 24 15 25
REMARK SMILES IDX 79 26 16 27 78 28 17 29 18 30 19 31 72 32 20 33 77 34 71 35
REMARK SMILES IDX 73 36 21 37 76 38 70 39 69 40 22 42 56 43 35 44 55 45 36 46
REMARK SMILES IDX 39 47 54 48 74 49 37 50 38 51 53 53 75 54 40 55 23 56 24 57
REMARK SMILES IDX 33 58 25 59 26 60 32 61 34 62 27 63 28 64 29 65 30 66 31 67
REMARK SMILES IDX 57 68 58 69 67 70 59 71 60 72 66 73 68 74 61 75 62 76 63 77
REMARK SMILES IDX 64 78 65 79 41 80 42 81 51 82 43 83 44 84 50 85 52 86 45 87
REMARK SMILES IDX 46 88 47 89 48 90 49 91
REMARK H PARENT 7 6 11 22 73 41 39 52
REMARK Flexibility Score: inf
ROOT
ATOM      1  C   UNL A   1      35.791  23.060  24.331  1.00  0.00     0.042 C 
ENDROOT
BRANCH   1   2
ATOM      2  C   UNL A   1      34.797  24.088  23.806  1.00  0.00     0.117 C 
BRANCH   2   3
ATOM      3  N   UNL A   1      34.620  25.184  24.747  1.00  0.00    -0.354 N 
ATOM      4  C   UNL A   1      33.526  25.630  25.430  1.00  0.00     0.246 C 
ATOM      5  O   UNL A   1      33.757  26.516  26.259  1.00  0.00    -0.272 OA
ATOM      6  H   UNL A   1      35.442  25.696  24.924  1.00  0.00     0.163 HD
BRANCH   4   7
ATOM      7  C   UNL A   1      32.107  24.973  25.281  1.00  0.00     0.131 C 
ATOM      8  C   UNL A   1      31.601  26.122  21.988  1.00  0.00     0.019 C 
ATOM      9  C   UNL A   1      30.952  25.164  22.981  1.00  0.00     0.046 C 
ATOM     10  C   UNL A   1      31.979  24.419  23.833  1.00  0.00     0.054 C 
ATOM     11  S   UNL A   1      29.858  26.034  24.121  1.00  0.00    -0.156 SA
ATOM     12  C   UNL A   1      31.058  26.099  25.477  1.00  0.00     0.108 C 
BRANCH   7  13
ATOM     13  N   UNL A   1      31.928  23.885  26.328  1.00  0.00    -0.327 N 
BRANCH  13  14
ATOM     14  C   UNL A   1      30.715  23.213  26.520  1.00  0.00     0.341 C 
ATOM     15  O   UNL A   1      29.865  23.499  27.359  1.00  0.00    -0.279 OA
ENDBRANCH  13  14
BRANCH  13  16
ATOM     16  C   UNL A   1      33.076  23.207  26.920  1.00  0.00     0.086 C 
ATOM     17  C   UNL A   1      33.143  22.164  27.996  1.00  0.00     0.027 C 
ATOM     18  C   UNL A   1      33.343  21.761  26.570  1.00  0.00     0.027 C 
ENDBRANCH  13  16
ENDBRANCH   7  13
ENDBRANCH   4   7
ENDBRANCH   2   3
ENDBRANCH   1   2
BRANCH   1  19
ATOM     19  C   UNL A   1      36.910  23.665  25.173  1.00  0.00     0.118 C 
BRANCH  19  20
ATOM     20  N   UNL A   1      37.993  22.725  25.421  1.00  0.00    -0.352 N 
ATOM     21  C   UNL A   1      39.199  22.939  26.049  1.00  0.00     0.251 C 
ATOM     22  H   UNL A   1      37.843  21.809  25.093  1.00  0.00     0.163 HD
ATOM     23  O   UNL A   1      40.075  22.088  26.002  1.00  0.00    -0.269 OA
BRANCH  21  24
ATOM     24  C   UNL A   1      39.431  24.217  26.756  1.00  0.00     0.039 A 
ATOM     25  C   UNL A   1      38.897  24.394  28.035  1.00  0.00     0.014 A 
ATOM     26  C   UNL A   1      40.197  25.225  26.165  1.00  0.00     0.014 A 
ATOM     27  C   UNL A   1      39.199  25.554  28.754  1.00  0.00     0.010 A 
ATOM     28  C   UNL A   1      40.562  26.339  26.912  1.00  0.00     0.010 A 
ATOM     29  C   UNL A   1      40.071  26.515  28.215  1.00  0.00    -0.014 A 
BRANCH  29  30
ATOM     30  C   UNL A   1      40.495  27.709  28.989  1.00  0.00     0.031 A 
ATOM     31  C   UNL A   1      41.789  27.683  29.755  1.00  0.00     0.074 A 
ATOM     32  C   UNL A   1      39.673  28.774  29.083  1.00  0.00     0.049 A 
ATOM     33  N   UNL A   1      42.266  28.559  30.601  1.00  0.00    -0.248 NA
ATOM     34  C   UNL A   1      42.644  26.499  29.570  1.00  0.00     0.031 C 
ATOM     35  C   UNL A   1      38.374  28.902  28.417  1.00  0.00     0.029 A 
ATOM     36  N   UNL A   1      39.795  29.942  29.793  1.00  0.00    -0.354 N 
ATOM     37  C   UNL A   1      43.463  28.024  31.064  1.00  0.00     0.074 A 
ATOM     38  C   UNL A   1      43.614  26.726  30.442  1.00  0.00     0.031 C 
ATOM     39  C   UNL A   1      37.827  30.084  28.743  1.00  0.00     0.029 A 
ATOM     40  C   UNL A   1      38.709  30.778  29.676  1.00  0.00     0.049 A 
ATOM     41  H   UNL A   1      40.587  30.161  30.335  1.00  0.00     0.167 HD
ATOM     42  C   UNL A   1      44.362  28.573  31.915  1.00  0.00     0.037 A 
ATOM     43  C   UNL A   1      38.442  31.958  30.269  1.00  0.00     0.037 A 
ATOM     44  C   UNL A   1      44.214  29.877  32.508  1.00  0.00     0.049 A 
ATOM     45  C   UNL A   1      39.452  32.546  31.218  1.00  0.00     0.074 A 
ATOM     46  C   UNL A   1      45.095  30.547  33.338  1.00  0.00     0.029 A 
ATOM     47  N   UNL A   1      43.114  30.705  32.338  1.00  0.00    -0.354 N 
ATOM     48  N   UNL A   1      40.604  32.052  31.603  1.00  0.00    -0.248 NA
ATOM     49  C   UNL A   1      39.129  33.851  31.812  1.00  0.00     0.031 C 
ATOM     50  C   UNL A   1      44.506  31.760  33.709  1.00  0.00     0.029 A 
ATOM     51  C   UNL A   1      43.285  31.872  33.064  1.00  0.00     0.049 A 
ATOM     52  H   UNL A   1      42.328  30.495  31.783  1.00  0.00     0.167 HD
ATOM     53  C   UNL A   1      41.160  33.000  32.454  1.00  0.00     0.074 A 
ATOM     54  C   UNL A   1      40.219  34.098  32.528  1.00  0.00     0.031 C 
ATOM     55  C   UNL A   1      42.346  32.966  33.110  1.00  0.00     0.037 A 
BRANCH  42  56
ATOM     56  C   UNL A   1      45.584  27.766  32.259  1.00  0.00     0.058 A 
ATOM     57  C   UNL A   1      46.765  27.855  31.503  1.00  0.00     0.135 A 
ATOM     58  C   UNL A   1      45.588  26.920  33.380  1.00  0.00     0.135 A 
ATOM     59  F   UNL A   1      46.813  28.635  30.413  1.00  0.00    -0.206 F 
ATOM     60  C   UNL A   1      47.893  27.109  31.827  1.00  0.00     0.059 A 
ATOM     61  C   UNL A   1      46.716  26.188  33.741  1.00  0.00     0.059 A 
ATOM     62  F   UNL A   1      44.487  26.797  34.138  1.00  0.00    -0.206 F 
ATOM     63  C   UNL A   1      47.859  26.278  32.948  1.00  0.00     0.060 A 
BRANCH  63  64
ATOM     64  S   UNL A   1      49.333  25.320  33.355  1.00  0.00     0.124 S 
ATOM     65  O   UNL A   1      50.056  26.250  34.218  1.00  0.00    -0.237 OA
ATOM     66  O   UNL A   1      48.770  24.148  34.018  1.00  0.00    -0.237 OA
ATOM     67  O   UNL A   1      49.945  25.068  32.054  1.00  0.00    -0.744 OA
ENDBRANCH  63  64
ENDBRANCH  42  56
BRANCH  43  68
ATOM     68  C   UNL A   1      37.170  32.668  29.970  1.00  0.00     0.058 A 
ATOM     69  C   UNL A   1      36.000  32.389  30.692  1.00  0.00     0.135 A 
ATOM     70  C   UNL A   1      37.102  33.654  28.972  1.00  0.00     0.135 A 
ATOM     71  F   UNL A   1      36.012  31.451  31.651  1.00  0.00    -0.206 F 
ATOM     72  C   UNL A   1      34.804  33.049  30.428  1.00  0.00     0.059 A 
ATOM     73  C   UNL A   1      35.924  34.347  28.707  1.00  0.00     0.059 A 
ATOM     74  F   UNL A   1      38.196  33.973  28.264  1.00  0.00    -0.206 F 
ATOM     75  C   UNL A   1      34.778  34.031  29.435  1.00  0.00     0.060 A 
BRANCH  75  76
ATOM     76  S   UNL A   1      33.234  34.919  29.137  1.00  0.00     0.124 S 
ATOM     77  O   UNL A   1      33.722  36.213  28.676  1.00  0.00    -0.237 OA
ATOM     78  O   UNL A   1      32.589  34.082  28.129  1.00  0.00    -0.237 OA
ATOM     79  O   UNL A   1      32.589  34.917  30.448  1.00  0.00    -0.744 OA
ENDBRANCH  75  76
ENDBRANCH  43  68
BRANCH  55  80
ATOM     80  C   UNL A   1      42.730  34.169  33.927  1.00  0.00     0.058 A 
ATOM     81  C   UNL A   1      42.429  34.264  35.294  1.00  0.00     0.135 A 
ATOM     82  C   UNL A   1      43.487  35.201  33.349  1.00  0.00     0.135 A 
ATOM     83  F   UNL A   1      41.700  33.310  35.894  1.00  0.00    -0.206 F 
ATOM     84  C   UNL A   1      42.858  35.345  36.058  1.00  0.00     0.059 A 
ATOM     85  C   UNL A   1      43.950  36.276  34.098  1.00  0.00     0.059 A 
ATOM     86  F   UNL A   1      43.810  35.154  32.046  1.00  0.00    -0.206 F 
ATOM     87  C   UNL A   1      43.625  36.342  35.453  1.00  0.00     0.060 A 
BRANCH  87  88
ATOM     88  S   UNL A   1      44.230  37.706  36.469  1.00  0.00     0.124 S 
ATOM     89  O   UNL A   1      44.097  38.836  35.556  1.00  0.00    -0.237 OA
ATOM     90  O   UNL A   1      43.302  37.690  37.596  1.00  0.00    -0.237 OA
ATOM     91  O   UNL A   1      45.600  37.313  36.787  1.00  0.00    -0.744 OA
ENDBRANCH  87  88
ENDBRANCH  55  80
ENDBRANCH  29  30
ENDBRANCH  21  24
ENDBRANCH  19  20
ENDBRANCH   1  19
TORSDOF 16
ENDMDL
MODEL 3
REMARK VINA RESULT:      -9.7      4.234      9.818
REMARK SMILES C[C@H]1C[C@](C(=O)NCCCNC(=O)c2ccc(-c3c4nc(c(-c5c(F)cc(S(=O)(=O)[O-])cc5F)c5ccc([nH]5)c(-c5c(F)cc(S(=O)(=O)[O-])cc5F)c5nc(c(-c6c(F)cc(S(=O)(=O)[O-])cc6F)c6ccc3[nH]6)C=C5)C=C4)cc2)(N(C=O)C2CC2)CS1
REMARK SMILES IDX 9 1 8 2 7 3 5 4 6 5 4 7 1 8 2 9 3 10 87 11 86 12 80 13 81 14
REMARK SMILES IDX 82 15 83 16 84 17 85 18 10 19 11 20 12 21 13 23 14 24 15 25
REMARK SMILES IDX 79 26 16 27 78 28 17 29 18 30 19 31 72 32 20 33 77 34 71 35
REMARK SMILES IDX 73 36 21 37 76 38 70 39 69 40 22 42 56 43 35 44 55 45 36 46
REMARK SMILES IDX 39 47 54 48 74 49 37 50 38 51 53 53 75 54 40 55 23 56 24 57
REMARK SMILES IDX 33 58 25 59 26 60 32 61 34 62 27 63 28 64 29 65 30 66 31 67
REMARK SMILES IDX 57 68 58 69 67 70 59 71 60 72 66 73 68 74 61 75 62 76 63 77
REMARK SMILES IDX 64 78 65 79 41 80 42 81 51 82 43 83 44 84 50 85 52 86 45 87
REMARK SMILES IDX 46 88 47 89 48 90 49 91
REMARK H PARENT 7 6 11 22 73 41 39 52
REMARK Flexibility Score: inf
ROOT
ATOM      1  C   UNL A   1      37.815  20.532  25.309  1.00  0.00     0.042 C 
ENDROOT
BRANCH   1   2
ATOM      2  C   UNL A   1      36.848  21.706  25.408  1.00  0.00     0.117 C 
BRANCH   2   3
ATOM      3  N   UNL A   1      36.475  22.197  24.089  1.00  0.00    -0.354 N 
ATOM      4  C   UNL A   1      35.359  22.839  23.639  1.00  0.00     0.246 C 
ATOM      5  O   UNL A   1      35.422  23.236  22.471  1.00  0.00    -0.272 OA
ATOM      6  H   UNL A   1      37.154  22.036  23.395  1.00  0.00     0.163 HD
BRANCH   4   7
ATOM      7  C   UNL A   1      34.141  23.178  24.572  1.00  0.00     0.131 C 
ATOM      8  C   UNL A   1      33.531  26.331  23.121  1.00  0.00     0.019 C 
ATOM      9  C   UNL A   1      32.868  25.374  24.105  1.00  0.00     0.046 C 
ATOM     10  C   UNL A   1      33.064  23.908  23.720  1.00  0.00     0.054 C 
ATOM     11  S   UNL A   1      33.533  25.571  25.770  1.00  0.00    -0.156 SA
ATOM     12  C   UNL A   1      34.657  24.154  25.663  1.00  0.00     0.108 C 
BRANCH   7  13
ATOM     13  N   UNL A   1      33.604  21.904  25.205  1.00  0.00    -0.327 N 
BRANCH  13  14
ATOM     14  C   UNL A   1      32.850  21.905  26.384  1.00  0.00     0.341 C 
ATOM     15  O   UNL A   1      31.726  22.383  26.513  1.00  0.00    -0.279 OA
ENDBRANCH  13  14
BRANCH  13  16
ATOM     16  C   UNL A   1      33.499  20.665  24.441  1.00  0.00     0.086 C 
ATOM     17  C   UNL A   1      32.595  19.483  24.623  1.00  0.00     0.027 C 
ATOM     18  C   UNL A   1      32.316  20.458  23.524  1.00  0.00     0.027 C 
ENDBRANCH  13  16
ENDBRANCH   7  13
ENDBRANCH   4   7
ENDBRANCH   2   3
ENDBRANCH   1   2
BRANCH   1  19
ATOM     19  C   UNL A   1      39.228  20.861  25.778  1.00  0.00     0.118 C 
BRANCH  19  20
ATOM     20  N   UNL A   1      40.057  19.675  25.926  1.00  0.00    -0.352 N 
ATOM     21  C   UNL A   1      41.415  19.588  26.142  1.00  0.00     0.251 C 
ATOM     22  H   UNL A   1      39.583  18.814  25.861  1.00  0.00     0.163 HD
ATOM     23  O   UNL A   1      41.982  18.509  26.050  1.00  0.00    -0.269 OA
BRANCH  21  24
ATOM     24  C   UNL A   1      42.177  20.814  26.460  1.00  0.00     0.039 A 
ATOM     25  C   UNL A   1      42.686  21.589  25.416  1.00  0.00     0.014 A 
ATOM     26  C   UNL A   1      42.364  21.208  27.788  1.00  0.00     0.014 A 
ATOM     27  C   UNL A   1      43.314  22.805  25.702  1.00  0.00     0.010 A 
ATOM     28  C   UNL A   1      42.917  22.453  28.065  1.00  0.00     0.010 A 
ATOM     29  C   UNL A   1      43.394  23.267  27.026  1.00  0.00    -0.014 A 
BRANCH  29  30
ATOM     30  C   UNL A   1      43.963  24.598  27.358  1.00  0.00     0.031 A 
ATOM     31  C   UNL A   1      43.051  25.717  27.782  1.00  0.00     0.074 A 
ATOM     32  C   UNL A   1      45.280  24.827  27.182  1.00  0.00     0.049 A 
ATOM     33  N   UNL A   1      43.327  26.980  27.974  1.00  0.00    -0.248 NA
ATOM     34  C   UNL A   1      41.633  25.374  27.985  1.00  0.00     0.031 C 
ATOM     35  C   UNL A   1      46.260  23.833  26.739  1.00  0.00     0.029 A 
ATOM     36  N   UNL A   1      46.020  25.973  27.334  1.00  0.00    -0.354 N 
ATOM     37  C   UNL A   1      42.119  27.586  28.298  1.00  0.00     0.074 A 
ATOM     38  C   UNL A   1      41.100  26.561  28.229  1.00  0.00     0.031 C 
ATOM     39  C   UNL A   1      47.470  24.410  26.663  1.00  0.00     0.029 A 
ATOM     40  C   UNL A   1      47.347  25.823  27.006  1.00  0.00     0.049 A 
ATOM     41  H   UNL A   1      45.635  26.823  27.648  1.00  0.00     0.167 HD
ATOM     42  C   UNL A   1      41.884  28.875  28.641  1.00  0.00     0.037 A 
ATOM     43  C   UNL A   1      48.347  26.725  26.965  1.00  0.00     0.037 A 
ATOM     44  C   UNL A   1      42.910  29.881  28.733  1.00  0.00     0.049 A 
ATOM     45  C   UNL A   1      48.062  28.154  27.342  1.00  0.00     0.074 A 
ATOM     46  C   UNL A   1      42.784  31.202  29.127  1.00  0.00     0.029 A 
ATOM     47  N   UNL A   1      44.248  29.680  28.424  1.00  0.00    -0.354 N 
ATOM     48  N   UNL A   1      46.924  28.699  27.699  1.00  0.00    -0.248 NA
ATOM     49  C   UNL A   1      49.194  29.092  27.313  1.00  0.00     0.031 C 
ATOM     50  C   UNL A   1      44.036  31.812  29.010  1.00  0.00     0.029 A 
ATOM     51  C   UNL A   1      44.954  30.859  28.600  1.00  0.00     0.049 A 
ATOM     52  H   UNL A   1      44.637  28.827  28.125  1.00  0.00     0.167 HD
ATOM     53  C   UNL A   1      47.208  30.032  27.972  1.00  0.00     0.074 A 
ATOM     54  C   UNL A   1      48.627  30.212  27.741  1.00  0.00     0.031 C 
ATOM     55  C   UNL A   1      46.372  31.016  28.384  1.00  0.00     0.037 A 
BRANCH  42  56
ATOM     56  C   UNL A   1      40.464  29.273  28.940  1.00  0.00     0.058 A 
ATOM     57  C   UNL A   1      40.005  29.441  30.257  1.00  0.00     0.135 A 
ATOM     58  C   UNL A   1      39.559  29.524  27.895  1.00  0.00     0.135 A 
ATOM     59  F   UNL A   1      40.822  29.200  31.294  1.00  0.00    -0.206 F 
ATOM     60  C   UNL A   1      38.692  29.812  30.527  1.00  0.00     0.059 A 
ATOM     61  C   UNL A   1      38.250  29.926  28.143  1.00  0.00     0.059 A 
ATOM     62  F   UNL A   1      39.943  29.379  26.618  1.00  0.00    -0.206 F 
ATOM     63  C   UNL A   1      37.821  30.052  29.463  1.00  0.00     0.060 A 
BRANCH  63  64
ATOM     64  S   UNL A   1      36.122  30.535  29.833  1.00  0.00     0.124 S 
ATOM     65  O   UNL A   1      35.961  30.013  31.188  1.00  0.00    -0.237 OA
ATOM     66  O   UNL A   1      36.179  31.989  29.717  1.00  0.00    -0.237 OA
ATOM     67  O   UNL A   1      35.343  29.856  28.803  1.00  0.00    -0.744 OA
ENDBRANCH  63  64
ENDBRANCH  42  56
BRANCH  43  68
ATOM     68  C   UNL A   1      49.715  26.299  26.565  1.00  0.00     0.058 A 
ATOM     69  C   UNL A   1      50.633  25.831  27.516  1.00  0.00     0.135 A 
ATOM     70  C   UNL A   1      50.125  26.330  25.222  1.00  0.00     0.135 A 
ATOM     71  F   UNL A   1      50.291  25.787  28.813  1.00  0.00    -0.206 F 
ATOM     72  C   UNL A   1      51.914  25.422  27.156  1.00  0.00     0.059 A 
ATOM     73  C   UNL A   1      51.391  25.901  24.833  1.00  0.00     0.059 A 
ATOM     74  F   UNL A   1      49.280  26.751  24.269  1.00  0.00    -0.206 F 
ATOM     75  C   UNL A   1      52.282  25.457  25.810  1.00  0.00     0.060 A 
BRANCH  75  76
ATOM     76  S   UNL A   1      53.927  24.874  25.346  1.00  0.00     0.124 S 
ATOM     77  O   UNL A   1      54.190  25.657  24.145  1.00  0.00    -0.237 OA
ATOM     78  O   UNL A   1      54.717  25.223  26.524  1.00  0.00    -0.237 OA
ATOM     79  O   UNL A   1      53.728  23.443  25.138  1.00  0.00    -0.744 OA
ENDBRANCH  75  76
ENDBRANCH  43  68
BRANCH  55  80
ATOM     80  C   UNL A   1      46.965  32.369  28.666  1.00  0.00     0.058 A 
ATOM     81  C   UNL A   1      47.041  33.366  27.682  1.00  0.00     0.135 A 
ATOM     82  C   UNL A   1      47.384  32.697  29.966  1.00  0.00     0.135 A 
ATOM     83  F   UNL A   1      46.662  33.102  26.422  1.00  0.00    -0.206 F 
ATOM     84  C   UNL A   1      47.518  34.639  27.975  1.00  0.00     0.059 A 
ATOM     85  C   UNL A   1      47.838  33.971  30.289  1.00  0.00     0.059 A 
ATOM     86  F   UNL A   1      47.323  31.782  30.947  1.00  0.00    -0.206 F 
ATOM     87  C   UNL A   1      47.907  34.935  29.283  1.00  0.00     0.060 A 
BRANCH  87  88
ATOM     88  S   UNL A   1      48.464  36.609  29.664  1.00  0.00     0.124 S 
ATOM     89  O   UNL A   1      47.329  37.407  29.212  1.00  0.00    -0.237 OA
ATOM     90  O   UNL A   1      48.662  36.551  31.109  1.00  0.00    -0.237 OA
ATOM     91  O   UNL A   1      49.685  36.750  28.875  1.00  0.00    -0.744 OA
ENDBRANCH  87  88
ENDBRANCH  55  80
ENDBRANCH  29  30
ENDBRANCH  21  24
ENDBRANCH  19  20
ENDBRANCH   1  19
TORSDOF 16
ENDMDL
