MODEL 1
REMARK VINA RESULT:     -13.2      0.000      0.000
REMARK SMILES Cc1ccccc1OCC[NH+]1CCC(CC(=O)NCCCNC(=O)c2ccc(-c3c4nc(c(-c5c(F)cc(S(=O)(=O)[O-])cc5F)c5ccc([nH]5)c(-c5c(F)cc(S(=O)(=O)[O-])cc5F)c5nc(c(-c6c(F)cc(S(=O)(=O)[O-])cc6F)c6ccc3[nH]6)C=C5)C=C4)cc2)CC1
REMARK SMILES IDX 19 1 18 2 16 3 17 4 15 6 14 7 11 8 12 9 92 10 13 12 91 13
REMARK SMILES IDX 10 14 9 15 8 16 7 17 1 18 2 19 3 20 4 21 6 22 5 23 20 24
REMARK SMILES IDX 21 25 22 26 23 27 24 29 25 30 26 31 90 32 27 33 89 34 28 35
REMARK SMILES IDX 29 36 30 37 83 38 31 39 88 40 82 41 84 42 32 43 87 44 81 45
REMARK SMILES IDX 80 46 33 48 67 49 46 50 66 51 47 52 50 53 65 54 85 55 48 56
REMARK SMILES IDX 49 57 64 59 86 60 51 61 34 62 35 63 44 64 36 65 37 66 43 67
REMARK SMILES IDX 45 68 38 69 39 70 40 71 41 72 42 73 68 74 69 75 78 76 70 77
REMARK SMILES IDX 71 78 77 79 79 80 72 81 73 82 74 83 75 84 76 85 52 86 53 87
REMARK SMILES IDX 62 88 54 89 55 90 61 91 63 92 56 93 57 94 58 95 59 96 60 97
REMARK H PARENT 18 5 11 11 22 28 84 47 50 58
REMARK Flexibility Score: inf
ROOT
ATOM      1  C   UNL A   1      32.546  30.931  27.061  1.00  0.00     0.117 C 
ENDROOT
BRANCH   1   2
ATOM      2  N   UNL A   1      32.397  30.104  25.841  1.00  0.00    -0.356 N 
ATOM      3  C   UNL A   1      32.120  28.778  25.642  1.00  0.00     0.220 C 
ATOM      4  O   UNL A   1      32.139  28.345  24.486  1.00  0.00    -0.275 OA
ATOM      5  H   UNL A   1      32.523  30.609  25.006  1.00  0.00     0.163 HD
BRANCH   3   6
ATOM      6  C   UNL A   1      31.762  27.849  26.794  1.00  0.00     0.104 C 
BRANCH   6   7
ATOM      7  C   UNL A   1      32.035  26.336  26.492  1.00  0.00     0.009 C 
ATOM      8  N   UNL A   1      32.392  23.275  24.083  1.00  0.00    -0.332 N 
ATOM      9  C   UNL A   1      30.697  23.793  24.714  1.00  0.00     0.262 C 
ATOM     10  C   UNL A   1      33.888  24.276  24.555  1.00  0.00     0.262 C 
ATOM     11  H   UNL A   1      32.466  22.457  24.688  1.00  0.00     0.348 HD
ATOM     12  C   UNL A   1      30.470  25.473  25.694  1.00  0.00     0.066 C 
ATOM     13  C   UNL A   1      33.826  25.770  25.839  1.00  0.00     0.066 C 
BRANCH   8  14
ATOM     14  C   UNL A   1      32.472  22.784  22.727  1.00  0.00     0.304 C 
BRANCH  14  15
ATOM     15  C   UNL A   1      32.154  21.318  22.667  1.00  0.00     0.290 C 
BRANCH  15  16
ATOM     16  O   UNL A   1      32.187  20.680  23.939  1.00  0.00    -0.487 OA
BRANCH  16  17
ATOM     17  C   UNL A   1      33.099  19.659  24.177  1.00  0.00     0.122 A 
ATOM     18  C   UNL A   1      35.659  21.159  25.652  1.00  0.00     0.048 C 
ATOM     19  C   UNL A   1      34.510  19.669  24.765  1.00  0.00    -0.009 A 
ATOM     20  C   UNL A   1      34.969  18.285  24.459  1.00  0.00     0.007 A 
ATOM     21  C   UNL A   1      34.345  17.216  23.745  1.00  0.00     0.001 A 
ATOM     22  C   UNL A   1      32.477  18.556  23.468  1.00  0.00     0.047 A 
ATOM     23  C   UNL A   1      33.098  17.358  23.228  1.00  0.00     0.004 A 
ENDBRANCH  16  17
ENDBRANCH  15  16
ENDBRANCH  14  15
ENDBRANCH   8  14
ENDBRANCH   6   7
ENDBRANCH   3   6
ENDBRANCH   1   2
BRANCH   1  24
ATOM     24  C   UNL A   1      33.997  31.356  27.289  1.00  0.00     0.042 C 
BRANCH  24  25
ATOM     25  C   UNL A   1      34.954  30.504  28.101  1.00  0.00     0.118 C 
BRANCH  25  26
ATOM     26  N   UNL A   1      35.976  31.213  28.878  1.00  0.00    -0.352 N 
ATOM     27  C   UNL A   1      37.252  30.780  29.232  1.00  0.00     0.251 C 
ATOM     28  H   UNL A   1      35.727  32.114  29.189  1.00  0.00     0.163 HD
ATOM     29  O   UNL A   1      38.062  31.449  29.859  1.00  0.00    -0.269 OA
BRANCH  27  30
ATOM     30  C   UNL A   1      37.661  29.444  28.753  1.00  0.00     0.039 A 
ATOM     31  C   UNL A   1      37.869  28.498  29.766  1.00  0.00     0.014 A 
ATOM     32  C   UNL A   1      38.379  29.427  27.560  1.00  0.00     0.014 A 
ATOM     33  C   UNL A   1      39.054  27.789  29.757  1.00  0.00     0.010 A 
ATOM     34  C   UNL A   1      39.599  28.795  27.600  1.00  0.00     0.010 A 
ATOM     35  C   UNL A   1      39.966  28.078  28.745  1.00  0.00    -0.014 A 
BRANCH  35  36
ATOM     36  C   UNL A   1      41.345  27.644  28.808  1.00  0.00     0.031 A 
ATOM     37  C   UNL A   1      41.535  26.252  28.400  1.00  0.00     0.074 A 
ATOM     38  C   UNL A   1      42.320  28.452  29.278  1.00  0.00     0.049 A 
ATOM     39  N   UNL A   1      42.189  25.376  29.074  1.00  0.00    -0.248 NA
ATOM     40  C   UNL A   1      40.810  25.693  27.256  1.00  0.00     0.031 C 
ATOM     41  C   UNL A   1      43.752  28.190  29.357  1.00  0.00     0.029 A 
ATOM     42  N   UNL A   1      42.156  29.658  29.981  1.00  0.00    -0.354 N 
ATOM     43  C   UNL A   1      42.261  24.268  28.259  1.00  0.00     0.074 A 
ATOM     44  C   UNL A   1      41.219  24.428  27.283  1.00  0.00     0.031 C 
ATOM     45  C   UNL A   1      44.281  28.988  30.305  1.00  0.00     0.029 A 
ATOM     46  C   UNL A   1      43.185  29.711  30.936  1.00  0.00     0.049 A 
ATOM     47  H   UNL A   1      41.457  30.334  29.833  1.00  0.00     0.167 HD
ATOM     48  C   UNL A   1      43.372  23.484  28.298  1.00  0.00     0.037 A 
ATOM     49  C   UNL A   1      42.895  29.701  32.268  1.00  0.00     0.037 A 
ATOM     50  C   UNL A   1      44.313  24.022  29.281  1.00  0.00     0.049 A 
ATOM     51  C   UNL A   1      43.407  28.447  32.936  1.00  0.00     0.074 A 
ATOM     52  C   UNL A   1      45.391  24.885  29.146  1.00  0.00     0.029 A 
ATOM     53  N   UNL A   1      43.947  24.070  30.625  1.00  0.00    -0.354 N 
ATOM     54  N   UNL A   1      43.618  27.321  32.303  1.00  0.00    -0.248 NA
ATOM     55  C   UNL A   1      43.812  28.386  34.334  1.00  0.00     0.031 C 
ATOM     56  C   UNL A   1      45.642  25.483  30.408  1.00  0.00     0.029 A 
ATOM     57  C   UNL A   1      44.725  24.981  31.316  1.00  0.00     0.049 A 
ATOM     58  H   UNL A   1      43.231  23.527  31.027  1.00  0.00     0.167 HD
ATOM     59  C   UNL A   1      44.200  26.414  33.155  1.00  0.00     0.074 A 
ATOM     60  C   UNL A   1      44.307  27.138  34.410  1.00  0.00     0.031 C 
ATOM     61  C   UNL A   1      44.567  25.156  32.755  1.00  0.00     0.037 A 
BRANCH  48  62
ATOM     62  C   UNL A   1      43.713  22.566  27.145  1.00  0.00     0.058 A 
ATOM     63  C   UNL A   1      43.010  21.364  26.938  1.00  0.00     0.135 A 
ATOM     64  C   UNL A   1      44.774  22.793  26.241  1.00  0.00     0.135 A 
ATOM     65  F   UNL A   1      41.926  21.053  27.660  1.00  0.00    -0.206 F 
ATOM     66  C   UNL A   1      43.388  20.421  25.980  1.00  0.00     0.059 A 
ATOM     67  C   UNL A   1      45.215  21.837  25.321  1.00  0.00     0.059 A 
ATOM     68  F   UNL A   1      45.402  23.979  26.196  1.00  0.00    -0.206 F 
ATOM     69  C   UNL A   1      44.507  20.652  25.192  1.00  0.00     0.060 A 
BRANCH  69  70
ATOM     70  S   UNL A   1      44.982  19.415  23.972  1.00  0.00     0.124 S 
ATOM     71  O   UNL A   1      44.216  18.247  24.396  1.00  0.00    -0.237 OA
ATOM     72  O   UNL A   1      44.548  20.042  22.729  1.00  0.00    -0.237 OA
ATOM     73  O   UNL A   1      46.428  19.302  24.146  1.00  0.00    -0.744 OA
ENDBRANCH  69  70
ENDBRANCH  48  62
BRANCH  49  74
ATOM     74  C   UNL A   1      41.714  30.537  32.643  1.00  0.00     0.058 A 
ATOM     75  C   UNL A   1      40.506  29.865  32.922  1.00  0.00     0.135 A 
ATOM     76  C   UNL A   1      41.811  31.864  33.086  1.00  0.00     0.135 A 
ATOM     77  F   UNL A   1      40.340  28.595  32.519  1.00  0.00    -0.206 F 
ATOM     78  C   UNL A   1      39.497  30.428  33.701  1.00  0.00     0.059 A 
ATOM     79  C   UNL A   1      40.810  32.450  33.882  1.00  0.00     0.059 A 
ATOM     80  F   UNL A   1      42.914  32.580  32.828  1.00  0.00    -0.206 F 
ATOM     81  C   UNL A   1      39.680  31.704  34.223  1.00  0.00     0.060 A 
BRANCH  81  82
ATOM     82  S   UNL A   1      38.437  32.320  35.392  1.00  0.00     0.124 S 
ATOM     83  O   UNL A   1      38.682  33.758  35.375  1.00  0.00    -0.237 OA
ATOM     84  O   UNL A   1      37.191  31.905  34.748  1.00  0.00    -0.237 OA
ATOM     85  O   UNL A   1      38.779  31.639  36.633  1.00  0.00    -0.744 OA
ENDBRANCH  81  82
ENDBRANCH  49  74
BRANCH  61  86
ATOM     86  C   UNL A   1      44.918  23.976  33.651  1.00  0.00     0.058 A 
ATOM     87  C   UNL A   1      44.037  22.935  33.984  1.00  0.00     0.135 A 
ATOM     88  C   UNL A   1      46.257  23.783  34.093  1.00  0.00     0.135 A 
ATOM     89  F   UNL A   1      42.774  22.907  33.542  1.00  0.00    -0.206 F 
ATOM     90  C   UNL A   1      44.428  21.832  34.746  1.00  0.00     0.059 A 
ATOM     91  C   UNL A   1      46.686  22.652  34.779  1.00  0.00     0.059 A 
ATOM     92  F   UNL A   1      47.223  24.682  33.862  1.00  0.00    -0.206 F 
ATOM     93  C   UNL A   1      45.756  21.694  35.133  1.00  0.00     0.060 A 
BRANCH  93  94
ATOM     94  S   UNL A   1      46.267  20.239  36.056  1.00  0.00     0.124 S 
ATOM     95  O   UNL A   1      46.062  20.682  37.430  1.00  0.00    -0.237 OA
ATOM     96  O   UNL A   1      45.339  19.218  35.575  1.00  0.00    -0.237 OA
ATOM     97  O   UNL A   1      47.657  20.052  35.652  1.00  0.00    -0.744 OA
ENDBRANCH  93  94
ENDBRANCH  61  86
ENDBRANCH  35  36
ENDBRANCH  27  30
ENDBRANCH  25  26
ENDBRANCH  24  25
ENDBRANCH   1  24
TORSDOF 18
ENDMDL
MODEL 2
REMARK VINA RESULT:     -13.0      4.960     11.897
REMARK SMILES Cc1ccccc1OCC[NH+]1CCC(CC(=O)NCCCNC(=O)c2ccc(-c3c4nc(c(-c5c(F)cc(S(=O)(=O)[O-])cc5F)c5ccc([nH]5)c(-c5c(F)cc(S(=O)(=O)[O-])cc5F)c5nc(c(-c6c(F)cc(S(=O)(=O)[O-])cc6F)c6ccc3[nH]6)C=C5)C=C4)cc2)CC1
REMARK SMILES IDX 19 1 18 2 16 3 17 4 15 6 14 7 11 8 12 9 92 10 13 12 91 13
REMARK SMILES IDX 10 14 9 15 8 16 7 17 1 18 2 19 3 20 4 21 6 22 5 23 20 24
REMARK SMILES IDX 21 25 22 26 23 27 24 29 25 30 26 31 90 32 27 33 89 34 28 35
REMARK SMILES IDX 29 36 30 37 83 38 31 39 88 40 82 41 84 42 32 43 87 44 81 45
REMARK SMILES IDX 80 46 33 48 67 49 46 50 66 51 47 52 50 53 65 54 85 55 48 56
REMARK SMILES IDX 49 57 64 59 86 60 51 61 34 62 35 63 44 64 36 65 37 66 43 67
REMARK SMILES IDX 45 68 38 69 39 70 40 71 41 72 42 73 68 74 69 75 78 76 70 77
REMARK SMILES IDX 71 78 77 79 79 80 72 81 73 82 74 83 75 84 76 85 52 86 53 87
REMARK SMILES IDX 62 88 54 89 55 90 61 91 63 92 56 93 57 94 58 95 59 96 60 97
REMARK H PARENT 18 5 11 11 22 28 84 47 50 58
REMARK Flexibility Score: inf
ROOT
ATOM      1  C   UNL A   1      38.104  21.284  25.459  1.00  0.00     0.117 C 
ENDROOT
BRANCH   1   2
ATOM      2  N   UNL A   1      37.753  22.185  24.336  1.00  0.00    -0.356 N 
ATOM      3  C   UNL A   1      36.565  22.509  23.739  1.00  0.00     0.220 C 
ATOM      4  O   UNL A   1      36.592  23.246  22.748  1.00  0.00    -0.275 OA
ATOM      5  H   UNL A   1      38.530  22.642  23.941  1.00  0.00     0.163 HD
BRANCH   3   6
ATOM      6  C   UNL A   1      35.230  22.015  24.280  1.00  0.00     0.104 C 
BRANCH   6   7
ATOM      7  C   UNL A   1      34.086  23.084  24.209  1.00  0.00     0.009 C 
ATOM      8  N   UNL A   1      32.721  26.680  23.502  1.00  0.00    -0.332 N 
ATOM      9  C   UNL A   1      33.492  26.269  25.168  1.00  0.00     0.262 C 
ATOM     10  C   UNL A   1      32.681  25.384  22.168  1.00  0.00     0.262 C 
ATOM     11  H   UNL A   1      31.761  26.682  23.846  1.00  0.00     0.348 HD
ATOM     12  C   UNL A   1      34.419  24.567  25.443  1.00  0.00     0.066 C 
ATOM     13  C   UNL A   1      33.251  23.519  22.458  1.00  0.00     0.066 C 
BRANCH   8  14
ATOM     14  C   UNL A   1      32.962  28.001  22.970  1.00  0.00     0.304 C 
BRANCH  14  15
ATOM     15  C   UNL A   1      31.887  28.958  23.398  1.00  0.00     0.290 C 
BRANCH  15  16
ATOM     16  O   UNL A   1      31.074  29.413  22.323  1.00  0.00    -0.487 OA
BRANCH  16  17
ATOM     17  C   UNL A   1      29.689  29.390  22.444  1.00  0.00     0.122 A 
ATOM     18  C   UNL A   1      28.757  32.526  21.918  1.00  0.00     0.048 C 
ATOM     19  C   UNL A   1      28.642  30.502  22.386  1.00  0.00    -0.009 A 
ATOM     20  C   UNL A   1      27.426  29.790  22.869  1.00  0.00     0.007 A 
ATOM     21  C   UNL A   1      27.235  28.458  23.348  1.00  0.00     0.001 A 
ATOM     22  C   UNL A   1      29.471  28.036  22.919  1.00  0.00     0.047 A 
ATOM     23  C   UNL A   1      28.269  27.579  23.393  1.00  0.00     0.004 A 
ENDBRANCH  16  17
ENDBRANCH  15  16
ENDBRANCH  14  15
ENDBRANCH   8  14
ENDBRANCH   6   7
ENDBRANCH   3   6
ENDBRANCH   1   2
BRANCH   1  24
ATOM     24  C   UNL A   1      39.194  21.881  26.351  1.00  0.00     0.042 C 
BRANCH  24  25
ATOM     25  C   UNL A   1      39.450  23.376  26.397  1.00  0.00     0.118 C 
BRANCH  25  26
ATOM     26  N   UNL A   1      40.772  23.807  26.860  1.00  0.00    -0.352 N 
ATOM     27  C   UNL A   1      41.144  25.037  27.398  1.00  0.00     0.251 C 
ATOM     28  H   UNL A   1      41.492  23.139  26.780  1.00  0.00     0.163 HD
ATOM     29  O   UNL A   1      42.270  25.310  27.793  1.00  0.00    -0.269 OA
BRANCH  27  30
ATOM     30  C   UNL A   1      40.078  26.047  27.556  1.00  0.00     0.039 A 
ATOM     31  C   UNL A   1      40.291  27.237  26.848  1.00  0.00     0.014 A 
ATOM     32  C   UNL A   1      39.394  26.015  28.768  1.00  0.00     0.014 A 
ATOM     33  C   UNL A   1      40.175  28.430  27.534  1.00  0.00     0.010 A 
ATOM     34  C   UNL A   1      39.371  27.192  29.479  1.00  0.00     0.010 A 
ATOM     35  C   UNL A   1      39.867  28.361  28.890  1.00  0.00    -0.014 A 
BRANCH  35  36
ATOM     36  C   UNL A   1      40.029  29.497  29.772  1.00  0.00     0.031 A 
ATOM     37  C   UNL A   1      38.965  30.492  29.640  1.00  0.00     0.074 A 
ATOM     38  C   UNL A   1      41.113  29.626  30.568  1.00  0.00     0.049 A 
ATOM     39  N   UNL A   1      39.157  31.751  29.484  1.00  0.00    -0.248 NA
ATOM     40  C   UNL A   1      37.567  30.086  29.479  1.00  0.00     0.031 C 
ATOM     41  C   UNL A   1      41.399  30.671  31.544  1.00  0.00     0.029 A 
ATOM     42  N   UNL A   1      42.307  28.888  30.501  1.00  0.00    -0.354 N 
ATOM     43  C   UNL A   1      37.908  32.326  29.573  1.00  0.00     0.074 A 
ATOM     44  C   UNL A   1      36.969  31.265  29.332  1.00  0.00     0.031 C 
ATOM     45  C   UNL A   1      42.731  30.718  31.741  1.00  0.00     0.029 A 
ATOM     46  C   UNL A   1      43.349  29.776  30.817  1.00  0.00     0.049 A 
ATOM     47  H   UNL A   1      42.396  27.933  30.276  1.00  0.00     0.167 HD
ATOM     48  C   UNL A   1      37.781  33.558  30.136  1.00  0.00     0.037 A 
ATOM     49  C   UNL A   1      44.301  30.084  29.891  1.00  0.00     0.037 A 
ATOM     50  C   UNL A   1      39.099  34.046  30.541  1.00  0.00     0.049 A 
ATOM     51  C   UNL A   1      44.235  31.539  29.495  1.00  0.00     0.074 A 
ATOM     52  C   UNL A   1      39.771  33.981  31.753  1.00  0.00     0.029 A 
ATOM     53  N   UNL A   1      40.073  34.272  29.571  1.00  0.00    -0.354 N 
ATOM     54  N   UNL A   1      43.153  32.270  29.590  1.00  0.00    -0.248 NA
ATOM     55  C   UNL A   1      45.392  32.309  29.055  1.00  0.00     0.031 C 
ATOM     56  C   UNL A   1      41.159  34.126  31.499  1.00  0.00     0.029 A 
ATOM     57  C   UNL A   1      41.336  34.290  30.135  1.00  0.00     0.049 A 
ATOM     58  H   UNL A   1      39.887  34.403  28.613  1.00  0.00     0.167 HD
ATOM     59  C   UNL A   1      43.448  33.574  29.274  1.00  0.00     0.074 A 
ATOM     60  C   UNL A   1      44.865  33.542  28.957  1.00  0.00     0.031 C 
ATOM     61  C   UNL A   1      42.512  34.575  29.322  1.00  0.00     0.037 A 
BRANCH  48  62
ATOM     62  C   UNL A   1      36.448  34.027  30.678  1.00  0.00     0.058 A 
ATOM     63  C   UNL A   1      35.451  34.532  29.822  1.00  0.00     0.135 A 
ATOM     64  C   UNL A   1      36.121  34.059  32.052  1.00  0.00     0.135 A 
ATOM     65  F   UNL A   1      35.580  34.486  28.491  1.00  0.00    -0.206 F 
ATOM     66  C   UNL A   1      34.270  35.110  30.295  1.00  0.00     0.059 A 
ATOM     67  C   UNL A   1      34.981  34.694  32.553  1.00  0.00     0.059 A 
ATOM     68  F   UNL A   1      36.890  33.437  32.960  1.00  0.00    -0.206 F 
ATOM     69  C   UNL A   1      34.054  35.212  31.662  1.00  0.00     0.060 A 
BRANCH  69  70
ATOM     70  S   UNL A   1      32.530  35.974  32.247  1.00  0.00     0.124 S 
ATOM     71  O   UNL A   1      31.851  34.857  32.896  1.00  0.00    -0.237 OA
ATOM     72  O   UNL A   1      33.040  37.013  33.136  1.00  0.00    -0.237 OA
ATOM     73  O   UNL A   1      31.897  36.454  31.021  1.00  0.00    -0.744 OA
ENDBRANCH  69  70
ENDBRANCH  48  62
BRANCH  49  74
ATOM     74  C   UNL A   1      44.761  28.919  29.077  1.00  0.00     0.058 A 
ATOM     75  C   UNL A   1      44.267  28.812  27.760  1.00  0.00     0.135 A 
ATOM     76  C   UNL A   1      45.898  28.157  29.383  1.00  0.00     0.135 A 
ATOM     77  F   UNL A   1      43.175  29.506  27.399  1.00  0.00    -0.206 F 
ATOM     78  C   UNL A   1      44.925  28.090  26.767  1.00  0.00     0.059 A 
ATOM     79  C   UNL A   1      46.586  27.428  28.396  1.00  0.00     0.059 A 
ATOM     80  F   UNL A   1      46.407  28.178  30.623  1.00  0.00    -0.206 F 
ATOM     81  C   UNL A   1      46.116  27.443  27.081  1.00  0.00     0.060 A 
BRANCH  81  82
ATOM     82  S   UNL A   1      47.044  26.685  25.720  1.00  0.00     0.124 S 
ATOM     83  O   UNL A   1      48.156  27.614  25.546  1.00  0.00    -0.237 OA
ATOM     84  O   UNL A   1      47.414  25.392  26.295  1.00  0.00    -0.237 OA
ATOM     85  O   UNL A   1      46.077  26.653  24.632  1.00  0.00    -0.744 OA
ENDBRANCH  81  82
ENDBRANCH  49  74
BRANCH  61  86
ATOM     86  C   UNL A   1      42.624  35.963  28.707  1.00  0.00     0.058 A 
ATOM     87  C   UNL A   1      42.007  36.359  27.509  1.00  0.00     0.135 A 
ATOM     88  C   UNL A   1      43.262  37.016  29.420  1.00  0.00     0.135 A 
ATOM     89  F   UNL A   1      41.265  35.515  26.782  1.00  0.00    -0.206 F 
ATOM     90  C   UNL A   1      42.073  37.667  27.025  1.00  0.00     0.059 A 
ATOM     91  C   UNL A   1      43.267  38.341  28.999  1.00  0.00     0.059 A 
ATOM     92  F   UNL A   1      43.902  36.809  30.580  1.00  0.00    -0.206 F 
ATOM     93  C   UNL A   1      42.698  38.654  27.779  1.00  0.00     0.060 A 
BRANCH  93  94
ATOM     94  S   UNL A   1      42.721  40.348  27.182  1.00  0.00     0.124 S 
ATOM     95  O   UNL A   1      43.188  41.064  28.364  1.00  0.00    -0.237 OA
ATOM     96  O   UNL A   1      43.666  40.280  26.070  1.00  0.00    -0.237 OA
ATOM     97  O   UNL A   1      41.334  40.592  26.801  1.00  0.00    -0.744 OA
ENDBRANCH  93  94
ENDBRANCH  61  86
ENDBRANCH  35  36
ENDBRANCH  27  30
ENDBRANCH  25  26
ENDBRANCH  24  25
ENDBRANCH   1  24
TORSDOF 18
ENDMDL
MODEL 3
REMARK VINA RESULT:     -12.5      4.922     11.811
REMARK SMILES Cc1ccccc1OCC[NH+]1CCC(CC(=O)NCCCNC(=O)c2ccc(-c3c4nc(c(-c5c(F)cc(S(=O)(=O)[O-])cc5F)c5ccc([nH]5)c(-c5c(F)cc(S(=O)(=O)[O-])cc5F)c5nc(c(-c6c(F)cc(S(=O)(=O)[O-])cc6F)c6ccc3[nH]6)C=C5)C=C4)cc2)CC1
REMARK SMILES IDX 19 1 18 2 16 3 17 4 15 6 14 7 11 8 12 9 92 10 13 12 91 13
REMARK SMILES IDX 10 14 9 15 8 16 7 17 1 18 2 19 3 20 4 21 6 22 5 23 20 24
REMARK SMILES IDX 21 25 22 26 23 27 24 29 25 30 26 31 90 32 27 33 89 34 28 35
REMARK SMILES IDX 29 36 30 37 83 38 31 39 88 40 82 41 84 42 32 43 87 44 81 45
REMARK SMILES IDX 80 46 33 48 67 49 46 50 66 51 47 52 50 53 65 54 85 55 48 56
REMARK SMILES IDX 49 57 64 59 86 60 51 61 34 62 35 63 44 64 36 65 37 66 43 67
REMARK SMILES IDX 45 68 38 69 39 70 40 71 41 72 42 73 68 74 69 75 78 76 70 77
REMARK SMILES IDX 71 78 77 79 79 80 72 81 73 82 74 83 75 84 76 85 52 86 53 87
REMARK SMILES IDX 62 88 54 89 55 90 61 91 63 92 56 93 57 94 58 95 59 96 60 97
REMARK H PARENT 18 5 11 11 22 28 84 47 50 58
REMARK Flexibility Score: inf
ROOT
ATOM      1  C   UNL A   1      39.083  21.078  25.989  1.00  0.00     0.117 C 
ENDROOT
BRANCH   1   2
ATOM      2  N   UNL A   1      38.358  21.949  25.035  1.00  0.00    -0.356 N 
ATOM      3  C   UNL A   1      37.066  21.965  24.583  1.00  0.00     0.220 C 
ATOM      4  O   UNL A   1      36.764  22.780  23.707  1.00  0.00    -0.275 OA
ATOM      5  H   UNL A   1      38.919  22.660  24.649  1.00  0.00     0.163 HD
BRANCH   3   6
ATOM      6  C   UNL A   1      36.003  21.035  25.152  1.00  0.00     0.104 C 
BRANCH   6   7
ATOM      7  C   UNL A   1      34.582  21.686  25.249  1.00  0.00     0.009 C 
ATOM      8  N   UNL A   1      31.972  24.486  24.440  1.00  0.00    -0.332 N 
ATOM      9  C   UNL A   1      33.178  24.697  25.869  1.00  0.00     0.262 C 
ATOM     10  C   UNL A   1      32.081  22.968  23.369  1.00  0.00     0.262 C 
ATOM     11  H   UNL A   1      31.166  24.289  25.032  1.00  0.00     0.348 HD
ATOM     12  C   UNL A   1      34.658  23.439  26.117  1.00  0.00     0.066 C 
ATOM     13  C   UNL A   1      33.290  21.460  23.754  1.00  0.00     0.066 C 
BRANCH   8  14
ATOM     14  C   UNL A   1      31.636  25.666  23.678  1.00  0.00     0.304 C 
BRANCH  14  15
ATOM     15  C   UNL A   1      30.511  26.421  24.326  1.00  0.00     0.290 C 
BRANCH  15  16
ATOM     16  O   UNL A   1      30.760  27.817  24.441  1.00  0.00    -0.487 OA
BRANCH  16  17
ATOM     17  C   UNL A   1      31.880  28.265  25.133  1.00  0.00     0.122 A 
ATOM     18  C   UNL A   1      34.190  28.683  22.794  1.00  0.00     0.048 C 
ATOM     19  C   UNL A   1      33.302  28.584  24.674  1.00  0.00    -0.009 A 
ATOM     20  C   UNL A   1      34.009  28.732  25.976  1.00  0.00     0.007 A 
ATOM     21  C   UNL A   1      33.562  28.558  27.322  1.00  0.00     0.001 A 
ATOM     22  C   UNL A   1      31.442  28.108  26.508  1.00  0.00     0.047 A 
ATOM     23  C   UNL A   1      32.274  28.224  27.591  1.00  0.00     0.004 A 
ENDBRANCH  16  17
ENDBRANCH  15  16
ENDBRANCH  14  15
ENDBRANCH   8  14
ENDBRANCH   6   7
ENDBRANCH   3   6
ENDBRANCH   1   2
BRANCH   1  24
ATOM     24  C   UNL A   1      39.900  21.888  26.996  1.00  0.00     0.042 C 
BRANCH  24  25
ATOM     25  C   UNL A   1      39.869  23.405  27.005  1.00  0.00     0.118 C 
BRANCH  25  26
ATOM     26  N   UNL A   1      41.160  24.095  26.916  1.00  0.00    -0.352 N 
ATOM     27  C   UNL A   1      41.430  25.452  27.071  1.00  0.00     0.251 C 
ATOM     28  H   UNL A   1      41.937  23.522  26.722  1.00  0.00     0.163 HD
ATOM     29  O   UNL A   1      42.548  25.949  27.013  1.00  0.00    -0.269 OA
BRANCH  27  30
ATOM     30  C   UNL A   1      40.286  26.330  27.392  1.00  0.00     0.039 A 
ATOM     31  C   UNL A   1      40.284  27.557  26.717  1.00  0.00     0.014 A 
ATOM     32  C   UNL A   1      39.755  26.183  28.670  1.00  0.00     0.014 A 
ATOM     33  C   UNL A   1      40.119  28.707  27.463  1.00  0.00     0.010 A 
ATOM     34  C   UNL A   1      39.687  27.327  29.430  1.00  0.00     0.010 A 
ATOM     35  C   UNL A   1      39.980  28.562  28.841  1.00  0.00    -0.014 A 
BRANCH  35  36
ATOM     36  C   UNL A   1      40.119  29.682  29.748  1.00  0.00     0.031 A 
ATOM     37  C   UNL A   1      39.038  30.661  29.631  1.00  0.00     0.074 A 
ATOM     38  C   UNL A   1      41.196  29.811  30.552  1.00  0.00     0.049 A 
ATOM     39  N   UNL A   1      39.210  31.926  29.503  1.00  0.00    -0.248 NA
ATOM     40  C   UNL A   1      37.648  30.235  29.454  1.00  0.00     0.031 C 
ATOM     41  C   UNL A   1      41.460  30.839  31.552  1.00  0.00     0.029 A 
ATOM     42  N   UNL A   1      42.403  29.095  30.476  1.00  0.00    -0.354 N 
ATOM     43  C   UNL A   1      37.952  32.478  29.597  1.00  0.00     0.074 A 
ATOM     44  C   UNL A   1      37.031  31.407  29.329  1.00  0.00     0.031 C 
ATOM     45  C   UNL A   1      42.790  30.905  31.757  1.00  0.00     0.029 A 
ATOM     46  C   UNL A   1      43.428  29.993  30.817  1.00  0.00     0.049 A 
ATOM     47  H   UNL A   1      42.509  28.147  30.231  1.00  0.00     0.167 HD
ATOM     48  C   UNL A   1      37.801  33.696  30.186  1.00  0.00     0.037 A 
ATOM     49  C   UNL A   1      44.379  30.337  29.903  1.00  0.00     0.037 A 
ATOM     50  C   UNL A   1      39.108  34.197  30.608  1.00  0.00     0.049 A 
ATOM     51  C   UNL A   1      44.291  31.799  29.537  1.00  0.00     0.074 A 
ATOM     52  C   UNL A   1      39.776  34.117  31.822  1.00  0.00     0.029 A 
ATOM     53  N   UNL A   1      40.084  34.460  29.649  1.00  0.00    -0.354 N 
ATOM     54  N   UNL A   1      43.197  32.509  29.642  1.00  0.00    -0.248 NA
ATOM     55  C   UNL A   1      45.437  32.597  29.120  1.00  0.00     0.031 C 
ATOM     56  C   UNL A   1      41.163  34.291  31.579  1.00  0.00     0.029 A 
ATOM     57  C   UNL A   1      41.344  34.486  30.220  1.00  0.00     0.049 A 
ATOM     58  H   UNL A   1      39.900  34.608  28.693  1.00  0.00     0.167 HD
ATOM     59  C   UNL A   1      43.471  33.824  29.355  1.00  0.00     0.074 A 
ATOM     60  C   UNL A   1      44.891  33.823  29.046  1.00  0.00     0.031 C 
ATOM     61  C   UNL A   1      42.519  34.809  29.420  1.00  0.00     0.037 A 
BRANCH  48  62
ATOM     62  C   UNL A   1      36.458  34.131  30.731  1.00  0.00     0.058 A 
ATOM     63  C   UNL A   1      35.404  34.489  29.869  1.00  0.00     0.135 A 
ATOM     64  C   UNL A   1      36.172  34.274  32.107  1.00  0.00     0.135 A 
ATOM     65  F   UNL A   1      35.495  34.324  28.544  1.00  0.00    -0.206 F 
ATOM     66  C   UNL A   1      34.203  35.035  30.329  1.00  0.00     0.059 A 
ATOM     67  C   UNL A   1      35.010  34.882  32.589  1.00  0.00     0.059 A 
ATOM     68  F   UNL A   1      37.007  33.790  33.040  1.00  0.00    -0.206 F 
ATOM     69  C   UNL A   1      34.023  35.254  31.687  1.00  0.00     0.060 A 
BRANCH  69  70
ATOM     70  S   UNL A   1      32.471  35.972  32.254  1.00  0.00     0.124 S 
ATOM     71  O   UNL A   1      32.920  36.937  33.254  1.00  0.00    -0.237 OA
ATOM     72  O   UNL A   1      31.938  36.538  31.020  1.00  0.00    -0.237 OA
ATOM     73  O   UNL A   1      31.739  34.826  32.786  1.00  0.00    -0.744 OA
ENDBRANCH  69  70
ENDBRANCH  48  62
BRANCH  49  74
ATOM     74  C   UNL A   1      44.863  29.197  29.066  1.00  0.00     0.058 A 
ATOM     75  C   UNL A   1      44.333  29.077  27.764  1.00  0.00     0.135 A 
ATOM     76  C   UNL A   1      46.040  28.482  29.332  1.00  0.00     0.135 A 
ATOM     77  F   UNL A   1      43.203  29.727  27.441  1.00  0.00    -0.206 F 
ATOM     78  C   UNL A   1      44.991  28.390  26.747  1.00  0.00     0.059 A 
ATOM     79  C   UNL A   1      46.728  27.789  28.319  1.00  0.00     0.059 A 
ATOM     80  F   UNL A   1      46.585  28.518  30.556  1.00  0.00    -0.206 F 
ATOM     81  C   UNL A   1      46.217  27.793  27.019  1.00  0.00     0.060 A 
BRANCH  81  82
ATOM     82  S   UNL A   1      47.134  27.082  25.625  1.00  0.00     0.124 S 
ATOM     83  O   UNL A   1      46.812  25.663  25.731  1.00  0.00    -0.237 OA
ATOM     84  O   UNL A   1      46.520  27.763  24.486  1.00  0.00    -0.237 OA
ATOM     85  O   UNL A   1      48.516  27.436  25.918  1.00  0.00    -0.744 OA
ENDBRANCH  81  82
ENDBRANCH  49  74
BRANCH  61  86
ATOM     86  C   UNL A   1      42.611  36.211  28.835  1.00  0.00     0.058 A 
ATOM     87  C   UNL A   1      43.404  37.245  29.358  1.00  0.00     0.135 A 
ATOM     88  C   UNL A   1      41.989  36.513  27.592  1.00  0.00     0.135 A 
ATOM     89  F   UNL A   1      44.149  37.080  30.457  1.00  0.00    -0.206 F 
ATOM     90  C   UNL A   1      43.517  38.493  28.741  1.00  0.00     0.059 A 
ATOM     91  C   UNL A   1      42.157  37.718  26.918  1.00  0.00     0.059 A 
ATOM     92  F   UNL A   1      41.196  35.638  26.957  1.00  0.00    -0.206 F 
ATOM     93  C   UNL A   1      42.897  38.719  27.518  1.00  0.00     0.060 A 
BRANCH  93  94
ATOM     94  S   UNL A   1      43.103  40.304  26.696  1.00  0.00     0.124 S 
ATOM     95  O   UNL A   1      41.973  40.298  25.773  1.00  0.00    -0.237 OA
ATOM     96  O   UNL A   1      43.009  41.250  27.805  1.00  0.00    -0.237 OA
ATOM     97  O   UNL A   1      44.422  40.199  26.082  1.00  0.00    -0.744 OA
ENDBRANCH  93  94
ENDBRANCH  61  86
ENDBRANCH  35  36
ENDBRANCH  27  30
ENDBRANCH  25  26
ENDBRANCH  24  25
ENDBRANCH   1  24
TORSDOF 18
ENDMDL
