MODEL 1
REMARK VINA RESULT:     -12.2      0.000      0.000
REMARK SMILES O=C(NCCCNC(=O)c1ccc(-c2c3nc(c(-c4c(F)cc(S(=O)(=O)[O-])cc4F)c4ccc([nH]4)c(-c4c(F)cc(S(=O)(=O)[O-])cc4F)c4nc(c(-c5c(F)cc(S(=O)(=O)[O-])cc5F)c5ccc2[nH]5)C=C4)C=C3)cc1)C1=Cc2c(cc(Cl)c(Cl)c2Cl)O[C@H]1C(F)(F)F
REMARK SMILES IDX 6 1 5 2 4 3 3 4 1 5 2 6 76 8 77 9 88 10 78 11 87 12 79 13
REMARK SMILES IDX 85 14 80 15 83 16 86 17 81 18 84 19 82 20 89 21 90 22 91 23
REMARK SMILES IDX 92 24 7 25 8 26 9 28 10 29 11 30 75 31 12 32 74 33 13 34
REMARK SMILES IDX 14 35 15 36 68 37 16 38 73 39 67 40 69 41 17 42 72 43 66 44
REMARK SMILES IDX 65 45 18 47 52 48 31 49 51 50 32 51 35 52 50 53 70 54 33 55
REMARK SMILES IDX 34 56 49 58 71 59 36 60 19 61 20 62 29 63 21 64 22 65 28 66
REMARK SMILES IDX 30 67 23 68 24 69 25 70 26 71 27 72 53 73 54 74 63 75 55 76
REMARK SMILES IDX 56 77 62 78 64 79 57 80 58 81 59 82 60 83 61 84 37 85 38 86
REMARK SMILES IDX 47 87 39 88 40 89 46 90 48 91 41 92 42 93 43 94 44 95 45 96
REMARK H PARENT 3 7 7 27 69 46 35 57
REMARK Flexibility Score: inf
ROOT
ATOM      1  C   UNL A   1      34.027  28.265  26.310  1.00  0.00     0.118 C 
ENDROOT
BRANCH   1   2
ATOM      2  C   UNL A   1      34.205  28.411  24.812  1.00  0.00     0.042 C 
BRANCH   2   3
ATOM      3  C   UNL A   1      33.103  27.805  23.975  1.00  0.00     0.118 C 
BRANCH   3   4
ATOM      4  N   UNL A   1      33.464  26.782  23.019  1.00  0.00    -0.352 N 
ATOM      5  O   UNL A   1      33.944  24.671  22.371  1.00  0.00    -0.270 OA
ATOM      6  C   UNL A   1      33.605  25.439  23.265  1.00  0.00     0.251 C 
ATOM      7  H   UNL A   1      33.626  27.081  22.096  1.00  0.00     0.163 HD
BRANCH   6   8
ATOM      8  C   UNL A   1      33.404  24.906  24.644  1.00  0.00     0.067 C 
ATOM      9  C   UNL A   1      34.479  24.521  25.354  1.00  0.00     0.027 C 
ATOM     10  C   UNL A   1      32.051  24.294  24.908  1.00  0.00     0.314 C 
ATOM     11  C   UNL A   1      34.557  23.037  25.452  1.00  0.00     0.037 A 
ATOM     12  O   UNL A   1      32.123  22.897  25.339  1.00  0.00    -0.475 OA
ATOM     13  C   UNL A   1      33.362  22.306  25.366  1.00  0.00     0.131 A 
ATOM     14  C   UNL A   1      35.796  22.369  25.387  1.00  0.00     0.072 A 
ATOM     15  C   UNL A   1      33.397  20.934  25.132  1.00  0.00     0.069 A 
ATOM     16  C   UNL A   1      35.834  20.990  25.114  1.00  0.00     0.079 A 
ATOM     17  Cl  UNL A   1      37.262  23.294  25.535  1.00  0.00    -0.082 Cl
ATOM     18  C   UNL A   1      34.627  20.288  24.956  1.00  0.00     0.064 A 
ATOM     19  Cl  UNL A   1      37.352  20.178  24.901  1.00  0.00    -0.081 Cl
ATOM     20  Cl  UNL A   1      34.577  18.633  24.456  1.00  0.00    -0.083 Cl
BRANCH  10  21
ATOM     21  C   UNL A   1      31.231  25.126  25.916  1.00  0.00     0.429 C 
ATOM     22  F   UNL A   1      30.568  26.153  25.336  1.00  0.00    -0.167 F 
ATOM     23  F   UNL A   1      30.309  24.359  26.545  1.00  0.00    -0.167 F 
ATOM     24  F   UNL A   1      32.018  25.671  26.876  1.00  0.00    -0.167 F 
ENDBRANCH  10  21
ENDBRANCH   6   8
ENDBRANCH   3   4
ENDBRANCH   2   3
ENDBRANCH   1   2
BRANCH   1  25
ATOM     25  N   UNL A   1      33.720  29.511  27.010  1.00  0.00    -0.352 N 
ATOM     26  C   UNL A   1      34.470  30.312  27.841  1.00  0.00     0.251 C 
ATOM     27  H   UNL A   1      32.804  29.839  26.858  1.00  0.00     0.163 HD
ATOM     28  O   UNL A   1      33.935  31.300  28.347  1.00  0.00    -0.269 OA
BRANCH  26  29
ATOM     29  C   UNL A   1      35.883  30.002  28.161  1.00  0.00     0.039 A 
ATOM     30  C   UNL A   1      36.211  29.506  29.428  1.00  0.00     0.014 A 
ATOM     31  C   UNL A   1      36.898  30.215  27.233  1.00  0.00     0.014 A 
ATOM     32  C   UNL A   1      37.536  29.165  29.723  1.00  0.00     0.010 A 
ATOM     33  C   UNL A   1      38.174  29.724  27.466  1.00  0.00     0.010 A 
ATOM     34  C   UNL A   1      38.525  29.235  28.728  1.00  0.00    -0.014 A 
BRANCH  34  35
ATOM     35  C   UNL A   1      39.946  28.887  28.990  1.00  0.00     0.031 A 
ATOM     36  C   UNL A   1      40.867  29.923  29.591  1.00  0.00     0.074 A 
ATOM     37  C   UNL A   1      40.428  27.685  28.617  1.00  0.00     0.049 A 
ATOM     38  N   UNL A   1      42.158  29.869  29.793  1.00  0.00    -0.248 NA
ATOM     39  C   UNL A   1      40.264  31.216  29.965  1.00  0.00     0.031 C 
ATOM     40  C   UNL A   1      39.658  26.626  27.959  1.00  0.00     0.029 A 
ATOM     41  N   UNL A   1      41.686  27.152  28.731  1.00  0.00    -0.354 N 
ATOM     42  C   UNL A   1      42.519  31.123  30.277  1.00  0.00     0.074 A 
ATOM     43  C   UNL A   1      41.329  31.942  30.259  1.00  0.00     0.031 C 
ATOM     44  C   UNL A   1      40.450  25.560  27.766  1.00  0.00     0.029 A 
ATOM     45  C   UNL A   1      41.791  25.869  28.248  1.00  0.00     0.049 A 
ATOM     46  H   UNL A   1      42.445  27.643  29.123  1.00  0.00     0.167 HD
ATOM     47  C   UNL A   1      43.720  31.545  30.738  1.00  0.00     0.037 A 
ATOM     48  C   UNL A   1      42.850  25.037  28.207  1.00  0.00     0.037 A 
ATOM     49  C   UNL A   1      44.883  30.702  30.811  1.00  0.00     0.049 A 
ATOM     50  C   UNL A   1      44.161  25.505  28.778  1.00  0.00     0.074 A 
ATOM     51  C   UNL A   1      46.132  30.996  31.325  1.00  0.00     0.029 A 
ATOM     52  N   UNL A   1      44.931  29.387  30.368  1.00  0.00    -0.354 N 
ATOM     53  N   UNL A   1      44.470  26.675  29.286  1.00  0.00    -0.248 NA
ATOM     54  C   UNL A   1      45.262  24.533  28.789  1.00  0.00     0.031 C 
ATOM     55  C   UNL A   1      46.948  29.871  31.159  1.00  0.00     0.029 A 
ATOM     56  C   UNL A   1      46.190  28.859  30.590  1.00  0.00     0.049 A 
ATOM     57  H   UNL A   1      44.179  28.902  29.958  1.00  0.00     0.167 HD
ATOM     58  C   UNL A   1      45.792  26.571  29.705  1.00  0.00     0.074 A 
ATOM     59  C   UNL A   1      46.215  25.218  29.405  1.00  0.00     0.031 C 
ATOM     60  C   UNL A   1      46.586  27.506  30.286  1.00  0.00     0.037 A 
BRANCH  47  61
ATOM     61  C   UNL A   1      43.825  32.972  31.210  1.00  0.00     0.058 A 
ATOM     62  C   UNL A   1      43.569  33.332  32.545  1.00  0.00     0.135 A 
ATOM     63  C   UNL A   1      44.192  33.995  30.322  1.00  0.00     0.135 A 
ATOM     64  F   UNL A   1      43.196  32.400  33.437  1.00  0.00    -0.206 F 
ATOM     65  C   UNL A   1      43.630  34.655  32.971  1.00  0.00     0.059 A 
ATOM     66  C   UNL A   1      44.294  35.322  30.733  1.00  0.00     0.059 A 
ATOM     67  F   UNL A   1      44.447  33.714  29.034  1.00  0.00    -0.206 F 
ATOM     68  C   UNL A   1      43.993  35.643  32.056  1.00  0.00     0.060 A 
BRANCH  68  69
ATOM     69  S   UNL A   1      44.065  37.356  32.623  1.00  0.00     0.124 S 
ATOM     70  O   UNL A   1      43.798  38.083  31.387  1.00  0.00    -0.237 OA
ATOM     71  O   UNL A   1      43.005  37.398  33.625  1.00  0.00    -0.237 OA
ATOM     72  O   UNL A   1      45.422  37.484  33.146  1.00  0.00    -0.744 OA
ENDBRANCH  68  69
ENDBRANCH  47  61
BRANCH  48  73
ATOM     73  C   UNL A   1      42.696  23.664  27.655  1.00  0.00     0.058 A 
ATOM     74  C   UNL A   1      42.427  22.574  28.496  1.00  0.00     0.135 A 
ATOM     75  C   UNL A   1      42.793  23.414  26.277  1.00  0.00     0.135 A 
ATOM     76  F   UNL A   1      42.327  22.760  29.822  1.00  0.00    -0.206 F 
ATOM     77  C   UNL A   1      42.278  21.283  27.998  1.00  0.00     0.059 A 
ATOM     78  C   UNL A   1      42.621  22.137  25.750  1.00  0.00     0.059 A 
ATOM     79  F   UNL A   1      43.028  24.424  25.425  1.00  0.00    -0.206 F 
ATOM     80  C   UNL A   1      42.375  21.076  26.621  1.00  0.00     0.060 A 
BRANCH  80  81
ATOM     81  S   UNL A   1      42.130  19.405  25.979  1.00  0.00     0.124 S 
ATOM     82  O   UNL A   1      42.964  19.425  24.783  1.00  0.00    -0.237 OA
ATOM     83  O   UNL A   1      42.612  18.579  27.082  1.00  0.00    -0.237 OA
ATOM     84  O   UNL A   1      40.689  19.345  25.744  1.00  0.00    -0.744 OA
ENDBRANCH  80  81
ENDBRANCH  48  73
BRANCH  60  85
ATOM     85  C   UNL A   1      47.974  27.078  30.673  1.00  0.00     0.058 A 
ATOM     86  C   UNL A   1      49.072  27.262  29.819  1.00  0.00     0.135 A 
ATOM     87  C   UNL A   1      48.208  26.489  31.927  1.00  0.00     0.135 A 
ATOM     88  F   UNL A   1      48.902  27.821  28.610  1.00  0.00    -0.206 F 
ATOM     89  C   UNL A   1      50.346  26.828  30.172  1.00  0.00     0.059 A 
ATOM     90  C   UNL A   1      49.478  26.078  32.314  1.00  0.00     0.059 A 
ATOM     91  F   UNL A   1      47.195  26.308  32.789  1.00  0.00    -0.206 F 
ATOM     92  C   UNL A   1      50.537  26.231  31.419  1.00  0.00     0.060 A 
BRANCH  92  93
ATOM     93  S   UNL A   1      52.191  25.660  31.862  1.00  0.00     0.124 S 
ATOM     94  O   UNL A   1      51.945  24.252  32.153  1.00  0.00    -0.237 OA
ATOM     95  O   UNL A   1      52.953  25.935  30.648  1.00  0.00    -0.237 OA
ATOM     96  O   UNL A   1      52.538  26.489  33.013  1.00  0.00    -0.744 OA
ENDBRANCH  92  93
ENDBRANCH  60  85
ENDBRANCH  34  35
ENDBRANCH  26  29
ENDBRANCH   1  25
TORSDOF 14
ENDMDL
MODEL 2
REMARK VINA RESULT:     -11.7      4.339      6.932
REMARK SMILES O=C(NCCCNC(=O)c1ccc(-c2c3nc(c(-c4c(F)cc(S(=O)(=O)[O-])cc4F)c4ccc([nH]4)c(-c4c(F)cc(S(=O)(=O)[O-])cc4F)c4nc(c(-c5c(F)cc(S(=O)(=O)[O-])cc5F)c5ccc2[nH]5)C=C4)C=C3)cc1)C1=Cc2c(cc(Cl)c(Cl)c2Cl)O[C@H]1C(F)(F)F
REMARK SMILES IDX 6 1 5 2 4 3 3 4 1 5 2 6 76 8 77 9 88 10 78 11 87 12 79 13
REMARK SMILES IDX 85 14 80 15 83 16 86 17 81 18 84 19 82 20 89 21 90 22 91 23
REMARK SMILES IDX 92 24 7 25 8 26 9 28 10 29 11 30 75 31 12 32 74 33 13 34
REMARK SMILES IDX 14 35 15 36 68 37 16 38 73 39 67 40 69 41 17 42 72 43 66 44
REMARK SMILES IDX 65 45 18 47 52 48 31 49 51 50 32 51 35 52 50 53 70 54 33 55
REMARK SMILES IDX 34 56 49 58 71 59 36 60 19 61 20 62 29 63 21 64 22 65 28 66
REMARK SMILES IDX 30 67 23 68 24 69 25 70 26 71 27 72 53 73 54 74 63 75 55 76
REMARK SMILES IDX 56 77 62 78 64 79 57 80 58 81 59 82 60 83 61 84 37 85 38 86
REMARK SMILES IDX 47 87 39 88 40 89 46 90 48 91 41 92 42 93 43 94 44 95 45 96
REMARK H PARENT 3 7 7 27 69 46 35 57
REMARK Flexibility Score: inf
ROOT
ATOM      1  C   UNL A   1      34.694  32.672  28.249  1.00  0.00     0.118 C 
ENDROOT
BRANCH   1   2
ATOM      2  C   UNL A   1      34.387  33.265  29.611  1.00  0.00     0.042 C 
BRANCH   2   3
ATOM      3  C   UNL A   1      34.767  32.397  30.787  1.00  0.00     0.118 C 
BRANCH   3   4
ATOM      4  N   UNL A   1      34.859  33.023  32.087  1.00  0.00    -0.352 N 
ATOM      5  O   UNL A   1      35.954  33.880  33.868  1.00  0.00    -0.270 OA
ATOM      6  C   UNL A   1      36.007  33.376  32.751  1.00  0.00     0.251 C 
ATOM      7  H   UNL A   1      34.009  33.215  32.543  1.00  0.00     0.163 HD
BRANCH   6   8
ATOM      8  C   UNL A   1      37.339  33.097  32.142  1.00  0.00     0.067 C 
ATOM      9  C   UNL A   1      38.111  32.135  32.681  1.00  0.00     0.027 C 
ATOM     10  C   UNL A   1      37.962  34.248  31.394  1.00  0.00     0.314 C 
ATOM     11  C   UNL A   1      39.257  32.720  33.429  1.00  0.00     0.037 A 
ATOM     12  O   UNL A   1      39.275  34.634  31.914  1.00  0.00    -0.475 OA
ATOM     13  C   UNL A   1      39.727  33.983  33.035  1.00  0.00     0.131 A 
ATOM     14  C   UNL A   1      39.704  32.150  34.638  1.00  0.00     0.072 A 
ATOM     15  C   UNL A   1      40.565  34.710  33.876  1.00  0.00     0.069 A 
ATOM     16  C   UNL A   1      40.521  32.897  35.505  1.00  0.00     0.079 A 
ATOM     17  Cl  UNL A   1      39.136  30.567  35.083  1.00  0.00    -0.082 Cl
ATOM     18  C   UNL A   1      40.919  34.191  35.127  1.00  0.00     0.064 A 
ATOM     19  Cl  UNL A   1      40.970  32.261  37.055  1.00  0.00    -0.081 Cl
ATOM     20  Cl  UNL A   1      41.781  35.243  36.195  1.00  0.00    -0.083 Cl
BRANCH  10  21
ATOM     21  C   UNL A   1      38.045  33.971  29.878  1.00  0.00     0.429 C 
ATOM     22  F   UNL A   1      37.181  34.722  29.156  1.00  0.00    -0.167 F 
ATOM     23  F   UNL A   1      39.287  34.225  29.403  1.00  0.00    -0.167 F 
ATOM     24  F   UNL A   1      37.764  32.677  29.588  1.00  0.00    -0.167 F 
ENDBRANCH  10  21
ENDBRANCH   6   8
ENDBRANCH   3   4
ENDBRANCH   2   3
ENDBRANCH   1   2
BRANCH   1  25
ATOM     25  N   UNL A   1      34.066  31.378  27.995  1.00  0.00    -0.352 N 
ATOM     26  C   UNL A   1      34.570  30.097  27.968  1.00  0.00     0.251 C 
ATOM     27  H   UNL A   1      33.100  31.431  27.808  1.00  0.00     0.163 HD
ATOM     28  O   UNL A   1      33.813  29.172  27.669  1.00  0.00    -0.269 OA
BRANCH  26  29
ATOM     29  C   UNL A   1      35.994  29.810  28.259  1.00  0.00     0.039 A 
ATOM     30  C   UNL A   1      36.360  29.357  29.531  1.00  0.00     0.014 A 
ATOM     31  C   UNL A   1      36.982  30.005  27.298  1.00  0.00     0.014 A 
ATOM     32  C   UNL A   1      37.697  29.039  29.802  1.00  0.00     0.010 A 
ATOM     33  C   UNL A   1      38.269  29.533  27.512  1.00  0.00     0.010 A 
ATOM     34  C   UNL A   1      38.658  29.087  28.779  1.00  0.00    -0.014 A 
BRANCH  34  35
ATOM     35  C   UNL A   1      40.089  28.761  29.014  1.00  0.00     0.031 A 
ATOM     36  C   UNL A   1      41.003  29.809  29.605  1.00  0.00     0.074 A 
ATOM     37  C   UNL A   1      40.584  27.570  28.625  1.00  0.00     0.049 A 
ATOM     38  N   UNL A   1      42.299  29.776  29.783  1.00  0.00    -0.248 NA
ATOM     39  C   UNL A   1      40.386  31.090  29.997  1.00  0.00     0.031 C 
ATOM     40  C   UNL A   1      39.820  26.502  27.974  1.00  0.00     0.029 A 
ATOM     41  N   UNL A   1      41.853  27.058  28.714  1.00  0.00    -0.354 N 
ATOM     42  C   UNL A   1      42.647  31.033  30.269  1.00  0.00     0.074 A 
ATOM     43  C   UNL A   1      41.444  31.832  30.277  1.00  0.00     0.031 C 
ATOM     44  C   UNL A   1      40.626  25.450  27.761  1.00  0.00     0.029 A 
ATOM     45  C   UNL A   1      41.970  25.779  28.221  1.00  0.00     0.049 A 
ATOM     46  H   UNL A   1      42.610  27.559  29.095  1.00  0.00     0.167 HD
ATOM     47  C   UNL A   1      43.849  31.472  30.710  1.00  0.00     0.037 A 
ATOM     48  C   UNL A   1      43.041  24.965  28.156  1.00  0.00     0.037 A 
ATOM     49  C   UNL A   1      45.027  30.648  30.758  1.00  0.00     0.049 A 
ATOM     50  C   UNL A   1      44.354  25.451  28.707  1.00  0.00     0.074 A 
ATOM     51  C   UNL A   1      46.280  30.960  31.252  1.00  0.00     0.029 A 
ATOM     52  N   UNL A   1      45.089  29.336  30.307  1.00  0.00    -0.354 N 
ATOM     53  N   UNL A   1      44.654  26.623  29.216  1.00  0.00    -0.248 NA
ATOM     54  C   UNL A   1      45.471  24.498  28.692  1.00  0.00     0.031 C 
ATOM     55  C   UNL A   1      47.111  29.849  31.064  1.00  0.00     0.029 A 
ATOM     56  C   UNL A   1      46.361  28.827  30.503  1.00  0.00     0.049 A 
ATOM     57  H   UNL A   1      44.338  28.841  29.907  1.00  0.00     0.167 HD
ATOM     58  C   UNL A   1      45.985  26.539  29.611  1.00  0.00     0.074 A 
ATOM     59  C   UNL A   1      46.424  25.194  29.296  1.00  0.00     0.031 C 
ATOM     60  C   UNL A   1      46.773  27.483  30.184  1.00  0.00     0.037 A 
BRANCH  47  61
ATOM     61  C   UNL A   1      43.939  32.898  31.189  1.00  0.00     0.058 A 
ATOM     62  C   UNL A   1      43.741  33.240  32.539  1.00  0.00     0.135 A 
ATOM     63  C   UNL A   1      44.234  33.937  30.293  1.00  0.00     0.135 A 
ATOM     64  F   UNL A   1      43.439  32.292  33.440  1.00  0.00    -0.206 F 
ATOM     65  C   UNL A   1      43.787  34.562  32.972  1.00  0.00     0.059 A 
ATOM     66  C   UNL A   1      44.319  35.263  30.710  1.00  0.00     0.059 A 
ATOM     67  F   UNL A   1      44.431  33.672  28.992  1.00  0.00    -0.206 F 
ATOM     68  C   UNL A   1      44.077  35.566  32.049  1.00  0.00     0.060 A 
BRANCH  68  69
ATOM     69  S   UNL A   1      44.131  37.275  32.627  1.00  0.00     0.124 S 
ATOM     70  O   UNL A   1      43.842  38.007  31.398  1.00  0.00    -0.237 OA
ATOM     71  O   UNL A   1      43.079  37.296  33.639  1.00  0.00    -0.237 OA
ATOM     72  O   UNL A   1      45.491  37.419  33.138  1.00  0.00    -0.744 OA
ENDBRANCH  68  69
ENDBRANCH  47  61
BRANCH  48  73
ATOM     73  C   UNL A   1      42.900  23.592  27.599  1.00  0.00     0.058 A 
ATOM     74  C   UNL A   1      43.269  23.310  26.274  1.00  0.00     0.135 A 
ATOM     75  C   UNL A   1      42.416  22.531  28.380  1.00  0.00     0.135 A 
ATOM     76  F   UNL A   1      43.735  24.291  25.486  1.00  0.00    -0.206 F 
ATOM     77  C   UNL A   1      43.145  22.033  25.737  1.00  0.00     0.059 A 
ATOM     78  C   UNL A   1      42.309  21.239  27.874  1.00  0.00     0.059 A 
ATOM     79  F   UNL A   1      42.069  22.742  29.659  1.00  0.00    -0.206 F 
ATOM     80  C   UNL A   1      42.666  21.002  26.547  1.00  0.00     0.060 A 
BRANCH  80  81
ATOM     81  S   UNL A   1      42.558  19.337  25.855  1.00  0.00     0.124 S 
ATOM     82  O   UNL A   1      43.327  19.480  24.624  1.00  0.00    -0.237 OA
ATOM     83  O   UNL A   1      43.174  18.529  26.904  1.00  0.00    -0.237 OA
ATOM     84  O   UNL A   1      41.122  19.138  25.684  1.00  0.00    -0.744 OA
ENDBRANCH  80  81
ENDBRANCH  48  73
BRANCH  60  85
ATOM     85  C   UNL A   1      48.175  27.076  30.544  1.00  0.00     0.058 A 
ATOM     86  C   UNL A   1      49.264  27.342  29.700  1.00  0.00     0.135 A 
ATOM     87  C   UNL A   1      48.430  26.423  31.761  1.00  0.00     0.135 A 
ATOM     88  F   UNL A   1      49.073  27.964  28.526  1.00  0.00    -0.206 F 
ATOM     89  C   UNL A   1      50.551  26.928  30.026  1.00  0.00     0.059 A 
ATOM     90  C   UNL A   1      49.713  26.030  32.122  1.00  0.00     0.059 A 
ATOM     91  F   UNL A   1      47.426  26.162  32.613  1.00  0.00    -0.206 F 
ATOM     92  C   UNL A   1      50.764  26.266  31.236  1.00  0.00     0.060 A 
BRANCH  92  93
ATOM     93  S   UNL A   1      52.436  25.721  31.644  1.00  0.00     0.124 S 
ATOM     94  O   UNL A   1      52.795  26.653  32.707  1.00  0.00    -0.237 OA
ATOM     95  O   UNL A   1      52.222  24.338  32.057  1.00  0.00    -0.237 OA
ATOM     96  O   UNL A   1      53.162  25.888  30.388  1.00  0.00    -0.744 OA
ENDBRANCH  92  93
ENDBRANCH  60  85
ENDBRANCH  34  35
ENDBRANCH  26  29
ENDBRANCH   1  25
TORSDOF 14
ENDMDL
MODEL 3
REMARK VINA RESULT:     -11.7      2.671      3.447
REMARK SMILES O=C(NCCCNC(=O)c1ccc(-c2c3nc(c(-c4c(F)cc(S(=O)(=O)[O-])cc4F)c4ccc([nH]4)c(-c4c(F)cc(S(=O)(=O)[O-])cc4F)c4nc(c(-c5c(F)cc(S(=O)(=O)[O-])cc5F)c5ccc2[nH]5)C=C4)C=C3)cc1)C1=Cc2c(cc(Cl)c(Cl)c2Cl)O[C@H]1C(F)(F)F
REMARK SMILES IDX 6 1 5 2 4 3 3 4 1 5 2 6 76 8 77 9 88 10 78 11 87 12 79 13
REMARK SMILES IDX 85 14 80 15 83 16 86 17 81 18 84 19 82 20 89 21 90 22 91 23
REMARK SMILES IDX 92 24 7 25 8 26 9 28 10 29 11 30 75 31 12 32 74 33 13 34
REMARK SMILES IDX 14 35 15 36 68 37 16 38 73 39 67 40 69 41 17 42 72 43 66 44
REMARK SMILES IDX 65 45 18 47 52 48 31 49 51 50 32 51 35 52 50 53 70 54 33 55
REMARK SMILES IDX 34 56 49 58 71 59 36 60 19 61 20 62 29 63 21 64 22 65 28 66
REMARK SMILES IDX 30 67 23 68 24 69 25 70 26 71 27 72 53 73 54 74 63 75 55 76
REMARK SMILES IDX 56 77 62 78 64 79 57 80 58 81 59 82 60 83 61 84 37 85 38 86
REMARK SMILES IDX 47 87 39 88 40 89 46 90 48 91 41 92 42 93 43 94 44 95 45 96
REMARK H PARENT 3 7 7 27 69 46 35 57
REMARK Flexibility Score: inf
ROOT
ATOM      1  C   UNL A   1      34.044  28.565  25.774  1.00  0.00     0.118 C 
ENDROOT
BRANCH   1   2
ATOM      2  C   UNL A   1      33.965  28.528  24.261  1.00  0.00     0.042 C 
BRANCH   2   3
ATOM      3  C   UNL A   1      32.916  27.599  23.697  1.00  0.00     0.118 C 
BRANCH   3   4
ATOM      4  N   UNL A   1      33.350  26.564  22.786  1.00  0.00    -0.352 N 
ATOM      5  O   UNL A   1      34.004  24.472  22.233  1.00  0.00    -0.270 OA
ATOM      6  C   UNL A   1      33.615  25.253  23.095  1.00  0.00     0.251 C 
ATOM      7  H   UNL A   1      33.468  26.827  21.845  1.00  0.00     0.163 HD
BRANCH   6   8
ATOM      8  C   UNL A   1      33.487  24.776  24.503  1.00  0.00     0.067 C 
ATOM      9  C   UNL A   1      34.602  24.462  25.186  1.00  0.00     0.027 C 
ATOM     10  C   UNL A   1      32.169  24.130  24.848  1.00  0.00     0.314 C 
ATOM     11  C   UNL A   1      34.739  22.988  25.345  1.00  0.00     0.037 A 
ATOM     12  O   UNL A   1      32.309  22.757  25.338  1.00  0.00    -0.475 OA
ATOM     13  C   UNL A   1      33.569  22.212  25.340  1.00  0.00     0.131 A 
ATOM     14  C   UNL A   1      35.998  22.361  25.261  1.00  0.00     0.072 A 
ATOM     15  C   UNL A   1      33.645  20.833  25.166  1.00  0.00     0.069 A 
ATOM     16  C   UNL A   1      36.076  20.973  25.048  1.00  0.00     0.079 A 
ATOM     17  Cl  UNL A   1      37.433  23.343  25.308  1.00  0.00    -0.082 Cl
ATOM     18  C   UNL A   1      34.890  20.223  24.969  1.00  0.00     0.064 A 
ATOM     19  Cl  UNL A   1      37.614  20.206  24.810  1.00  0.00    -0.081 Cl
ATOM     20  Cl  UNL A   1      34.882  18.546  24.546  1.00  0.00    -0.083 Cl
BRANCH  10  21
ATOM     21  C   UNL A   1      31.359  24.978  25.851  1.00  0.00     0.429 C 
ATOM     22  F   UNL A   1      32.092  25.956  26.429  1.00  0.00    -0.167 F 
ATOM     23  F   UNL A   1      30.305  25.575  25.244  1.00  0.00    -0.167 F 
ATOM     24  F   UNL A   1      30.861  24.223  26.861  1.00  0.00    -0.167 F 
ENDBRANCH  10  21
ENDBRANCH   6   8
ENDBRANCH   3   4
ENDBRANCH   2   3
ENDBRANCH   1   2
BRANCH   1  25
ATOM     25  N   UNL A   1      33.720  29.859  26.369  1.00  0.00    -0.352 N 
ATOM     26  C   UNL A   1      34.346  30.614  27.335  1.00  0.00     0.251 C 
ATOM     27  H   UNL A   1      32.899  30.270  26.011  1.00  0.00     0.163 HD
ATOM     28  O   UNL A   1      33.818  31.667  27.694  1.00  0.00    -0.269 OA
BRANCH  26  29
ATOM     29  C   UNL A   1      35.613  30.180  27.967  1.00  0.00     0.039 A 
ATOM     30  C   UNL A   1      36.829  30.429  27.320  1.00  0.00     0.014 A 
ATOM     31  C   UNL A   1      35.620  29.506  29.185  1.00  0.00     0.014 A 
ATOM     32  C   UNL A   1      38.034  30.065  27.931  1.00  0.00     0.010 A 
ATOM     33  C   UNL A   1      36.812  29.298  29.864  1.00  0.00     0.010 A 
ATOM     34  C   UNL A   1      38.037  29.530  29.230  1.00  0.00    -0.014 A 
BRANCH  34  35
ATOM     35  C   UNL A   1      39.288  29.125  29.923  1.00  0.00     0.031 A 
ATOM     36  C   UNL A   1      39.714  29.856  31.175  1.00  0.00     0.074 A 
ATOM     37  C   UNL A   1      40.078  28.171  29.392  1.00  0.00     0.049 A 
ATOM     38  N   UNL A   1      40.818  29.744  31.867  1.00  0.00    -0.248 NA
ATOM     39  C   UNL A   1      38.798  30.892  31.688  1.00  0.00     0.031 C 
ATOM     40  C   UNL A   1      39.815  27.443  28.148  1.00  0.00     0.029 A 
ATOM     41  N   UNL A   1      41.270  27.652  29.830  1.00  0.00    -0.354 N 
ATOM     42  C   UNL A   1      40.742  30.713  32.862  1.00  0.00     0.074 A 
ATOM     43  C   UNL A   1      39.526  31.459  32.635  1.00  0.00     0.031 C 
ATOM     44  C   UNL A   1      40.794  26.547  27.945  1.00  0.00     0.029 A 
ATOM     45  C   UNL A   1      41.773  26.661  29.020  1.00  0.00     0.049 A 
ATOM     46  H   UNL A   1      41.723  27.961  30.648  1.00  0.00     0.167 HD
ATOM     47  C   UNL A   1      41.583  30.937  33.899  1.00  0.00     0.037 A 
ATOM     48  C   UNL A   1      42.895  25.925  29.138  1.00  0.00     0.037 A 
ATOM     49  C   UNL A   1      42.758  30.148  34.153  1.00  0.00     0.049 A 
ATOM     50  C   UNL A   1      43.785  26.149  30.330  1.00  0.00     0.074 A 
ATOM     51  C   UNL A   1      43.645  30.234  35.211  1.00  0.00     0.029 A 
ATOM     52  N   UNL A   1      43.200  29.111  33.343  1.00  0.00    -0.354 N 
ATOM     53  N   UNL A   1      43.668  27.031  31.295  1.00  0.00    -0.248 NA
ATOM     54  C   UNL A   1      44.950  25.265  30.461  1.00  0.00     0.031 C 
ATOM     55  C   UNL A   1      44.645  29.273  35.020  1.00  0.00     0.029 A 
ATOM     56  C   UNL A   1      44.351  28.554  33.872  1.00  0.00     0.049 A 
ATOM     57  H   UNL A   1      42.759  28.815  32.514  1.00  0.00     0.167 HD
ATOM     58  C   UNL A   1      44.727  26.789  32.164  1.00  0.00     0.074 A 
ATOM     59  C   UNL A   1      45.461  25.666  31.616  1.00  0.00     0.031 C 
ATOM     60  C   UNL A   1      45.062  27.433  33.310  1.00  0.00     0.037 A 
BRANCH  47  61
ATOM     61  C   UNL A   1      41.249  32.068  34.838  1.00  0.00     0.058 A 
ATOM     62  C   UNL A   1      41.799  33.352  34.678  1.00  0.00     0.135 A 
ATOM     63  C   UNL A   1      40.364  31.871  35.910  1.00  0.00     0.135 A 
ATOM     64  F   UNL A   1      42.666  33.597  33.683  1.00  0.00    -0.206 F 
ATOM     65  C   UNL A   1      41.519  34.384  35.569  1.00  0.00     0.059 A 
ATOM     66  C   UNL A   1      40.042  32.898  36.794  1.00  0.00     0.059 A 
ATOM     67  F   UNL A   1      39.809  30.665  36.115  1.00  0.00    -0.206 F 
ATOM     68  C   UNL A   1      40.640  34.145  36.624  1.00  0.00     0.060 A 
BRANCH  68  69
ATOM     69  S   UNL A   1      40.289  35.494  37.772  1.00  0.00     0.124 S 
ATOM     70  O   UNL A   1      39.897  36.561  36.857  1.00  0.00    -0.237 OA
ATOM     71  O   UNL A   1      39.217  34.936  38.591  1.00  0.00    -0.237 OA
ATOM     72  O   UNL A   1      41.561  35.694  38.461  1.00  0.00    -0.744 OA
ENDBRANCH  68  69
ENDBRANCH  47  61
BRANCH  48  73
ATOM     73  C   UNL A   1      43.206  24.874  28.131  1.00  0.00     0.058 A 
ATOM     74  C   UNL A   1      43.908  25.186  26.956  1.00  0.00     0.135 A 
ATOM     75  C   UNL A   1      42.828  23.537  28.328  1.00  0.00     0.135 A 
ATOM     76  F   UNL A   1      44.289  26.451  26.720  1.00  0.00    -0.206 F 
ATOM     77  C   UNL A   1      44.208  24.217  26.005  1.00  0.00     0.059 A 
ATOM     78  C   UNL A   1      43.140  22.544  27.404  1.00  0.00     0.059 A 
ATOM     79  F   UNL A   1      42.173  23.181  29.444  1.00  0.00    -0.206 F 
ATOM     80  C   UNL A   1      43.822  22.897  26.239  1.00  0.00     0.060 A 
BRANCH  80  81
ATOM     81  S   UNL A   1      44.262  21.637  25.022  1.00  0.00     0.124 S 
ATOM     82  O   UNL A   1      43.235  20.629  25.257  1.00  0.00    -0.237 OA
ATOM     83  O   UNL A   1      44.158  22.375  23.766  1.00  0.00    -0.237 OA
ATOM     84  O   UNL A   1      45.619  21.259  25.407  1.00  0.00    -0.744 OA
ENDBRANCH  80  81
ENDBRANCH  48  73
BRANCH  60  85
ATOM     85  C   UNL A   1      46.250  26.905  34.067  1.00  0.00     0.058 A 
ATOM     86  C   UNL A   1      47.549  27.381  33.833  1.00  0.00     0.135 A 
ATOM     87  C   UNL A   1      46.078  25.919  35.052  1.00  0.00     0.135 A 
ATOM     88  F   UNL A   1      47.766  28.325  32.904  1.00  0.00    -0.206 F 
ATOM     89  C   UNL A   1      48.645  26.860  34.513  1.00  0.00     0.059 A 
ATOM     90  C   UNL A   1      47.155  25.407  35.766  1.00  0.00     0.059 A 
ATOM     91  F   UNL A   1      44.853  25.443  35.327  1.00  0.00    -0.206 F 
ATOM     92  C   UNL A   1      48.438  25.868  35.473  1.00  0.00     0.060 A 
BRANCH  92  93
ATOM     93  S   UNL A   1      49.867  25.189  36.340  1.00  0.00     0.124 S 
ATOM     94  O   UNL A   1      50.902  26.161  36.002  1.00  0.00    -0.237 OA
ATOM     95  O   UNL A   1      49.421  25.193  37.730  1.00  0.00    -0.237 OA
ATOM     96  O   UNL A   1      50.028  23.865  35.744  1.00  0.00    -0.744 OA
ENDBRANCH  92  93
ENDBRANCH  60  85
ENDBRANCH  34  35
ENDBRANCH  26  29
ENDBRANCH   1  25
TORSDOF 14
ENDMDL
