MODEL 1
REMARK VINA RESULT:     -13.0      0.000      0.000
REMARK SMILES CCn1ncc(NC(=O)[C@@H]2CCCC[C@@H]2C(=O)NCCCNC(=O)c2ccc(-c3c4nc(c(-c5c(F)cc(S(=O)(=O)[O-])cc5F)c5ccc([nH]5)c(-c5c(F)cc(S(=O)(=O)[O-])cc5F)c5nc(c(-c6c(F)cc(S(=O)(=O)[O-])cc6F)c6ccc3[nH]6)C=C5)C=C4)cc2)c1C(=O)Nc1cnn(C)c1C
REMARK SMILES IDX 19 1 18 2 16 3 17 4 15 6 10 7 11 8 12 9 14 10 13 11 8 12
REMARK SMILES IDX 7 13 9 15 6 16 3 17 4 18 91 19 5 20 2 21 1 22 92 23 93 24
REMARK SMILES IDX 94 25 95 27 96 28 100 29 97 30 98 31 101 32 99 33 20 34
REMARK SMILES IDX 21 35 22 36 23 37 24 39 25 40 26 41 90 42 27 43 89 44 28 45
REMARK SMILES IDX 29 46 30 47 83 48 31 49 88 50 82 51 84 52 32 53 87 54 81 55
REMARK SMILES IDX 80 56 33 58 67 59 46 60 66 61 47 62 50 63 65 64 85 65 48 66
REMARK SMILES IDX 49 67 64 69 86 70 51 71 34 72 35 73 44 74 36 75 37 76 43 77
REMARK SMILES IDX 45 78 38 79 39 80 40 81 41 82 42 83 68 84 69 85 78 86 70 87
REMARK SMILES IDX 71 88 77 89 79 90 72 91 73 92 74 93 75 94 76 95 52 96 53 97
REMARK SMILES IDX 62 98 54 99 55 100 61 101 63 102 56 103 57 104 58 105 59 106
REMARK SMILES IDX 60 107
REMARK H PARENT 18 5 7 14 94 26 22 38 84 57 50 68
REMARK Flexibility Score: inf
ROOT
ATOM      1  C   UNL A   1      34.075  28.786  26.528  1.00  0.00     0.117 C 
ENDROOT
BRANCH   1   2
ATOM      2  N   UNL A   1      34.111  28.998  25.096  1.00  0.00    -0.356 N 
ATOM      3  C   UNL A   1      33.507  28.412  24.035  1.00  0.00     0.223 C 
ATOM      4  O   UNL A   1      33.873  28.822  22.929  1.00  0.00    -0.275 OA
ATOM      5  H   UNL A   1      34.709  29.736  24.834  1.00  0.00     0.163 HD
BRANCH   3   6
ATOM      6  C   UNL A   1      32.452  27.298  24.108  1.00  0.00     0.091 C 
ATOM      7  C   UNL A   1      31.996  26.664  22.794  1.00  0.00     0.091 C 
ATOM      8  C   UNL A   1      31.153  27.622  21.976  1.00  0.00     0.014 C 
ATOM      9  C   UNL A   1      29.842  27.881  22.715  1.00  0.00     0.001 C 
ATOM     10  C   UNL A   1      31.214  27.566  24.969  1.00  0.00     0.014 C 
ATOM     11  C   UNL A   1      29.935  28.026  24.244  1.00  0.00     0.001 C 
BRANCH   7  12
ATOM     12  C   UNL A   1      33.040  25.923  21.991  1.00  0.00     0.228 C 
ATOM     13  N   UNL A   1      33.498  24.694  22.385  1.00  0.00    -0.322 N 
ATOM     14  H   UNL A   1      34.241  24.365  21.830  1.00  0.00     0.170 HD
ATOM     15  O   UNL A   1      33.421  26.330  20.894  1.00  0.00    -0.274 OA
BRANCH  13  16
ATOM     16  C   UNL A   1      33.141  23.811  23.398  1.00  0.00     0.092 A 
ATOM     17  N   UNL A   1      32.457  22.822  25.216  1.00  0.00    -0.258 N 
ATOM     18  N   UNL A   1      31.850  22.126  24.234  1.00  0.00    -0.178 NA
ATOM     19  C   UNL A   1      33.466  23.653  24.752  1.00  0.00     0.150 A 
ATOM     20  C   UNL A   1      32.257  22.737  23.131  1.00  0.00     0.162 A 
BRANCH  17  21
ATOM     21  C   UNL A   1      31.924  22.625  26.549  1.00  0.00     0.142 C 
ATOM     22  C   UNL A   1      30.471  23.056  26.672  1.00  0.00     0.029 C 
ENDBRANCH  17  21
BRANCH  19  23
ATOM     23  C   UNL A   1      34.636  24.132  25.487  1.00  0.00     0.276 C 
ATOM     24  O   UNL A   1      34.870  25.329  25.647  1.00  0.00    -0.267 OA
ATOM     25  N   UNL A   1      35.326  23.218  26.253  1.00  0.00    -0.318 N 
ATOM     26  H   UNL A   1      35.015  23.072  27.175  1.00  0.00     0.170 HD
BRANCH  25  27
ATOM     27  C   UNL A   1      36.419  22.490  25.828  1.00  0.00     0.082 A 
ATOM     28  C   UNL A   1      36.495  21.242  25.181  1.00  0.00     0.161 A 
ATOM     29  C   UNL A   1      37.732  22.875  26.031  1.00  0.00     0.059 A 
ATOM     30  N   UNL A   1      37.750  20.795  25.108  1.00  0.00    -0.179 NA
ATOM     31  N   UNL A   1      38.476  21.773  25.684  1.00  0.00    -0.271 N 
ATOM     32  C   UNL A   1      38.338  24.086  26.644  1.00  0.00     0.068 C 
ATOM     33  C   UNL A   1      39.850  21.496  26.039  1.00  0.00     0.174 C 
ENDBRANCH  25  27
ENDBRANCH  19  23
ENDBRANCH  13  16
ENDBRANCH   7  12
ENDBRANCH   3   6
ENDBRANCH   1   2
BRANCH   1  34
ATOM     34  C   UNL A   1      33.311  29.884  27.279  1.00  0.00     0.042 C 
BRANCH  34  35
ATOM     35  C   UNL A   1      34.018  31.233  27.283  1.00  0.00     0.118 C 
BRANCH  35  36
ATOM     36  N   UNL A   1      34.076  31.827  28.620  1.00  0.00    -0.352 N 
ATOM     37  C   UNL A   1      35.053  31.673  29.590  1.00  0.00     0.251 C 
ATOM     38  H   UNL A   1      33.321  32.412  28.862  1.00  0.00     0.163 HD
ATOM     39  O   UNL A   1      34.854  31.993  30.746  1.00  0.00    -0.269 OA
BRANCH  37  40
ATOM     40  C   UNL A   1      36.335  31.085  29.164  1.00  0.00     0.039 A 
ATOM     41  C   UNL A   1      37.478  31.877  29.067  1.00  0.00     0.014 A 
ATOM     42  C   UNL A   1      36.406  29.698  29.088  1.00  0.00     0.014 A 
ATOM     43  C   UNL A   1      38.722  31.251  29.030  1.00  0.00     0.010 A 
ATOM     44  C   UNL A   1      37.638  29.094  29.202  1.00  0.00     0.010 A 
ATOM     45  C   UNL A   1      38.808  29.854  29.155  1.00  0.00    -0.014 A 
BRANCH  45  46
ATOM     46  C   UNL A   1      40.113  29.212  29.355  1.00  0.00     0.031 A 
ATOM     47  C   UNL A   1      40.564  29.013  30.772  1.00  0.00     0.074 A 
ATOM     48  C   UNL A   1      40.824  28.618  28.373  1.00  0.00     0.049 A 
ATOM     49  N   UNL A   1      41.572  29.557  31.374  1.00  0.00    -0.248 NA
ATOM     50  C   UNL A   1      39.752  28.152  31.646  1.00  0.00     0.031 C 
ATOM     51  C   UNL A   1      40.466  28.401  26.965  1.00  0.00     0.029 A 
ATOM     52  N   UNL A   1      42.024  27.982  28.476  1.00  0.00    -0.354 N 
ATOM     53  C   UNL A   1      41.641  28.977  32.641  1.00  0.00     0.074 A 
ATOM     54  C   UNL A   1      40.425  28.221  32.798  1.00  0.00     0.031 C 
ATOM     55  C   UNL A   1      41.300  27.493  26.419  1.00  0.00     0.029 A 
ATOM     56  C   UNL A   1      42.366  27.230  27.364  1.00  0.00     0.049 A 
ATOM     57  H   UNL A   1      42.599  28.052  29.271  1.00  0.00     0.167 HD
ATOM     58  C   UNL A   1      42.771  29.021  33.407  1.00  0.00     0.037 A 
ATOM     59  C   UNL A   1      43.457  26.447  27.210  1.00  0.00     0.037 A 
ATOM     60  C   UNL A   1      43.707  30.000  32.918  1.00  0.00     0.049 A 
ATOM     61  C   UNL A   1      44.481  26.935  28.166  1.00  0.00     0.074 A 
ATOM     62  C   UNL A   1      43.667  31.366  32.717  1.00  0.00     0.029 A 
ATOM     63  N   UNL A   1      44.789  29.559  32.194  1.00  0.00    -0.354 N 
ATOM     64  N   UNL A   1      45.046  28.110  28.093  1.00  0.00    -0.248 NA
ATOM     65  C   UNL A   1      44.579  26.280  29.459  1.00  0.00     0.031 C 
ATOM     66  C   UNL A   1      44.378  31.578  31.498  1.00  0.00     0.029 A 
ATOM     67  C   UNL A   1      44.854  30.339  31.066  1.00  0.00     0.049 A 
ATOM     68  H   UNL A   1      45.399  28.826  32.438  1.00  0.00     0.167 HD
ATOM     69  C   UNL A   1      45.197  28.519  29.408  1.00  0.00     0.074 A 
ATOM     70  C   UNL A   1      44.997  27.309  30.201  1.00  0.00     0.031 C 
ATOM     71  C   UNL A   1      45.209  29.843  29.751  1.00  0.00     0.037 A 
BRANCH  58  72
ATOM     72  C   UNL A   1      43.156  27.991  34.444  1.00  0.00     0.058 A 
ATOM     73  C   UNL A   1      43.365  28.371  35.787  1.00  0.00     0.135 A 
ATOM     74  C   UNL A   1      43.574  26.682  34.114  1.00  0.00     0.135 A 
ATOM     75  F   UNL A   1      43.031  29.602  36.209  1.00  0.00    -0.206 F 
ATOM     76  C   UNL A   1      43.977  27.529  36.721  1.00  0.00     0.059 A 
ATOM     77  C   UNL A   1      44.137  25.809  35.040  1.00  0.00     0.059 A 
ATOM     78  F   UNL A   1      43.537  26.229  32.854  1.00  0.00    -0.206 F 
ATOM     79  C   UNL A   1      44.371  26.251  36.331  1.00  0.00     0.060 A 
BRANCH  79  80
ATOM     80  S   UNL A   1      45.244  25.193  37.502  1.00  0.00     0.124 S 
ATOM     81  O   UNL A   1      44.567  25.523  38.752  1.00  0.00    -0.237 OA
ATOM     82  O   UNL A   1      44.983  23.861  36.967  1.00  0.00    -0.237 OA
ATOM     83  O   UNL A   1      46.627  25.644  37.393  1.00  0.00    -0.744 OA
ENDBRANCH  79  80
ENDBRANCH  58  72
BRANCH  59  84
ATOM     84  C   UNL A   1      43.536  25.151  26.497  1.00  0.00     0.058 A 
ATOM     85  C   UNL A   1      44.355  24.990  25.370  1.00  0.00     0.135 A 
ATOM     86  C   UNL A   1      43.015  23.971  27.069  1.00  0.00     0.135 A 
ATOM     87  F   UNL A   1      44.906  26.059  24.778  1.00  0.00    -0.206 F 
ATOM     88  C   UNL A   1      44.683  23.728  24.868  1.00  0.00     0.059 A 
ATOM     89  C   UNL A   1      43.319  22.703  26.579  1.00  0.00     0.059 A 
ATOM     90  F   UNL A   1      42.267  24.013  28.182  1.00  0.00    -0.206 F 
ATOM     91  C   UNL A   1      44.179  22.588  25.496  1.00  0.00     0.060 A 
BRANCH  91  92
ATOM     92  S   UNL A   1      44.762  20.960  24.968  1.00  0.00     0.124 S 
ATOM     93  O   UNL A   1      43.808  20.071  25.622  1.00  0.00    -0.237 OA
ATOM     94  O   UNL A   1      44.654  21.053  23.516  1.00  0.00    -0.237 OA
ATOM     95  O   UNL A   1      46.126  20.904  25.485  1.00  0.00    -0.744 OA
ENDBRANCH  91  92
ENDBRANCH  59  84
BRANCH  71  96
ATOM     96  C   UNL A   1      45.340  30.872  28.652  1.00  0.00     0.058 A 
ATOM     97  C   UNL A   1      44.252  31.435  27.959  1.00  0.00     0.135 A 
ATOM     98  C   UNL A   1      46.603  31.432  28.404  1.00  0.00     0.135 A 
ATOM     99  F   UNL A   1      42.998  31.042  28.210  1.00  0.00    -0.206 F 
ATOM    100  C   UNL A   1      44.416  32.471  27.036  1.00  0.00     0.059 A 
ATOM    101  C   UNL A   1      46.788  32.487  27.510  1.00  0.00     0.059 A 
ATOM    102  F   UNL A   1      47.678  30.989  29.077  1.00  0.00    -0.206 F 
ATOM    103  C   UNL A   1      45.689  32.993  26.820  1.00  0.00     0.060 A 
BRANCH 103 104
ATOM    104  S   UNL A   1      45.884  34.392  25.692  1.00  0.00     0.124 S 
ATOM    105  O   UNL A   1      45.016  34.016  24.582  1.00  0.00    -0.237 OA
ATOM    106  O   UNL A   1      45.429  35.521  26.500  1.00  0.00    -0.237 OA
ATOM    107  O   UNL A   1      47.315  34.392  25.393  1.00  0.00    -0.744 OA
ENDBRANCH 103 104
ENDBRANCH  71  96
ENDBRANCH  45  46
ENDBRANCH  37  40
ENDBRANCH  35  36
ENDBRANCH  34  35
ENDBRANCH   1  34
TORSDOF 18
ENDMDL
MODEL 2
REMARK VINA RESULT:     -12.9      2.710      9.463
REMARK SMILES CCn1ncc(NC(=O)[C@@H]2CCCC[C@@H]2C(=O)NCCCNC(=O)c2ccc(-c3c4nc(c(-c5c(F)cc(S(=O)(=O)[O-])cc5F)c5ccc([nH]5)c(-c5c(F)cc(S(=O)(=O)[O-])cc5F)c5nc(c(-c6c(F)cc(S(=O)(=O)[O-])cc6F)c6ccc3[nH]6)C=C5)C=C4)cc2)c1C(=O)Nc1cnn(C)c1C
REMARK SMILES IDX 19 1 18 2 16 3 17 4 15 6 10 7 11 8 12 9 14 10 13 11 8 12
REMARK SMILES IDX 7 13 9 15 6 16 3 17 4 18 91 19 5 20 2 21 1 22 92 23 93 24
REMARK SMILES IDX 94 25 95 27 96 28 100 29 97 30 98 31 101 32 99 33 20 34
REMARK SMILES IDX 21 35 22 36 23 37 24 39 25 40 26 41 90 42 27 43 89 44 28 45
REMARK SMILES IDX 29 46 30 47 83 48 31 49 88 50 82 51 84 52 32 53 87 54 81 55
REMARK SMILES IDX 80 56 33 58 67 59 46 60 66 61 47 62 50 63 65 64 85 65 48 66
REMARK SMILES IDX 49 67 64 69 86 70 51 71 34 72 35 73 44 74 36 75 37 76 43 77
REMARK SMILES IDX 45 78 38 79 39 80 40 81 41 82 42 83 68 84 69 85 78 86 70 87
REMARK SMILES IDX 71 88 77 89 79 90 72 91 73 92 74 93 75 94 76 95 52 96 53 97
REMARK SMILES IDX 62 98 54 99 55 100 61 101 63 102 56 103 57 104 58 105 59 106
REMARK SMILES IDX 60 107
REMARK H PARENT 18 5 7 14 94 26 22 38 84 57 50 68
REMARK Flexibility Score: inf
ROOT
ATOM      1  C   UNL A   1      36.581  23.344  26.092  1.00  0.00     0.117 C 
ENDROOT
BRANCH   1   2
ATOM      2  N   UNL A   1      35.487  22.943  26.954  1.00  0.00    -0.356 N 
ATOM      3  C   UNL A   1      34.138  22.948  26.837  1.00  0.00     0.223 C 
ATOM      4  O   UNL A   1      33.522  22.605  27.852  1.00  0.00    -0.275 OA
ATOM      5  H   UNL A   1      35.794  22.587  27.819  1.00  0.00     0.163 HD
BRANCH   3   6
ATOM      6  C   UNL A   1      33.349  23.353  25.584  1.00  0.00     0.091 C 
ATOM      7  C   UNL A   1      31.855  23.031  25.550  1.00  0.00     0.091 C 
ATOM      8  C   UNL A   1      31.610  21.541  25.412  1.00  0.00     0.014 C 
ATOM      9  C   UNL A   1      32.100  21.085  24.039  1.00  0.00     0.001 C 
ATOM     10  C   UNL A   1      33.953  22.980  24.228  1.00  0.00     0.014 C 
ATOM     11  C   UNL A   1      33.411  21.716  23.535  1.00  0.00     0.001 C 
BRANCH   7  12
ATOM     12  C   UNL A   1      30.983  23.703  26.585  1.00  0.00     0.228 C 
ATOM     13  N   UNL A   1      30.590  25.007  26.442  1.00  0.00    -0.322 N 
ATOM     14  H   UNL A   1      30.107  25.351  27.228  1.00  0.00     0.170 HD
ATOM     15  O   UNL A   1      30.489  23.075  27.521  1.00  0.00    -0.274 OA
BRANCH  13  16
ATOM     16  C   UNL A   1      30.724  25.949  25.429  1.00  0.00     0.092 A 
ATOM     17  N   UNL A   1      31.289  27.146  23.696  1.00  0.00    -0.258 N 
ATOM     18  N   UNL A   1      29.951  27.037  23.578  1.00  0.00    -0.178 NA
ATOM     19  C   UNL A   1      31.760  26.759  24.942  1.00  0.00     0.150 A 
ATOM     20  C   UNL A   1      29.612  26.298  24.624  1.00  0.00     0.162 A 
BRANCH  17  21
ATOM     21  C   UNL A   1      31.992  27.588  22.508  1.00  0.00     0.142 C 
ATOM     22  C   UNL A   1      33.124  26.654  22.112  1.00  0.00     0.029 C 
ENDBRANCH  17  21
BRANCH  19  23
ATOM     23  C   UNL A   1      32.984  27.200  25.610  1.00  0.00     0.276 C 
ATOM     24  O   UNL A   1      33.753  26.415  26.162  1.00  0.00    -0.267 OA
ATOM     25  N   UNL A   1      33.417  28.484  25.362  1.00  0.00    -0.318 N 
ATOM     26  H   UNL A   1      33.995  28.625  24.577  1.00  0.00     0.170 HD
BRANCH  25  27
ATOM     27  C   UNL A   1      33.106  29.589  26.129  1.00  0.00     0.082 A 
ATOM     28  C   UNL A   1      31.987  30.442  26.097  1.00  0.00     0.161 A 
ATOM     29  C   UNL A   1      33.936  30.115  27.102  1.00  0.00     0.059 A 
ATOM     30  N   UNL A   1      32.152  31.509  26.879  1.00  0.00    -0.179 NA
ATOM     31  N   UNL A   1      33.367  31.322  27.432  1.00  0.00    -0.271 N 
ATOM     32  C   UNL A   1      35.257  29.685  27.633  1.00  0.00     0.068 C 
ATOM     33  C   UNL A   1      33.995  32.430  28.114  1.00  0.00     0.174 C 
ENDBRANCH  25  27
ENDBRANCH  19  23
ENDBRANCH  13  16
ENDBRANCH   7  12
ENDBRANCH   3   6
ENDBRANCH   1   2
BRANCH   1  34
ATOM     34  C   UNL A   1      37.333  22.153  25.484  1.00  0.00     0.042 C 
BRANCH  34  35
ATOM     35  C   UNL A   1      38.848  22.306  25.508  1.00  0.00     0.118 C 
BRANCH  35  36
ATOM     36  N   UNL A   1      39.455  21.646  26.666  1.00  0.00    -0.352 N 
ATOM     37  C   UNL A   1      40.349  22.170  27.586  1.00  0.00     0.251 C 
ATOM     38  H   UNL A   1      39.197  20.706  26.808  1.00  0.00     0.163 HD
ATOM     39  O   UNL A   1      40.986  21.450  28.331  1.00  0.00    -0.269 OA
BRANCH  37  40
ATOM     40  C   UNL A   1      40.510  23.634  27.607  1.00  0.00     0.039 A 
ATOM     41  C   UNL A   1      39.395  24.465  27.706  1.00  0.00     0.014 A 
ATOM     42  C   UNL A   1      41.800  24.132  27.753  1.00  0.00     0.014 A 
ATOM     43  C   UNL A   1      39.584  25.791  28.092  1.00  0.00     0.010 A 
ATOM     44  C   UNL A   1      41.964  25.394  28.277  1.00  0.00     0.010 A 
ATOM     45  C   UNL A   1      40.869  26.245  28.436  1.00  0.00    -0.014 A 
BRANCH  45  46
ATOM     46  C   UNL A   1      41.040  27.559  29.066  1.00  0.00     0.031 A 
ATOM     47  C   UNL A   1      42.135  28.433  28.531  1.00  0.00     0.074 A 
ATOM     48  C   UNL A   1      40.164  28.100  29.940  1.00  0.00     0.049 A 
ATOM     49  N   UNL A   1      43.209  28.830  29.136  1.00  0.00    -0.248 NA
ATOM     50  C   UNL A   1      42.057  28.865  27.127  1.00  0.00     0.031 C 
ATOM     51  C   UNL A   1      38.864  27.590  30.392  1.00  0.00     0.029 A 
ATOM     52  N   UNL A   1      40.234  29.317  30.550  1.00  0.00    -0.354 N 
ATOM     53  C   UNL A   1      43.855  29.708  28.265  1.00  0.00     0.074 A 
ATOM     54  C   UNL A   1      43.172  29.589  27.002  1.00  0.00     0.031 C 
ATOM     55  C   UNL A   1      38.174  28.577  30.998  1.00  0.00     0.029 A 
ATOM     56  C   UNL A   1      39.058  29.712  31.165  1.00  0.00     0.049 A 
ATOM     57  H   UNL A   1      41.051  29.866  30.554  1.00  0.00     0.167 HD
ATOM     58  C   UNL A   1      44.801  30.598  28.689  1.00  0.00     0.037 A 
ATOM     59  C   UNL A   1      38.816  30.888  31.787  1.00  0.00     0.037 A 
ATOM     60  C   UNL A   1      45.276  30.279  30.010  1.00  0.00     0.049 A 
ATOM     61  C   UNL A   1      40.130  31.450  32.183  1.00  0.00     0.074 A 
ATOM     62  C   UNL A   1      45.902  29.186  30.580  1.00  0.00     0.029 A 
ATOM     63  N   UNL A   1      44.796  31.012  31.068  1.00  0.00    -0.354 N 
ATOM     64  N   UNL A   1      40.923  30.900  33.062  1.00  0.00    -0.248 NA
ATOM     65  C   UNL A   1      40.762  32.409  31.292  1.00  0.00     0.031 C 
ATOM     66  C   UNL A   1      45.313  29.059  31.873  1.00  0.00     0.029 A 
ATOM     67  C   UNL A   1      44.411  30.113  32.031  1.00  0.00     0.049 A 
ATOM     68  H   UNL A   1      44.740  31.994  31.125  1.00  0.00     0.167 HD
ATOM     69  C   UNL A   1      42.203  31.116  32.577  1.00  0.00     0.074 A 
ATOM     70  C   UNL A   1      42.045  32.143  31.550  1.00  0.00     0.031 C 
ATOM     71  C   UNL A   1      43.233  30.262  32.862  1.00  0.00     0.037 A 
BRANCH  58  72
ATOM     72  C   UNL A   1      45.107  31.921  28.025  1.00  0.00     0.058 A 
ATOM     73  C   UNL A   1      46.388  32.172  27.489  1.00  0.00     0.135 A 
ATOM     74  C   UNL A   1      44.259  33.046  28.119  1.00  0.00     0.135 A 
ATOM     75  F   UNL A   1      47.288  31.182  27.376  1.00  0.00    -0.206 F 
ATOM     76  C   UNL A   1      46.808  33.452  27.112  1.00  0.00     0.059 A 
ATOM     77  C   UNL A   1      44.637  34.319  27.701  1.00  0.00     0.059 A 
ATOM     78  F   UNL A   1      43.058  32.975  28.708  1.00  0.00    -0.206 F 
ATOM     79  C   UNL A   1      45.926  34.522  27.234  1.00  0.00     0.060 A 
BRANCH  79  80
ATOM     80  S   UNL A   1      46.489  36.189  26.838  1.00  0.00     0.124 S 
ATOM     81  O   UNL A   1      47.241  36.534  28.039  1.00  0.00    -0.237 OA
ATOM     82  O   UNL A   1      47.279  35.968  25.631  1.00  0.00    -0.237 OA
ATOM     83  O   UNL A   1      45.244  36.923  26.637  1.00  0.00    -0.744 OA
ENDBRANCH  79  80
ENDBRANCH  58  72
BRANCH  59  84
ATOM     84  C   UNL A   1      37.549  31.656  31.788  1.00  0.00     0.058 A 
ATOM     85  C   UNL A   1      36.782  31.792  32.955  1.00  0.00     0.135 A 
ATOM     86  C   UNL A   1      37.204  32.495  30.708  1.00  0.00     0.135 A 
ATOM     87  F   UNL A   1      37.057  31.044  34.033  1.00  0.00    -0.206 F 
ATOM     88  C   UNL A   1      35.765  32.743  33.065  1.00  0.00     0.059 A 
ATOM     89  C   UNL A   1      36.186  33.443  30.790  1.00  0.00     0.059 A 
ATOM     90  F   UNL A   1      37.911  32.482  29.567  1.00  0.00    -0.206 F 
ATOM     91  C   UNL A   1      35.490  33.582  31.983  1.00  0.00     0.060 A 
BRANCH  91  92
ATOM     92  S   UNL A   1      34.313  34.937  32.196  1.00  0.00     0.124 S 
ATOM     93  O   UNL A   1      33.257  34.300  32.974  1.00  0.00    -0.237 OA
ATOM     94  O   UNL A   1      35.115  35.931  32.902  1.00  0.00    -0.237 OA
ATOM     95  O   UNL A   1      33.955  35.293  30.825  1.00  0.00    -0.744 OA
ENDBRANCH  91  92
ENDBRANCH  59  84
BRANCH  71  96
ATOM     96  C   UNL A   1      43.033  29.228  33.946  1.00  0.00     0.058 A 
ATOM     97  C   UNL A   1      43.196  29.478  35.321  1.00  0.00     0.135 A 
ATOM     98  C   UNL A   1      42.497  27.980  33.592  1.00  0.00     0.135 A 
ATOM     99  F   UNL A   1      43.597  30.677  35.760  1.00  0.00    -0.206 F 
ATOM    100  C   UNL A   1      42.883  28.523  36.292  1.00  0.00     0.059 A 
ATOM    101  C   UNL A   1      42.147  27.022  34.544  1.00  0.00     0.059 A 
ATOM    102  F   UNL A   1      42.253  27.695  32.302  1.00  0.00    -0.206 F 
ATOM    103  C   UNL A   1      42.355  27.297  35.894  1.00  0.00     0.060 A 
BRANCH 103 104
ATOM    104  S   UNL A   1      41.868  26.100  37.156  1.00  0.00     0.124 S 
ATOM    105  O   UNL A   1      40.510  26.526  37.476  1.00  0.00    -0.237 OA
ATOM    106  O   UNL A   1      41.983  24.826  36.452  1.00  0.00    -0.237 OA
ATOM    107  O   UNL A   1      42.851  26.303  38.218  1.00  0.00    -0.744 OA
ENDBRANCH 103 104
ENDBRANCH  71  96
ENDBRANCH  45  46
ENDBRANCH  37  40
ENDBRANCH  35  36
ENDBRANCH  34  35
ENDBRANCH   1  34
TORSDOF 18
ENDMDL
MODEL 3
REMARK VINA RESULT:     -12.3      1.766      2.726
REMARK SMILES CCn1ncc(NC(=O)[C@@H]2CCCC[C@@H]2C(=O)NCCCNC(=O)c2ccc(-c3c4nc(c(-c5c(F)cc(S(=O)(=O)[O-])cc5F)c5ccc([nH]5)c(-c5c(F)cc(S(=O)(=O)[O-])cc5F)c5nc(c(-c6c(F)cc(S(=O)(=O)[O-])cc6F)c6ccc3[nH]6)C=C5)C=C4)cc2)c1C(=O)Nc1cnn(C)c1C
REMARK SMILES IDX 19 1 18 2 16 3 17 4 15 6 10 7 11 8 12 9 14 10 13 11 8 12
REMARK SMILES IDX 7 13 9 15 6 16 3 17 4 18 91 19 5 20 2 21 1 22 92 23 93 24
REMARK SMILES IDX 94 25 95 27 96 28 100 29 97 30 98 31 101 32 99 33 20 34
REMARK SMILES IDX 21 35 22 36 23 37 24 39 25 40 26 41 90 42 27 43 89 44 28 45
REMARK SMILES IDX 29 46 30 47 83 48 31 49 88 50 82 51 84 52 32 53 87 54 81 55
REMARK SMILES IDX 80 56 33 58 67 59 46 60 66 61 47 62 50 63 65 64 85 65 48 66
REMARK SMILES IDX 49 67 64 69 86 70 51 71 34 72 35 73 44 74 36 75 37 76 43 77
REMARK SMILES IDX 45 78 38 79 39 80 40 81 41 82 42 83 68 84 69 85 78 86 70 87
REMARK SMILES IDX 71 88 77 89 79 90 72 91 73 92 74 93 75 94 76 95 52 96 53 97
REMARK SMILES IDX 62 98 54 99 55 100 61 101 63 102 56 103 57 104 58 105 59 106
REMARK SMILES IDX 60 107
REMARK H PARENT 18 5 7 14 94 26 22 38 84 57 50 68
REMARK Flexibility Score: inf
ROOT
ATOM      1  C   UNL A   1      34.484  28.872  26.390  1.00  0.00     0.117 C 
ENDROOT
BRANCH   1   2
ATOM      2  N   UNL A   1      33.999  29.075  25.039  1.00  0.00    -0.356 N 
ATOM      3  C   UNL A   1      33.283  28.326  24.167  1.00  0.00     0.223 C 
ATOM      4  O   UNL A   1      33.145  28.819  23.042  1.00  0.00    -0.275 OA
ATOM      5  H   UNL A   1      34.247  29.955  24.673  1.00  0.00     0.163 HD
BRANCH   3   6
ATOM      6  C   UNL A   1      32.669  26.950  24.462  1.00  0.00     0.091 C 
ATOM      7  C   UNL A   1      32.239  26.094  23.270  1.00  0.00     0.091 C 
ATOM      8  C   UNL A   1      31.013  26.667  22.587  1.00  0.00     0.014 C 
ATOM      9  C   UNL A   1      29.824  26.567  23.540  1.00  0.00     0.001 C 
ATOM     10  C   UNL A   1      31.565  26.891  25.521  1.00  0.00     0.014 C 
ATOM     11  C   UNL A   1      30.108  26.865  25.023  1.00  0.00     0.001 C 
BRANCH   7  12
ATOM     12  C   UNL A   1      33.323  25.651  22.316  1.00  0.00     0.228 C 
ATOM     13  N   UNL A   1      34.279  24.748  22.700  1.00  0.00    -0.322 N 
ATOM     14  H   UNL A   1      34.979  24.617  22.019  1.00  0.00     0.170 HD
ATOM     15  O   UNL A   1      33.315  25.978  21.130  1.00  0.00    -0.274 OA
BRANCH  13  16
ATOM     16  C   UNL A   1      34.477  23.977  23.840  1.00  0.00     0.092 A 
ATOM     17  N   UNL A   1      34.843  22.416  25.316  1.00  0.00    -0.258 N 
ATOM     18  N   UNL A   1      35.663  23.412  25.704  1.00  0.00    -0.178 NA
ATOM     19  C   UNL A   1      33.903  22.818  24.378  1.00  0.00     0.150 A 
ATOM     20  C   UNL A   1      35.449  24.355  24.798  1.00  0.00     0.162 A 
BRANCH  17  21
ATOM     21  C   UNL A   1      35.116  21.114  25.893  1.00  0.00     0.142 C 
ATOM     22  C   UNL A   1      36.072  20.286  25.051  1.00  0.00     0.029 C 
ENDBRANCH  17  21
BRANCH  19  23
ATOM     23  C   UNL A   1      32.590  22.227  24.122  1.00  0.00     0.276 C 
ATOM     24  O   UNL A   1      31.548  22.877  24.199  1.00  0.00    -0.267 OA
ATOM     25  N   UNL A   1      32.553  20.995  23.508  1.00  0.00    -0.318 N 
ATOM     26  H   UNL A   1      32.566  20.979  22.523  1.00  0.00     0.170 HD
BRANCH  25  27
ATOM     27  C   UNL A   1      32.500  19.782  24.164  1.00  0.00     0.082 A 
ATOM     28  C   UNL A   1      32.484  19.483  25.539  1.00  0.00     0.161 A 
ATOM     29  C   UNL A   1      32.506  18.555  23.525  1.00  0.00     0.059 A 
ATOM     30  N   UNL A   1      32.618  18.176  25.766  1.00  0.00    -0.179 NA
ATOM     31  N   UNL A   1      32.692  17.638  24.532  1.00  0.00    -0.271 N 
ATOM     32  C   UNL A   1      32.508  18.173  22.088  1.00  0.00     0.068 C 
ATOM     33  C   UNL A   1      33.131  16.268  24.400  1.00  0.00     0.174 C 
ENDBRANCH  25  27
ENDBRANCH  19  23
ENDBRANCH  13  16
ENDBRANCH   7  12
ENDBRANCH   3   6
ENDBRANCH   1   2
BRANCH   1  34
ATOM     34  C   UNL A   1      34.026  29.967  27.362  1.00  0.00     0.042 C 
BRANCH  34  35
ATOM     35  C   UNL A   1      35.172  30.731  28.012  1.00  0.00     0.118 C 
BRANCH  35  36
ATOM     36  N   UNL A   1      34.699  31.755  28.946  1.00  0.00    -0.352 N 
ATOM     37  C   UNL A   1      35.057  31.943  30.272  1.00  0.00     0.251 C 
ATOM     38  H   UNL A   1      34.040  32.392  28.587  1.00  0.00     0.163 HD
ATOM     39  O   UNL A   1      34.398  32.647  31.012  1.00  0.00    -0.269 OA
BRANCH  37  40
ATOM     40  C   UNL A   1      36.258  31.235  30.750  1.00  0.00     0.039 A 
ATOM     41  C   UNL A   1      36.218  29.864  30.994  1.00  0.00     0.014 A 
ATOM     42  C   UNL A   1      37.461  31.933  30.727  1.00  0.00     0.014 A 
ATOM     43  C   UNL A   1      37.422  29.167  31.080  1.00  0.00     0.010 A 
ATOM     44  C   UNL A   1      38.636  31.219  30.664  1.00  0.00     0.010 A 
ATOM     45  C   UNL A   1      38.638  29.836  30.857  1.00  0.00    -0.014 A 
BRANCH  45  46
ATOM     46  C   UNL A   1      39.882  29.073  30.711  1.00  0.00     0.031 A 
ATOM     47  C   UNL A   1      40.702  28.864  31.949  1.00  0.00     0.074 A 
ATOM     48  C   UNL A   1      40.225  28.388  29.598  1.00  0.00     0.049 A 
ATOM     49  N   UNL A   1      41.886  29.318  32.211  1.00  0.00    -0.248 NA
ATOM     50  C   UNL A   1      40.103  28.108  33.061  1.00  0.00     0.031 C 
ATOM     51  C   UNL A   1      39.460  28.174  28.364  1.00  0.00     0.029 A 
ATOM     52  N   UNL A   1      41.343  27.638  29.388  1.00  0.00    -0.354 N 
ATOM     53  C   UNL A   1      42.264  28.764  33.434  1.00  0.00     0.074 A 
ATOM     54  C   UNL A   1      41.082  28.137  33.969  1.00  0.00     0.031 C 
ATOM     55  C   UNL A   1      40.017  27.174  27.651  1.00  0.00     0.029 A 
ATOM     56  C   UNL A   1      41.282  26.829  28.266  1.00  0.00     0.049 A 
ATOM     57  H   UNL A   1      42.126  27.668  29.983  1.00  0.00     0.167 HD
ATOM     58  C   UNL A   1      43.566  28.714  33.845  1.00  0.00     0.037 A 
ATOM     59  C   UNL A   1      42.209  25.937  27.849  1.00  0.00     0.037 A 
ATOM     60  C   UNL A   1      44.405  29.582  33.061  1.00  0.00     0.049 A 
ATOM     61  C   UNL A   1      43.503  26.344  28.448  1.00  0.00     0.074 A 
ATOM     62  C   UNL A   1      44.430  30.941  32.809  1.00  0.00     0.029 A 
ATOM     63  N   UNL A   1      45.189  29.019  32.083  1.00  0.00    -0.354 N 
ATOM     64  N   UNL A   1      44.125  27.455  28.157  1.00  0.00    -0.248 NA
ATOM     65  C   UNL A   1      43.910  25.713  29.692  1.00  0.00     0.031 C 
ATOM     66  C   UNL A   1      44.776  31.052  31.429  1.00  0.00     0.029 A 
ATOM     67  C   UNL A   1      44.996  29.761  30.944  1.00  0.00     0.049 A 
ATOM     68  H   UNL A   1      45.775  28.234  32.181  1.00  0.00     0.167 HD
ATOM     69  C   UNL A   1      44.685  27.878  29.352  1.00  0.00     0.074 A 
ATOM     70  C   UNL A   1      44.614  26.712  30.231  1.00  0.00     0.031 C 
ATOM     71  C   UNL A   1      44.912  29.201  29.610  1.00  0.00     0.037 A 
BRANCH  58  72
ATOM     72  C   UNL A   1      44.140  27.675  34.781  1.00  0.00     0.058 A 
ATOM     73  C   UNL A   1      44.784  28.066  35.974  1.00  0.00     0.135 A 
ATOM     74  C   UNL A   1      44.301  26.318  34.423  1.00  0.00     0.135 A 
ATOM     75  F   UNL A   1      44.722  29.338  36.399  1.00  0.00    -0.206 F 
ATOM     76  C   UNL A   1      45.561  27.184  36.733  1.00  0.00     0.059 A 
ATOM     77  C   UNL A   1      45.026  25.411  35.190  1.00  0.00     0.059 A 
ATOM     78  F   UNL A   1      43.837  25.837  33.262  1.00  0.00    -0.206 F 
ATOM     79  C   UNL A   1      45.686  25.859  36.323  1.00  0.00     0.060 A 
BRANCH  79  80
ATOM     80  S   UNL A   1      46.759  24.740  37.243  1.00  0.00     0.124 S 
ATOM     81  O   UNL A   1      47.492  25.673  38.092  1.00  0.00    -0.237 OA
ATOM     82  O   UNL A   1      45.797  23.879  37.922  1.00  0.00    -0.237 OA
ATOM     83  O   UNL A   1      47.540  24.090  36.196  1.00  0.00    -0.744 OA
ENDBRANCH  79  80
ENDBRANCH  58  72
BRANCH  59  84
ATOM     84  C   UNL A   1      41.964  24.623  27.210  1.00  0.00     0.058 A 
ATOM     85  C   UNL A   1      42.884  24.072  26.306  1.00  0.00     0.135 A 
ATOM     86  C   UNL A   1      40.950  23.762  27.680  1.00  0.00     0.135 A 
ATOM     87  F   UNL A   1      43.889  24.819  25.826  1.00  0.00    -0.206 F 
ATOM     88  C   UNL A   1      42.835  22.727  25.929  1.00  0.00     0.059 A 
ATOM     89  C   UNL A   1      40.875  22.421  27.310  1.00  0.00     0.059 A 
ATOM     90  F   UNL A   1      40.056  24.177  28.590  1.00  0.00    -0.206 F 
ATOM     91  C   UNL A   1      41.840  21.903  26.456  1.00  0.00     0.060 A 
BRANCH  91  92
ATOM     92  S   UNL A   1      41.898  20.127  26.123  1.00  0.00     0.124 S 
ATOM     93  O   UNL A   1      42.963  20.041  25.130  1.00  0.00    -0.237 OA
ATOM     94  O   UNL A   1      42.207  19.579  27.439  1.00  0.00    -0.237 OA
ATOM     95  O   UNL A   1      40.555  19.831  25.629  1.00  0.00    -0.744 OA
ENDBRANCH  91  92
ENDBRANCH  59  84
BRANCH  71  96
ATOM     96  C   UNL A   1      44.812  30.186  28.467  1.00  0.00     0.058 A 
ATOM     97  C   UNL A   1      43.618  30.811  28.061  1.00  0.00     0.135 A 
ATOM     98  C   UNL A   1      45.996  30.640  27.867  1.00  0.00     0.135 A 
ATOM     99  F   UNL A   1      42.453  30.522  28.653  1.00  0.00    -0.206 F 
ATOM    100  C   UNL A   1      43.598  31.804  27.079  1.00  0.00     0.059 A 
ATOM    101  C   UNL A   1      46.005  31.652  26.907  1.00  0.00     0.059 A 
ATOM    102  F   UNL A   1      47.180  30.135  28.252  1.00  0.00    -0.206 F 
ATOM    103  C   UNL A   1      44.798  32.221  26.509  1.00  0.00     0.060 A 
BRANCH 103 104
ATOM    104  S   UNL A   1      44.777  33.569  25.305  1.00  0.00     0.124 S 
ATOM    105  O   UNL A   1      43.808  34.489  25.890  1.00  0.00    -0.237 OA
ATOM    106  O   UNL A   1      46.165  34.023  25.307  1.00  0.00    -0.237 OA
ATOM    107  O   UNL A   1      44.349  32.916  24.069  1.00  0.00    -0.744 OA
ENDBRANCH 103 104
ENDBRANCH  71  96
ENDBRANCH  45  46
ENDBRANCH  37  40
ENDBRANCH  35  36
ENDBRANCH  34  35
ENDBRANCH   1  34
TORSDOF 18
ENDMDL
