MODEL 1
REMARK VINA RESULT:     -13.1      0.000      0.000
REMARK SMILES Cc1cc(C(=O)NCCCNC(=O)c2ccc(-c3c4nc(c(-c5c(F)cc(S(=O)(=O)[O-])cc5F)c5ccc([nH]5)c(-c5c(F)cc(S(=O)(=O)[O-])cc5F)c5nc(c(-c6c(F)cc(S(=O)(=O)[O-])cc6F)c6ccc3[nH]6)C=C5)C=C4)cc2)ccc1NS(=O)(=O)c1c(F)cccc1F
REMARK SMILES IDX 9 1 8 2 7 3 5 4 6 5 4 7 1 8 2 9 3 10 82 11 81 12 80 13 83 14
REMARK SMILES IDX 84 16 85 17 86 18 87 19 88 20 93 21 89 22 90 23 92 24 94 25
REMARK SMILES IDX 91 26 10 27 11 28 12 29 13 31 14 32 15 33 79 34 16 35 78 36
REMARK SMILES IDX 17 37 18 38 19 39 72 40 20 41 77 42 71 43 73 44 21 45 76 46
REMARK SMILES IDX 70 47 69 48 22 50 56 51 35 52 55 53 36 54 39 55 54 56 74 57
REMARK SMILES IDX 37 58 38 59 53 61 75 62 40 63 23 64 24 65 33 66 25 67 26 68
REMARK SMILES IDX 32 69 34 70 27 71 28 72 29 73 30 74 31 75 57 76 58 77 67 78
REMARK SMILES IDX 59 79 60 80 66 81 68 82 61 83 62 84 63 85 64 86 65 87 41 88
REMARK SMILES IDX 42 89 51 90 43 91 44 92 50 93 52 94 45 95 46 96 47 97 48 98
REMARK SMILES IDX 49 99
REMARK H PARENT 7 6 83 15 11 30 73 49 39 60
REMARK Flexibility Score: inf
ROOT
ATOM      1  C   UNL A   1      39.229  22.251  26.491  1.00  0.00     0.042 C 
ENDROOT
BRANCH   1   2
ATOM      2  C   UNL A   1      37.720  22.422  25.895  1.00  0.00     0.118 C 
BRANCH   2   3
ATOM      3  N   UNL A   1      37.523  22.560  24.410  1.00  0.00    -0.352 N 
ATOM      4  C   UNL A   1      36.468  22.666  23.510  1.00  0.00     0.251 C 
ATOM      5  O   UNL A   1      36.637  23.066  22.357  1.00  0.00    -0.269 OA
ATOM      6  H   UNL A   1      38.388  22.582  23.942  1.00  0.00     0.163 HD
BRANCH   4   7
ATOM      7  C   UNL A   1      35.091  22.262  23.882  1.00  0.00     0.040 A 
ATOM      8  C   UNL A   1      33.120  19.793  26.020  1.00  0.00     0.046 C 
ATOM      9  C   UNL A   1      33.437  20.964  25.129  1.00  0.00    -0.026 A 
ATOM     10  C   UNL A   1      34.766  21.135  24.655  1.00  0.00     0.019 A 
ATOM     11  C   UNL A   1      32.457  21.894  24.726  1.00  0.00     0.052 A 
ATOM     12  C   UNL A   1      32.746  22.747  23.692  1.00  0.00     0.028 A 
ATOM     13  C   UNL A   1      34.059  23.087  23.505  1.00  0.00     0.016 A 
BRANCH  11  14
ATOM     14  N   UNL A   1      31.336  22.207  25.559  1.00  0.00    -0.279 N 
ATOM     15  H   UNL A   1      30.489  21.746  25.364  1.00  0.00     0.180 HD
BRANCH  14  16
ATOM     16  S   UNL A   1      31.341  23.300  26.850  1.00  0.00     0.267 S 
ATOM     17  O   UNL A   1      29.952  23.433  27.238  1.00  0.00    -0.201 OA
ATOM     18  O   UNL A   1      32.321  22.789  27.789  1.00  0.00    -0.201 OA
BRANCH  16  19
ATOM     19  C   UNL A   1      31.909  24.913  26.374  1.00  0.00     0.158 A 
ATOM     20  C   UNL A   1      30.948  25.856  26.000  1.00  0.00     0.146 A 
ATOM     21  C   UNL A   1      33.248  25.224  26.179  1.00  0.00     0.146 A 
ATOM     22  F   UNL A   1      29.646  25.653  26.237  1.00  0.00    -0.205 F 
ATOM     23  C   UNL A   1      31.306  27.046  25.359  1.00  0.00     0.041 A 
ATOM     24  C   UNL A   1      33.617  26.403  25.510  1.00  0.00     0.041 A 
ATOM     25  F   UNL A   1      34.216  24.373  26.538  1.00  0.00    -0.205 F 
ATOM     26  C   UNL A   1      32.644  27.307  25.080  1.00  0.00     0.006 A 
ENDBRANCH  16  19
ENDBRANCH  14  16
ENDBRANCH  11  14
ENDBRANCH   4   7
ENDBRANCH   2   3
ENDBRANCH   1   2
BRANCH   1  27
ATOM     27  C   UNL A   1      39.762  23.533  27.303  1.00  0.00     0.118 C 
BRANCH  27  28
ATOM     28  N   UNL A   1      39.691  25.061  26.954  1.00  0.00    -0.352 N 
ATOM     29  C   UNL A   1      40.048  26.277  27.713  1.00  0.00     0.251 C 
ATOM     30  H   UNL A   1      39.336  25.245  26.053  1.00  0.00     0.163 HD
ATOM     31  O   UNL A   1      41.132  26.778  27.365  1.00  0.00    -0.269 OA
BRANCH  29  32
ATOM     32  C   UNL A   1      39.272  27.135  28.838  1.00  0.00     0.039 A 
ATOM     33  C   UNL A   1      38.518  28.308  28.490  1.00  0.00     0.014 A 
ATOM     34  C   UNL A   1      39.345  26.964  30.218  1.00  0.00     0.014 A 
ATOM     35  C   UNL A   1      38.412  29.451  29.402  1.00  0.00     0.010 A 
ATOM     36  C   UNL A   1      39.261  28.090  31.113  1.00  0.00     0.010 A 
ATOM     37  C   UNL A   1      39.048  29.403  30.659  1.00  0.00    -0.014 A 
BRANCH  37  38
ATOM     38  C   UNL A   1      39.792  30.587  31.325  1.00  0.00     0.031 A 
ATOM     39  C   UNL A   1      40.938  30.356  32.200  1.00  0.00     0.074 A 
ATOM     40  C   UNL A   1      39.678  31.941  31.113  1.00  0.00     0.049 A 
ATOM     41  N   UNL A   1      41.092  30.868  33.380  1.00  0.00    -0.248 NA
ATOM     42  C   UNL A   1      42.077  29.612  31.700  1.00  0.00     0.031 C 
ATOM     43  C   UNL A   1      40.430  33.126  31.580  1.00  0.00     0.029 A 
ATOM     44  N   UNL A   1      38.804  32.609  30.289  1.00  0.00    -0.354 N 
ATOM     45  C   UNL A   1      42.446  30.788  33.633  1.00  0.00     0.074 A 
ATOM     46  C   UNL A   1      42.954  29.814  32.684  1.00  0.00     0.031 C 
ATOM     47  C   UNL A   1      39.704  34.251  31.359  1.00  0.00     0.029 A 
ATOM     48  C   UNL A   1      38.437  33.853  30.786  1.00  0.00     0.049 A 
ATOM     49  H   UNL A   1      38.474  32.245  29.436  1.00  0.00     0.167 HD
ATOM     50  C   UNL A   1      43.111  31.741  34.360  1.00  0.00     0.037 A 
ATOM     51  C   UNL A   1      37.144  34.039  31.220  1.00  0.00     0.037 A 
ATOM     52  C   UNL A   1      42.293  32.952  34.579  1.00  0.00     0.049 A 
ATOM     53  C   UNL A   1      37.128  34.125  32.722  1.00  0.00     0.074 A 
ATOM     54  C   UNL A   1      42.383  34.270  34.141  1.00  0.00     0.029 A 
ATOM     55  N   UNL A   1      41.021  32.847  35.116  1.00  0.00    -0.354 N 
ATOM     56  N   UNL A   1      38.208  34.324  33.418  1.00  0.00    -0.248 NA
ATOM     57  C   UNL A   1      35.959  33.905  33.572  1.00  0.00     0.031 C 
ATOM     58  C   UNL A   1      41.162  34.943  34.447  1.00  0.00     0.029 A 
ATOM     59  C   UNL A   1      40.331  34.047  35.092  1.00  0.00     0.049 A 
ATOM     60  H   UNL A   1      40.647  32.009  35.475  1.00  0.00     0.167 HD
ATOM     61  C   UNL A   1      37.959  34.110  34.736  1.00  0.00     0.074 A 
ATOM     62  C   UNL A   1      36.520  33.907  34.796  1.00  0.00     0.031 C 
ATOM     63  C   UNL A   1      38.979  34.082  35.644  1.00  0.00     0.037 A 
BRANCH  50  64
ATOM     64  C   UNL A   1      44.617  31.684  34.600  1.00  0.00     0.058 A 
ATOM     65  C   UNL A   1      45.178  31.048  35.727  1.00  0.00     0.135 A 
ATOM     66  C   UNL A   1      45.578  32.198  33.697  1.00  0.00     0.135 A 
ATOM     67  F   UNL A   1      44.422  30.364  36.596  1.00  0.00    -0.206 F 
ATOM     68  C   UNL A   1      46.552  31.035  35.994  1.00  0.00     0.059 A 
ATOM     69  C   UNL A   1      46.944  32.274  33.979  1.00  0.00     0.059 A 
ATOM     70  F   UNL A   1      45.239  32.571  32.454  1.00  0.00    -0.206 F 
ATOM     71  C   UNL A   1      47.427  31.677  35.130  1.00  0.00     0.060 A 
BRANCH  71  72
ATOM     72  S   UNL A   1      49.197  31.628  35.466  1.00  0.00     0.124 S 
ATOM     73  O   UNL A   1      49.285  32.265  36.775  1.00  0.00    -0.237 OA
ATOM     74  O   UNL A   1      49.468  30.195  35.436  1.00  0.00    -0.237 OA
ATOM     75  O   UNL A   1      49.776  32.393  34.365  1.00  0.00    -0.744 OA
ENDBRANCH  71  72
ENDBRANCH  50  64
BRANCH  51  76
ATOM     76  C   UNL A   1      36.024  33.376  30.369  1.00  0.00     0.058 A 
ATOM     77  C   UNL A   1      34.961  32.887  31.145  1.00  0.00     0.135 A 
ATOM     78  C   UNL A   1      35.596  34.196  29.345  1.00  0.00     0.135 A 
ATOM     79  F   UNL A   1      35.050  31.679  31.713  1.00  0.00    -0.206 F 
ATOM     80  C   UNL A   1      33.861  33.691  31.451  1.00  0.00     0.059 A 
ATOM     81  C   UNL A   1      34.494  35.009  29.644  1.00  0.00     0.059 A 
ATOM     82  F   UNL A   1      36.472  34.603  28.410  1.00  0.00    -0.206 F 
ATOM     83  C   UNL A   1      33.738  34.891  30.788  1.00  0.00     0.060 A 
BRANCH  83  84
ATOM     84  S   UNL A   1      32.870  36.476  31.655  1.00  0.00     0.124 S 
ATOM     85  O   UNL A   1      31.585  35.901  31.965  1.00  0.00    -0.237 OA
ATOM     86  O   UNL A   1      33.666  36.752  32.854  1.00  0.00    -0.237 OA
ATOM     87  O   UNL A   1      32.842  37.552  30.695  1.00  0.00    -0.744 OA
ENDBRANCH  83  84
ENDBRANCH  51  76
BRANCH  63  88
ATOM     88  C   UNL A   1      38.790  34.035  37.133  1.00  0.00     0.058 A 
ATOM     89  C   UNL A   1      39.167  35.092  37.978  1.00  0.00     0.135 A 
ATOM     90  C   UNL A   1      38.349  32.861  37.787  1.00  0.00     0.135 A 
ATOM     91  F   UNL A   1      39.752  36.198  37.493  1.00  0.00    -0.206 F 
ATOM     92  C   UNL A   1      38.997  35.033  39.359  1.00  0.00     0.059 A 
ATOM     93  C   UNL A   1      38.215  32.764  39.163  1.00  0.00     0.059 A 
ATOM     94  F   UNL A   1      38.023  31.746  37.121  1.00  0.00    -0.206 F 
ATOM     95  C   UNL A   1      38.505  33.869  39.940  1.00  0.00     0.060 A 
BRANCH  95  96
ATOM     96  S   UNL A   1      38.268  33.797  41.718  1.00  0.00     0.124 S 
ATOM     97  O   UNL A   1      39.641  33.759  42.214  1.00  0.00    -0.237 OA
ATOM     98  O   UNL A   1      37.540  35.038  41.962  1.00  0.00    -0.237 OA
ATOM     99  O   UNL A   1      37.502  32.570  41.914  1.00  0.00    -0.744 OA
ENDBRANCH  95  96
ENDBRANCH  63  88
ENDBRANCH  37  38
ENDBRANCH  29  32
ENDBRANCH  27  28
ENDBRANCH   1  27
TORSDOF 16
ENDMDL
MODEL 2
REMARK VINA RESULT:     -12.9      4.484      8.959
REMARK SMILES Cc1cc(C(=O)NCCCNC(=O)c2ccc(-c3c4nc(c(-c5c(F)cc(S(=O)(=O)[O-])cc5F)c5ccc([nH]5)c(-c5c(F)cc(S(=O)(=O)[O-])cc5F)c5nc(c(-c6c(F)cc(S(=O)(=O)[O-])cc6F)c6ccc3[nH]6)C=C5)C=C4)cc2)ccc1NS(=O)(=O)c1c(F)cccc1F
REMARK SMILES IDX 9 1 8 2 7 3 5 4 6 5 4 7 1 8 2 9 3 10 82 11 81 12 80 13 83 14
REMARK SMILES IDX 84 16 85 17 86 18 87 19 88 20 93 21 89 22 90 23 92 24 94 25
REMARK SMILES IDX 91 26 10 27 11 28 12 29 13 31 14 32 15 33 79 34 16 35 78 36
REMARK SMILES IDX 17 37 18 38 19 39 72 40 20 41 77 42 71 43 73 44 21 45 76 46
REMARK SMILES IDX 70 47 69 48 22 50 56 51 35 52 55 53 36 54 39 55 54 56 74 57
REMARK SMILES IDX 37 58 38 59 53 61 75 62 40 63 23 64 24 65 33 66 25 67 26 68
REMARK SMILES IDX 32 69 34 70 27 71 28 72 29 73 30 74 31 75 57 76 58 77 67 78
REMARK SMILES IDX 59 79 60 80 66 81 68 82 61 83 62 84 63 85 64 86 65 87 41 88
REMARK SMILES IDX 42 89 51 90 43 91 44 92 50 93 52 94 45 95 46 96 47 97 48 98
REMARK SMILES IDX 49 99
REMARK H PARENT 7 6 83 15 11 30 73 49 39 60
REMARK Flexibility Score: inf
ROOT
ATOM      1  C   UNL A   1      32.527  29.205  25.643  1.00  0.00     0.042 C 
ENDROOT
BRANCH   1   2
ATOM      2  C   UNL A   1      33.054  29.346  24.106  1.00  0.00     0.118 C 
BRANCH   2   3
ATOM      3  N   UNL A   1      32.054  29.399  22.983  1.00  0.00    -0.352 N 
ATOM      4  C   UNL A   1      30.971  28.657  22.523  1.00  0.00     0.251 C 
ATOM      5  O   UNL A   1      30.156  29.125  21.727  1.00  0.00    -0.269 OA
ATOM      6  H   UNL A   1      32.213  30.183  22.409  1.00  0.00     0.163 HD
BRANCH   4   7
ATOM      7  C   UNL A   1      30.766  27.249  22.939  1.00  0.00     0.040 A 
ATOM      8  C   UNL A   1      32.286  23.758  22.707  1.00  0.00     0.046 C 
ATOM      9  C   UNL A   1      31.395  24.895  23.130  1.00  0.00    -0.026 A 
ATOM     10  C   UNL A   1      31.543  26.162  22.504  1.00  0.00     0.019 A 
ATOM     11  C   UNL A   1      30.396  24.745  24.114  1.00  0.00     0.052 A 
ATOM     12  C   UNL A   1      29.440  25.721  24.234  1.00  0.00     0.028 A 
ATOM     13  C   UNL A   1      29.791  26.994  23.873  1.00  0.00     0.016 A 
BRANCH  11  14
ATOM     14  N   UNL A   1      30.544  23.816  25.193  1.00  0.00    -0.279 N 
ATOM     15  H   UNL A   1      30.115  22.937  25.089  1.00  0.00     0.180 HD
BRANCH  14  16
ATOM     16  S   UNL A   1      31.390  24.098  26.631  1.00  0.00     0.267 S 
ATOM     17  O   UNL A   1      31.196  25.506  26.913  1.00  0.00    -0.201 OA
ATOM     18  O   UNL A   1      30.922  23.089  27.562  1.00  0.00    -0.201 OA
BRANCH  16  19
ATOM     19  C   UNL A   1      33.136  23.835  26.455  1.00  0.00     0.158 A 
ATOM     20  C   UNL A   1      33.876  24.807  25.778  1.00  0.00     0.146 A 
ATOM     21  C   UNL A   1      33.766  22.643  26.787  1.00  0.00     0.146 A 
ATOM     22  F   UNL A   1      33.355  26.009  25.502  1.00  0.00    -0.205 F 
ATOM     23  C   UNL A   1      35.187  24.565  25.357  1.00  0.00     0.041 A 
ATOM     24  C   UNL A   1      35.072  22.377  26.344  1.00  0.00     0.041 A 
ATOM     25  F   UNL A   1      33.119  21.681  27.455  1.00  0.00    -0.205 F 
ATOM     26  C   UNL A   1      35.778  23.331  25.610  1.00  0.00     0.006 A 
ENDBRANCH  16  19
ENDBRANCH  14  16
ENDBRANCH  11  14
ENDBRANCH   4   7
ENDBRANCH   2   3
ENDBRANCH   1   2
BRANCH   1  27
ATOM     27  C   UNL A   1      32.456  30.599  26.442  1.00  0.00     0.118 C 
BRANCH  27  28
ATOM     28  N   UNL A   1      33.367  31.160  27.590  1.00  0.00    -0.352 N 
ATOM     29  C   UNL A   1      34.834  31.255  27.746  1.00  0.00     0.251 C 
ATOM     30  H   UNL A   1      32.862  31.518  28.357  1.00  0.00     0.163 HD
ATOM     31  O   UNL A   1      35.282  32.397  27.538  1.00  0.00    -0.269 OA
BRANCH  29  32
ATOM     32  C   UNL A   1      35.956  30.197  28.221  1.00  0.00     0.039 A 
ATOM     33  C   UNL A   1      35.894  29.578  29.516  1.00  0.00     0.014 A 
ATOM     34  C   UNL A   1      37.137  29.878  27.558  1.00  0.00     0.014 A 
ATOM     35  C   UNL A   1      37.108  29.226  30.258  1.00  0.00     0.010 A 
ATOM     36  C   UNL A   1      38.336  29.551  28.287  1.00  0.00     0.010 A 
ATOM     37  C   UNL A   1      38.373  29.481  29.690  1.00  0.00    -0.014 A 
BRANCH  37  38
ATOM     38  C   UNL A   1      39.603  30.013  30.464  1.00  0.00     0.031 A 
ATOM     39  C   UNL A   1      39.503  31.201  31.308  1.00  0.00     0.074 A 
ATOM     40  C   UNL A   1      40.844  29.452  30.658  1.00  0.00     0.049 A 
ATOM     41  N   UNL A   1      40.310  32.213  31.273  1.00  0.00    -0.248 NA
ATOM     42  C   UNL A   1      38.520  31.236  32.373  1.00  0.00     0.031 C 
ATOM     43  C   UNL A   1      42.018  29.802  31.488  1.00  0.00     0.029 A 
ATOM     44  N   UNL A   1      41.344  28.280  30.144  1.00  0.00    -0.354 N 
ATOM     45  C   UNL A   1      40.150  32.844  32.490  1.00  0.00     0.074 A 
ATOM     46  C   UNL A   1      38.893  32.343  33.016  1.00  0.00     0.031 C 
ATOM     47  C   UNL A   1      43.108  29.118  31.058  1.00  0.00     0.029 A 
ATOM     48  C   UNL A   1      42.711  28.333  29.909  1.00  0.00     0.049 A 
ATOM     49  H   UNL A   1      40.790  27.486  29.962  1.00  0.00     0.167 HD
ATOM     50  C   UNL A   1      41.189  33.469  33.131  1.00  0.00     0.037 A 
ATOM     51  C   UNL A   1      43.162  28.330  28.609  1.00  0.00     0.037 A 
ATOM     52  C   UNL A   1      42.497  33.146  32.526  1.00  0.00     0.049 A 
ATOM     53  C   UNL A   1      43.676  29.700  28.256  1.00  0.00     0.074 A 
ATOM     54  C   UNL A   1      43.614  32.440  32.961  1.00  0.00     0.029 A 
ATOM     55  N   UNL A   1      42.698  33.318  31.167  1.00  0.00    -0.354 N 
ATOM     56  N   UNL A   1      43.941  30.597  29.159  1.00  0.00    -0.248 NA
ATOM     57  C   UNL A   1      43.847  30.218  26.901  1.00  0.00     0.031 C 
ATOM     58  C   UNL A   1      44.484  32.220  31.850  1.00  0.00     0.029 A 
ATOM     59  C   UNL A   1      43.913  32.809  30.739  1.00  0.00     0.049 A 
ATOM     60  H   UNL A   1      42.048  33.754  30.569  1.00  0.00     0.167 HD
ATOM     61  C   UNL A   1      44.144  31.805  28.572  1.00  0.00     0.074 A 
ATOM     62  C   UNL A   1      44.135  31.510  27.148  1.00  0.00     0.031 C 
ATOM     63  C   UNL A   1      44.260  32.937  29.326  1.00  0.00     0.037 A 
BRANCH  50  64
ATOM     64  C   UNL A   1      41.029  34.123  34.501  1.00  0.00     0.058 A 
ATOM     65  C   UNL A   1      40.105  35.163  34.736  1.00  0.00     0.135 A 
ATOM     66  C   UNL A   1      41.734  33.712  35.657  1.00  0.00     0.135 A 
ATOM     67  F   UNL A   1      39.240  35.561  33.795  1.00  0.00    -0.206 F 
ATOM     68  C   UNL A   1      39.985  35.814  35.969  1.00  0.00     0.059 A 
ATOM     69  C   UNL A   1      41.695  34.398  36.873  1.00  0.00     0.059 A 
ATOM     70  F   UNL A   1      42.427  32.564  35.680  1.00  0.00    -0.206 F 
ATOM     71  C   UNL A   1      40.806  35.447  37.026  1.00  0.00     0.060 A 
BRANCH  71  72
ATOM     72  S   UNL A   1      40.621  36.270  38.618  1.00  0.00     0.124 S 
ATOM     73  O   UNL A   1      41.867  37.021  38.729  1.00  0.00    -0.237 OA
ATOM     74  O   UNL A   1      39.416  37.064  38.407  1.00  0.00    -0.237 OA
ATOM     75  O   UNL A   1      40.480  35.164  39.561  1.00  0.00    -0.744 OA
ENDBRANCH  71  72
ENDBRANCH  50  64
BRANCH  51  76
ATOM     76  C   UNL A   1      42.417  27.393  27.617  1.00  0.00     0.058 A 
ATOM     77  C   UNL A   1      42.323  27.926  26.322  1.00  0.00     0.135 A 
ATOM     78  C   UNL A   1      42.934  26.113  27.624  1.00  0.00     0.135 A 
ATOM     79  F   UNL A   1      41.344  28.788  26.024  1.00  0.00    -0.206 F 
ATOM     80  C   UNL A   1      43.313  27.683  25.367  1.00  0.00     0.059 A 
ATOM     81  C   UNL A   1      43.929  25.860  26.671  1.00  0.00     0.059 A 
ATOM     82  F   UNL A   1      42.926  25.400  28.764  1.00  0.00    -0.206 F 
ATOM     83  C   UNL A   1      44.260  26.726  25.654  1.00  0.00     0.060 A 
BRANCH  83  84
ATOM     84  S   UNL A   1      46.128  26.865  24.942  1.00  0.00     0.124 S 
ATOM     85  O   UNL A   1      46.817  27.226  26.155  1.00  0.00    -0.237 OA
ATOM     86  O   UNL A   1      46.473  25.518  24.479  1.00  0.00    -0.237 OA
ATOM     87  O   UNL A   1      46.140  27.873  23.910  1.00  0.00    -0.744 OA
ENDBRANCH  83  84
ENDBRANCH  51  76
BRANCH  63  88
ATOM     88  C   UNL A   1      44.665  34.279  28.786  1.00  0.00     0.058 A 
ATOM     89  C   UNL A   1      45.938  34.831  29.004  1.00  0.00     0.135 A 
ATOM     90  C   UNL A   1      43.735  35.130  28.143  1.00  0.00     0.135 A 
ATOM     91  F   UNL A   1      46.858  34.191  29.743  1.00  0.00    -0.206 F 
ATOM     92  C   UNL A   1      46.299  36.081  28.508  1.00  0.00     0.059 A 
ATOM     93  C   UNL A   1      44.059  36.396  27.682  1.00  0.00     0.059 A 
ATOM     94  F   UNL A   1      42.463  34.773  27.929  1.00  0.00    -0.206 F 
ATOM     95  C   UNL A   1      45.355  36.849  27.834  1.00  0.00     0.060 A 
BRANCH  95  96
ATOM     96  S   UNL A   1      45.823  38.454  27.178  1.00  0.00     0.124 S 
ATOM     97  O   UNL A   1      44.538  39.003  26.756  1.00  0.00    -0.237 OA
ATOM     98  O   UNL A   1      46.424  39.080  28.352  1.00  0.00    -0.237 OA
ATOM     99  O   UNL A   1      46.746  38.128  26.097  1.00  0.00    -0.744 OA
ENDBRANCH  95  96
ENDBRANCH  63  88
ENDBRANCH  37  38
ENDBRANCH  29  32
ENDBRANCH  27  28
ENDBRANCH   1  27
TORSDOF 16
ENDMDL
MODEL 3
REMARK VINA RESULT:     -12.6      4.371      7.733
REMARK SMILES Cc1cc(C(=O)NCCCNC(=O)c2ccc(-c3c4nc(c(-c5c(F)cc(S(=O)(=O)[O-])cc5F)c5ccc([nH]5)c(-c5c(F)cc(S(=O)(=O)[O-])cc5F)c5nc(c(-c6c(F)cc(S(=O)(=O)[O-])cc6F)c6ccc3[nH]6)C=C5)C=C4)cc2)ccc1NS(=O)(=O)c1c(F)cccc1F
REMARK SMILES IDX 9 1 8 2 7 3 5 4 6 5 4 7 1 8 2 9 3 10 82 11 81 12 80 13 83 14
REMARK SMILES IDX 84 16 85 17 86 18 87 19 88 20 93 21 89 22 90 23 92 24 94 25
REMARK SMILES IDX 91 26 10 27 11 28 12 29 13 31 14 32 15 33 79 34 16 35 78 36
REMARK SMILES IDX 17 37 18 38 19 39 72 40 20 41 77 42 71 43 73 44 21 45 76 46
REMARK SMILES IDX 70 47 69 48 22 50 56 51 35 52 55 53 36 54 39 55 54 56 74 57
REMARK SMILES IDX 37 58 38 59 53 61 75 62 40 63 23 64 24 65 33 66 25 67 26 68
REMARK SMILES IDX 32 69 34 70 27 71 28 72 29 73 30 74 31 75 57 76 58 77 67 78
REMARK SMILES IDX 59 79 60 80 66 81 68 82 61 83 62 84 63 85 64 86 65 87 41 88
REMARK SMILES IDX 42 89 51 90 43 91 44 92 50 93 52 94 45 95 46 96 47 97 48 98
REMARK SMILES IDX 49 99
REMARK H PARENT 7 6 83 15 11 30 73 49 39 60
REMARK Flexibility Score: inf
ROOT
ATOM      1  C   UNL A   1      31.020  31.551  26.266  1.00  0.00     0.042 C 
ENDROOT
BRANCH   1   2
ATOM      2  C   UNL A   1      31.137  30.416  25.100  1.00  0.00     0.118 C 
BRANCH   2   3
ATOM      3  N   UNL A   1      30.166  30.433  23.952  1.00  0.00    -0.352 N 
ATOM      4  C   UNL A   1      29.509  29.518  23.135  1.00  0.00     0.251 C 
ATOM      5  O   UNL A   1      28.532  29.838  22.457  1.00  0.00    -0.269 OA
ATOM      6  H   UNL A   1      29.926  31.356  23.708  1.00  0.00     0.163 HD
BRANCH   4   7
ATOM      7  C   UNL A   1      29.980  28.117  23.011  1.00  0.00     0.040 A 
ATOM      8  C   UNL A   1      32.913  25.990  21.819  1.00  0.00     0.046 C 
ATOM      9  C   UNL A   1      31.615  26.383  22.473  1.00  0.00    -0.026 A 
ATOM     10  C   UNL A   1      31.152  27.720  22.346  1.00  0.00     0.019 A 
ATOM     11  C   UNL A   1      30.824  25.464  23.193  1.00  0.00     0.052 A 
ATOM     12  C   UNL A   1      29.533  25.809  23.501  1.00  0.00     0.028 A 
ATOM     13  C   UNL A   1      29.256  27.141  23.651  1.00  0.00     0.016 A 
BRANCH  11  14
ATOM     14  N   UNL A   1      31.410  24.365  23.898  1.00  0.00    -0.279 N 
ATOM     15  H   UNL A   1      31.418  23.493  23.442  1.00  0.00     0.180 HD
BRANCH  14  16
ATOM     16  S   UNL A   1      32.090  24.434  25.445  1.00  0.00     0.267 S 
ATOM     17  O   UNL A   1      31.117  23.804  26.314  1.00  0.00    -0.201 OA
ATOM     18  O   UNL A   1      33.423  23.880  25.310  1.00  0.00    -0.201 OA
BRANCH  16  19
ATOM     19  C   UNL A   1      32.304  26.099  26.021  1.00  0.00     0.158 A 
ATOM     20  C   UNL A   1      33.583  26.655  25.940  1.00  0.00     0.146 A 
ATOM     21  C   UNL A   1      31.323  26.803  26.707  1.00  0.00     0.146 A 
ATOM     22  F   UNL A   1      34.551  26.070  25.224  1.00  0.00    -0.205 F 
ATOM     23  C   UNL A   1      33.906  27.840  26.607  1.00  0.00     0.041 A 
ATOM     24  C   UNL A   1      31.644  27.979  27.405  1.00  0.00     0.041 A 
ATOM     25  F   UNL A   1      30.074  26.334  26.801  1.00  0.00    -0.205 F 
ATOM     26  C   UNL A   1      32.943  28.489  27.372  1.00  0.00     0.006 A 
ENDBRANCH  16  19
ENDBRANCH  14  16
ENDBRANCH  11  14
ENDBRANCH   4   7
ENDBRANCH   2   3
ENDBRANCH   1   2
BRANCH   1  27
ATOM     27  C   UNL A   1      32.415  32.261  26.634  1.00  0.00     0.118 C 
BRANCH  27  28
ATOM     28  N   UNL A   1      33.242  32.252  27.967  1.00  0.00    -0.352 N 
ATOM     29  C   UNL A   1      34.677  32.045  28.252  1.00  0.00     0.251 C 
ATOM     30  H   UNL A   1      32.697  32.414  28.772  1.00  0.00     0.163 HD
ATOM     31  O   UNL A   1      35.294  33.100  28.484  1.00  0.00    -0.269 OA
BRANCH  29  32
ATOM     32  C   UNL A   1      35.582  30.718  28.411  1.00  0.00     0.039 A 
ATOM     33  C   UNL A   1      35.836  30.142  29.703  1.00  0.00     0.014 A 
ATOM     34  C   UNL A   1      36.318  30.085  27.414  1.00  0.00     0.014 A 
ATOM     35  C   UNL A   1      37.102  29.468  30.008  1.00  0.00     0.010 A 
ATOM     36  C   UNL A   1      37.572  29.440  27.711  1.00  0.00     0.010 A 
ATOM     37  C   UNL A   1      38.095  29.363  29.013  1.00  0.00    -0.014 A 
BRANCH  37  38
ATOM     38  C   UNL A   1      39.614  29.535  29.253  1.00  0.00     0.031 A 
ATOM     39  C   UNL A   1      40.575  28.596  28.681  1.00  0.00     0.074 A 
ATOM     40  C   UNL A   1      40.314  30.577  29.816  1.00  0.00     0.049 A 
ATOM     41  N   UNL A   1      41.529  28.012  29.335  1.00  0.00    -0.248 NA
ATOM     42  C   UNL A   1      40.586  28.372  27.249  1.00  0.00     0.031 C 
ATOM     43  C   UNL A   1      41.752  30.900  29.956  1.00  0.00     0.029 A 
ATOM     44  N   UNL A   1      39.826  31.728  30.386  1.00  0.00    -0.354 N 
ATOM     45  C   UNL A   1      42.437  27.618  28.374  1.00  0.00     0.074 A 
ATOM     46  C   UNL A   1      41.705  27.657  27.120  1.00  0.00     0.031 C 
ATOM     47  C   UNL A   1      41.918  31.870  30.890  1.00  0.00     0.029 A 
ATOM     48  C   UNL A   1      40.615  32.189  31.432  1.00  0.00     0.049 A 
ATOM     49  H   UNL A   1      39.004  32.178  30.085  1.00  0.00     0.167 HD
ATOM     50  C   UNL A   1      43.788  27.604  28.606  1.00  0.00     0.037 A 
ATOM     51  C   UNL A   1      40.121  32.123  32.715  1.00  0.00     0.037 A 
ATOM     52  C   UNL A   1      44.149  28.306  29.855  1.00  0.00     0.049 A 
ATOM     53  C   UNL A   1      40.841  31.040  33.471  1.00  0.00     0.074 A 
ATOM     54  C   UNL A   1      44.852  29.473  30.138  1.00  0.00     0.029 A 
ATOM     55  N   UNL A   1      43.530  27.971  31.047  1.00  0.00    -0.354 N 
ATOM     56  N   UNL A   1      41.955  30.519  33.049  1.00  0.00    -0.248 NA
ATOM     57  C   UNL A   1      40.353  30.384  34.683  1.00  0.00     0.031 C 
ATOM     58  C   UNL A   1      44.658  29.808  31.512  1.00  0.00     0.029 A 
ATOM     59  C   UNL A   1      43.856  28.836  32.079  1.00  0.00     0.049 A 
ATOM     60  H   UNL A   1      42.922  27.203  31.150  1.00  0.00     0.167 HD
ATOM     61  C   UNL A   1      42.255  29.409  33.772  1.00  0.00     0.074 A 
ATOM     62  C   UNL A   1      41.254  29.394  34.827  1.00  0.00     0.031 C 
ATOM     63  C   UNL A   1      43.282  28.590  33.399  1.00  0.00     0.037 A 
BRANCH  50  64
ATOM     64  C   UNL A   1      44.800  27.219  27.530  1.00  0.00     0.058 A 
ATOM     65  C   UNL A   1      45.145  25.876  27.266  1.00  0.00     0.135 A 
ATOM     66  C   UNL A   1      45.426  28.150  26.668  1.00  0.00     0.135 A 
ATOM     67  F   UNL A   1      44.523  24.859  27.874  1.00  0.00    -0.206 F 
ATOM     68  C   UNL A   1      46.111  25.507  26.324  1.00  0.00     0.059 A 
ATOM     69  C   UNL A   1      46.452  27.817  25.782  1.00  0.00     0.059 A 
ATOM     70  F   UNL A   1      45.001  29.420  26.586  1.00  0.00    -0.206 F 
ATOM     71  C   UNL A   1      46.784  26.486  25.607  1.00  0.00     0.060 A 
BRANCH  71  72
ATOM     72  S   UNL A   1      48.004  25.997  24.374  1.00  0.00     0.124 S 
ATOM     73  O   UNL A   1      47.890  27.061  23.382  1.00  0.00    -0.237 OA
ATOM     74  O   UNL A   1      49.235  25.987  25.156  1.00  0.00    -0.237 OA
ATOM     75  O   UNL A   1      47.537  24.686  23.931  1.00  0.00    -0.744 OA
ENDBRANCH  71  72
ENDBRANCH  50  64
BRANCH  51  76
ATOM     76  C   UNL A   1      38.616  32.468  32.899  1.00  0.00     0.058 A 
ATOM     77  C   UNL A   1      37.942  31.560  33.731  1.00  0.00     0.135 A 
ATOM     78  C   UNL A   1      38.427  33.779  33.287  1.00  0.00     0.135 A 
ATOM     79  F   UNL A   1      37.473  30.413  33.226  1.00  0.00    -0.206 F 
ATOM     80  C   UNL A   1      37.867  31.763  35.110  1.00  0.00     0.059 A 
ATOM     81  C   UNL A   1      38.353  33.994  34.670  1.00  0.00     0.059 A 
ATOM     82  F   UNL A   1      38.862  34.775  32.495  1.00  0.00    -0.206 F 
ATOM     83  C   UNL A   1      38.269  32.985  35.602  1.00  0.00     0.060 A 
BRANCH  83  84
ATOM     84  S   UNL A   1      39.074  33.157  37.429  1.00  0.00     0.124 S 
ATOM     85  O   UNL A   1      38.514  34.428  37.816  1.00  0.00    -0.237 OA
ATOM     86  O   UNL A   1      38.526  32.042  38.206  1.00  0.00    -0.237 OA
ATOM     87  O   UNL A   1      40.510  33.140  37.289  1.00  0.00    -0.744 OA
ENDBRANCH  83  84
ENDBRANCH  51  76
BRANCH  63  88
ATOM     88  C   UNL A   1      43.803  27.450  34.228  1.00  0.00     0.058 A 
ATOM     89  C   UNL A   1      43.003  26.358  34.603  1.00  0.00     0.135 A 
ATOM     90  C   UNL A   1      45.097  27.482  34.799  1.00  0.00     0.135 A 
ATOM     91  F   UNL A   1      41.707  26.294  34.261  1.00  0.00    -0.206 F 
ATOM     92  C   UNL A   1      43.494  25.313  35.381  1.00  0.00     0.059 A 
ATOM     93  C   UNL A   1      45.590  26.475  35.613  1.00  0.00     0.059 A 
ATOM     94  F   UNL A   1      45.950  28.493  34.594  1.00  0.00    -0.206 F 
ATOM     95  C   UNL A   1      44.796  25.374  35.868  1.00  0.00     0.060 A 
BRANCH  95  96
ATOM     96  S   UNL A   1      45.437  24.019  36.857  1.00  0.00     0.124 S 
ATOM     97  O   UNL A   1      46.880  24.201  36.736  1.00  0.00    -0.237 OA
ATOM     98  O   UNL A   1      44.867  24.325  38.166  1.00  0.00    -0.237 OA
ATOM     99  O   UNL A   1      44.902  22.831  36.201  1.00  0.00    -0.744 OA
ENDBRANCH  95  96
ENDBRANCH  63  88
ENDBRANCH  37  38
ENDBRANCH  29  32
ENDBRANCH  27  28
ENDBRANCH   1  27
TORSDOF 16
ENDMDL
