MODEL 1
REMARK VINA RESULT:     -13.5      0.000      0.000
REMARK SMILES CC1=C2C(=O)CC(C)(C)CC2=N[C@@H]1C(=O)NCCCNC(=O)c1ccc(-c2c3nc(c(-c4c(F)cc(S(=O)(=O)[O-])cc4F)c4ccc([nH]4)c(-c4c(F)cc(S(=O)(=O)[O-])cc4F)c4nc(c(-c5c(F)cc(S(=O)(=O)[O-])cc5F)c5ccc2[nH]5)C=C4)C=C3)cc1
REMARK SMILES IDX 20 1 21 2 22 3 19 5 18 6 17 7 16 8 14 9 15 10 13 12 1 13
REMARK SMILES IDX 2 14 3 15 4 16 11 17 12 18 5 19 6 20 10 21 7 22 8 23 9 24
REMARK SMILES IDX 23 25 24 26 88 27 25 28 87 29 26 30 27 31 28 32 81 33 29 34
REMARK SMILES IDX 86 35 80 36 82 37 30 38 85 39 79 40 78 41 31 43 65 44 44 45
REMARK SMILES IDX 64 46 45 47 48 48 63 49 83 50 46 51 47 52 62 54 84 55 49 56
REMARK SMILES IDX 32 57 33 58 42 59 34 60 35 61 41 62 43 63 36 64 37 65 38 66
REMARK SMILES IDX 39 67 40 68 66 69 67 70 76 71 68 72 69 73 75 74 77 75 70 76
REMARK SMILES IDX 71 77 72 78 73 79 74 80 50 81 51 82 60 83 52 84 53 85 59 86
REMARK SMILES IDX 61 87 54 88 55 89 56 90 57 91 58 92
REMARK H PARENT 20 4 16 11 82 42 48 53
REMARK Flexibility Score: inf
ROOT
ATOM      1  N   UNL A   1      38.456  22.006  26.166  1.00  0.00    -0.352 N 
ATOM      2  C   UNL A   1      39.663  22.291  26.798  1.00  0.00     0.251 C 
ATOM      3  O   UNL A   1      40.449  21.413  27.088  1.00  0.00    -0.269 OA
ATOM      4  H   UNL A   1      38.136  21.078  26.238  1.00  0.00     0.163 HD
ENDROOT
BRANCH   1   5
ATOM      5  C   UNL A   1      37.603  22.927  25.404  1.00  0.00     0.118 C 
BRANCH   5   6
ATOM      6  C   UNL A   1      36.670  22.234  24.436  1.00  0.00     0.042 C 
BRANCH   6   7
ATOM      7  C   UNL A   1      36.016  23.194  23.447  1.00  0.00     0.117 C 
BRANCH   7   8
ATOM      8  N   UNL A   1      34.582  22.964  23.250  1.00  0.00    -0.354 N 
ATOM      9  C   UNL A   1      33.599  23.896  22.976  1.00  0.00     0.249 C 
ATOM     10  O   UNL A   1      32.454  23.509  22.749  1.00  0.00    -0.272 OA
ATOM     11  H   UNL A   1      34.282  22.029  23.324  1.00  0.00     0.163 HD
BRANCH   9  12
ATOM     12  C   UNL A   1      34.012  25.398  22.959  1.00  0.00     0.221 C 
ATOM     13  C   UNL A   1      33.968  25.844  25.576  1.00  0.00     0.043 C 
ATOM     14  C   UNL A   1      33.724  26.268  24.170  1.00  0.00    -0.027 C 
ATOM     15  C   UNL A   1      33.066  27.374  23.801  1.00  0.00     0.040 C 
ATOM     16  C   UNL A   1      32.500  28.570  24.443  1.00  0.00     0.165 C 
ATOM     17  C   UNL A   1      32.461  26.849  22.594  1.00  0.00     0.048 C 
ATOM     18  N   UNL A   1      33.123  25.987  21.903  1.00  0.00    -0.271 NA
ATOM     19  O   UNL A   1      33.220  29.371  25.031  1.00  0.00    -0.294 OA
ATOM     20  C   UNL A   1      31.019  28.833  24.192  1.00  0.00     0.088 C 
ATOM     21  C   UNL A   1      31.021  27.130  22.323  1.00  0.00     0.063 C 
ATOM     22  C   UNL A   1      30.295  27.590  23.617  1.00  0.00    -0.023 C 
ATOM     23  C   UNL A   1      30.223  26.504  24.726  1.00  0.00     0.012 C 
ATOM     24  C   UNL A   1      28.847  27.913  23.221  1.00  0.00     0.012 C 
ENDBRANCH   9  12
ENDBRANCH   7   8
ENDBRANCH   6   7
ENDBRANCH   5   6
ENDBRANCH   1   5
BRANCH   2  25
ATOM     25  C   UNL A   1      39.948  23.707  27.108  1.00  0.00     0.039 A 
ATOM     26  C   UNL A   1      39.004  24.724  26.946  1.00  0.00     0.014 A 
ATOM     27  C   UNL A   1      41.188  23.971  27.671  1.00  0.00     0.014 A 
ATOM     28  C   UNL A   1      39.300  25.990  27.451  1.00  0.00     0.010 A 
ATOM     29  C   UNL A   1      41.358  25.116  28.387  1.00  0.00     0.010 A 
ATOM     30  C   UNL A   1      40.476  26.168  28.196  1.00  0.00    -0.014 A 
BRANCH  30  31
ATOM     31  C   UNL A   1      40.791  27.411  28.888  1.00  0.00     0.031 A 
ATOM     32  C   UNL A   1      41.867  28.201  28.242  1.00  0.00     0.074 A 
ATOM     33  C   UNL A   1      39.984  27.925  29.846  1.00  0.00     0.049 A 
ATOM     34  N   UNL A   1      43.094  28.327  28.628  1.00  0.00    -0.248 NA
ATOM     35  C   UNL A   1      41.613  28.752  26.899  1.00  0.00     0.031 C 
ATOM     36  C   UNL A   1      38.691  27.405  30.319  1.00  0.00     0.029 A 
ATOM     37  N   UNL A   1      40.084  29.098  30.523  1.00  0.00    -0.354 N 
ATOM     38  C   UNL A   1      43.667  29.230  27.738  1.00  0.00     0.074 A 
ATOM     39  C   UNL A   1      42.825  29.211  26.573  1.00  0.00     0.031 C 
ATOM     40  C   UNL A   1      38.030  28.367  30.997  1.00  0.00     0.029 A 
ATOM     41  C   UNL A   1      38.917  29.500  31.170  1.00  0.00     0.049 A 
ATOM     42  H   UNL A   1      40.916  29.625  30.552  1.00  0.00     0.167 HD
ATOM     43  C   UNL A   1      44.567  30.158  28.175  1.00  0.00     0.037 A 
ATOM     44  C   UNL A   1      38.693  30.690  31.786  1.00  0.00     0.037 A 
ATOM     45  C   UNL A   1      45.035  29.819  29.504  1.00  0.00     0.049 A 
ATOM     46  C   UNL A   1      40.030  31.274  32.074  1.00  0.00     0.074 A 
ATOM     47  C   UNL A   1      45.622  28.710  30.084  1.00  0.00     0.029 A 
ATOM     48  N   UNL A   1      44.551  30.571  30.549  1.00  0.00    -0.354 N 
ATOM     49  N   UNL A   1      40.889  30.745  32.906  1.00  0.00    -0.248 NA
ATOM     50  C   UNL A   1      40.598  32.176  31.085  1.00  0.00     0.031 C 
ATOM     51  C   UNL A   1      45.041  28.621  31.385  1.00  0.00     0.029 A 
ATOM     52  C   UNL A   1      44.200  29.721  31.561  1.00  0.00     0.049 A 
ATOM     53  H   UNL A   1      44.471  31.553  30.565  1.00  0.00     0.167 HD
ATOM     54  C   UNL A   1      42.120  30.886  32.281  1.00  0.00     0.074 A 
ATOM     55  C   UNL A   1      41.889  31.860  31.214  1.00  0.00     0.031 C 
ATOM     56  C   UNL A   1      43.123  29.983  32.493  1.00  0.00     0.037 A 
BRANCH  43  57
ATOM     57  C   UNL A   1      44.680  31.577  27.639  1.00  0.00     0.058 A 
ATOM     58  C   UNL A   1      45.815  31.908  26.866  1.00  0.00     0.135 A 
ATOM     59  C   UNL A   1      43.922  32.681  28.089  1.00  0.00     0.135 A 
ATOM     60  F   UNL A   1      46.596  30.946  26.349  1.00  0.00    -0.206 F 
ATOM     61  C   UNL A   1      46.242  33.223  26.682  1.00  0.00     0.059 A 
ATOM     62  C   UNL A   1      44.302  34.002  27.872  1.00  0.00     0.059 A 
ATOM     63  F   UNL A   1      42.822  32.559  28.836  1.00  0.00    -0.206 F 
ATOM     64  C   UNL A   1      45.491  34.262  27.217  1.00  0.00     0.060 A 
BRANCH  64  65
ATOM     65  S   UNL A   1      46.100  35.950  27.097  1.00  0.00     0.124 S 
ATOM     66  O   UNL A   1      44.851  36.698  27.003  1.00  0.00    -0.237 OA
ATOM     67  O   UNL A   1      46.840  36.090  28.347  1.00  0.00    -0.237 OA
ATOM     68  O   UNL A   1      46.917  35.925  25.889  1.00  0.00    -0.744 OA
ENDBRANCH  64  65
ENDBRANCH  43  57
BRANCH  44  69
ATOM     69  C   UNL A   1      37.435  31.486  31.845  1.00  0.00     0.058 A 
ATOM     70  C   UNL A   1      36.850  31.830  33.078  1.00  0.00     0.135 A 
ATOM     71  C   UNL A   1      36.940  32.169  30.716  1.00  0.00     0.135 A 
ATOM     72  F   UNL A   1      37.266  31.241  34.210  1.00  0.00    -0.206 F 
ATOM     73  C   UNL A   1      35.879  32.834  33.192  1.00  0.00     0.059 A 
ATOM     74  C   UNL A   1      35.966  33.165  30.804  1.00  0.00     0.059 A 
ATOM     75  F   UNL A   1      37.457  31.956  29.496  1.00  0.00    -0.206 F 
ATOM     76  C   UNL A   1      35.460  33.514  32.049  1.00  0.00     0.060 A 
BRANCH  76  77
ATOM     77  S   UNL A   1      34.347  34.932  32.211  1.00  0.00     0.124 S 
ATOM     78  O   UNL A   1      33.215  34.349  32.923  1.00  0.00    -0.237 OA
ATOM     79  O   UNL A   1      35.158  35.878  32.971  1.00  0.00    -0.237 OA
ATOM     80  O   UNL A   1      34.084  35.316  30.827  1.00  0.00    -0.744 OA
ENDBRANCH  76  77
ENDBRANCH  44  69
BRANCH  56  81
ATOM     81  C   UNL A   1      43.011  29.051  33.673  1.00  0.00     0.058 A 
ATOM     82  C   UNL A   1      43.321  29.389  35.003  1.00  0.00     0.135 A 
ATOM     83  C   UNL A   1      42.423  27.797  33.455  1.00  0.00     0.135 A 
ATOM     84  F   UNL A   1      43.791  30.604  35.317  1.00  0.00    -0.206 F 
ATOM     85  C   UNL A   1      43.096  28.502  36.059  1.00  0.00     0.059 A 
ATOM     86  C   UNL A   1      42.160  26.910  34.494  1.00  0.00     0.059 A 
ATOM     87  F   UNL A   1      42.047  27.438  32.216  1.00  0.00    -0.206 F 
ATOM     88  C   UNL A   1      42.513  27.263  35.793  1.00  0.00     0.060 A 
BRANCH  88  89
ATOM     89  S   UNL A   1      42.162  26.139  37.163  1.00  0.00     0.124 S 
ATOM     90  O   UNL A   1      43.110  26.587  38.178  1.00  0.00    -0.237 OA
ATOM     91  O   UNL A   1      40.755  26.410  37.445  1.00  0.00    -0.237 OA
ATOM     92  O   UNL A   1      42.432  24.818  36.599  1.00  0.00    -0.744 OA
ENDBRANCH  88  89
ENDBRANCH  56  81
ENDBRANCH  30  31
ENDBRANCH   2  25
TORSDOF 13
ENDMDL
MODEL 2
REMARK VINA RESULT:     -13.4      4.020     11.090
REMARK SMILES CC1=C2C(=O)CC(C)(C)CC2=N[C@@H]1C(=O)NCCCNC(=O)c1ccc(-c2c3nc(c(-c4c(F)cc(S(=O)(=O)[O-])cc4F)c4ccc([nH]4)c(-c4c(F)cc(S(=O)(=O)[O-])cc4F)c4nc(c(-c5c(F)cc(S(=O)(=O)[O-])cc5F)c5ccc2[nH]5)C=C4)C=C3)cc1
REMARK SMILES IDX 20 1 21 2 22 3 19 5 18 6 17 7 16 8 14 9 15 10 13 12 1 13
REMARK SMILES IDX 2 14 3 15 4 16 11 17 12 18 5 19 6 20 10 21 7 22 8 23 9 24
REMARK SMILES IDX 23 25 24 26 88 27 25 28 87 29 26 30 27 31 28 32 81 33 29 34
REMARK SMILES IDX 86 35 80 36 82 37 30 38 85 39 79 40 78 41 31 43 65 44 44 45
REMARK SMILES IDX 64 46 45 47 48 48 63 49 83 50 46 51 47 52 62 54 84 55 49 56
REMARK SMILES IDX 32 57 33 58 42 59 34 60 35 61 41 62 43 63 36 64 37 65 38 66
REMARK SMILES IDX 39 67 40 68 66 69 67 70 76 71 68 72 69 73 75 74 77 75 70 76
REMARK SMILES IDX 71 77 72 78 73 79 74 80 50 81 51 82 60 83 52 84 53 85 59 86
REMARK SMILES IDX 61 87 54 88 55 89 56 90 57 91 58 92
REMARK H PARENT 20 4 16 11 82 42 48 53
REMARK Flexibility Score: inf
ROOT
ATOM      1  N   UNL A   1      33.620  32.549  28.057  1.00  0.00    -0.352 N 
ATOM      2  C   UNL A   1      34.149  31.298  27.751  1.00  0.00     0.251 C 
ATOM      3  O   UNL A   1      33.442  30.384  27.379  1.00  0.00    -0.269 OA
ATOM      4  H   UNL A   1      32.655  32.577  28.251  1.00  0.00     0.163 HD
ENDROOT
BRANCH   1   5
ATOM      5  C   UNL A   1      34.331  33.832  28.124  1.00  0.00     0.118 C 
BRANCH   5   6
ATOM      6  C   UNL A   1      33.615  34.883  28.943  1.00  0.00     0.042 C 
BRANCH   6   7
ATOM      7  C   UNL A   1      34.118  34.962  30.381  1.00  0.00     0.117 C 
BRANCH   7   8
ATOM      8  N   UNL A   1      34.344  33.658  31.008  1.00  0.00    -0.354 N 
ATOM      9  C   UNL A   1      35.230  33.341  32.021  1.00  0.00     0.249 C 
ATOM     10  O   UNL A   1      35.220  32.204  32.490  1.00  0.00    -0.272 OA
ATOM     11  H   UNL A   1      33.798  32.914  30.663  1.00  0.00     0.163 HD
BRANCH   9  12
ATOM     12  C   UNL A   1      36.189  34.462  32.520  1.00  0.00     0.221 C 
ATOM     13  C   UNL A   1      38.471  33.456  31.611  1.00  0.00     0.043 C 
ATOM     14  C   UNL A   1      37.675  34.177  32.641  1.00  0.00    -0.027 C 
ATOM     15  C   UNL A   1      38.112  34.505  33.863  1.00  0.00     0.040 C 
ATOM     16  C   UNL A   1      39.377  34.474  34.613  1.00  0.00     0.165 C 
ATOM     17  C   UNL A   1      36.854  34.360  34.567  1.00  0.00     0.048 C 
ATOM     18  N   UNL A   1      35.768  34.666  33.945  1.00  0.00    -0.271 NA
ATOM     19  O   UNL A   1      40.343  35.139  34.249  1.00  0.00    -0.294 OA
ATOM     20  C   UNL A   1      39.360  33.712  35.934  1.00  0.00     0.088 C 
ATOM     21  C   UNL A   1      36.833  33.647  35.877  1.00  0.00     0.063 C 
ATOM     22  C   UNL A   1      38.119  32.794  36.062  1.00  0.00    -0.023 C 
ATOM     23  C   UNL A   1      38.259  31.628  35.045  1.00  0.00     0.012 C 
ATOM     24  C   UNL A   1      38.029  32.157  37.456  1.00  0.00     0.012 C 
ENDBRANCH   9  12
ENDBRANCH   7   8
ENDBRANCH   6   7
ENDBRANCH   5   6
ENDBRANCH   1   5
BRANCH   2  25
ATOM     25  C   UNL A   1      35.608  31.125  27.903  1.00  0.00     0.039 A 
ATOM     26  C   UNL A   1      36.417  32.048  28.570  1.00  0.00     0.014 A 
ATOM     27  C   UNL A   1      36.133  29.931  27.430  1.00  0.00     0.014 A 
ATOM     28  C   UNL A   1      37.742  31.701  28.833  1.00  0.00     0.010 A 
ATOM     29  C   UNL A   1      37.328  29.495  27.917  1.00  0.00     0.010 A 
ATOM     30  C   UNL A   1      38.180  30.404  28.522  1.00  0.00    -0.014 A 
BRANCH  30  31
ATOM     31  C   UNL A   1      39.496  29.905  28.899  1.00  0.00     0.031 A 
ATOM     32  C   UNL A   1      39.716  29.839  30.364  1.00  0.00     0.074 A 
ATOM     33  C   UNL A   1      40.315  29.292  28.012  1.00  0.00     0.049 A 
ATOM     34  N   UNL A   1      40.424  30.637  31.093  1.00  0.00    -0.248 NA
ATOM     35  C   UNL A   1      38.889  28.904  31.149  1.00  0.00     0.031 C 
ATOM     36  C   UNL A   1      40.049  28.977  26.599  1.00  0.00     0.029 A 
ATOM     37  N   UNL A   1      41.521  28.702  28.213  1.00  0.00    -0.354 N 
ATOM     38  C   UNL A   1      40.375  30.101  32.377  1.00  0.00     0.074 A 
ATOM     39  C   UNL A   1      39.215  29.252  32.397  1.00  0.00     0.031 C 
ATOM     40  C   UNL A   1      40.932  28.056  26.160  1.00  0.00     0.029 A 
ATOM     41  C   UNL A   1      41.935  27.853  27.187  1.00  0.00     0.049 A 
ATOM     42  H   UNL A   1      42.062  28.860  29.021  1.00  0.00     0.167 HD
ATOM     43  C   UNL A   1      41.476  30.128  33.182  1.00  0.00     0.037 A 
ATOM     44  C   UNL A   1      43.014  27.029  27.194  1.00  0.00     0.037 A 
ATOM     45  C   UNL A   1      42.467  31.043  32.651  1.00  0.00     0.049 A 
ATOM     46  C   UNL A   1      43.927  27.539  28.250  1.00  0.00     0.074 A 
ATOM     47  C   UNL A   1      42.475  32.377  32.287  1.00  0.00     0.029 A 
ATOM     48  N   UNL A   1      43.573  30.488  32.050  1.00  0.00    -0.354 N 
ATOM     49  N   UNL A   1      44.528  28.698  28.192  1.00  0.00    -0.248 NA
ATOM     50  C   UNL A   1      43.799  26.973  29.584  1.00  0.00     0.031 C 
ATOM     51  C   UNL A   1      43.294  32.437  31.119  1.00  0.00     0.029 A 
ATOM     52  C   UNL A   1      43.808  31.162  30.882  1.00  0.00     0.049 A 
ATOM     53  H   UNL A   1      44.103  29.736  32.400  1.00  0.00     0.167 HD
ATOM     54  C   UNL A   1      44.449  29.203  29.482  1.00  0.00     0.074 A 
ATOM     55  C   UNL A   1      44.079  28.057  30.312  1.00  0.00     0.031 C 
ATOM     56  C   UNL A   1      44.394  30.550  29.707  1.00  0.00     0.037 A 
BRANCH  43  57
ATOM     57  C   UNL A   1      41.865  29.029  34.159  1.00  0.00     0.058 A 
ATOM     58  C   UNL A   1      42.002  27.714  33.660  1.00  0.00     0.135 A 
ATOM     59  C   UNL A   1      41.803  29.129  35.566  1.00  0.00     0.135 A 
ATOM     60  F   UNL A   1      42.110  27.490  32.341  1.00  0.00    -0.206 F 
ATOM     61  C   UNL A   1      41.934  26.587  34.480  1.00  0.00     0.059 A 
ATOM     62  C   UNL A   1      41.786  28.021  36.407  1.00  0.00     0.059 A 
ATOM     63  F   UNL A   1      41.667  30.290  36.213  1.00  0.00    -0.206 F 
ATOM     64  C   UNL A   1      41.796  26.754  35.853  1.00  0.00     0.060 A 
BRANCH  64  65
ATOM     65  S   UNL A   1      41.577  25.311  36.904  1.00  0.00     0.124 S 
ATOM     66  O   UNL A   1      41.320  24.273  35.912  1.00  0.00    -0.237 OA
ATOM     67  O   UNL A   1      42.864  25.242  37.588  1.00  0.00    -0.237 OA
ATOM     68  O   UNL A   1      40.443  25.680  37.745  1.00  0.00    -0.744 OA
ENDBRANCH  64  65
ENDBRANCH  43  57
BRANCH  44  69
ATOM     69  C   UNL A   1      43.154  25.673  26.591  1.00  0.00     0.058 A 
ATOM     70  C   UNL A   1      43.913  25.472  25.423  1.00  0.00     0.135 A 
ATOM     71  C   UNL A   1      42.794  24.509  27.300  1.00  0.00     0.135 A 
ATOM     72  F   UNL A   1      44.313  26.523  24.689  1.00  0.00    -0.206 F 
ATOM     73  C   UNL A   1      44.342  24.202  25.017  1.00  0.00     0.059 A 
ATOM     74  C   UNL A   1      43.201  23.232  26.909  1.00  0.00     0.059 A 
ATOM     75  F   UNL A   1      42.112  24.584  28.453  1.00  0.00    -0.206 F 
ATOM     76  C   UNL A   1      43.999  23.087  25.782  1.00  0.00     0.060 A 
BRANCH  76  77
ATOM     77  S   UNL A   1      44.700  21.470  25.369  1.00  0.00     0.124 S 
ATOM     78  O   UNL A   1      43.791  20.561  26.057  1.00  0.00    -0.237 OA
ATOM     79  O   UNL A   1      44.626  21.463  23.911  1.00  0.00    -0.237 OA
ATOM     80  O   UNL A   1      46.051  21.536  25.919  1.00  0.00    -0.744 OA
ENDBRANCH  76  77
ENDBRANCH  44  69
BRANCH  56  81
ATOM     81  C   UNL A   1      44.782  31.481  28.586  1.00  0.00     0.058 A 
ATOM     82  C   UNL A   1      43.979  31.781  27.471  1.00  0.00     0.135 A 
ATOM     83  C   UNL A   1      45.971  32.210  28.730  1.00  0.00     0.135 A 
ATOM     84  F   UNL A   1      42.779  31.208  27.307  1.00  0.00    -0.206 F 
ATOM     85  C   UNL A   1      44.364  32.732  26.522  1.00  0.00     0.059 A 
ATOM     86  C   UNL A   1      46.360  33.184  27.816  1.00  0.00     0.059 A 
ATOM     87  F   UNL A   1      46.752  32.014  29.805  1.00  0.00    -0.206 F 
ATOM     88  C   UNL A   1      45.559  33.430  26.705  1.00  0.00     0.060 A 
BRANCH  88  89
ATOM     89  S   UNL A   1      46.029  34.704  25.514  1.00  0.00     0.124 S 
ATOM     90  O   UNL A   1      45.695  35.931  26.230  1.00  0.00    -0.237 OA
ATOM     91  O   UNL A   1      47.455  34.449  25.323  1.00  0.00    -0.237 OA
ATOM     92  O   UNL A   1      45.192  34.413  24.352  1.00  0.00    -0.744 OA
ENDBRANCH  88  89
ENDBRANCH  56  81
ENDBRANCH  30  31
ENDBRANCH   2  25
TORSDOF 13
ENDMDL
MODEL 3
REMARK VINA RESULT:     -13.4      3.537      5.986
REMARK SMILES CC1=C2C(=O)CC(C)(C)CC2=N[C@@H]1C(=O)NCCCNC(=O)c1ccc(-c2c3nc(c(-c4c(F)cc(S(=O)(=O)[O-])cc4F)c4ccc([nH]4)c(-c4c(F)cc(S(=O)(=O)[O-])cc4F)c4nc(c(-c5c(F)cc(S(=O)(=O)[O-])cc5F)c5ccc2[nH]5)C=C4)C=C3)cc1
REMARK SMILES IDX 20 1 21 2 22 3 19 5 18 6 17 7 16 8 14 9 15 10 13 12 1 13
REMARK SMILES IDX 2 14 3 15 4 16 11 17 12 18 5 19 6 20 10 21 7 22 8 23 9 24
REMARK SMILES IDX 23 25 24 26 88 27 25 28 87 29 26 30 27 31 28 32 81 33 29 34
REMARK SMILES IDX 86 35 80 36 82 37 30 38 85 39 79 40 78 41 31 43 65 44 44 45
REMARK SMILES IDX 64 46 45 47 48 48 63 49 83 50 46 51 47 52 62 54 84 55 49 56
REMARK SMILES IDX 32 57 33 58 42 59 34 60 35 61 41 62 43 63 36 64 37 65 38 66
REMARK SMILES IDX 39 67 40 68 66 69 67 70 76 71 68 72 69 73 75 74 77 75 70 76
REMARK SMILES IDX 71 77 72 78 73 79 74 80 50 81 51 82 60 83 52 84 53 85 59 86
REMARK SMILES IDX 61 87 54 88 55 89 56 90 57 91 58 92
REMARK H PARENT 20 4 16 11 82 42 48 53
REMARK Flexibility Score: inf
ROOT
ATOM      1  N   UNL A   1      39.419  21.839  26.212  1.00  0.00    -0.352 N 
ATOM      2  C   UNL A   1      38.815  23.092  26.145  1.00  0.00     0.251 C 
ATOM      3  O   UNL A   1      37.752  23.254  25.583  1.00  0.00    -0.269 OA
ATOM      4  H   UNL A   1      39.119  21.176  25.548  1.00  0.00     0.163 HD
ENDROOT
BRANCH   1   5
ATOM      5  C   UNL A   1      40.450  21.389  27.155  1.00  0.00     0.118 C 
BRANCH   5   6
ATOM      6  C   UNL A   1      41.206  20.163  26.692  1.00  0.00     0.042 C 
BRANCH   6   7
ATOM      7  C   UNL A   1      42.686  20.434  26.442  1.00  0.00     0.117 C 
BRANCH   7   8
ATOM      8  N   UNL A   1      42.955  21.203  25.224  1.00  0.00    -0.354 N 
ATOM      9  C   UNL A   1      43.990  22.087  24.986  1.00  0.00     0.249 C 
ATOM     10  O   UNL A   1      44.112  22.577  23.864  1.00  0.00    -0.272 OA
ATOM     11  H   UNL A   1      42.318  21.074  24.484  1.00  0.00     0.163 HD
BRANCH   9  12
ATOM     12  C   UNL A   1      44.957  22.404  26.166  1.00  0.00     0.221 C 
ATOM     13  C   UNL A   1      43.254  23.717  27.723  1.00  0.00     0.043 C 
ATOM     14  C   UNL A   1      44.610  23.514  27.141  1.00  0.00    -0.027 C 
ATOM     15  C   UNL A   1      45.633  24.368  27.256  1.00  0.00     0.040 C 
ATOM     16  C   UNL A   1      45.942  25.607  27.986  1.00  0.00     0.165 C 
ATOM     17  C   UNL A   1      46.239  24.124  25.962  1.00  0.00     0.048 C 
ATOM     18  N   UNL A   1      46.179  22.933  25.475  1.00  0.00    -0.271 NA
ATOM     19  O   UNL A   1      45.982  25.624  29.213  1.00  0.00    -0.294 OA
ATOM     20  C   UNL A   1      46.366  26.802  27.138  1.00  0.00     0.088 C 
ATOM     21  C   UNL A   1      46.688  25.285  25.141  1.00  0.00     0.063 C 
ATOM     22  C   UNL A   1      46.031  26.602  25.639  1.00  0.00    -0.023 C 
ATOM     23  C   UNL A   1      44.487  26.646  25.469  1.00  0.00     0.012 C 
ATOM     24  C   UNL A   1      46.603  27.736  24.777  1.00  0.00     0.012 C 
ENDBRANCH   9  12
ENDBRANCH   7   8
ENDBRANCH   6   7
ENDBRANCH   5   6
ENDBRANCH   1   5
BRANCH   2  25
ATOM     25  C   UNL A   1      39.525  24.220  26.782  1.00  0.00     0.039 A 
ATOM     26  C   UNL A   1      40.298  25.134  26.062  1.00  0.00     0.014 A 
ATOM     27  C   UNL A   1      39.306  24.389  28.141  1.00  0.00     0.014 A 
ATOM     28  C   UNL A   1      40.762  26.272  26.720  1.00  0.00     0.010 A 
ATOM     29  C   UNL A   1      39.529  25.611  28.700  1.00  0.00     0.010 A 
ATOM     30  C   UNL A   1      40.348  26.513  28.039  1.00  0.00    -0.014 A 
BRANCH  30  31
ATOM     31  C   UNL A   1      40.657  27.746  28.751  1.00  0.00     0.031 A 
ATOM     32  C   UNL A   1      41.736  28.548  28.122  1.00  0.00     0.074 A 
ATOM     33  C   UNL A   1      39.845  28.246  29.712  1.00  0.00     0.049 A 
ATOM     34  N   UNL A   1      42.960  28.669  28.516  1.00  0.00    -0.248 NA
ATOM     35  C   UNL A   1      41.488  29.117  26.785  1.00  0.00     0.031 C 
ATOM     36  C   UNL A   1      38.550  27.718  30.170  1.00  0.00     0.029 A 
ATOM     37  N   UNL A   1      39.939  29.410  30.405  1.00  0.00    -0.354 N 
ATOM     38  C   UNL A   1      43.537  29.585  27.642  1.00  0.00     0.074 A 
ATOM     39  C   UNL A   1      42.701  29.582  26.472  1.00  0.00     0.031 C 
ATOM     40  C   UNL A   1      37.884  28.669  30.859  1.00  0.00     0.029 A 
ATOM     41  C   UNL A   1      38.768  29.801  31.053  1.00  0.00     0.049 A 
ATOM     42  H   UNL A   1      40.770  29.937  30.447  1.00  0.00     0.167 HD
ATOM     43  C   UNL A   1      44.433  30.508  28.096  1.00  0.00     0.037 A 
ATOM     44  C   UNL A   1      38.540  30.981  31.684  1.00  0.00     0.037 A 
ATOM     45  C   UNL A   1      44.895  30.152  29.423  1.00  0.00     0.049 A 
ATOM     46  C   UNL A   1      39.874  31.563  31.987  1.00  0.00     0.074 A 
ATOM     47  C   UNL A   1      45.480  29.035  29.990  1.00  0.00     0.029 A 
ATOM     48  N   UNL A   1      44.404  30.888  30.476  1.00  0.00    -0.354 N 
ATOM     49  N   UNL A   1      40.729  31.024  32.816  1.00  0.00    -0.248 NA
ATOM     50  C   UNL A   1      40.446  32.480  31.014  1.00  0.00     0.031 C 
ATOM     51  C   UNL A   1      44.892  28.927  31.287  1.00  0.00     0.029 A 
ATOM     52  C   UNL A   1      44.049  30.023  31.475  1.00  0.00     0.049 A 
ATOM     53  H   UNL A   1      44.323  31.870  30.505  1.00  0.00     0.167 HD
ATOM     54  C   UNL A   1      41.963  31.176  32.199  1.00  0.00     0.074 A 
ATOM     55  C   UNL A   1      41.737  32.164  31.145  1.00  0.00     0.031 C 
ATOM     56  C   UNL A   1      42.967  30.271  32.404  1.00  0.00     0.037 A 
BRANCH  43  57
ATOM     57  C   UNL A   1      44.547  31.935  27.581  1.00  0.00     0.058 A 
ATOM     58  C   UNL A   1      45.652  32.262  26.764  1.00  0.00     0.135 A 
ATOM     59  C   UNL A   1      43.830  33.043  28.084  1.00  0.00     0.135 A 
ATOM     60  F   UNL A   1      46.392  31.296  26.195  1.00  0.00    -0.206 F 
ATOM     61  C   UNL A   1      46.094  33.573  26.584  1.00  0.00     0.059 A 
ATOM     62  C   UNL A   1      44.222  34.361  27.874  1.00  0.00     0.059 A 
ATOM     63  F   UNL A   1      42.761  32.925  28.878  1.00  0.00    -0.206 F 
ATOM     64  C   UNL A   1      45.385  34.614  27.171  1.00  0.00     0.060 A 
BRANCH  64  65
ATOM     65  S   UNL A   1      46.018  36.294  27.054  1.00  0.00     0.124 S 
ATOM     66  O   UNL A   1      46.721  36.422  28.326  1.00  0.00    -0.237 OA
ATOM     67  O   UNL A   1      46.855  36.215  25.862  1.00  0.00    -0.237 OA
ATOM     68  O   UNL A   1      44.808  37.097  26.914  1.00  0.00    -0.744 OA
ENDBRANCH  64  65
ENDBRANCH  43  57
BRANCH  44  69
ATOM     69  C   UNL A   1      37.280  31.775  31.747  1.00  0.00     0.058 A 
ATOM     70  C   UNL A   1      36.674  32.079  32.981  1.00  0.00     0.135 A 
ATOM     71  C   UNL A   1      36.804  32.494  30.632  1.00  0.00     0.135 A 
ATOM     72  F   UNL A   1      37.071  31.454  34.100  1.00  0.00    -0.206 F 
ATOM     73  C   UNL A   1      35.701  33.078  33.111  1.00  0.00     0.059 A 
ATOM     74  C   UNL A   1      35.828  33.487  30.737  1.00  0.00     0.059 A 
ATOM     75  F   UNL A   1      37.341  32.321  29.416  1.00  0.00    -0.206 F 
ATOM     76  C   UNL A   1      35.300  33.794  31.984  1.00  0.00     0.060 A 
BRANCH  76  77
ATOM     77  S   UNL A   1      34.183  35.207  32.173  1.00  0.00     0.124 S 
ATOM     78  O   UNL A   1      34.981  36.116  32.988  1.00  0.00    -0.237 OA
ATOM     79  O   UNL A   1      33.966  35.617  30.789  1.00  0.00    -0.237 OA
ATOM     80  O   UNL A   1      33.018  34.631  32.838  1.00  0.00    -0.744 OA
ENDBRANCH  76  77
ENDBRANCH  44  69
BRANCH  56  81
ATOM     81  C   UNL A   1      42.850  29.322  33.570  1.00  0.00     0.058 A 
ATOM     82  C   UNL A   1      43.195  29.628  34.899  1.00  0.00     0.135 A 
ATOM     83  C   UNL A   1      42.221  28.089  33.343  1.00  0.00     0.135 A 
ATOM     84  F   UNL A   1      43.706  30.823  35.224  1.00  0.00    -0.206 F 
ATOM     85  C   UNL A   1      42.964  28.730  35.944  1.00  0.00     0.059 A 
ATOM     86  C   UNL A   1      41.952  27.193  34.372  1.00  0.00     0.059 A 
ATOM     87  F   UNL A   1      41.812  27.763  32.106  1.00  0.00    -0.206 F 
ATOM     88  C   UNL A   1      42.340  27.513  35.670  1.00  0.00     0.060 A 
BRANCH  88  89
ATOM     89  S   UNL A   1      41.983  26.376  37.027  1.00  0.00     0.124 S 
ATOM     90  O   UNL A   1      42.054  25.077  36.366  1.00  0.00    -0.237 OA
ATOM     91  O   UNL A   1      43.055  26.665  37.975  1.00  0.00    -0.237 OA
ATOM     92  O   UNL A   1      40.648  26.778  37.468  1.00  0.00    -0.744 OA
ENDBRANCH  88  89
ENDBRANCH  56  81
ENDBRANCH  30  31
ENDBRANCH   2  25
TORSDOF 13
ENDMDL
