MODEL 1
REMARK VINA RESULT:     -11.6      0.000      0.000
REMARK SMILES CSc1ccc([C@H]2[NH2+][C@@H](C(=O)NCCCNC(=O)c3ccc(-c4c5nc(c(-c6c(F)cc(S(=O)(=O)[O-])cc6F)c6ccc([nH]6)c(-c6c(F)cc(S(=O)(=O)[O-])cc6F)c6nc(c(-c7c(F)cc(S(=O)(=O)[O-])cc7F)c7ccc4[nH]7)C=C6)C=C5)cc3)C(C)(C)S2)cc1
REMARK SMILES IDX 14 1 13 2 12 3 10 4 11 5 9 7 7 8 8 9 88 10 85 13 86 14 87 15
REMARK SMILES IDX 6 16 3 17 4 18 90 19 5 20 89 21 2 22 1 23 15 24 16 25 17 26
REMARK SMILES IDX 18 28 19 29 20 30 84 31 21 32 83 33 22 34 23 35 24 36 77 37
REMARK SMILES IDX 25 38 82 39 76 40 78 41 26 42 81 43 75 44 74 45 27 47 61 48
REMARK SMILES IDX 40 49 60 50 41 51 44 52 59 53 79 54 42 55 43 56 58 58 80 59
REMARK SMILES IDX 45 60 28 61 29 62 38 63 30 64 31 65 37 66 39 67 32 68 33 69
REMARK SMILES IDX 34 70 35 71 36 72 62 73 63 74 72 75 64 76 65 77 71 78 73 79
REMARK SMILES IDX 66 80 67 81 68 82 69 83 70 84 46 85 47 86 56 87 48 88 49 89
REMARK SMILES IDX 55 90 57 91 50 92 51 93 52 94 53 95 54 96
REMARK H PARENT 12 6 8 11 8 12 16 27 78 46 44 57
REMARK Flexibility Score: inf
ROOT
ATOM      1  C   UNL A   1      34.127  28.081  25.551  1.00  0.00     0.042 C 
ENDROOT
BRANCH   1   2
ATOM      2  C   UNL A   1      33.016  27.919  24.521  1.00  0.00     0.118 C 
BRANCH   2   3
ATOM      3  N   UNL A   1      33.336  26.944  23.488  1.00  0.00    -0.351 N 
ATOM      4  C   UNL A   1      33.329  25.583  23.423  1.00  0.00     0.279 C 
ATOM      5  O   UNL A   1      33.725  25.094  22.357  1.00  0.00    -0.268 OA
ATOM      6  H   UNL A   1      33.623  27.363  22.644  1.00  0.00     0.163 HD
BRANCH   4   7
ATOM      7  C   UNL A   1      32.916  24.646  24.578  1.00  0.00     0.289 C 
ATOM      8  C   UNL A   1      33.099  22.451  25.512  1.00  0.00     0.274 C 
ATOM      9  N   UNL A   1      33.759  23.435  24.655  1.00  0.00    -0.320 N 
ATOM     10  S   UNL A   1      31.343  22.846  25.694  1.00  0.00    -0.081 SA
ATOM     11  H   UNL A   1      33.885  23.046  23.721  1.00  0.00     0.348 HD
ATOM     12  H   UNL A   1      34.671  23.675  25.044  1.00  0.00     0.348 HD
ATOM     13  C   UNL A   1      31.403  24.351  24.661  1.00  0.00     0.077 C 
ATOM     14  C   UNL A   1      30.676  24.038  23.357  1.00  0.00     0.030 C 
ATOM     15  C   UNL A   1      30.661  25.489  25.375  1.00  0.00     0.030 C 
BRANCH   8  16
ATOM     16  C   UNL A   1      33.346  21.038  25.011  1.00  0.00     0.020 A 
ATOM     17  C   UNL A   1      33.729  18.356  24.162  1.00  0.00     0.007 A 
ATOM     18  C   UNL A   1      32.488  18.980  24.016  1.00  0.00     0.015 A 
ATOM     19  C   UNL A   1      34.785  19.085  24.714  1.00  0.00     0.015 A 
ATOM     20  C   UNL A   1      32.296  20.301  24.445  1.00  0.00     0.012 A 
ATOM     21  C   UNL A   1      34.598  20.409  25.128  1.00  0.00     0.012 A 
BRANCH  17  22
ATOM     22  S   UNL A   1      34.062  16.689  23.615  1.00  0.00    -0.130 SA
ATOM     23  C   UNL A   1      34.777  15.943  25.102  1.00  0.00     0.091 C 
ENDBRANCH  17  22
ENDBRANCH   8  16
ENDBRANCH   4   7
ENDBRANCH   2   3
ENDBRANCH   1   2
BRANCH   1  24
ATOM     24  C   UNL A   1      33.639  28.216  26.984  1.00  0.00     0.118 C 
BRANCH  24  25
ATOM     25  N   UNL A   1      33.506  29.604  27.388  1.00  0.00    -0.352 N 
ATOM     26  C   UNL A   1      34.392  30.423  28.048  1.00  0.00     0.251 C 
ATOM     27  H   UNL A   1      32.648  30.026  27.154  1.00  0.00     0.163 HD
ATOM     28  O   UNL A   1      33.985  31.493  28.495  1.00  0.00    -0.269 OA
BRANCH  26  29
ATOM     29  C   UNL A   1      35.813  30.035  28.237  1.00  0.00     0.039 A 
ATOM     30  C   UNL A   1      36.225  29.599  29.500  1.00  0.00     0.014 A 
ATOM     31  C   UNL A   1      36.758  30.156  27.214  1.00  0.00     0.014 A 
ATOM     32  C   UNL A   1      37.562  29.257  29.723  1.00  0.00     0.010 A 
ATOM     33  C   UNL A   1      38.068  29.724  27.409  1.00  0.00     0.010 A 
ATOM     34  C   UNL A   1      38.495  29.300  28.674  1.00  0.00    -0.014 A 
BRANCH  34  35
ATOM     35  C   UNL A   1      39.924  28.957  28.906  1.00  0.00     0.031 A 
ATOM     36  C   UNL A   1      40.857  29.969  29.522  1.00  0.00     0.074 A 
ATOM     37  C   UNL A   1      40.392  27.747  28.540  1.00  0.00     0.049 A 
ATOM     38  N   UNL A   1      42.130  29.854  29.805  1.00  0.00    -0.248 NA
ATOM     39  C   UNL A   1      40.295  31.292  29.835  1.00  0.00     0.031 C 
ATOM     40  C   UNL A   1      39.611  26.702  27.874  1.00  0.00     0.029 A 
ATOM     41  N   UNL A   1      41.637  27.189  28.681  1.00  0.00    -0.354 N 
ATOM     42  C   UNL A   1      42.522  31.090  30.307  1.00  0.00     0.074 A 
ATOM     43  C   UNL A   1      41.367  31.957  30.240  1.00  0.00     0.031 C 
ATOM     44  C   UNL A   1      40.385  25.619  27.697  1.00  0.00     0.029 A 
ATOM     45  C   UNL A   1      41.720  25.897  28.218  1.00  0.00     0.049 A 
ATOM     46  H   UNL A   1      42.401  27.669  29.076  1.00  0.00     0.167 HD
ATOM     47  C   UNL A   1      43.724  31.464  30.809  1.00  0.00     0.037 A 
ATOM     48  C   UNL A   1      42.750  25.029  28.228  1.00  0.00     0.037 A 
ATOM     49  C   UNL A   1      44.861  30.588  30.919  1.00  0.00     0.049 A 
ATOM     50  C   UNL A   1      44.055  25.444  28.849  1.00  0.00     0.074 A 
ATOM     51  C   UNL A   1      46.105  30.853  31.463  1.00  0.00     0.029 A 
ATOM     52  N   UNL A   1      44.886  29.271  30.486  1.00  0.00    -0.354 N 
ATOM     53  N   UNL A   1      44.388  26.598  29.375  1.00  0.00    -0.248 NA
ATOM     54  C   UNL A   1      45.118  24.430  28.898  1.00  0.00     0.031 C 
ATOM     55  C   UNL A   1      46.891  29.700  31.339  1.00  0.00     0.029 A 
ATOM     56  C   UNL A   1      46.125  28.709  30.748  1.00  0.00     0.049 A 
ATOM     57  H   UNL A   1      44.135  28.804  30.055  1.00  0.00     0.167 HD
ATOM     58  C   UNL A   1      45.689  26.444  29.839  1.00  0.00     0.074 A 
ATOM     59  C   UNL A   1      46.077  25.079  29.545  1.00  0.00     0.031 C 
ATOM     60  C   UNL A   1      46.491  27.347  30.455  1.00  0.00     0.037 A 
BRANCH  47  61
ATOM     61  C   UNL A   1      43.862  32.882  31.294  1.00  0.00     0.058 A 
ATOM     62  C   UNL A   1      44.294  33.911  30.441  1.00  0.00     0.135 A 
ATOM     63  C   UNL A   1      43.544  33.220  32.618  1.00  0.00     0.135 A 
ATOM     64  F   UNL A   1      44.628  33.639  29.169  1.00  0.00    -0.206 F 
ATOM     65  C   UNL A   1      44.440  35.218  30.893  1.00  0.00     0.059 A 
ATOM     66  C   UNL A   1      43.657  34.527  33.085  1.00  0.00     0.059 A 
ATOM     67  F   UNL A   1      43.125  32.276  33.476  1.00  0.00    -0.206 F 
ATOM     68  C   UNL A   1      44.124  35.515  32.220  1.00  0.00     0.060 A 
BRANCH  68  69
ATOM     69  S   UNL A   1      44.323  37.215  32.796  1.00  0.00     0.124 S 
ATOM     70  O   UNL A   1      43.185  37.348  33.701  1.00  0.00    -0.237 OA
ATOM     71  O   UNL A   1      45.636  37.181  33.431  1.00  0.00    -0.237 OA
ATOM     72  O   UNL A   1      44.244  38.000  31.568  1.00  0.00    -0.744 OA
ENDBRANCH  68  69
ENDBRANCH  47  61
BRANCH  48  73
ATOM     73  C   UNL A   1      42.568  23.660  27.680  1.00  0.00     0.058 A 
ATOM     74  C   UNL A   1      42.657  23.420  26.300  1.00  0.00     0.135 A 
ATOM     75  C   UNL A   1      42.323  22.564  28.521  1.00  0.00     0.135 A 
ATOM     76  F   UNL A   1      42.887  24.438  25.457  1.00  0.00    -0.206 F 
ATOM     77  C   UNL A   1      42.494  22.145  25.770  1.00  0.00     0.059 A 
ATOM     78  C   UNL A   1      42.178  21.276  28.016  1.00  0.00     0.059 A 
ATOM     79  F   UNL A   1      42.249  22.740  29.849  1.00  0.00    -0.206 F 
ATOM     80  C   UNL A   1      42.255  21.078  26.638  1.00  0.00     0.060 A 
BRANCH  80  81
ATOM     81  S   UNL A   1      42.101  19.416  25.948  1.00  0.00     0.124 S 
ATOM     82  O   UNL A   1      40.665  19.329  25.708  1.00  0.00    -0.237 OA
ATOM     83  O   UNL A   1      42.943  19.494  24.759  1.00  0.00    -0.237 OA
ATOM     84  O   UNL A   1      42.617  18.563  27.016  1.00  0.00    -0.744 OA
ENDBRANCH  80  81
ENDBRANCH  48  73
BRANCH  60  85
ATOM     85  C   UNL A   1      47.852  26.876  30.880  1.00  0.00     0.058 A 
ATOM     86  C   UNL A   1      48.970  27.004  30.044  1.00  0.00     0.135 A 
ATOM     87  C   UNL A   1      48.040  26.307  32.150  1.00  0.00     0.135 A 
ATOM     88  F   UNL A   1      48.841  27.539  28.819  1.00  0.00    -0.206 F 
ATOM     89  C   UNL A   1      50.225  26.547  30.435  1.00  0.00     0.059 A 
ATOM     90  C   UNL A   1      49.290  25.865  32.572  1.00  0.00     0.059 A 
ATOM     91  F   UNL A   1      47.004  26.175  32.993  1.00  0.00    -0.206 F 
ATOM     92  C   UNL A   1      50.373  25.973  31.698  1.00  0.00     0.060 A 
BRANCH  92  93
ATOM     93  S   UNL A   1      52.004  25.384  32.202  1.00  0.00     0.124 S 
ATOM     94  O   UNL A   1      52.169  26.050  33.490  1.00  0.00    -0.237 OA
ATOM     95  O   UNL A   1      51.816  23.938  32.255  1.00  0.00    -0.237 OA
ATOM     96  O   UNL A   1      52.878  25.857  31.132  1.00  0.00    -0.744 OA
ENDBRANCH  92  93
ENDBRANCH  60  85
ENDBRANCH  34  35
ENDBRANCH  26  29
ENDBRANCH  24  25
ENDBRANCH   1  24
TORSDOF 15
ENDMDL
MODEL 2
REMARK VINA RESULT:     -11.4      2.609      3.227
REMARK SMILES CSc1ccc([C@H]2[NH2+][C@@H](C(=O)NCCCNC(=O)c3ccc(-c4c5nc(c(-c6c(F)cc(S(=O)(=O)[O-])cc6F)c6ccc([nH]6)c(-c6c(F)cc(S(=O)(=O)[O-])cc6F)c6nc(c(-c7c(F)cc(S(=O)(=O)[O-])cc7F)c7ccc4[nH]7)C=C6)C=C5)cc3)C(C)(C)S2)cc1
REMARK SMILES IDX 14 1 13 2 12 3 10 4 11 5 9 7 7 8 8 9 88 10 85 13 86 14 87 15
REMARK SMILES IDX 6 16 3 17 4 18 90 19 5 20 89 21 2 22 1 23 15 24 16 25 17 26
REMARK SMILES IDX 18 28 19 29 20 30 84 31 21 32 83 33 22 34 23 35 24 36 77 37
REMARK SMILES IDX 25 38 82 39 76 40 78 41 26 42 81 43 75 44 74 45 27 47 61 48
REMARK SMILES IDX 40 49 60 50 41 51 44 52 59 53 79 54 42 55 43 56 58 58 80 59
REMARK SMILES IDX 45 60 28 61 29 62 38 63 30 64 31 65 37 66 39 67 32 68 33 69
REMARK SMILES IDX 34 70 35 71 36 72 62 73 63 74 72 75 64 76 65 77 71 78 73 79
REMARK SMILES IDX 66 80 67 81 68 82 69 83 70 84 46 85 47 86 56 87 48 88 49 89
REMARK SMILES IDX 55 90 57 91 50 92 51 93 52 94 53 95 54 96
REMARK H PARENT 12 6 8 11 8 12 16 27 78 46 44 57
REMARK Flexibility Score: inf
ROOT
ATOM      1  C   UNL A   1      34.136  28.389  24.239  1.00  0.00     0.042 C 
ENDROOT
BRANCH   1   2
ATOM      2  C   UNL A   1      32.848  27.913  23.578  1.00  0.00     0.118 C 
BRANCH   2   3
ATOM      3  N   UNL A   1      33.066  26.841  22.615  1.00  0.00    -0.351 N 
ATOM      4  C   UNL A   1      33.123  25.482  22.695  1.00  0.00     0.279 C 
ATOM      5  O   UNL A   1      33.385  24.894  21.638  1.00  0.00    -0.268 OA
ATOM      6  H   UNL A   1      33.201  27.175  21.699  1.00  0.00     0.163 HD
BRANCH   4   7
ATOM      7  C   UNL A   1      32.938  24.664  23.990  1.00  0.00     0.289 C 
ATOM      8  C   UNL A   1      33.295  22.563  25.076  1.00  0.00     0.274 C 
ATOM      9  N   UNL A   1      33.780  23.451  24.021  1.00  0.00    -0.320 N 
ATOM     10  S   UNL A   1      31.605  23.004  25.549  1.00  0.00    -0.081 SA
ATOM     11  H   UNL A   1      33.726  22.975  23.121  1.00  0.00     0.348 HD
ATOM     12  H   UNL A   1      34.750  23.710  24.205  1.00  0.00     0.348 HD
ATOM     13  C   UNL A   1      31.468  24.406  24.385  1.00  0.00     0.077 C 
ATOM     14  C   UNL A   1      30.507  23.986  23.278  1.00  0.00     0.030 C 
ATOM     15  C   UNL A   1      30.875  25.619  25.116  1.00  0.00     0.030 C 
BRANCH   8  16
ATOM     16  C   UNL A   1      33.442  21.105  24.673  1.00  0.00     0.020 A 
ATOM     17  C   UNL A   1      33.622  18.353  23.998  1.00  0.00     0.007 A 
ATOM     18  C   UNL A   1      32.499  19.104  23.643  1.00  0.00     0.015 A 
ATOM     19  C   UNL A   1      34.666  18.990  24.672  1.00  0.00     0.015 A 
ATOM     20  C   UNL A   1      32.405  20.459  23.985  1.00  0.00     0.012 A 
ATOM     21  C   UNL A   1      34.580  20.348  25.002  1.00  0.00     0.012 A 
BRANCH  17  22
ATOM     22  S   UNL A   1      33.830  16.632  23.572  1.00  0.00    -0.130 SA
ATOM     23  C   UNL A   1      33.111  15.801  25.012  1.00  0.00     0.091 C 
ENDBRANCH  17  22
ENDBRANCH   8  16
ENDBRANCH   4   7
ENDBRANCH   2   3
ENDBRANCH   1   2
BRANCH   1  24
ATOM     24  C   UNL A   1      34.081  28.438  25.757  1.00  0.00     0.118 C 
BRANCH  24  25
ATOM     25  N   UNL A   1      33.717  29.755  26.248  1.00  0.00    -0.352 N 
ATOM     26  C   UNL A   1      34.264  30.505  27.262  1.00  0.00     0.251 C 
ATOM     27  H   UNL A   1      32.960  30.179  25.781  1.00  0.00     0.163 HD
ATOM     28  O   UNL A   1      33.652  31.493  27.661  1.00  0.00    -0.269 OA
BRANCH  26  29
ATOM     29  C   UNL A   1      35.562  30.138  27.884  1.00  0.00     0.039 A 
ATOM     30  C   UNL A   1      35.555  29.592  29.171  1.00  0.00     0.014 A 
ATOM     31  C   UNL A   1      36.783  30.383  27.251  1.00  0.00     0.014 A 
ATOM     32  C   UNL A   1      36.761  29.266  29.801  1.00  0.00     0.010 A 
ATOM     33  C   UNL A   1      37.978  29.969  27.838  1.00  0.00     0.010 A 
ATOM     34  C   UNL A   1      37.984  29.435  29.133  1.00  0.00    -0.014 A 
BRANCH  34  35
ATOM     35  C   UNL A   1      39.273  29.109  29.801  1.00  0.00     0.031 A 
ATOM     36  C   UNL A   1      39.695  29.856  31.042  1.00  0.00     0.074 A 
ATOM     37  C   UNL A   1      40.077  28.161  29.282  1.00  0.00     0.049 A 
ATOM     38  N   UNL A   1      40.777  29.712  31.765  1.00  0.00    -0.248 NA
ATOM     39  C   UNL A   1      38.800  30.924  31.515  1.00  0.00     0.031 C 
ATOM     40  C   UNL A   1      39.819  27.411  28.050  1.00  0.00     0.029 A 
ATOM     41  N   UNL A   1      41.276  27.661  29.727  1.00  0.00    -0.354 N 
ATOM     42  C   UNL A   1      40.700  30.679  32.761  1.00  0.00     0.074 A 
ATOM     43  C   UNL A   1      39.495  31.440  32.518  1.00  0.00     0.031 C 
ATOM     44  C   UNL A   1      40.809  26.524  27.859  1.00  0.00     0.029 A 
ATOM     45  C   UNL A   1      41.781  26.653  28.940  1.00  0.00     0.049 A 
ATOM     46  H   UNL A   1      41.731  27.994  30.534  1.00  0.00     0.167 HD
ATOM     47  C   UNL A   1      41.539  30.897  33.803  1.00  0.00     0.037 A 
ATOM     48  C   UNL A   1      42.893  25.907  29.083  1.00  0.00     0.037 A 
ATOM     49  C   UNL A   1      42.713  30.111  34.073  1.00  0.00     0.049 A 
ATOM     50  C   UNL A   1      43.773  26.122  30.283  1.00  0.00     0.074 A 
ATOM     51  C   UNL A   1      43.597  30.215  35.132  1.00  0.00     0.029 A 
ATOM     52  N   UNL A   1      43.161  29.065  33.279  1.00  0.00    -0.354 N 
ATOM     53  N   UNL A   1      43.652  27.003  31.247  1.00  0.00    -0.248 NA
ATOM     54  C   UNL A   1      44.932  25.228  30.424  1.00  0.00     0.031 C 
ATOM     55  C   UNL A   1      44.594  29.244  34.967  1.00  0.00     0.029 A 
ATOM     56  C   UNL A   1      44.310  28.516  33.824  1.00  0.00     0.049 A 
ATOM     57  H   UNL A   1      42.727  28.759  32.451  1.00  0.00     0.167 HD
ATOM     58  C   UNL A   1      44.702  26.753  32.123  1.00  0.00     0.074 A 
ATOM     59  C   UNL A   1      45.441  25.631  31.581  1.00  0.00     0.031 C 
ATOM     60  C   UNL A   1      45.027  27.394  33.274  1.00  0.00     0.037 A 
BRANCH  47  61
ATOM     61  C   UNL A   1      41.200  32.025  34.740  1.00  0.00     0.058 A 
ATOM     62  C   UNL A   1      41.731  33.313  34.561  1.00  0.00     0.135 A 
ATOM     63  C   UNL A   1      40.325  31.823  35.819  1.00  0.00     0.135 A 
ATOM     64  F   UNL A   1      42.588  33.558  33.557  1.00  0.00    -0.206 F 
ATOM     65  C   UNL A   1      41.434  34.352  35.438  1.00  0.00     0.059 A 
ATOM     66  C   UNL A   1      39.993  32.854  36.693  1.00  0.00     0.059 A 
ATOM     67  F   UNL A   1      39.788  30.611  36.036  1.00  0.00    -0.206 F 
ATOM     68  C   UNL A   1      40.567  34.110  36.505  1.00  0.00     0.060 A 
BRANCH  68  69
ATOM     69  S   UNL A   1      40.194  35.464  37.639  1.00  0.00     0.124 S 
ATOM     70  O   UNL A   1      41.453  35.585  38.370  1.00  0.00    -0.237 OA
ATOM     71  O   UNL A   1      39.883  36.562  36.730  1.00  0.00    -0.237 OA
ATOM     72  O   UNL A   1      39.065  34.957  38.413  1.00  0.00    -0.744 OA
ENDBRANCH  68  69
ENDBRANCH  47  61
BRANCH  48  73
ATOM     73  C   UNL A   1      43.204  24.846  28.090  1.00  0.00     0.058 A 
ATOM     74  C   UNL A   1      43.916  25.144  26.919  1.00  0.00     0.135 A 
ATOM     75  C   UNL A   1      42.815  23.514  28.300  1.00  0.00     0.135 A 
ATOM     76  F   UNL A   1      44.305  26.405  26.674  1.00  0.00    -0.206 F 
ATOM     77  C   UNL A   1      44.219  24.163  25.981  1.00  0.00     0.059 A 
ATOM     78  C   UNL A   1      43.126  22.512  27.387  1.00  0.00     0.059 A 
ATOM     79  F   UNL A   1      42.149  23.176  29.415  1.00  0.00    -0.206 F 
ATOM     80  C   UNL A   1      43.820  22.848  26.225  1.00  0.00     0.060 A 
BRANCH  80  81
ATOM     81  S   UNL A   1      44.267  21.569  25.030  1.00  0.00     0.124 S 
ATOM     82  O   UNL A   1      44.216  22.310  23.775  1.00  0.00    -0.237 OA
ATOM     83  O   UNL A   1      45.597  21.173  25.483  1.00  0.00    -0.237 OA
ATOM     84  O   UNL A   1      43.226  20.562  25.215  1.00  0.00    -0.744 OA
ENDBRANCH  80  81
ENDBRANCH  48  73
BRANCH  60  85
ATOM     85  C   UNL A   1      46.210  26.871  34.037  1.00  0.00     0.058 A 
ATOM     86  C   UNL A   1      46.075  25.874  35.014  1.00  0.00     0.135 A 
ATOM     87  C   UNL A   1      47.498  27.363  33.772  1.00  0.00     0.135 A 
ATOM     88  F   UNL A   1      44.864  25.373  35.305  1.00  0.00    -0.206 F 
ATOM     89  C   UNL A   1      47.172  25.408  35.732  1.00  0.00     0.059 A 
ATOM     90  C   UNL A   1      48.613  26.895  34.461  1.00  0.00     0.059 A 
ATOM     91  F   UNL A   1      47.683  28.309  32.837  1.00  0.00    -0.206 F 
ATOM     92  C   UNL A   1      48.435  25.930  35.453  1.00  0.00     0.060 A 
BRANCH  92  93
ATOM     93  S   UNL A   1      49.856  25.320  36.387  1.00  0.00     0.124 S 
ATOM     94  O   UNL A   1      49.708  26.042  37.646  1.00  0.00    -0.237 OA
ATOM     95  O   UNL A   1      49.603  23.884  36.445  1.00  0.00    -0.237 OA
ATOM     96  O   UNL A   1      50.995  25.716  35.564  1.00  0.00    -0.744 OA
ENDBRANCH  92  93
ENDBRANCH  60  85
ENDBRANCH  34  35
ENDBRANCH  26  29
ENDBRANCH  24  25
ENDBRANCH   1  24
TORSDOF 15
ENDMDL
MODEL 3
REMARK VINA RESULT:     -11.3      4.784     10.655
REMARK SMILES CSc1ccc([C@H]2[NH2+][C@@H](C(=O)NCCCNC(=O)c3ccc(-c4c5nc(c(-c6c(F)cc(S(=O)(=O)[O-])cc6F)c6ccc([nH]6)c(-c6c(F)cc(S(=O)(=O)[O-])cc6F)c6nc(c(-c7c(F)cc(S(=O)(=O)[O-])cc7F)c7ccc4[nH]7)C=C6)C=C5)cc3)C(C)(C)S2)cc1
REMARK SMILES IDX 14 1 13 2 12 3 10 4 11 5 9 7 7 8 8 9 88 10 85 13 86 14 87 15
REMARK SMILES IDX 6 16 3 17 4 18 90 19 5 20 89 21 2 22 1 23 15 24 16 25 17 26
REMARK SMILES IDX 18 28 19 29 20 30 84 31 21 32 83 33 22 34 23 35 24 36 77 37
REMARK SMILES IDX 25 38 82 39 76 40 78 41 26 42 81 43 75 44 74 45 27 47 61 48
REMARK SMILES IDX 40 49 60 50 41 51 44 52 59 53 79 54 42 55 43 56 58 58 80 59
REMARK SMILES IDX 45 60 28 61 29 62 38 63 30 64 31 65 37 66 39 67 32 68 33 69
REMARK SMILES IDX 34 70 35 71 36 72 62 73 63 74 72 75 64 76 65 77 71 78 73 79
REMARK SMILES IDX 66 80 67 81 68 82 69 83 70 84 46 85 47 86 56 87 48 88 49 89
REMARK SMILES IDX 55 90 57 91 50 92 51 93 52 94 53 95 54 96
REMARK H PARENT 12 6 8 11 8 12 16 27 78 46 44 57
REMARK Flexibility Score: inf
ROOT
ATOM      1  C   UNL A   1      38.202  24.006  26.099  1.00  0.00     0.042 C 
ENDROOT
BRANCH   1   2
ATOM      2  C   UNL A   1      36.928  23.258  26.476  1.00  0.00     0.118 C 
BRANCH   2   3
ATOM      3  N   UNL A   1      36.872  21.914  25.919  1.00  0.00    -0.351 N 
ATOM      4  C   UNL A   1      35.924  21.191  25.259  1.00  0.00     0.279 C 
ATOM      5  O   UNL A   1      36.235  20.026  24.979  1.00  0.00    -0.268 OA
ATOM      6  H   UNL A   1      37.709  21.413  26.049  1.00  0.00     0.163 HD
BRANCH   4   7
ATOM      7  C   UNL A   1      34.514  21.706  24.897  1.00  0.00     0.289 C 
ATOM      8  C   UNL A   1      33.093  23.619  24.697  1.00  0.00     0.274 C 
ATOM      9  N   UNL A   1      34.483  23.166  24.676  1.00  0.00    -0.320 N 
ATOM     10  S   UNL A   1      32.036  22.385  25.494  1.00  0.00    -0.081 SA
ATOM     11  H   UNL A   1      35.008  23.635  25.414  1.00  0.00     0.348 HD
ATOM     12  H   UNL A   1      34.904  23.387  23.773  1.00  0.00     0.348 HD
ATOM     13  C   UNL A   1      33.385  21.195  25.816  1.00  0.00     0.077 C 
ATOM     14  C   UNL A   1      33.646  21.199  27.319  1.00  0.00     0.030 C 
ATOM     15  C   UNL A   1      32.933  19.789  25.401  1.00  0.00     0.030 C 
BRANCH   8  16
ATOM     16  C   UNL A   1      32.979  24.999  25.324  1.00  0.00     0.020 A 
ATOM     17  C   UNL A   1      32.676  27.605  26.411  1.00  0.00     0.007 A 
ATOM     18  C   UNL A   1      31.644  26.667  26.504  1.00  0.00     0.015 A 
ATOM     19  C   UNL A   1      33.869  27.226  25.791  1.00  0.00     0.015 A 
ATOM     20  C   UNL A   1      31.789  25.385  25.959  1.00  0.00     0.012 A 
ATOM     21  C   UNL A   1      34.020  25.941  25.259  1.00  0.00     0.012 A 
BRANCH  17  22
ATOM     22  S   UNL A   1      32.580  29.246  27.106  1.00  0.00    -0.130 SA
ATOM     23  C   UNL A   1      31.774  30.170  25.772  1.00  0.00     0.091 C 
ENDBRANCH  17  22
ENDBRANCH   8  16
ENDBRANCH   4   7
ENDBRANCH   2   3
ENDBRANCH   1   2
BRANCH   1  24
ATOM     24  C   UNL A   1      39.457  23.491  26.783  1.00  0.00     0.118 C 
BRANCH  24  25
ATOM     25  N   UNL A   1      40.666  23.941  26.117  1.00  0.00    -0.352 N 
ATOM     26  C   UNL A   1      41.377  25.108  26.266  1.00  0.00     0.251 C 
ATOM     27  H   UNL A   1      41.035  23.313  25.455  1.00  0.00     0.163 HD
ATOM     28  O   UNL A   1      42.238  25.384  25.434  1.00  0.00    -0.269 OA
BRANCH  26  29
ATOM     29  C   UNL A   1      41.115  26.037  27.395  1.00  0.00     0.039 A 
ATOM     30  C   UNL A   1      41.885  27.200  27.496  1.00  0.00     0.014 A 
ATOM     31  C   UNL A   1      40.175  25.750  28.389  1.00  0.00     0.014 A 
ATOM     32  C   UNL A   1      41.688  28.080  28.565  1.00  0.00     0.010 A 
ATOM     33  C   UNL A   1      39.912  26.673  29.399  1.00  0.00     0.010 A 
ATOM     34  C   UNL A   1      40.687  27.834  29.518  1.00  0.00    -0.014 A 
BRANCH  34  35
ATOM     35  C   UNL A   1      40.483  28.755  30.669  1.00  0.00     0.031 A 
ATOM     36  C   UNL A   1      41.342  28.629  31.903  1.00  0.00     0.074 A 
ATOM     37  C   UNL A   1      39.512  29.688  30.619  1.00  0.00     0.049 A 
ATOM     38  N   UNL A   1      41.317  29.339  33.003  1.00  0.00    -0.248 NA
ATOM     39  C   UNL A   1      42.338  27.546  31.917  1.00  0.00     0.031 C 
ATOM     40  C   UNL A   1      38.569  29.871  29.513  1.00  0.00     0.029 A 
ATOM     41  N   UNL A   1      39.158  30.661  31.519  1.00  0.00    -0.354 N 
ATOM     42  C   UNL A   1      42.275  28.778  33.840  1.00  0.00     0.074 A 
ATOM     43  C   UNL A   1      42.825  27.635  33.145  1.00  0.00     0.031 C 
ATOM     44  C   UNL A   1      37.770  30.916  29.785  1.00  0.00     0.029 A 
ATOM     45  C   UNL A   1      38.128  31.464  31.089  1.00  0.00     0.049 A 
ATOM     46  H   UNL A   1      39.600  30.774  32.392  1.00  0.00     0.167 HD
ATOM     47  C   UNL A   1      42.684  29.191  35.064  1.00  0.00     0.037 A 
ATOM     48  C   UNL A   1      37.549  32.531  31.673  1.00  0.00     0.037 A 
ATOM     49  C   UNL A   1      42.171  30.355  35.737  1.00  0.00     0.049 A 
ATOM     50  C   UNL A   1      38.064  33.012  33.001  1.00  0.00     0.074 A 
ATOM     51  C   UNL A   1      42.557  30.891  36.952  1.00  0.00     0.029 A 
ATOM     52  N   UNL A   1      41.163  31.171  35.243  1.00  0.00    -0.354 N 
ATOM     53  N   UNL A   1      39.013  32.503  33.751  1.00  0.00    -0.248 NA
ATOM     54  C   UNL A   1      37.444  34.224  33.554  1.00  0.00     0.031 C 
ATOM     55  C   UNL A   1      41.768  32.020  37.204  1.00  0.00     0.029 A 
ATOM     56  C   UNL A   1      40.914  32.206  36.129  1.00  0.00     0.049 A 
ATOM     57  H   UNL A   1      40.695  31.035  34.388  1.00  0.00     0.167 HD
ATOM     58  C   UNL A   1      39.121  33.346  34.851  1.00  0.00     0.074 A 
ATOM     59  C   UNL A   1      38.150  34.406  34.662  1.00  0.00     0.031 C 
ATOM     60  C   UNL A   1      39.949  33.255  35.921  1.00  0.00     0.037 A 
BRANCH  47  61
ATOM     61  C   UNL A   1      43.756  28.384  35.745  1.00  0.00     0.058 A 
ATOM     62  C   UNL A   1      45.119  28.649  35.538  1.00  0.00     0.135 A 
ATOM     63  C   UNL A   1      43.419  27.346  36.628  1.00  0.00     0.135 A 
ATOM     64  F   UNL A   1      45.498  29.620  34.690  1.00  0.00    -0.206 F 
ATOM     65  C   UNL A   1      46.111  27.891  36.152  1.00  0.00     0.059 A 
ATOM     66  C   UNL A   1      44.394  26.591  37.274  1.00  0.00     0.059 A 
ATOM     67  F   UNL A   1      42.131  27.050  36.864  1.00  0.00    -0.206 F 
ATOM     68  C   UNL A   1      45.738  26.860  37.015  1.00  0.00     0.060 A 
BRANCH  68  69
ATOM     69  S   UNL A   1      47.034  25.879  37.802  1.00  0.00     0.124 S 
ATOM     70  O   UNL A   1      47.010  24.665  36.991  1.00  0.00    -0.237 OA
ATOM     71  O   UNL A   1      48.211  26.725  37.640  1.00  0.00    -0.237 OA
ATOM     72  O   UNL A   1      46.558  25.728  39.173  1.00  0.00    -0.744 OA
ENDBRANCH  68  69
ENDBRANCH  47  61
BRANCH  48  73
ATOM     73  C   UNL A   1      36.454  33.252  30.974  1.00  0.00     0.058 A 
ATOM     74  C   UNL A   1      35.128  33.155  31.424  1.00  0.00     0.135 A 
ATOM     75  C   UNL A   1      36.710  34.064  29.860  1.00  0.00     0.135 A 
ATOM     76  F   UNL A   1      34.835  32.386  32.485  1.00  0.00    -0.206 F 
ATOM     77  C   UNL A   1      34.091  33.826  30.786  1.00  0.00     0.059 A 
ATOM     78  C   UNL A   1      35.692  34.762  29.218  1.00  0.00     0.059 A 
ATOM     79  F   UNL A   1      37.964  34.204  29.404  1.00  0.00    -0.206 F 
ATOM     80  C   UNL A   1      34.384  34.629  29.682  1.00  0.00     0.060 A 
BRANCH  80  81
ATOM     81  S   UNL A   1      33.041  35.543  28.893  1.00  0.00     0.124 S 
ATOM     82  O   UNL A   1      32.237  35.936  30.044  1.00  0.00    -0.237 OA
ATOM     83  O   UNL A   1      33.755  36.621  28.216  1.00  0.00    -0.237 OA
ATOM     84  O   UNL A   1      32.438  34.550  28.008  1.00  0.00    -0.744 OA
ENDBRANCH  80  81
ENDBRANCH  48  73
BRANCH  60  85
ATOM     85  C   UNL A   1      39.863  34.347  36.948  1.00  0.00     0.058 A 
ATOM     86  C   UNL A   1      39.026  34.240  38.069  1.00  0.00     0.135 A 
ATOM     87  C   UNL A   1      40.642  35.507  36.816  1.00  0.00     0.135 A 
ATOM     88  F   UNL A   1      38.259  33.151  38.237  1.00  0.00    -0.206 F 
ATOM     89  C   UNL A   1      38.934  35.264  39.006  1.00  0.00     0.059 A 
ATOM     90  C   UNL A   1      40.585  36.534  37.754  1.00  0.00     0.059 A 
ATOM     91  F   UNL A   1      41.469  35.652  35.769  1.00  0.00    -0.206 F 
ATOM     92  C   UNL A   1      39.713  36.409  38.836  1.00  0.00     0.060 A 
BRANCH  92  93
ATOM     93  S   UNL A   1      39.593  37.734  40.058  1.00  0.00     0.124 S 
ATOM     94  O   UNL A   1      38.438  38.479  39.566  1.00  0.00    -0.237 OA
ATOM     95  O   UNL A   1      39.391  37.000  41.302  1.00  0.00    -0.237 OA
ATOM     96  O   UNL A   1      40.878  38.416  39.943  1.00  0.00    -0.744 OA
ENDBRANCH  92  93
ENDBRANCH  60  85
ENDBRANCH  34  35
ENDBRANCH  26  29
ENDBRANCH  24  25
ENDBRANCH   1  24
TORSDOF 15
ENDMDL
