MODEL 1
REMARK VINA RESULT:     -12.4      0.000      0.000
REMARK SMILES CC(C)NC(=O)c1cccc(NC(=O)[C@@H]2[C@H](C(=O)NCCCNC(=O)c3ccc(-c4c5nc(c(-c6c(F)cc(S(=O)(=O)[O-])cc6F)c6ccc([nH]6)c(-c6c(F)cc(S(=O)(=O)[O-])cc6F)c6nc(c(-c7c(F)cc(S(=O)(=O)[O-])cc7F)c7ccc4[nH]7)C=C6)C=C5)cc3)C2(C)C)c1
REMARK SMILES IDX 20 1 19 2 17 3 18 4 16 6 15 7 92 8 93 9 94 10 13 11 12 12
REMARK SMILES IDX 14 14 11 15 7 16 8 17 95 18 9 19 10 20 5 21 4 22 6 24 2 25
REMARK SMILES IDX 1 26 3 27 21 28 22 29 23 30 24 31 25 33 26 34 27 35 91 36
REMARK SMILES IDX 28 37 90 38 29 39 30 40 31 41 84 42 32 43 89 44 83 45 85 46
REMARK SMILES IDX 33 47 88 48 82 49 81 50 34 52 68 53 47 54 67 55 48 56 51 57
REMARK SMILES IDX 66 58 86 59 49 60 50 61 65 63 87 64 52 65 35 66 36 67 45 68
REMARK SMILES IDX 37 69 38 70 44 71 46 72 39 73 40 74 41 75 42 76 43 77 69 78
REMARK SMILES IDX 70 79 79 80 71 81 72 82 78 83 80 84 73 85 74 86 75 87 76 88
REMARK SMILES IDX 77 89 53 90 54 91 63 92 55 93 56 94 62 95 64 96 57 97 58 98
REMARK SMILES IDX 59 99 60 100 61 101
REMARK H PARENT 19 5 12 13 4 23 23 32 85 51 51 62
REMARK Flexibility Score: inf
ROOT
ATOM      1  C   UNL A   1      38.104  22.725  25.913  1.00  0.00     0.117 C 
ENDROOT
BRANCH   1   2
ATOM      2  N   UNL A   1      37.320  21.729  25.199  1.00  0.00    -0.356 N 
ATOM      3  C   UNL A   1      36.034  21.349  25.445  1.00  0.00     0.224 C 
ATOM      4  O   UNL A   1      35.602  20.274  25.025  1.00  0.00    -0.275 OA
ATOM      5  H   UNL A   1      37.772  21.276  24.450  1.00  0.00     0.163 HD
BRANCH   3   6
ATOM      6  C   UNL A   1      35.192  22.215  26.274  1.00  0.00     0.098 C 
ATOM      7  C   UNL A   1      34.499  23.463  25.826  1.00  0.00     0.098 C 
ATOM      8  C   UNL A   1      33.644  22.308  26.316  1.00  0.00    -0.011 C 
ATOM      9  C   UNL A   1      33.101  22.337  27.736  1.00  0.00     0.013 C 
ATOM     10  C   UNL A   1      32.588  21.813  25.362  1.00  0.00     0.013 C 
BRANCH   7  11
ATOM     11  C   UNL A   1      34.611  24.133  24.493  1.00  0.00     0.228 C 
ATOM     12  N   UNL A   1      34.188  25.342  23.985  1.00  0.00    -0.326 N 
ATOM     13  H   UNL A   1      34.650  25.512  23.133  1.00  0.00     0.169 HD
ATOM     14  O   UNL A   1      35.255  23.480  23.659  1.00  0.00    -0.274 OA
BRANCH  12  15
ATOM     15  C   UNL A   1      33.325  26.418  24.261  1.00  0.00     0.041 A 
ATOM     16  C   UNL A   1      32.385  27.916  25.943  1.00  0.00     0.041 A 
ATOM     17  C   UNL A   1      31.764  28.686  24.961  1.00  0.00     0.014 A 
ATOM     18  C   UNL A   1      33.140  26.776  25.604  1.00  0.00     0.040 A 
ATOM     19  C   UNL A   1      31.922  28.325  23.639  1.00  0.00     0.003 A 
ATOM     20  C   UNL A   1      32.692  27.204  23.319  1.00  0.00     0.026 A 
BRANCH  16  21
ATOM     21  C   UNL A   1      32.217  28.374  27.332  1.00  0.00     0.251 C 
ATOM     22  N   UNL A   1      33.101  29.274  27.862  1.00  0.00    -0.350 N 
ATOM     23  H   UNL A   1      32.889  29.581  28.772  1.00  0.00     0.164 HD
ATOM     24  O   UNL A   1      31.242  28.002  27.977  1.00  0.00    -0.269 OA
BRANCH  22  25
ATOM     25  C   UNL A   1      34.311  29.847  27.281  1.00  0.00     0.076 C 
ATOM     26  C   UNL A   1      34.349  31.356  27.495  1.00  0.00     0.030 C 
ATOM     27  C   UNL A   1      35.520  29.161  27.906  1.00  0.00     0.030 C 
ENDBRANCH  22  25
ENDBRANCH  16  21
ENDBRANCH  12  15
ENDBRANCH   7  11
ENDBRANCH   3   6
ENDBRANCH   1   2
BRANCH   1  28
ATOM     28  C   UNL A   1      39.349  22.097  26.525  1.00  0.00     0.042 C 
BRANCH  28  29
ATOM     29  C   UNL A   1      40.314  23.120  27.108  1.00  0.00     0.118 C 
BRANCH  29  30
ATOM     30  N   UNL A   1      41.079  23.809  26.077  1.00  0.00    -0.352 N 
ATOM     31  C   UNL A   1      41.493  25.118  26.024  1.00  0.00     0.251 C 
ATOM     32  H   UNL A   1      41.338  23.255  25.305  1.00  0.00     0.163 HD
ATOM     33  O   UNL A   1      41.952  25.569  24.980  1.00  0.00    -0.269 OA
BRANCH  31  34
ATOM     34  C   UNL A   1      41.368  25.981  27.219  1.00  0.00     0.039 A 
ATOM     35  C   UNL A   1      42.409  26.854  27.541  1.00  0.00     0.014 A 
ATOM     36  C   UNL A   1      40.224  25.928  28.020  1.00  0.00     0.014 A 
ATOM     37  C   UNL A   1      42.275  27.716  28.631  1.00  0.00     0.010 A 
ATOM     38  C   UNL A   1      40.053  26.851  29.046  1.00  0.00     0.010 A 
ATOM     39  C   UNL A   1      41.082  27.746  29.372  1.00  0.00    -0.014 A 
BRANCH  39  40
ATOM     40  C   UNL A   1      40.897  28.696  30.501  1.00  0.00     0.031 A 
ATOM     41  C   UNL A   1      41.733  28.565  31.745  1.00  0.00     0.074 A 
ATOM     42  C   UNL A   1      39.927  29.630  30.434  1.00  0.00     0.049 A 
ATOM     43  N   UNL A   1      41.682  29.261  32.852  1.00  0.00    -0.248 NA
ATOM     44  C   UNL A   1      42.734  27.488  31.762  1.00  0.00     0.031 C 
ATOM     45  C   UNL A   1      39.006  29.813  29.311  1.00  0.00     0.029 A 
ATOM     46  N   UNL A   1      39.546  30.591  31.335  1.00  0.00    -0.354 N 
ATOM     47  C   UNL A   1      42.626  28.693  33.701  1.00  0.00     0.074 A 
ATOM     48  C   UNL A   1      43.190  27.559  33.003  1.00  0.00     0.031 C 
ATOM     49  C   UNL A   1      38.182  30.837  29.580  1.00  0.00     0.029 A 
ATOM     50  C   UNL A   1      38.487  31.359  30.909  1.00  0.00     0.049 A 
ATOM     51  H   UNL A   1      39.987  30.720  32.206  1.00  0.00     0.167 HD
ATOM     52  C   UNL A   1      43.005  29.093  34.938  1.00  0.00     0.037 A 
ATOM     53  C   UNL A   1      37.832  32.365  31.520  1.00  0.00     0.037 A 
ATOM     54  C   UNL A   1      42.453  30.238  35.614  1.00  0.00     0.049 A 
ATOM     55  C   UNL A   1      38.282  32.813  32.883  1.00  0.00     0.074 A 
ATOM     56  C   UNL A   1      42.822  30.778  36.833  1.00  0.00     0.029 A 
ATOM     57  N   UNL A   1      41.407  31.014  35.135  1.00  0.00    -0.354 N 
ATOM     58  N   UNL A   1      39.237  32.320  33.636  1.00  0.00    -0.248 NA
ATOM     59  C   UNL A   1      37.578  33.957  33.474  1.00  0.00     0.031 C 
ATOM     60  C   UNL A   1      41.963  31.845  37.117  1.00  0.00     0.029 A 
ATOM     61  C   UNL A   1      41.097  32.011  36.046  1.00  0.00     0.049 A 
ATOM     62  H   UNL A   1      40.952  30.878  34.272  1.00  0.00     0.167 HD
ATOM     63  C   UNL A   1      39.263  33.108  34.782  1.00  0.00     0.074 A 
ATOM     64  C   UNL A   1      38.236  34.117  34.614  1.00  0.00     0.031 C 
ATOM     65  C   UNL A   1      40.067  33.006  35.870  1.00  0.00     0.037 A 
BRANCH  52  66
ATOM     66  C   UNL A   1      44.056  28.274  35.641  1.00  0.00     0.058 A 
ATOM     67  C   UNL A   1      43.737  27.101  36.345  1.00  0.00     0.135 A 
ATOM     68  C   UNL A   1      45.403  28.670  35.614  1.00  0.00     0.135 A 
ATOM     69  F   UNL A   1      42.464  26.678  36.416  1.00  0.00    -0.206 F 
ATOM     70  C   UNL A   1      44.704  26.380  37.038  1.00  0.00     0.059 A 
ATOM     71  C   UNL A   1      46.393  27.946  36.272  1.00  0.00     0.059 A 
ATOM     72  F   UNL A   1      45.768  29.780  34.955  1.00  0.00    -0.206 F 
ATOM     73  C   UNL A   1      46.030  26.815  37.002  1.00  0.00     0.060 A 
BRANCH  73  74
ATOM     74  S   UNL A   1      47.268  25.890  37.932  1.00  0.00     0.124 S 
ATOM     75  O   UNL A   1      47.815  26.928  38.800  1.00  0.00    -0.237 OA
ATOM     76  O   UNL A   1      46.462  24.870  38.597  1.00  0.00    -0.237 OA
ATOM     77  O   UNL A   1      48.172  25.395  36.899  1.00  0.00    -0.744 OA
ENDBRANCH  73  74
ENDBRANCH  52  66
BRANCH  53  78
ATOM     78  C   UNL A   1      36.699  33.029  30.820  1.00  0.00     0.058 A 
ATOM     79  C   UNL A   1      35.370  32.771  31.186  1.00  0.00     0.135 A 
ATOM     80  C   UNL A   1      36.927  33.980  29.813  1.00  0.00     0.135 A 
ATOM     81  F   UNL A   1      35.101  31.864  32.137  1.00  0.00    -0.206 F 
ATOM     82  C   UNL A   1      34.306  33.434  30.583  1.00  0.00     0.059 A 
ATOM     83  C   UNL A   1      35.882  34.674  29.213  1.00  0.00     0.059 A 
ATOM     84  F   UNL A   1      38.182  34.274  29.437  1.00  0.00    -0.206 F 
ATOM     85  C   UNL A   1      34.574  34.394  29.604  1.00  0.00     0.060 A 
BRANCH  85  86
ATOM     86  S   UNL A   1      33.191  35.316  28.898  1.00  0.00     0.124 S 
ATOM     87  O   UNL A   1      32.574  34.311  28.040  1.00  0.00    -0.237 OA
ATOM     88  O   UNL A   1      32.436  35.693  30.088  1.00  0.00    -0.237 OA
ATOM     89  O   UNL A   1      33.845  36.422  28.204  1.00  0.00    -0.744 OA
ENDBRANCH  85  86
ENDBRANCH  53  78
BRANCH  65  90
ATOM     90  C   UNL A   1      39.890  34.029  36.960  1.00  0.00     0.058 A 
ATOM     91  C   UNL A   1      40.545  35.270  36.924  1.00  0.00     0.135 A 
ATOM     92  C   UNL A   1      39.013  33.783  38.029  1.00  0.00     0.135 A 
ATOM     93  F   UNL A   1      41.399  35.556  35.928  1.00  0.00    -0.206 F 
ATOM     94  C   UNL A   1      40.358  36.220  37.923  1.00  0.00     0.059 A 
ATOM     95  C   UNL A   1      38.787  34.730  39.022  1.00  0.00     0.059 A 
ATOM     96  F   UNL A   1      38.353  32.617  38.106  1.00  0.00    -0.206 F 
ATOM     97  C   UNL A   1      39.473  35.941  38.968  1.00  0.00     0.060 A 
BRANCH  97  98
ATOM     98  S   UNL A   1      39.217  37.193  40.243  1.00  0.00     0.124 S 
ATOM     99  O   UNL A   1      40.590  37.537  40.595  1.00  0.00    -0.237 OA
ATOM    100  O   UNL A   1      38.469  38.220  39.526  1.00  0.00    -0.237 OA
ATOM    101  O   UNL A   1      38.465  36.481  41.272  1.00  0.00    -0.744 OA
ENDBRANCH  97  98
ENDBRANCH  65  90
ENDBRANCH  39  40
ENDBRANCH  31  34
ENDBRANCH  29  30
ENDBRANCH  28  29
ENDBRANCH   1  28
TORSDOF 17
ENDMDL
MODEL 2
REMARK VINA RESULT:     -12.3      6.347     12.055
REMARK SMILES CC(C)NC(=O)c1cccc(NC(=O)[C@@H]2[C@H](C(=O)NCCCNC(=O)c3ccc(-c4c5nc(c(-c6c(F)cc(S(=O)(=O)[O-])cc6F)c6ccc([nH]6)c(-c6c(F)cc(S(=O)(=O)[O-])cc6F)c6nc(c(-c7c(F)cc(S(=O)(=O)[O-])cc7F)c7ccc4[nH]7)C=C6)C=C5)cc3)C2(C)C)c1
REMARK SMILES IDX 20 1 19 2 17 3 18 4 16 6 15 7 92 8 93 9 94 10 13 11 12 12
REMARK SMILES IDX 14 14 11 15 7 16 8 17 95 18 9 19 10 20 5 21 4 22 6 24 2 25
REMARK SMILES IDX 1 26 3 27 21 28 22 29 23 30 24 31 25 33 26 34 27 35 91 36
REMARK SMILES IDX 28 37 90 38 29 39 30 40 31 41 84 42 32 43 89 44 83 45 85 46
REMARK SMILES IDX 33 47 88 48 82 49 81 50 34 52 68 53 47 54 67 55 48 56 51 57
REMARK SMILES IDX 66 58 86 59 49 60 50 61 65 63 87 64 52 65 35 66 36 67 45 68
REMARK SMILES IDX 37 69 38 70 44 71 46 72 39 73 40 74 41 75 42 76 43 77 69 78
REMARK SMILES IDX 70 79 79 80 71 81 72 82 78 83 80 84 73 85 74 86 75 87 76 88
REMARK SMILES IDX 77 89 53 90 54 91 63 92 55 93 56 94 62 95 64 96 57 97 58 98
REMARK SMILES IDX 59 99 60 100 61 101
REMARK H PARENT 19 5 12 13 4 23 23 32 85 51 51 62
REMARK Flexibility Score: inf
ROOT
ATOM      1  C   UNL A   1      33.663  28.996  26.395  1.00  0.00     0.117 C 
ENDROOT
BRANCH   1   2
ATOM      2  N   UNL A   1      33.859  29.181  24.966  1.00  0.00    -0.356 N 
ATOM      3  C   UNL A   1      33.525  28.321  23.962  1.00  0.00     0.224 C 
ATOM      4  O   UNL A   1      34.049  28.415  22.850  1.00  0.00    -0.275 OA
ATOM      5  H   UNL A   1      34.284  30.026  24.691  1.00  0.00     0.163 HD
BRANCH   3   6
ATOM      6  C   UNL A   1      32.576  27.242  24.247  1.00  0.00     0.098 C 
ATOM      7  C   UNL A   1      32.625  25.853  23.694  1.00  0.00     0.098 C 
ATOM      8  C   UNL A   1      32.747  26.027  25.196  1.00  0.00    -0.011 C 
ATOM      9  C   UNL A   1      31.526  25.797  26.072  1.00  0.00     0.013 C 
ATOM     10  C   UNL A   1      33.971  25.425  25.836  1.00  0.00     0.013 C 
BRANCH   7  11
ATOM     11  C   UNL A   1      33.573  25.321  22.664  1.00  0.00     0.228 C 
ATOM     12  N   UNL A   1      34.434  24.247  22.615  1.00  0.00    -0.326 N 
ATOM     13  H   UNL A   1      34.716  24.105  21.682  1.00  0.00     0.169 HD
ATOM     14  O   UNL A   1      33.566  25.960  21.602  1.00  0.00    -0.274 OA
BRANCH  12  15
ATOM     15  C   UNL A   1      35.051  23.283  23.432  1.00  0.00     0.041 A 
ATOM     16  C   UNL A   1      34.767  21.479  25.051  1.00  0.00     0.041 A 
ATOM     17  C   UNL A   1      36.126  21.174  25.003  1.00  0.00     0.014 A 
ATOM     18  C   UNL A   1      34.232  22.539  24.293  1.00  0.00     0.040 A 
ATOM     19  C   UNL A   1      36.942  21.918  24.176  1.00  0.00     0.003 A 
ATOM     20  C   UNL A   1      36.391  22.953  23.416  1.00  0.00     0.026 A 
BRANCH  16  21
ATOM     21  C   UNL A   1      33.938  20.624  25.917  1.00  0.00     0.251 C 
ATOM     22  N   UNL A   1      33.553  19.386  25.480  1.00  0.00    -0.350 N 
ATOM     23  H   UNL A   1      33.055  18.848  26.137  1.00  0.00     0.164 HD
ATOM     24  O   UNL A   1      33.664  21.000  27.052  1.00  0.00    -0.269 OA
BRANCH  22  25
ATOM     25  C   UNL A   1      33.767  18.743  24.188  1.00  0.00     0.076 C 
ATOM     26  C   UNL A   1      34.708  17.551  24.330  1.00  0.00     0.030 C 
ATOM     27  C   UNL A   1      32.415  18.326  23.623  1.00  0.00     0.030 C 
ENDBRANCH  22  25
ENDBRANCH  16  21
ENDBRANCH  12  15
ENDBRANCH   7  11
ENDBRANCH   3   6
ENDBRANCH   1   2
BRANCH   1  28
ATOM     28  C   UNL A   1      34.228  30.175  27.176  1.00  0.00     0.042 C 
BRANCH  28  29
ATOM     29  C   UNL A   1      35.434  29.808  28.029  1.00  0.00     0.118 C 
BRANCH  29  30
ATOM     30  N   UNL A   1      35.403  30.452  29.336  1.00  0.00    -0.352 N 
ATOM     31  C   UNL A   1      36.409  30.603  30.260  1.00  0.00     0.251 C 
ATOM     32  H   UNL A   1      34.534  30.834  29.596  1.00  0.00     0.163 HD
ATOM     33  O   UNL A   1      36.142  30.992  31.392  1.00  0.00    -0.269 OA
BRANCH  31  34
ATOM     34  C   UNL A   1      37.804  30.279  29.892  1.00  0.00     0.039 A 
ATOM     35  C   UNL A   1      38.703  29.904  30.892  1.00  0.00     0.014 A 
ATOM     36  C   UNL A   1      38.224  30.347  28.560  1.00  0.00     0.014 A 
ATOM     37  C   UNL A   1      40.007  29.539  30.548  1.00  0.00     0.010 A 
ATOM     38  C   UNL A   1      39.491  29.892  28.210  1.00  0.00     0.010 A 
ATOM     39  C   UNL A   1      40.402  29.497  29.201  1.00  0.00    -0.014 A 
BRANCH  39  40
ATOM     40  C   UNL A   1      41.766  29.055  28.808  1.00  0.00     0.031 A 
ATOM     41  C   UNL A   1      42.896  30.047  28.753  1.00  0.00     0.074 A 
ATOM     42  C   UNL A   1      41.970  27.777  28.432  1.00  0.00     0.049 A 
ATOM     43  N   UNL A   1      44.138  29.866  28.385  1.00  0.00    -0.248 NA
ATOM     44  C   UNL A   1      42.580  31.434  29.129  1.00  0.00     0.031 C 
ATOM     45  C   UNL A   1      40.941  26.737  28.376  1.00  0.00     0.029 A 
ATOM     46  N   UNL A   1      43.110  27.139  28.011  1.00  0.00    -0.354 N 
ATOM     47  C   UNL A   1      44.743  31.116  28.464  1.00  0.00     0.074 A 
ATOM     48  C   UNL A   1      43.717  32.056  28.855  1.00  0.00     0.031 C 
ATOM     49  C   UNL A   1      41.500  25.587  27.967  1.00  0.00     0.029 A 
ATOM     50  C   UNL A   1      42.916  25.814  27.695  1.00  0.00     0.049 A 
ATOM     51  H   UNL A   1      43.984  27.586  27.942  1.00  0.00     0.167 HD
ATOM     52  C   UNL A   1      46.039  31.446  28.251  1.00  0.00     0.037 A 
ATOM     53  C   UNL A   1      43.778  24.888  27.231  1.00  0.00     0.037 A 
ATOM     54  C   UNL A   1      47.058  30.498  27.884  1.00  0.00     0.049 A 
ATOM     55  C   UNL A   1      45.219  25.267  27.025  1.00  0.00     0.074 A 
ATOM     56  C   UNL A   1      48.416  30.711  27.723  1.00  0.00     0.029 A 
ATOM     57  N   UNL A   1      46.831  29.156  27.608  1.00  0.00    -0.354 N 
ATOM     58  N   UNL A   1      45.794  26.434  27.190  1.00  0.00    -0.248 NA
ATOM     59  C   UNL A   1      46.129  24.202  26.585  1.00  0.00     0.031 C 
ATOM     60  C   UNL A   1      49.000  29.514  27.296  1.00  0.00     0.029 A 
ATOM     61  C   UNL A   1      48.017  28.536  27.249  1.00  0.00     0.049 A 
ATOM     62  H   UNL A   1      45.955  28.710  27.659  1.00  0.00     0.167 HD
ATOM     63  C   UNL A   1      47.139  26.241  26.892  1.00  0.00     0.074 A 
ATOM     64  C   UNL A   1      47.292  24.840  26.552  1.00  0.00     0.031 C 
ATOM     65  C   UNL A   1      48.154  27.141  26.906  1.00  0.00     0.037 A 
BRANCH  52  66
ATOM     66  C   UNL A   1      46.420  32.896  28.398  1.00  0.00     0.058 A 
ATOM     67  C   UNL A   1      46.864  33.428  29.621  1.00  0.00     0.135 A 
ATOM     68  C   UNL A   1      46.336  33.770  27.302  1.00  0.00     0.135 A 
ATOM     69  F   UNL A   1      46.954  32.643  30.708  1.00  0.00    -0.206 F 
ATOM     70  C   UNL A   1      47.161  34.779  29.765  1.00  0.00     0.059 A 
ATOM     71  C   UNL A   1      46.660  35.119  27.413  1.00  0.00     0.059 A 
ATOM     72  F   UNL A   1      45.922  33.319  26.108  1.00  0.00    -0.206 F 
ATOM     73  C   UNL A   1      47.049  35.619  28.656  1.00  0.00     0.060 A 
BRANCH  73  74
ATOM     74  S   UNL A   1      47.405  37.376  28.864  1.00  0.00     0.124 S 
ATOM     75  O   UNL A   1      46.208  37.984  28.292  1.00  0.00    -0.237 OA
ATOM     76  O   UNL A   1      47.546  37.497  30.312  1.00  0.00    -0.237 OA
ATOM     77  O   UNL A   1      48.633  37.568  28.099  1.00  0.00    -0.744 OA
ENDBRANCH  73  74
ENDBRANCH  52  66
BRANCH  53  78
ATOM     78  C   UNL A   1      43.291  23.509  26.964  1.00  0.00     0.058 A 
ATOM     79  C   UNL A   1      43.030  23.073  25.656  1.00  0.00     0.135 A 
ATOM     80  C   UNL A   1      43.138  22.579  28.005  1.00  0.00     0.135 A 
ATOM     81  F   UNL A   1      43.154  23.926  24.628  1.00  0.00    -0.206 F 
ATOM     82  C   UNL A   1      42.637  21.766  25.388  1.00  0.00     0.059 A 
ATOM     83  C   UNL A   1      42.771  21.260  27.760  1.00  0.00     0.059 A 
ATOM     84  F   UNL A   1      43.391  22.942  29.272  1.00  0.00    -0.206 F 
ATOM     85  C   UNL A   1      42.522  20.863  26.447  1.00  0.00     0.060 A 
BRANCH  85  86
ATOM     86  S   UNL A   1      42.105  19.145  26.076  1.00  0.00     0.124 S 
ATOM     87  O   UNL A   1      42.503  18.473  27.307  1.00  0.00    -0.237 OA
ATOM     88  O   UNL A   1      40.670  19.227  25.826  1.00  0.00    -0.237 OA
ATOM     89  O   UNL A   1      42.921  18.848  24.902  1.00  0.00    -0.744 OA
ENDBRANCH  85  86
ENDBRANCH  53  78
BRANCH  65  90
ATOM     90  C   UNL A   1      49.531  26.637  26.566  1.00  0.00     0.058 A 
ATOM     91  C   UNL A   1      50.372  26.069  27.537  1.00  0.00     0.135 A 
ATOM     92  C   UNL A   1      49.995  26.677  25.241  1.00  0.00     0.135 A 
ATOM     93  F   UNL A   1      49.981  26.011  28.820  1.00  0.00    -0.206 F 
ATOM     94  C   UNL A   1      51.634  25.584  27.210  1.00  0.00     0.059 A 
ATOM     95  C   UNL A   1      51.241  26.170  24.887  1.00  0.00     0.059 A 
ATOM     96  F   UNL A   1      49.227  27.199  24.272  1.00  0.00    -0.206 F 
ATOM     97  C   UNL A   1      52.059  25.636  25.881  1.00  0.00     0.060 A 
BRANCH  97  98
ATOM     98  S   UNL A   1      53.687  24.978  25.465  1.00  0.00     0.124 S 
ATOM     99  O   UNL A   1      54.012  25.736  24.262  1.00  0.00    -0.237 OA
ATOM    100  O   UNL A   1      54.469  25.306  26.653  1.00  0.00    -0.237 OA
ATOM    101  O   UNL A   1      53.437  23.554  25.261  1.00  0.00    -0.744 OA
ENDBRANCH  97  98
ENDBRANCH  65  90
ENDBRANCH  39  40
ENDBRANCH  31  34
ENDBRANCH  29  30
ENDBRANCH  28  29
ENDBRANCH   1  28
TORSDOF 17
ENDMDL
MODEL 3
REMARK VINA RESULT:     -12.3      1.579      8.413
REMARK SMILES CC(C)NC(=O)c1cccc(NC(=O)[C@@H]2[C@H](C(=O)NCCCNC(=O)c3ccc(-c4c5nc(c(-c6c(F)cc(S(=O)(=O)[O-])cc6F)c6ccc([nH]6)c(-c6c(F)cc(S(=O)(=O)[O-])cc6F)c6nc(c(-c7c(F)cc(S(=O)(=O)[O-])cc7F)c7ccc4[nH]7)C=C6)C=C5)cc3)C2(C)C)c1
REMARK SMILES IDX 20 1 19 2 17 3 18 4 16 6 15 7 92 8 93 9 94 10 13 11 12 12
REMARK SMILES IDX 14 14 11 15 7 16 8 17 95 18 9 19 10 20 5 21 4 22 6 24 2 25
REMARK SMILES IDX 1 26 3 27 21 28 22 29 23 30 24 31 25 33 26 34 27 35 91 36
REMARK SMILES IDX 28 37 90 38 29 39 30 40 31 41 84 42 32 43 89 44 83 45 85 46
REMARK SMILES IDX 33 47 88 48 82 49 81 50 34 52 68 53 47 54 67 55 48 56 51 57
REMARK SMILES IDX 66 58 86 59 49 60 50 61 65 63 87 64 52 65 35 66 36 67 45 68
REMARK SMILES IDX 37 69 38 70 44 71 46 72 39 73 40 74 41 75 42 76 43 77 69 78
REMARK SMILES IDX 70 79 79 80 71 81 72 82 78 83 80 84 73 85 74 86 75 87 76 88
REMARK SMILES IDX 77 89 53 90 54 91 63 92 55 93 56 94 62 95 64 96 57 97 58 98
REMARK SMILES IDX 59 99 60 100 61 101
REMARK H PARENT 19 5 12 13 4 23 23 32 85 51 51 62
REMARK Flexibility Score: inf
ROOT
ATOM      1  C   UNL A   1      36.728  22.465  25.599  1.00  0.00     0.117 C 
ENDROOT
BRANCH   1   2
ATOM      2  N   UNL A   1      35.818  22.310  26.723  1.00  0.00    -0.356 N 
ATOM      3  C   UNL A   1      34.511  22.693  26.796  1.00  0.00     0.224 C 
ATOM      4  O   UNL A   1      33.956  22.838  27.886  1.00  0.00    -0.275 OA
ATOM      5  H   UNL A   1      36.190  21.878  27.527  1.00  0.00     0.163 HD
BRANCH   3   6
ATOM      6  C   UNL A   1      33.796  22.991  25.552  1.00  0.00     0.098 C 
ATOM      7  C   UNL A   1      32.562  23.825  25.421  1.00  0.00     0.098 C 
ATOM      8  C   UNL A   1      33.819  24.293  24.709  1.00  0.00    -0.011 C 
ATOM      9  C   UNL A   1      33.974  24.020  23.222  1.00  0.00     0.013 C 
ATOM     10  C   UNL A   1      34.287  25.686  25.038  1.00  0.00     0.013 C 
BRANCH   7  11
ATOM     11  C   UNL A   1      31.753  24.427  26.528  1.00  0.00     0.228 C 
ATOM     12  N   UNL A   1      31.317  25.701  26.818  1.00  0.00    -0.326 N 
ATOM     13  H   UNL A   1      30.622  25.651  27.513  1.00  0.00     0.169 HD
ATOM     14  O   UNL A   1      31.351  23.598  27.358  1.00  0.00    -0.274 OA
BRANCH  12  15
ATOM     15  C   UNL A   1      31.519  27.047  26.466  1.00  0.00     0.041 A 
ATOM     16  C   UNL A   1      31.588  28.716  24.687  1.00  0.00     0.041 A 
ATOM     17  C   UNL A   1      31.724  29.749  25.612  1.00  0.00     0.014 A 
ATOM     18  C   UNL A   1      31.511  27.373  25.102  1.00  0.00     0.040 A 
ATOM     19  C   UNL A   1      31.758  29.434  26.955  1.00  0.00     0.003 A 
ATOM     20  C   UNL A   1      31.658  28.098  27.351  1.00  0.00     0.026 A 
BRANCH  16  21
ATOM     21  C   UNL A   1      31.515  29.116  23.271  1.00  0.00     0.251 C 
ATOM     22  N   UNL A   1      30.376  29.700  22.789  1.00  0.00    -0.350 N 
ATOM     23  H   UNL A   1      30.423  29.996  21.852  1.00  0.00     0.164 HD
ATOM     24  O   UNL A   1      32.504  28.989  22.556  1.00  0.00    -0.269 OA
BRANCH  22  25
ATOM     25  C   UNL A   1      29.100  29.949  23.453  1.00  0.00     0.076 C 
ATOM     26  C   UNL A   1      28.670  31.399  23.265  1.00  0.00     0.030 C 
ATOM     27  C   UNL A   1      28.065  28.979  22.895  1.00  0.00     0.030 C 
ENDBRANCH  22  25
ENDBRANCH  16  21
ENDBRANCH  12  15
ENDBRANCH   7  11
ENDBRANCH   3   6
ENDBRANCH   1   2
BRANCH   1  28
ATOM     28  C   UNL A   1      37.356  23.852  25.598  1.00  0.00     0.042 C 
BRANCH  28  29
ATOM     29  C   UNL A   1      38.399  24.041  26.690  1.00  0.00     0.118 C 
BRANCH  29  30
ATOM     30  N   UNL A   1      39.751  24.132  26.154  1.00  0.00    -0.352 N 
ATOM     31  C   UNL A   1      40.731  25.060  26.409  1.00  0.00     0.251 C 
ATOM     32  H   UNL A   1      39.998  23.425  25.514  1.00  0.00     0.163 HD
ATOM     33  O   UNL A   1      41.737  25.092  25.707  1.00  0.00    -0.269 OA
BRANCH  31  34
ATOM     34  C   UNL A   1      40.562  26.027  27.515  1.00  0.00     0.039 A 
ATOM     35  C   UNL A   1      39.635  25.754  28.523  1.00  0.00     0.014 A 
ATOM     36  C   UNL A   1      41.318  27.202  27.556  1.00  0.00     0.014 A 
ATOM     37  C   UNL A   1      39.511  26.632  29.603  1.00  0.00     0.010 A 
ATOM     38  C   UNL A   1      41.261  28.024  28.677  1.00  0.00     0.010 A 
ATOM     39  C   UNL A   1      40.347  27.756  29.707  1.00  0.00    -0.014 A 
BRANCH  39  40
ATOM     40  C   UNL A   1      40.271  28.670  30.876  1.00  0.00     0.031 A 
ATOM     41  C   UNL A   1      39.264  29.788  30.899  1.00  0.00     0.074 A 
ATOM     42  C   UNL A   1      41.157  28.539  31.883  1.00  0.00     0.049 A 
ATOM     43  N   UNL A   1      39.080  30.717  31.801  1.00  0.00    -0.248 NA
ATOM     44  C   UNL A   1      38.366  29.896  29.738  1.00  0.00     0.031 C 
ATOM     45  C   UNL A   1      42.226  27.540  31.945  1.00  0.00     0.029 A 
ATOM     46  N   UNL A   1      41.309  29.258  33.042  1.00  0.00    -0.354 N 
ATOM     47  C   UNL A   1      38.065  31.530  31.308  1.00  0.00     0.074 A 
ATOM     48  C   UNL A   1      37.717  31.019  30.000  1.00  0.00     0.031 C 
ATOM     49  C   UNL A   1      42.907  27.695  33.091  1.00  0.00     0.029 A 
ATOM     50  C   UNL A   1      42.353  28.827  33.827  1.00  0.00     0.049 A 
ATOM     51  H   UNL A   1      40.727  30.013  33.289  1.00  0.00     0.167 HD
ATOM     52  C   UNL A   1      37.464  32.590  31.898  1.00  0.00     0.037 A 
ATOM     53  C   UNL A   1      42.817  29.294  35.003  1.00  0.00     0.037 A 
ATOM     54  C   UNL A   1      37.803  33.075  33.210  1.00  0.00     0.049 A 
ATOM     55  C   UNL A   1      42.121  30.456  35.656  1.00  0.00     0.074 A 
ATOM     56  C   UNL A   1      37.203  34.089  33.935  1.00  0.00     0.029 A 
ATOM     57  N   UNL A   1      38.842  32.589  33.991  1.00  0.00    -0.354 N 
ATOM     58  N   UNL A   1      41.104  31.158  35.216  1.00  0.00    -0.248 NA
ATOM     59  C   UNL A   1      42.624  30.880  36.968  1.00  0.00     0.031 C 
ATOM     60  C   UNL A   1      37.913  34.254  35.129  1.00  0.00     0.029 A 
ATOM     61  C   UNL A   1      38.920  33.301  35.178  1.00  0.00     0.049 A 
ATOM     62  H   UNL A   1      39.438  31.847  33.740  1.00  0.00     0.167 HD
ATOM     63  C   UNL A   1      40.832  32.096  36.206  1.00  0.00     0.074 A 
ATOM     64  C   UNL A   1      41.783  31.859  37.274  1.00  0.00     0.031 C 
ATOM     65  C   UNL A   1      39.878  33.060  36.231  1.00  0.00     0.037 A 
BRANCH  52  66
ATOM     66  C   UNL A   1      36.388  33.300  31.120  1.00  0.00     0.058 A 
ATOM     67  C   UNL A   1      36.685  34.117  30.015  1.00  0.00     0.135 A 
ATOM     68  C   UNL A   1      35.038  33.167  31.485  1.00  0.00     0.135 A 
ATOM     69  F   UNL A   1      37.959  34.292  29.626  1.00  0.00    -0.206 F 
ATOM     70  C   UNL A   1      35.691  34.814  29.335  1.00  0.00     0.059 A 
ATOM     71  C   UNL A   1      34.024  33.828  30.798  1.00  0.00     0.059 A 
ATOM     72  F   UNL A   1      34.693  32.397  32.529  1.00  0.00    -0.206 F 
ATOM     73  C   UNL A   1      34.363  34.669  29.739  1.00  0.00     0.060 A 
BRANCH  73  74
ATOM     74  S   UNL A   1      33.089  35.604  28.868  1.00  0.00     0.124 S 
ATOM     75  O   UNL A   1      32.426  34.550  28.106  1.00  0.00    -0.237 OA
ATOM     76  O   UNL A   1      32.314  36.174  29.966  1.00  0.00    -0.237 OA
ATOM     77  O   UNL A   1      33.851  36.565  28.077  1.00  0.00    -0.744 OA
ENDBRANCH  73  74
ENDBRANCH  52  66
BRANCH  53  78
ATOM     78  C   UNL A   1      43.986  28.630  35.640  1.00  0.00     0.058 A 
ATOM     79  C   UNL A   1      43.814  27.581  36.554  1.00  0.00     0.135 A 
ATOM     80  C   UNL A   1      45.299  28.991  35.298  1.00  0.00     0.135 A 
ATOM     81  F   UNL A   1      42.578  27.205  36.919  1.00  0.00    -0.206 F 
ATOM     82  C   UNL A   1      44.900  26.910  37.107  1.00  0.00     0.059 A 
ATOM     83  C   UNL A   1      46.400  28.319  35.818  1.00  0.00     0.059 A 
ATOM     84  F   UNL A   1      45.517  29.979  34.415  1.00  0.00    -0.206 F 
ATOM     85  C   UNL A   1      46.191  27.279  36.722  1.00  0.00     0.060 A 
BRANCH  85  86
ATOM     86  S   UNL A   1      47.589  26.338  37.372  1.00  0.00     0.124 S 
ATOM     87  O   UNL A   1      47.740  25.299  36.360  1.00  0.00    -0.237 OA
ATOM     88  O   UNL A   1      48.641  27.347  37.416  1.00  0.00    -0.237 OA
ATOM     89  O   UNL A   1      47.111  25.885  38.676  1.00  0.00    -0.744 OA
ENDBRANCH  85  86
ENDBRANCH  53  78
BRANCH  65  90
ATOM     90  C   UNL A   1      39.793  33.921  37.462  1.00  0.00     0.058 A 
ATOM     91  C   UNL A   1      40.445  35.161  37.544  1.00  0.00     0.135 A 
ATOM     92  C   UNL A   1      39.006  33.521  38.555  1.00  0.00     0.135 A 
ATOM     93  F   UNL A   1      41.214  35.590  36.531  1.00  0.00    -0.206 F 
ATOM     94  C   UNL A   1      40.342  35.963  38.677  1.00  0.00     0.059 A 
ATOM     95  C   UNL A   1      38.864  34.320  39.684  1.00  0.00     0.059 A 
ATOM     96  F   UNL A   1      38.352  32.349  38.524  1.00  0.00    -0.206 F 
ATOM     97  C   UNL A   1      39.546  35.534  39.742  1.00  0.00     0.060 A 
BRANCH  97  98
ATOM     98  S   UNL A   1      39.397  36.596  41.194  1.00  0.00     0.124 S 
ATOM     99  O   UNL A   1      38.458  35.839  42.015  1.00  0.00    -0.237 OA
ATOM    100  O   UNL A   1      40.771  36.647  41.685  1.00  0.00    -0.237 OA
ATOM    101  O   UNL A   1      38.886  37.849  40.649  1.00  0.00    -0.744 OA
ENDBRANCH  97  98
ENDBRANCH  65  90
ENDBRANCH  39  40
ENDBRANCH  31  34
ENDBRANCH  29  30
ENDBRANCH  28  29
ENDBRANCH   1  28
TORSDOF 17
ENDMDL
