MODEL 1
REMARK VINA RESULT:     -12.4      0.000      0.000
REMARK SMILES O=C(CNC(=O)CN1C(=O)S/C(=C\c2cccc(Br)c2)C1=O)NCCCNC(=O)c1ccc(-c2c3nc(c(-c4c(F)cc(S(=O)(=O)[O-])cc4F)c4ccc([nH]4)c(-c4c(F)cc(S(=O)(=O)[O-])cc4F)c4nc(c(-c5c(F)cc(S(=O)(=O)[O-])cc5F)c5ccc2[nH]5)C=C4)C=C3)cc1
REMARK SMILES IDX 24 1 23 2 1 3 2 4 3 6 4 7 5 8 6 10 7 11 8 12 9 13 21 14
REMARK SMILES IDX 10 15 11 16 12 17 22 18 13 19 14 20 15 21 20 22 16 23 18 24
REMARK SMILES IDX 17 25 19 26 25 27 26 28 27 29 28 30 29 32 30 33 31 34 95 35
REMARK SMILES IDX 32 36 94 37 33 38 34 39 35 40 88 41 36 42 93 43 87 44 89 45
REMARK SMILES IDX 37 46 92 47 86 48 85 49 38 51 72 52 51 53 71 54 52 55 55 56
REMARK SMILES IDX 70 57 90 58 53 59 54 60 69 62 91 63 56 64 39 65 40 66 49 67
REMARK SMILES IDX 41 68 42 69 48 70 50 71 43 72 44 73 45 74 46 75 47 76 73 77
REMARK SMILES IDX 74 78 83 79 75 80 76 81 82 82 84 83 77 84 78 85 79 86 80 87
REMARK SMILES IDX 81 88 57 89 58 90 67 91 59 92 60 93 66 94 68 95 61 96 62 97
REMARK SMILES IDX 63 98 64 99 65 100
REMARK H PARENT 23 5 4 9 27 31 89 50 55 61
REMARK Flexibility Score: inf
ROOT
ATOM      1  C   UNL A   1      39.717  22.503  26.466  1.00  0.00     0.117 C 
ENDROOT
BRANCH   1   2
ATOM      2  N   UNL A   1      38.701  21.697  25.799  1.00  0.00    -0.355 N 
ATOM      3  O   UNL A   1      36.979  23.220  25.921  1.00  0.00    -0.273 OA
ATOM      4  C   UNL A   1      37.422  22.145  25.526  1.00  0.00     0.239 C 
ATOM      5  H   UNL A   1      38.941  20.782  25.526  1.00  0.00     0.163 HD
BRANCH   4   6
ATOM      6  C   UNL A   1      36.527  21.126  24.801  1.00  0.00     0.216 C 
BRANCH   6   7
ATOM      7  N   UNL A   1      35.412  20.686  25.629  1.00  0.00    -0.345 N 
ATOM      8  C   UNL A   1      34.068  20.838  25.499  1.00  0.00     0.240 C 
ATOM      9  H   UNL A   1      35.682  20.185  26.431  1.00  0.00     0.164 HD
ATOM     10  O   UNL A   1      33.370  20.123  26.227  1.00  0.00    -0.273 OA
BRANCH   8  11
ATOM     11  C   UNL A   1      33.418  21.680  24.400  1.00  0.00     0.229 C 
BRANCH  11  12
ATOM     12  N   UNL A   1      33.473  23.119  24.565  1.00  0.00    -0.259 N 
ATOM     13  C   UNL A   1      34.189  23.909  23.712  1.00  0.00     0.294 C 
ATOM     14  C   UNL A   1      32.666  23.761  25.470  1.00  0.00     0.268 C 
ATOM     15  O   UNL A   1      34.889  23.532  22.779  1.00  0.00    -0.261 OA
ATOM     16  S   UNL A   1      33.995  25.594  24.128  1.00  0.00    -0.022 SA
ATOM     17  C   UNL A   1      32.839  25.233  25.340  1.00  0.00     0.083 C 
ATOM     18  O   UNL A   1      31.961  23.219  26.308  1.00  0.00    -0.268 OA
ATOM     19  C   UNL A   1      32.187  26.095  26.124  1.00  0.00     0.029 C 
BRANCH  19  20
ATOM     20  C   UNL A   1      32.426  27.542  26.184  1.00  0.00    -0.023 A 
ATOM     21  C   UNL A   1      31.529  28.443  25.611  1.00  0.00     0.008 A 
ATOM     22  C   UNL A   1      33.554  28.041  26.853  1.00  0.00     0.023 A 
ATOM     23  C   UNL A   1      31.753  29.820  25.722  1.00  0.00     0.002 A 
ATOM     24  C   UNL A   1      33.775  29.410  26.960  1.00  0.00     0.018 A 
ATOM     25  C   UNL A   1      32.876  30.306  26.401  1.00  0.00     0.016 A 
ATOM     26  Br  UNL A   1      35.322  30.011  27.865  1.00  0.00    -0.051 Br
ENDBRANCH  19  20
ENDBRANCH  11  12
ENDBRANCH   8  11
ENDBRANCH   6   7
ENDBRANCH   4   6
ENDBRANCH   1   2
BRANCH   1  27
ATOM     27  C   UNL A   1      41.097  21.824  26.548  1.00  0.00     0.042 C 
BRANCH  27  28
ATOM     28  C   UNL A   1      42.304  22.783  26.546  1.00  0.00     0.118 C 
BRANCH  28  29
ATOM     29  N   UNL A   1      42.250  23.892  25.607  1.00  0.00    -0.352 N 
ATOM     30  C   UNL A   1      42.243  25.270  25.748  1.00  0.00     0.251 C 
ATOM     31  H   UNL A   1      42.208  23.601  24.668  1.00  0.00     0.163 HD
ATOM     32  O   UNL A   1      42.445  25.930  24.726  1.00  0.00    -0.269 OA
BRANCH  30  33
ATOM     33  C   UNL A   1      41.932  26.035  26.997  1.00  0.00     0.039 A 
ATOM     34  C   UNL A   1      42.822  27.042  27.381  1.00  0.00     0.014 A 
ATOM     35  C   UNL A   1      40.992  25.660  27.949  1.00  0.00     0.014 A 
ATOM     36  C   UNL A   1      42.691  27.724  28.619  1.00  0.00     0.010 A 
ATOM     37  C   UNL A   1      40.788  26.438  29.132  1.00  0.00     0.010 A 
ATOM     38  C   UNL A   1      41.598  27.535  29.487  1.00  0.00    -0.014 A 
BRANCH  38  39
ATOM     39  C   UNL A   1      41.319  28.497  30.667  1.00  0.00     0.031 A 
ATOM     40  C   UNL A   1      42.050  28.445  32.020  1.00  0.00     0.074 A 
ATOM     41  C   UNL A   1      40.302  29.405  30.610  1.00  0.00     0.049 A 
ATOM     42  N   UNL A   1      41.833  29.153  33.114  1.00  0.00    -0.248 NA
ATOM     43  C   UNL A   1      43.123  27.458  32.188  1.00  0.00     0.031 C 
ATOM     44  C   UNL A   1      39.377  29.590  29.490  1.00  0.00     0.029 A 
ATOM     45  N   UNL A   1      39.845  30.340  31.531  1.00  0.00    -0.354 N 
ATOM     46  C   UNL A   1      42.713  28.675  34.088  1.00  0.00     0.074 A 
ATOM     47  C   UNL A   1      43.392  27.548  33.484  1.00  0.00     0.031 C 
ATOM     48  C   UNL A   1      38.499  30.562  29.768  1.00  0.00     0.029 A 
ATOM     49  C   UNL A   1      38.758  31.079  31.103  1.00  0.00     0.049 A 
ATOM     50  H   UNL A   1      40.261  30.465  32.414  1.00  0.00     0.167 HD
ATOM     51  C   UNL A   1      42.999  29.142  35.337  1.00  0.00     0.037 A 
ATOM     52  C   UNL A   1      38.028  32.065  31.672  1.00  0.00     0.037 A 
ATOM     53  C   UNL A   1      42.420  30.314  35.952  1.00  0.00     0.049 A 
ATOM     54  C   UNL A   1      38.378  32.600  33.034  1.00  0.00     0.074 A 
ATOM     55  C   UNL A   1      42.773  30.919  37.152  1.00  0.00     0.029 A 
ATOM     56  N   UNL A   1      41.380  31.065  35.433  1.00  0.00    -0.354 N 
ATOM     57  N   UNL A   1      39.313  32.202  33.859  1.00  0.00    -0.248 NA
ATOM     58  C   UNL A   1      37.591  33.743  33.530  1.00  0.00     0.031 C 
ATOM     59  C   UNL A   1      41.917  32.003  37.379  1.00  0.00     0.029 A 
ATOM     60  C   UNL A   1      41.067  32.109  36.295  1.00  0.00     0.049 A 
ATOM     61  H   UNL A   1      40.928  30.885  34.578  1.00  0.00     0.167 HD
ATOM     62  C   UNL A   1      39.260  33.078  34.940  1.00  0.00     0.074 A 
ATOM     63  C   UNL A   1      38.205  34.026  34.670  1.00  0.00     0.031 C 
ATOM     64  C   UNL A   1      40.037  33.088  36.050  1.00  0.00     0.037 A 
BRANCH  51  65
ATOM     65  C   UNL A   1      44.067  28.419  36.135  1.00  0.00     0.058 A 
ATOM     66  C   UNL A   1      43.743  27.349  36.987  1.00  0.00     0.135 A 
ATOM     67  C   UNL A   1      45.429  28.740  35.993  1.00  0.00     0.135 A 
ATOM     68  F   UNL A   1      42.462  26.982  37.153  1.00  0.00    -0.206 F 
ATOM     69  C   UNL A   1      44.714  26.673  37.717  1.00  0.00     0.059 A 
ATOM     70  C   UNL A   1      46.424  28.048  36.683  1.00  0.00     0.059 A 
ATOM     71  F   UNL A   1      45.809  29.728  35.167  1.00  0.00    -0.206 F 
ATOM     72  C   UNL A   1      46.053  27.033  37.564  1.00  0.00     0.060 A 
BRANCH  72  73
ATOM     73  S   UNL A   1      47.293  26.157  38.539  1.00  0.00     0.124 S 
ATOM     74  O   UNL A   1      46.736  26.273  39.885  1.00  0.00    -0.237 OA
ATOM     75  O   UNL A   1      47.264  24.820  37.956  1.00  0.00    -0.237 OA
ATOM     76  O   UNL A   1      48.516  26.917  38.301  1.00  0.00    -0.744 OA
ENDBRANCH  72  73
ENDBRANCH  51  65
BRANCH  52  77
ATOM     77  C   UNL A   1      36.899  32.687  30.916  1.00  0.00     0.058 A 
ATOM     78  C   UNL A   1      37.144  33.662  29.937  1.00  0.00     0.135 A 
ATOM     79  C   UNL A   1      35.563  32.338  31.167  1.00  0.00     0.135 A 
ATOM     80  F   UNL A   1      38.404  34.042  29.671  1.00  0.00    -0.206 F 
ATOM     81  C   UNL A   1      36.109  34.289  29.252  1.00  0.00     0.059 A 
ATOM     82  C   UNL A   1      34.510  32.930  30.473  1.00  0.00     0.059 A 
ATOM     83  F   UNL A   1      35.274  31.401  32.083  1.00  0.00    -0.206 F 
ATOM     84  C   UNL A   1      34.793  33.913  29.525  1.00  0.00     0.060 A 
BRANCH  84  85
ATOM     85  S   UNL A   1      33.462  34.710  28.598  1.00  0.00     0.124 S 
ATOM     86  O   UNL A   1      34.155  35.845  28.000  1.00  0.00    -0.237 OA
ATOM     87  O   UNL A   1      33.057  33.651  27.677  1.00  0.00    -0.237 OA
ATOM     88  O   UNL A   1      32.483  35.039  29.631  1.00  0.00    -0.744 OA
ENDBRANCH  84  85
ENDBRANCH  52  77
BRANCH  64  89
ATOM     89  C   UNL A   1      39.837  34.196  37.054  1.00  0.00     0.058 A 
ATOM     90  C   UNL A   1      39.094  34.014  38.232  1.00  0.00     0.135 A 
ATOM     91  C   UNL A   1      40.437  35.451  36.853  1.00  0.00     0.135 A 
ATOM     92  F   UNL A   1      38.491  32.840  38.476  1.00  0.00    -0.206 F 
ATOM     93  C   UNL A   1      38.933  35.041  39.160  1.00  0.00     0.059 A 
ATOM     94  C   UNL A   1      40.315  36.482  37.782  1.00  0.00     0.059 A 
ATOM     95  F   UNL A   1      41.163  35.685  35.749  1.00  0.00    -0.206 F 
ATOM     96  C   UNL A   1      39.551  36.271  38.929  1.00  0.00     0.060 A 
BRANCH  96  97
ATOM     97  S   UNL A   1      39.368  37.580  40.160  1.00  0.00     0.124 S 
ATOM     98  O   UNL A   1      40.695  38.187  40.147  1.00  0.00    -0.237 OA
ATOM     99  O   UNL A   1      38.295  38.391  39.595  1.00  0.00    -0.237 OA
ATOM    100  O   UNL A   1      39.021  36.856  41.379  1.00  0.00    -0.744 OA
ENDBRANCH  96  97
ENDBRANCH  64  89
ENDBRANCH  38  39
ENDBRANCH  30  33
ENDBRANCH  28  29
ENDBRANCH  27  28
ENDBRANCH   1  27
TORSDOF 17
ENDMDL
MODEL 2
REMARK VINA RESULT:     -12.1      6.475     12.202
REMARK SMILES O=C(CNC(=O)CN1C(=O)S/C(=C\c2cccc(Br)c2)C1=O)NCCCNC(=O)c1ccc(-c2c3nc(c(-c4c(F)cc(S(=O)(=O)[O-])cc4F)c4ccc([nH]4)c(-c4c(F)cc(S(=O)(=O)[O-])cc4F)c4nc(c(-c5c(F)cc(S(=O)(=O)[O-])cc5F)c5ccc2[nH]5)C=C4)C=C3)cc1
REMARK SMILES IDX 24 1 23 2 1 3 2 4 3 6 4 7 5 8 6 10 7 11 8 12 9 13 21 14
REMARK SMILES IDX 10 15 11 16 12 17 22 18 13 19 14 20 15 21 20 22 16 23 18 24
REMARK SMILES IDX 17 25 19 26 25 27 26 28 27 29 28 30 29 32 30 33 31 34 95 35
REMARK SMILES IDX 32 36 94 37 33 38 34 39 35 40 88 41 36 42 93 43 87 44 89 45
REMARK SMILES IDX 37 46 92 47 86 48 85 49 38 51 72 52 51 53 71 54 52 55 55 56
REMARK SMILES IDX 70 57 90 58 53 59 54 60 69 62 91 63 56 64 39 65 40 66 49 67
REMARK SMILES IDX 41 68 42 69 48 70 50 71 43 72 44 73 45 74 46 75 47 76 73 77
REMARK SMILES IDX 74 78 83 79 75 80 76 81 82 82 84 83 77 84 78 85 79 86 80 87
REMARK SMILES IDX 81 88 57 89 58 90 67 91 59 92 60 93 66 94 68 95 61 96 62 97
REMARK SMILES IDX 63 98 64 99 65 100
REMARK H PARENT 23 5 4 9 27 31 89 50 55 61
REMARK Flexibility Score: inf
ROOT
ATOM      1  C   UNL A   1      34.555  31.244  28.019  1.00  0.00     0.117 C 
ENDROOT
BRANCH   1   2
ATOM      2  N   UNL A   1      33.297  30.961  27.337  1.00  0.00    -0.355 N 
ATOM      3  O   UNL A   1      34.046  29.215  26.037  1.00  0.00    -0.273 OA
ATOM      4  C   UNL A   1      33.128  29.924  26.437  1.00  0.00     0.239 C 
ATOM      5  H   UNL A   1      32.525  31.540  27.529  1.00  0.00     0.163 HD
BRANCH   4   6
ATOM      6  C   UNL A   1      31.710  29.809  25.854  1.00  0.00     0.216 C 
BRANCH   6   7
ATOM      7  N   UNL A   1      31.719  29.727  24.399  1.00  0.00    -0.345 N 
ATOM      8  C   UNL A   1      31.122  28.867  23.533  1.00  0.00     0.240 C 
ATOM      9  H   UNL A   1      32.256  30.425  23.962  1.00  0.00     0.164 HD
ATOM     10  O   UNL A   1      31.106  29.217  22.348  1.00  0.00    -0.273 OA
BRANCH   8  11
ATOM     11  C   UNL A   1      30.336  27.633  23.979  1.00  0.00     0.229 C 
BRANCH  11  12
ATOM     12  N   UNL A   1      31.112  26.459  24.327  1.00  0.00    -0.259 N 
ATOM     13  C   UNL A   1      31.268  26.063  25.624  1.00  0.00     0.294 C 
ATOM     14  C   UNL A   1      31.567  25.597  23.360  1.00  0.00     0.268 C 
ATOM     15  O   UNL A   1      30.848  26.641  26.621  1.00  0.00    -0.261 OA
ATOM     16  S   UNL A   1      32.185  24.580  25.707  1.00  0.00    -0.022 SA
ATOM     17  C   UNL A   1      32.219  24.424  24.002  1.00  0.00     0.083 C 
ATOM     18  O   UNL A   1      31.516  25.787  22.154  1.00  0.00    -0.268 OA
ATOM     19  C   UNL A   1      32.774  23.442  23.286  1.00  0.00     0.029 C 
BRANCH  19  20
ATOM     20  C   UNL A   1      33.584  22.345  23.827  1.00  0.00    -0.023 A 
ATOM     21  C   UNL A   1      34.948  22.507  24.064  1.00  0.00     0.008 A 
ATOM     22  C   UNL A   1      32.982  21.118  24.146  1.00  0.00     0.023 A 
ATOM     23  C   UNL A   1      35.691  21.462  24.625  1.00  0.00     0.002 A 
ATOM     24  C   UNL A   1      33.723  20.080  24.703  1.00  0.00     0.018 A 
ATOM     25  C   UNL A   1      35.078  20.248  24.949  1.00  0.00     0.016 A 
ATOM     26  Br  UNL A   1      32.849  18.451  25.096  1.00  0.00    -0.051 Br
ENDBRANCH  19  20
ENDBRANCH  11  12
ENDBRANCH   8  11
ENDBRANCH   6   7
ENDBRANCH   4   6
ENDBRANCH   1   2
BRANCH   1  27
ATOM     27  C   UNL A   1      34.567  32.588  28.771  1.00  0.00     0.042 C 
BRANCH  27  28
ATOM     28  C   UNL A   1      35.497  32.648  29.999  1.00  0.00     0.118 C 
BRANCH  28  29
ATOM     29  N   UNL A   1      35.467  31.500  30.891  1.00  0.00    -0.352 N 
ATOM     30  C   UNL A   1      36.420  30.587  31.314  1.00  0.00     0.251 C 
ATOM     31  H   UNL A   1      34.577  31.334  31.277  1.00  0.00     0.163 HD
ATOM     32  O   UNL A   1      36.117  29.880  32.277  1.00  0.00    -0.269 OA
BRANCH  30  33
ATOM     33  C   UNL A   1      37.742  30.317  30.666  1.00  0.00     0.039 A 
ATOM     34  C   UNL A   1      38.841  30.096  31.501  1.00  0.00     0.014 A 
ATOM     35  C   UNL A   1      38.033  30.532  29.324  1.00  0.00     0.014 A 
ATOM     36  C   UNL A   1      40.159  29.973  30.986  1.00  0.00     0.010 A 
ATOM     37  C   UNL A   1      39.340  30.278  28.802  1.00  0.00     0.010 A 
ATOM     38  C   UNL A   1      40.444  29.936  29.608  1.00  0.00    -0.014 A 
BRANCH  38  39
ATOM     39  C   UNL A   1      41.829  29.499  29.074  1.00  0.00     0.031 A 
ATOM     40  C   UNL A   1      43.018  30.453  28.866  1.00  0.00     0.074 A 
ATOM     41  C   UNL A   1      42.048  28.223  28.642  1.00  0.00     0.049 A 
ATOM     42  N   UNL A   1      44.205  30.207  28.339  1.00  0.00    -0.248 NA
ATOM     43  C   UNL A   1      42.852  31.859  29.252  1.00  0.00     0.031 C 
ATOM     44  C   UNL A   1      41.059  27.144  28.619  1.00  0.00     0.029 A 
ATOM     45  N   UNL A   1      43.172  27.609  28.105  1.00  0.00    -0.354 N 
ATOM     46  C   UNL A   1      44.896  31.421  28.308  1.00  0.00     0.074 A 
ATOM     47  C   UNL A   1      43.956  32.419  28.772  1.00  0.00     0.031 C 
ATOM     48  C   UNL A   1      41.606  26.023  28.130  1.00  0.00     0.029 A 
ATOM     49  C   UNL A   1      42.991  26.281  27.767  1.00  0.00     0.049 A 
ATOM     50  H   UNL A   1      44.027  28.081  27.977  1.00  0.00     0.167 HD
ATOM     51  C   UNL A   1      46.194  31.700  27.997  1.00  0.00     0.037 A 
ATOM     52  C   UNL A   1      43.806  25.343  27.235  1.00  0.00     0.037 A 
ATOM     53  C   UNL A   1      47.197  30.731  27.617  1.00  0.00     0.049 A 
ATOM     54  C   UNL A   1      45.248  25.650  26.933  1.00  0.00     0.074 A 
ATOM     55  C   UNL A   1      48.559  30.932  27.430  1.00  0.00     0.029 A 
ATOM     56  N   UNL A   1      46.967  29.390  27.369  1.00  0.00    -0.354 N 
ATOM     57  N   UNL A   1      45.890  26.784  27.053  1.00  0.00    -0.248 NA
ATOM     58  C   UNL A   1      46.086  24.538  26.451  1.00  0.00     0.031 C 
ATOM     59  C   UNL A   1      49.140  29.726  27.025  1.00  0.00     0.029 A 
ATOM     60  C   UNL A   1      48.153  28.759  27.013  1.00  0.00     0.049 A 
ATOM     61  H   UNL A   1      46.091  28.946  27.435  1.00  0.00     0.167 HD
ATOM     62  C   UNL A   1      47.213  26.508  26.716  1.00  0.00     0.074 A 
ATOM     63  C   UNL A   1      47.283  25.104  26.386  1.00  0.00     0.031 C 
ATOM     64  C   UNL A   1      48.268  27.357  26.698  1.00  0.00     0.037 A 
BRANCH  51  65
ATOM     65  C   UNL A   1      46.657  33.138  28.122  1.00  0.00     0.058 A 
ATOM     66  C   UNL A   1      47.265  33.610  29.297  1.00  0.00     0.135 A 
ATOM     67  C   UNL A   1      46.566  34.032  27.038  1.00  0.00     0.135 A 
ATOM     68  F   UNL A   1      47.397  32.803  30.362  1.00  0.00    -0.206 F 
ATOM     69  C   UNL A   1      47.701  34.925  29.420  1.00  0.00     0.059 A 
ATOM     70  C   UNL A   1      47.036  35.342  27.125  1.00  0.00     0.059 A 
ATOM     71  F   UNL A   1      46.029  33.633  25.875  1.00  0.00    -0.206 F 
ATOM     72  C   UNL A   1      47.577  35.787  28.330  1.00  0.00     0.060 A 
BRANCH  72  73
ATOM     73  S   UNL A   1      48.129  37.495  28.521  1.00  0.00     0.124 S 
ATOM     74  O   UNL A   1      48.013  37.675  29.966  1.00  0.00    -0.237 OA
ATOM     75  O   UNL A   1      49.490  37.445  27.997  1.00  0.00    -0.237 OA
ATOM     76  O   UNL A   1      47.177  38.254  27.717  1.00  0.00    -0.744 OA
ENDBRANCH  72  73
ENDBRANCH  51  65
BRANCH  52  77
ATOM     77  C   UNL A   1      43.297  23.957  27.005  1.00  0.00     0.058 A 
ATOM     78  C   UNL A   1      43.140  23.065  28.078  1.00  0.00     0.135 A 
ATOM     79  C   UNL A   1      42.977  23.492  25.720  1.00  0.00     0.135 A 
ATOM     80  F   UNL A   1      43.447  23.457  29.325  1.00  0.00    -0.206 F 
ATOM     81  C   UNL A   1      42.711  21.756  27.885  1.00  0.00     0.059 A 
ATOM     82  C   UNL A   1      42.518  22.195  25.505  1.00  0.00     0.059 A 
ATOM     83  F   UNL A   1      43.096  24.308  24.662  1.00  0.00    -0.206 F 
ATOM     84  C   UNL A   1      42.399  21.331  26.594  1.00  0.00     0.060 A 
BRANCH  84  85
ATOM     85  S   UNL A   1      41.806  19.639  26.366  1.00  0.00     0.124 S 
ATOM     86  O   UNL A   1      42.243  19.003  27.603  1.00  0.00    -0.237 OA
ATOM     87  O   UNL A   1      40.366  19.838  26.224  1.00  0.00    -0.237 OA
ATOM     88  O   UNL A   1      42.493  19.202  25.154  1.00  0.00    -0.744 OA
ENDBRANCH  84  85
ENDBRANCH  52  77
BRANCH  64  89
ATOM     89  C   UNL A   1      49.630  26.797  26.371  1.00  0.00     0.058 A 
ATOM     90  C   UNL A   1      50.396  26.092  27.314  1.00  0.00     0.135 A 
ATOM     91  C   UNL A   1      50.160  26.931  25.077  1.00  0.00     0.135 A 
ATOM     92  F   UNL A   1      49.947  25.937  28.570  1.00  0.00    -0.206 F 
ATOM     93  C   UNL A   1      51.645  25.562  26.993  1.00  0.00     0.059 A 
ATOM     94  C   UNL A   1      51.393  26.385  24.725  1.00  0.00     0.059 A 
ATOM     95  F   UNL A   1      49.474  27.591  24.130  1.00  0.00    -0.206 F 
ATOM     96  C   UNL A   1      52.133  25.711  25.694  1.00  0.00     0.060 A 
BRANCH  96  97
ATOM     97  S   UNL A   1      53.735  24.985  25.281  1.00  0.00     0.124 S 
ATOM     98  O   UNL A   1      53.966  25.520  23.943  1.00  0.00    -0.237 OA
ATOM     99  O   UNL A   1      54.597  25.513  26.333  1.00  0.00    -0.237 OA
ATOM    100  O   UNL A   1      53.486  23.548  25.346  1.00  0.00    -0.744 OA
ENDBRANCH  96  97
ENDBRANCH  64  89
ENDBRANCH  38  39
ENDBRANCH  30  33
ENDBRANCH  28  29
ENDBRANCH  27  28
ENDBRANCH   1  27
TORSDOF 17
ENDMDL
MODEL 3
REMARK VINA RESULT:     -11.9      3.644      6.140
REMARK SMILES O=C(CNC(=O)CN1C(=O)S/C(=C\c2cccc(Br)c2)C1=O)NCCCNC(=O)c1ccc(-c2c3nc(c(-c4c(F)cc(S(=O)(=O)[O-])cc4F)c4ccc([nH]4)c(-c4c(F)cc(S(=O)(=O)[O-])cc4F)c4nc(c(-c5c(F)cc(S(=O)(=O)[O-])cc5F)c5ccc2[nH]5)C=C4)C=C3)cc1
REMARK SMILES IDX 24 1 23 2 1 3 2 4 3 6 4 7 5 8 6 10 7 11 8 12 9 13 21 14
REMARK SMILES IDX 10 15 11 16 12 17 22 18 13 19 14 20 15 21 20 22 16 23 18 24
REMARK SMILES IDX 17 25 19 26 25 27 26 28 27 29 28 30 29 32 30 33 31 34 95 35
REMARK SMILES IDX 32 36 94 37 33 38 34 39 35 40 88 41 36 42 93 43 87 44 89 45
REMARK SMILES IDX 37 46 92 47 86 48 85 49 38 51 72 52 51 53 71 54 52 55 55 56
REMARK SMILES IDX 70 57 90 58 53 59 54 60 69 62 91 63 56 64 39 65 40 66 49 67
REMARK SMILES IDX 41 68 42 69 48 70 50 71 43 72 44 73 45 74 46 75 47 76 73 77
REMARK SMILES IDX 74 78 83 79 75 80 76 81 82 82 84 83 77 84 78 85 79 86 80 87
REMARK SMILES IDX 81 88 57 89 58 90 67 91 59 92 60 93 66 94 68 95 61 96 62 97
REMARK SMILES IDX 63 98 64 99 65 100
REMARK H PARENT 23 5 4 9 27 31 89 50 55 61
REMARK Flexibility Score: inf
ROOT
ATOM      1  C   UNL A   1      41.088  20.166  26.512  1.00  0.00     0.117 C 
ENDROOT
BRANCH   1   2
ATOM      2  N   UNL A   1      42.357  20.311  25.807  1.00  0.00    -0.355 N 
ATOM      3  O   UNL A   1      42.899  18.076  25.698  1.00  0.00    -0.273 OA
ATOM      4  C   UNL A   1      43.138  19.244  25.403  1.00  0.00     0.239 C 
ATOM      5  H   UNL A   1      42.675  21.221  25.608  1.00  0.00     0.163 HD
BRANCH   4   6
ATOM      6  C   UNL A   1      44.427  19.638  24.663  1.00  0.00     0.216 C 
BRANCH   6   7
ATOM      7  N   UNL A   1      44.386  21.013  24.182  1.00  0.00    -0.345 N 
ATOM      8  C   UNL A   1      45.050  22.132  24.571  1.00  0.00     0.240 C 
ATOM      9  H   UNL A   1      43.762  21.157  23.435  1.00  0.00     0.164 HD
ATOM     10  O   UNL A   1      44.994  23.091  23.794  1.00  0.00    -0.273 OA
BRANCH   8  11
ATOM     11  C   UNL A   1      45.980  22.182  25.784  1.00  0.00     0.229 C 
BRANCH  11  12
ATOM     12  N   UNL A   1      45.733  23.233  26.750  1.00  0.00    -0.259 N 
ATOM     13  C   UNL A   1      44.664  23.190  27.598  1.00  0.00     0.294 C 
ATOM     14  C   UNL A   1      46.660  24.220  26.977  1.00  0.00     0.268 C 
ATOM     15  O   UNL A   1      43.784  22.336  27.621  1.00  0.00    -0.261 OA
ATOM     16  S   UNL A   1      44.686  24.556  28.685  1.00  0.00    -0.022 SA
ATOM     17  C   UNL A   1      46.205  25.086  28.098  1.00  0.00     0.083 C 
ATOM     18  O   UNL A   1      47.672  24.413  26.320  1.00  0.00    -0.268 OA
ATOM     19  C   UNL A   1      46.912  26.143  28.508  1.00  0.00     0.029 C 
BRANCH  19  20
ATOM     20  C   UNL A   1      46.459  27.146  29.480  1.00  0.00    -0.023 A 
ATOM     21  C   UNL A   1      46.825  27.061  30.823  1.00  0.00     0.008 A 
ATOM     22  C   UNL A   1      45.672  28.228  29.058  1.00  0.00     0.023 A 
ATOM     23  C   UNL A   1      46.422  28.054  31.722  1.00  0.00     0.002 A 
ATOM     24  C   UNL A   1      45.271  29.213  29.955  1.00  0.00     0.018 A 
ATOM     25  C   UNL A   1      45.646  29.135  31.288  1.00  0.00     0.016 A 
ATOM     26  Br  UNL A   1      44.202  30.637  29.320  1.00  0.00    -0.051 Br
ENDBRANCH  19  20
ENDBRANCH  11  12
ENDBRANCH   8  11
ENDBRANCH   6   7
ENDBRANCH   4   6
ENDBRANCH   1   2
BRANCH   1  27
ATOM     27  C   UNL A   1      40.865  21.216  27.615  1.00  0.00     0.042 C 
BRANCH  27  28
ATOM     28  C   UNL A   1      40.231  22.541  27.145  1.00  0.00     0.118 C 
BRANCH  28  29
ATOM     29  N   UNL A   1      40.979  23.302  26.157  1.00  0.00    -0.352 N 
ATOM     30  C   UNL A   1      41.659  24.509  26.188  1.00  0.00     0.251 C 
ATOM     31  H   UNL A   1      41.007  22.867  25.275  1.00  0.00     0.163 HD
ATOM     32  O   UNL A   1      42.402  24.747  25.233  1.00  0.00    -0.269 OA
BRANCH  30  33
ATOM     33  C   UNL A   1      41.517  25.584  27.219  1.00  0.00     0.039 A 
ATOM     34  C   UNL A   1      40.451  25.485  28.118  1.00  0.00     0.014 A 
ATOM     35  C   UNL A   1      42.180  26.805  27.197  1.00  0.00     0.014 A 
ATOM     36  C   UNL A   1      40.149  26.524  29.038  1.00  0.00     0.010 A 
ATOM     37  C   UNL A   1      41.952  27.788  28.210  1.00  0.00     0.010 A 
ATOM     38  C   UNL A   1      40.962  27.662  29.204  1.00  0.00    -0.014 A 
BRANCH  38  39
ATOM     39  C   UNL A   1      40.787  28.619  30.408  1.00  0.00     0.031 A 
ATOM     40  C   UNL A   1      41.571  28.504  31.727  1.00  0.00     0.074 A 
ATOM     41  C   UNL A   1      39.821  29.583  30.407  1.00  0.00     0.049 A 
ATOM     42  N   UNL A   1      41.441  29.204  32.840  1.00  0.00    -0.248 NA
ATOM     43  C   UNL A   1      42.593  27.456  31.835  1.00  0.00     0.031 C 
ATOM     44  C   UNL A   1      38.862  29.837  29.331  1.00  0.00     0.029 A 
ATOM     45  N   UNL A   1      39.457  30.526  31.360  1.00  0.00    -0.354 N 
ATOM     46  C   UNL A   1      42.332  28.662  33.768  1.00  0.00     0.074 A 
ATOM     47  C   UNL A   1      42.921  27.509  33.120  1.00  0.00     0.031 C 
ATOM     48  C   UNL A   1      38.053  30.852  29.660  1.00  0.00     0.029 A 
ATOM     49  C   UNL A   1      38.396  31.331  30.990  1.00  0.00     0.049 A 
ATOM     50  H   UNL A   1      39.917  30.613  32.226  1.00  0.00     0.167 HD
ATOM     51  C   UNL A   1      42.697  29.092  35.009  1.00  0.00     0.037 A 
ATOM     52  C   UNL A   1      37.747  32.346  31.604  1.00  0.00     0.037 A 
ATOM     53  C   UNL A   1      42.212  30.284  35.666  1.00  0.00     0.049 A 
ATOM     54  C   UNL A   1      38.184  32.839  32.957  1.00  0.00     0.074 A 
ATOM     55  C   UNL A   1      42.648  30.848  36.858  1.00  0.00     0.029 A 
ATOM     56  N   UNL A   1      41.194  31.100  35.203  1.00  0.00    -0.354 N 
ATOM     57  N   UNL A   1      39.129  32.376  33.735  1.00  0.00    -0.248 NA
ATOM     58  C   UNL A   1      37.484  34.016  33.502  1.00  0.00     0.031 C 
ATOM     59  C   UNL A   1      41.865  31.974  37.136  1.00  0.00     0.029 A 
ATOM     60  C   UNL A   1      40.977  32.146  36.092  1.00  0.00     0.049 A 
ATOM     61  H   UNL A   1      40.697  30.960  34.365  1.00  0.00     0.167 HD
ATOM     62  C   UNL A   1      39.172  33.236  34.830  1.00  0.00     0.074 A 
ATOM     63  C   UNL A   1      38.161  34.245  34.618  1.00  0.00     0.031 C 
ATOM     64  C   UNL A   1      39.995  33.184  35.905  1.00  0.00     0.037 A 
BRANCH  51  65
ATOM     65  C   UNL A   1      43.755  28.297  35.750  1.00  0.00     0.058 A 
ATOM     66  C   UNL A   1      45.124  28.557  35.569  1.00  0.00     0.135 A 
ATOM     67  C   UNL A   1      43.404  27.324  36.704  1.00  0.00     0.135 A 
ATOM     68  F   UNL A   1      45.525  29.485  34.685  1.00  0.00    -0.206 F 
ATOM     69  C   UNL A   1      46.103  27.840  36.249  1.00  0.00     0.059 A 
ATOM     70  C   UNL A   1      44.368  26.623  37.428  1.00  0.00     0.059 A 
ATOM     71  F   UNL A   1      42.113  27.054  36.951  1.00  0.00    -0.206 F 
ATOM     72  C   UNL A   1      45.715  26.869  37.174  1.00  0.00     0.060 A 
BRANCH  72  73
ATOM     73  S   UNL A   1      47.004  25.936  38.026  1.00  0.00     0.124 S 
ATOM     74  O   UNL A   1      46.227  24.853  38.625  1.00  0.00    -0.237 OA
ATOM     75  O   UNL A   1      47.888  25.550  36.932  1.00  0.00    -0.237 OA
ATOM     76  O   UNL A   1      47.560  26.903  38.968  1.00  0.00    -0.744 OA
ENDBRANCH  72  73
ENDBRANCH  51  65
BRANCH  52  77
ATOM     77  C   UNL A   1      36.624  33.043  30.906  1.00  0.00     0.058 A 
ATOM     78  C   UNL A   1      36.882  33.978  29.892  1.00  0.00     0.135 A 
ATOM     79  C   UNL A   1      35.284  32.806  31.248  1.00  0.00     0.135 A 
ATOM     80  F   UNL A   1      38.148  34.251  29.539  1.00  0.00    -0.206 F 
ATOM     81  C   UNL A   1      35.856  34.672  29.259  1.00  0.00     0.059 A 
ATOM     82  C   UNL A   1      34.238  33.467  30.609  1.00  0.00     0.059 A 
ATOM     83  F   UNL A   1      34.982  31.911  32.202  1.00  0.00    -0.206 F 
ATOM     84  C   UNL A   1      34.536  34.407  29.622  1.00  0.00     0.060 A 
BRANCH  84  85
ATOM     85  S   UNL A   1      33.214  35.290  28.763  1.00  0.00     0.124 S 
ATOM     86  O   UNL A   1      32.565  34.211  28.028  1.00  0.00    -0.237 OA
ATOM     87  O   UNL A   1      32.452  35.854  29.874  1.00  0.00    -0.237 OA
ATOM     88  O   UNL A   1      33.934  36.265  27.948  1.00  0.00    -0.744 OA
ENDBRANCH  84  85
ENDBRANCH  52  77
BRANCH  64  89
ATOM     89  C   UNL A   1      39.900  34.285  36.932  1.00  0.00     0.058 A 
ATOM     90  C   UNL A   1      40.646  35.470  36.830  1.00  0.00     0.135 A 
ATOM     91  C   UNL A   1      39.012  34.170  38.015  1.00  0.00     0.135 A 
ATOM     92  F   UNL A   1      41.517  35.636  35.821  1.00  0.00    -0.206 F 
ATOM     93  C   UNL A   1      40.534  36.489  37.775  1.00  0.00     0.059 A 
ATOM     94  C   UNL A   1      38.862  35.187  38.956  1.00  0.00     0.059 A 
ATOM     95  F   UNL A   1      38.268  33.062  38.165  1.00  0.00    -0.206 F 
ATOM     96  C   UNL A   1      39.635  36.339  38.833  1.00  0.00     0.060 A 
BRANCH  96  97
ATOM     97  S   UNL A   1      39.471  37.684  40.029  1.00  0.00     0.124 S 
ATOM     98  O   UNL A   1      40.711  38.422  39.815  1.00  0.00    -0.237 OA
ATOM     99  O   UNL A   1      38.252  38.350  39.582  1.00  0.00    -0.237 OA
ATOM    100  O   UNL A   1      39.366  36.991  41.309  1.00  0.00    -0.744 OA
ENDBRANCH  96  97
ENDBRANCH  64  89
ENDBRANCH  38  39
ENDBRANCH  30  33
ENDBRANCH  28  29
ENDBRANCH  27  28
ENDBRANCH   1  27
TORSDOF 17
ENDMDL
