MODEL 1
REMARK VINA RESULT:     -15.1      0.000      0.000
REMARK SMILES COc1ccc(/C=C2/C(=O)N(c3ccccc3)C(=O)[NH+]=C2NCCCNC(=O)c2ccc(-c3c4nc(c(-c5c(F)cc(S(=O)(=O)[O-])cc5F)c5ccc([nH]5)c(-c5c(F)cc(S(=O)(=O)[O-])cc5F)c5nc(c(-c6c(F)cc(S(=O)(=O)[O-])cc6F)c6ccc3[nH]6)C=C5)C=C4)cc2)cc1C(=O)[O-]
REMARK SMILES IDX 25 1 24 2 23 3 22 4 7 5 8 6 9 7 21 8 10 9 11 10 20 11 18 12
REMARK SMILES IDX 19 15 6 16 3 17 4 18 96 19 5 20 95 21 2 22 1 23 97 24 98 25
REMARK SMILES IDX 99 26 12 27 13 28 17 29 14 30 16 31 15 32 26 33 27 34 28 36
REMARK SMILES IDX 29 37 30 38 94 39 31 40 93 41 32 42 33 43 34 44 87 45 35 46
REMARK SMILES IDX 92 47 86 48 88 49 36 50 91 51 85 52 84 53 37 55 71 56 50 57
REMARK SMILES IDX 70 58 51 59 54 60 69 61 89 62 52 63 53 64 68 66 90 67 55 68
REMARK SMILES IDX 38 69 39 70 48 71 40 72 41 73 47 74 49 75 42 76 43 77 44 78
REMARK SMILES IDX 45 79 46 80 72 81 73 82 82 83 74 84 75 85 81 86 83 87 76 88
REMARK SMILES IDX 77 89 78 90 79 91 80 92 56 93 57 94 66 95 58 96 59 97 65 98
REMARK SMILES IDX 67 99 60 100 61 101 62 102 63 103 64 104
REMARK H PARENT 20 13 22 14 26 35 88 54 54 65
REMARK Flexibility Score: inf
ROOT
ATOM      1  C   UNL A   1      35.182  28.959  27.260  1.00  0.00     0.119 C 
ENDROOT
BRANCH   1   2
ATOM      2  C   UNL A   1      33.715  28.694  26.318  1.00  0.00     0.059 C 
BRANCH   2   3
ATOM      3  C   UNL A   1      32.693  26.941  25.478  1.00  0.00     0.195 C 
BRANCH   3   4
ATOM      4  N   UNL A   1      32.512  25.454  26.096  1.00  0.00    -0.305 N 
ATOM      5  C   UNL A   1      32.625  24.989  23.092  1.00  0.00     0.030 C 
ATOM      6  C   UNL A   1      32.876  24.049  24.016  1.00  0.00     0.129 C 
ATOM      7  C   UNL A   1      33.430  22.722  23.680  1.00  0.00     0.328 C 
ATOM      8  C   UNL A   1      32.506  24.239  25.443  1.00  0.00     0.236 C 
ATOM      9  O   UNL A   1      34.209  22.575  22.742  1.00  0.00    -0.249 OA
ATOM     10  N   UNL A   1      32.936  21.729  24.513  1.00  0.00    -0.155 N 
ATOM     11  N   UNL A   1      32.070  23.214  26.120  1.00  0.00    -0.209 N 
ATOM     12  C   UNL A   1      31.959  22.007  25.464  1.00  0.00     0.448 C 
ATOM     13  H   UNL A   1      31.828  23.300  27.070  1.00  0.00     0.270 HD
ATOM     14  H   UNL A   1      32.390  25.413  27.072  1.00  0.00     0.256 HD
ATOM     15  O   UNL A   1      31.041  21.235  25.728  1.00  0.00    -0.212 OA
BRANCH   5  16
ATOM     16  C   UNL A   1      32.105  26.265  23.585  1.00  0.00    -0.024 A 
ATOM     17  C   UNL A   1      30.263  29.331  23.076  1.00  0.00     0.127 A 
ATOM     18  C   UNL A   1      32.047  29.292  22.790  1.00  0.00     0.048 A 
ATOM     19  C   UNL A   1      29.404  27.823  23.534  1.00  0.00     0.040 A 
ATOM     20  C   UNL A   1      32.998  27.789  23.166  1.00  0.00     0.012 A 
ATOM     21  C   UNL A   1      30.320  26.314  23.838  1.00  0.00     0.022 A 
BRANCH  17  22
ATOM     22  O   UNL A   1      29.628  30.522  22.894  1.00  0.00    -0.496 OA
ATOM     23  C   UNL A   1      29.161  30.645  21.547  1.00  0.00     0.278 C 
ENDBRANCH  17  22
BRANCH  19  24
ATOM     24  C   UNL A   1      27.951  27.746  23.626  1.00  0.00     0.075 C 
ATOM     25  O   UNL A   1      27.170  28.526  23.122  1.00  0.00    -0.545 OA
ATOM     26  O   UNL A   1      27.594  26.607  24.231  1.00  0.00    -0.545 OA
ENDBRANCH  19  24
ENDBRANCH   5  16
BRANCH  10  27
ATOM     27  C   UNL A   1      33.282  20.385  24.254  1.00  0.00     0.111 A 
ATOM     28  C   UNL A   1      32.461  19.555  23.488  1.00  0.00     0.044 A 
ATOM     29  C   UNL A   1      34.459  19.883  24.821  1.00  0.00     0.044 A 
ATOM     30  C   UNL A   1      32.828  18.225  23.278  1.00  0.00     0.004 A 
ATOM     31  C   UNL A   1      34.810  18.548  24.628  1.00  0.00     0.004 A 
ATOM     32  C   UNL A   1      33.998  17.723  23.851  1.00  0.00     0.000 A 
ENDBRANCH  10  27
ENDBRANCH   3   4
ENDBRANCH   2   3
ENDBRANCH   1   2
BRANCH   1  33
ATOM     33  N   UNL A   1      35.176  29.871  28.418  1.00  0.00    -0.352 N 
ATOM     34  C   UNL A   1      36.120  30.174  29.352  1.00  0.00     0.251 C 
ATOM     35  H   UNL A   1      34.328  30.355  28.540  1.00  0.00     0.163 HD
ATOM     36  O   UNL A   1      35.826  30.795  30.366  1.00  0.00    -0.269 OA
BRANCH  34  37
ATOM     37  C   UNL A   1      37.502  29.794  29.091  1.00  0.00     0.039 A 
ATOM     38  C   UNL A   1      37.985  29.793  27.781  1.00  0.00     0.014 A 
ATOM     39  C   UNL A   1      38.291  29.409  30.176  1.00  0.00     0.014 A 
ATOM     40  C   UNL A   1      39.311  29.445  27.562  1.00  0.00     0.010 A 
ATOM     41  C   UNL A   1      39.619  29.118  29.964  1.00  0.00     0.010 A 
ATOM     42  C   UNL A   1      40.125  29.124  28.656  1.00  0.00    -0.014 A 
BRANCH  42  43
ATOM     43  C   UNL A   1      41.527  28.717  28.494  1.00  0.00     0.031 A 
ATOM     44  C   UNL A   1      42.565  29.794  28.445  1.00  0.00     0.074 A 
ATOM     45  C   UNL A   1      41.793  27.430  28.222  1.00  0.00     0.049 A 
ATOM     46  N   UNL A   1      43.808  29.721  28.064  1.00  0.00    -0.248 NA
ATOM     47  C   UNL A   1      42.123  31.149  28.824  1.00  0.00     0.031 C 
ATOM     48  C   UNL A   1      40.806  26.347  28.203  1.00  0.00     0.029 A 
ATOM     49  N   UNL A   1      42.964  26.823  27.864  1.00  0.00    -0.354 N 
ATOM     50  C   UNL A   1      44.291  31.023  28.127  1.00  0.00     0.074 A 
ATOM     51  C   UNL A   1      43.196  31.871  28.540  1.00  0.00     0.031 C 
ATOM     52  C   UNL A   1      41.414  25.207  27.839  1.00  0.00     0.029 A 
ATOM     53  C   UNL A   1      42.818  25.491  27.566  1.00  0.00     0.049 A 
ATOM     54  H   UNL A   1      43.827  27.295  27.824  1.00  0.00     0.167 HD
ATOM     55  C   UNL A   1      45.546  31.455  27.873  1.00  0.00     0.037 A 
ATOM     56  C   UNL A   1      43.726  24.612  27.103  1.00  0.00     0.037 A 
ATOM     57  C   UNL A   1      46.608  30.567  27.485  1.00  0.00     0.049 A 
ATOM     58  C   UNL A   1      45.126  25.108  26.868  1.00  0.00     0.074 A 
ATOM     59  C   UNL A   1      47.937  30.859  27.246  1.00  0.00     0.029 A 
ATOM     60  N   UNL A   1      46.451  29.201  27.285  1.00  0.00    -0.354 N 
ATOM     61  N   UNL A   1      45.594  26.330  26.982  1.00  0.00    -0.248 NA
ATOM     62  C   UNL A   1      46.124  24.116  26.454  1.00  0.00     0.031 C 
ATOM     63  C   UNL A   1      48.579  29.671  26.881  1.00  0.00     0.029 A 
ATOM     64  C   UNL A   1      47.658  28.633  26.929  1.00  0.00     0.049 A 
ATOM     65  H   UNL A   1      45.603  28.709  27.385  1.00  0.00     0.167 HD
ATOM     66  C   UNL A   1      46.947  26.250  26.688  1.00  0.00     0.074 A 
ATOM     67  C   UNL A   1      47.223  24.857  26.388  1.00  0.00     0.031 C 
ATOM     68  C   UNL A   1      47.882  27.232  26.669  1.00  0.00     0.037 A 
BRANCH  55  69
ATOM     69  C   UNL A   1      45.819  32.926  28.014  1.00  0.00     0.058 A 
ATOM     70  C   UNL A   1      45.675  33.806  26.929  1.00  0.00     0.135 A 
ATOM     71  C   UNL A   1      46.235  33.465  29.241  1.00  0.00     0.135 A 
ATOM     72  F   UNL A   1      45.301  33.342  25.726  1.00  0.00    -0.206 F 
ATOM     73  C   UNL A   1      45.967  35.162  27.046  1.00  0.00     0.059 A 
ATOM     74  C   UNL A   1      46.505  34.823  29.389  1.00  0.00     0.059 A 
ATOM     75  F   UNL A   1      46.396  32.670  30.310  1.00  0.00    -0.206 F 
ATOM     76  C   UNL A   1      46.386  35.660  28.280  1.00  0.00     0.060 A 
BRANCH  76  77
ATOM     77  S   UNL A   1      46.767  37.419  28.414  1.00  0.00     0.124 S 
ATOM     78  O   UNL A   1      48.202  37.386  28.676  1.00  0.00    -0.237 OA
ATOM     79  O   UNL A   1      46.375  37.926  27.102  1.00  0.00    -0.237 OA
ATOM     80  O   UNL A   1      45.934  37.864  29.527  1.00  0.00    -0.744 OA
ENDBRANCH  76  77
ENDBRANCH  55  69
BRANCH  56  81
ATOM     81  C   UNL A   1      43.343  23.194  26.885  1.00  0.00     0.058 A 
ATOM     82  C   UNL A   1      43.236  22.678  25.585  1.00  0.00     0.135 A 
ATOM     83  C   UNL A   1      43.131  22.314  27.956  1.00  0.00     0.135 A 
ATOM     84  F   UNL A   1      43.437  23.480  24.528  1.00  0.00    -0.206 F 
ATOM     85  C   UNL A   1      42.920  21.344  25.353  1.00  0.00     0.059 A 
ATOM     86  C   UNL A   1      42.833  20.970  27.751  1.00  0.00     0.059 A 
ATOM     87  F   UNL A   1      43.250  22.752  29.220  1.00  0.00    -0.206 F 
ATOM     88  C   UNL A   1      42.722  20.497  26.445  1.00  0.00     0.060 A 
BRANCH  88  89
ATOM     89  S   UNL A   1      42.369  18.753  26.130  1.00  0.00     0.124 S 
ATOM     90  O   UNL A   1      40.961  18.803  25.751  1.00  0.00    -0.237 OA
ATOM     91  O   UNL A   1      43.309  18.438  25.059  1.00  0.00    -0.237 OA
ATOM     92  O   UNL A   1      42.656  18.117  27.413  1.00  0.00    -0.744 OA
ENDBRANCH  88  89
ENDBRANCH  56  81
BRANCH  68  93
ATOM     93  C   UNL A   1      49.293  26.827  26.367  1.00  0.00     0.058 A 
ATOM     94  C   UNL A   1      50.127  26.288  27.355  1.00  0.00     0.135 A 
ATOM     95  C   UNL A   1      49.769  26.876  25.047  1.00  0.00     0.135 A 
ATOM     96  F   UNL A   1      49.715  26.230  28.631  1.00  0.00    -0.206 F 
ATOM     97  C   UNL A   1      51.392  25.804  27.043  1.00  0.00     0.059 A 
ATOM     98  C   UNL A   1      51.020  26.377  24.710  1.00  0.00     0.059 A 
ATOM     99  F   UNL A   1      48.998  27.378  24.069  1.00  0.00    -0.206 F 
ATOM    100  C   UNL A   1      51.824  25.842  25.715  1.00  0.00     0.060 A 
BRANCH 100 101
ATOM    101  S   UNL A   1      53.431  25.130  25.309  1.00  0.00     0.124 S 
ATOM    102  O   UNL A   1      53.143  23.701  25.377  1.00  0.00    -0.237 OA
ATOM    103  O   UNL A   1      53.680  25.664  23.973  1.00  0.00    -0.237 OA
ATOM    104  O   UNL A   1      54.305  25.646  26.357  1.00  0.00    -0.744 OA
ENDBRANCH 100 101
ENDBRANCH  68  93
ENDBRANCH  42  43
ENDBRANCH  34  37
ENDBRANCH   1  33
TORSDOF 16
ENDMDL
MODEL 2
REMARK VINA RESULT:     -15.0      6.417     12.166
REMARK SMILES COc1ccc(/C=C2/C(=O)N(c3ccccc3)C(=O)[NH+]=C2NCCCNC(=O)c2ccc(-c3c4nc(c(-c5c(F)cc(S(=O)(=O)[O-])cc5F)c5ccc([nH]5)c(-c5c(F)cc(S(=O)(=O)[O-])cc5F)c5nc(c(-c6c(F)cc(S(=O)(=O)[O-])cc6F)c6ccc3[nH]6)C=C5)C=C4)cc2)cc1C(=O)[O-]
REMARK SMILES IDX 25 1 24 2 23 3 22 4 7 5 8 6 9 7 21 8 10 9 11 10 20 11 18 12
REMARK SMILES IDX 19 15 6 16 3 17 4 18 96 19 5 20 95 21 2 22 1 23 97 24 98 25
REMARK SMILES IDX 99 26 12 27 13 28 17 29 14 30 16 31 15 32 26 33 27 34 28 36
REMARK SMILES IDX 29 37 30 38 94 39 31 40 93 41 32 42 33 43 34 44 87 45 35 46
REMARK SMILES IDX 92 47 86 48 88 49 36 50 91 51 85 52 84 53 37 55 71 56 50 57
REMARK SMILES IDX 70 58 51 59 54 60 69 61 89 62 52 63 53 64 68 66 90 67 55 68
REMARK SMILES IDX 38 69 39 70 48 71 40 72 41 73 47 74 49 75 42 76 43 77 44 78
REMARK SMILES IDX 45 79 46 80 72 81 73 82 82 83 74 84 75 85 81 86 83 87 76 88
REMARK SMILES IDX 77 89 78 90 79 91 80 92 56 93 57 94 66 95 58 96 59 97 65 98
REMARK SMILES IDX 67 99 60 100 61 101 62 102 63 103 64 104
REMARK H PARENT 20 13 22 14 26 35 88 54 54 65
REMARK Flexibility Score: inf
ROOT
ATOM      1  C   UNL A   1      37.909  24.417  26.399  1.00  0.00     0.119 C 
ENDROOT
BRANCH   1   2
ATOM      2  C   UNL A   1      36.618  23.555  25.563  1.00  0.00     0.059 C 
BRANCH   2   3
ATOM      3  C   UNL A   1      34.602  24.065  24.855  1.00  0.00     0.195 C 
BRANCH   3   4
ATOM      4  N   UNL A   1      34.131  25.215  23.816  1.00  0.00    -0.305 N 
ATOM      5  C   UNL A   1      31.644  24.668  25.481  1.00  0.00     0.030 C 
ATOM      6  C   UNL A   1      31.854  25.791  24.777  1.00  0.00     0.129 C 
ATOM      7  C   UNL A   1      30.987  26.981  24.885  1.00  0.00     0.328 C 
ATOM      8  C   UNL A   1      32.922  25.876  23.745  1.00  0.00     0.236 C 
ATOM      9  O   UNL A   1      30.434  27.272  25.942  1.00  0.00    -0.249 OA
ATOM     10  N   UNL A   1      30.872  27.649  23.676  1.00  0.00    -0.155 N 
ATOM     11  N   UNL A   1      32.690  26.555  22.658  1.00  0.00    -0.209 N 
ATOM     12  C   UNL A   1      31.453  27.145  22.516  1.00  0.00     0.448 C 
ATOM     13  H   UNL A   1      33.377  26.644  21.959  1.00  0.00     0.270 HD
ATOM     14  H   UNL A   1      34.799  25.477  23.143  1.00  0.00     0.256 HD
ATOM     15  O   UNL A   1      30.915  27.213  21.413  1.00  0.00    -0.212 OA
BRANCH   5  16
ATOM     16  C   UNL A   1      32.610  23.586  25.286  1.00  0.00    -0.024 A 
ATOM     17  C   UNL A   1      33.476  20.079  25.351  1.00  0.00     0.127 A 
ATOM     18  C   UNL A   1      33.762  21.106  26.811  1.00  0.00     0.048 A 
ATOM     19  C   UNL A   1      32.687  20.791  23.905  1.00  0.00     0.040 A 
ATOM     20  C   UNL A   1      33.447  22.895  26.742  1.00  0.00     0.012 A 
ATOM     21  C   UNL A   1      32.304  22.541  23.849  1.00  0.00     0.022 A 
BRANCH  17  22
ATOM     22  O   UNL A   1      33.848  18.771  25.427  1.00  0.00    -0.496 OA
ATOM     23  C   UNL A   1      35.034  18.538  24.661  1.00  0.00     0.278 C 
ENDBRANCH  17  22
BRANCH  19  24
ATOM     24  C   UNL A   1      32.283  19.988  22.757  1.00  0.00     0.075 C 
ATOM     25  O   UNL A   1      32.125  18.785  22.758  1.00  0.00    -0.545 OA
ATOM     26  O   UNL A   1      31.974  20.788  21.730  1.00  0.00    -0.545 OA
ENDBRANCH  19  24
ENDBRANCH   5  16
BRANCH  10  27
ATOM     27  C   UNL A   1      29.990  28.747  23.582  1.00  0.00     0.111 A 
ATOM     28  C   UNL A   1      30.375  30.028  23.984  1.00  0.00     0.044 A 
ATOM     29  C   UNL A   1      28.692  28.517  23.110  1.00  0.00     0.044 A 
ATOM     30  C   UNL A   1      29.462  31.081  23.899  1.00  0.00     0.004 A 
ATOM     31  C   UNL A   1      27.777  29.566  23.049  1.00  0.00     0.004 A 
ATOM     32  C   UNL A   1      28.165  30.848  23.436  1.00  0.00     0.000 A 
ENDBRANCH  10  27
ENDBRANCH   3   4
ENDBRANCH   2   3
ENDBRANCH   1   2
BRANCH   1  33
ATOM     33  N   UNL A   1      39.322  24.162  26.065  1.00  0.00    -0.352 N 
ATOM     34  C   UNL A   1      40.471  24.828  26.368  1.00  0.00     0.251 C 
ATOM     35  H   UNL A   1      39.463  23.355  25.518  1.00  0.00     0.163 HD
ATOM     36  O   UNL A   1      41.521  24.565  25.794  1.00  0.00    -0.269 OA
BRANCH  34  37
ATOM     37  C   UNL A   1      40.438  25.821  27.433  1.00  0.00     0.039 A 
ATOM     38  C   UNL A   1      39.584  25.641  28.523  1.00  0.00     0.014 A 
ATOM     39  C   UNL A   1      41.251  26.948  27.302  1.00  0.00     0.014 A 
ATOM     40  C   UNL A   1      39.585  26.592  29.533  1.00  0.00     0.010 A 
ATOM     41  C   UNL A   1      41.292  27.862  28.329  1.00  0.00     0.010 A 
ATOM     42  C   UNL A   1      40.450  27.690  29.439  1.00  0.00    -0.014 A 
BRANCH  42  43
ATOM     43  C   UNL A   1      40.481  28.750  30.454  1.00  0.00     0.031 A 
ATOM     44  C   UNL A   1      41.381  28.559  31.635  1.00  0.00     0.074 A 
ATOM     45  C   UNL A   1      39.585  29.745  30.371  1.00  0.00     0.049 A 
ATOM     46  N   UNL A   1      41.402  29.204  32.766  1.00  0.00    -0.248 NA
ATOM     47  C   UNL A   1      42.350  27.450  31.549  1.00  0.00     0.031 C 
ATOM     48  C   UNL A   1      38.645  29.946  29.264  1.00  0.00     0.029 A 
ATOM     49  N   UNL A   1      39.284  30.745  31.252  1.00  0.00    -0.354 N 
ATOM     50  C   UNL A   1      42.363  28.564  33.539  1.00  0.00     0.074 A 
ATOM     51  C   UNL A   1      42.870  27.452  32.767  1.00  0.00     0.031 C 
ATOM     52  C   UNL A   1      37.863  31.002  29.541  1.00  0.00     0.029 A 
ATOM     53  C   UNL A   1      38.223  31.521  30.855  1.00  0.00     0.049 A 
ATOM     54  H   UNL A   1      39.779  30.894  32.090  1.00  0.00     0.167 HD
ATOM     55  C   UNL A   1      42.784  28.895  34.780  1.00  0.00     0.037 A 
ATOM     56  C   UNL A   1      37.608  32.527  31.503  1.00  0.00     0.037 A 
ATOM     57  C   UNL A   1      42.263  30.024  35.501  1.00  0.00     0.049 A 
ATOM     58  C   UNL A   1      38.122  32.903  32.865  1.00  0.00     0.074 A 
ATOM     59  C   UNL A   1      42.633  30.506  36.741  1.00  0.00     0.029 A 
ATOM     60  N   UNL A   1      41.253  30.854  35.028  1.00  0.00    -0.354 N 
ATOM     61  N   UNL A   1      39.069  32.329  33.572  1.00  0.00    -0.248 NA
ATOM     62  C   UNL A   1      37.501  34.062  33.516  1.00  0.00     0.031 C 
ATOM     63  C   UNL A   1      41.831  31.615  37.028  1.00  0.00     0.029 A 
ATOM     64  C   UNL A   1      40.987  31.847  35.950  1.00  0.00     0.049 A 
ATOM     65  H   UNL A   1      40.795  30.750  34.162  1.00  0.00     0.167 HD
ATOM     66  C   UNL A   1      39.183  33.077  34.735  1.00  0.00     0.074 A 
ATOM     67  C   UNL A   1      38.204  34.143  34.638  1.00  0.00     0.031 C 
ATOM     68  C   UNL A   1      40.019  32.904  35.789  1.00  0.00     0.037 A 
BRANCH  55  69
ATOM     69  C   UNL A   1      43.845  28.036  35.408  1.00  0.00     0.058 A 
ATOM     70  C   UNL A   1      43.515  26.941  36.224  1.00  0.00     0.135 A 
ATOM     71  C   UNL A   1      45.206  28.309  35.202  1.00  0.00     0.135 A 
ATOM     72  F   UNL A   1      42.229  26.646  36.473  1.00  0.00    -0.206 F 
ATOM     73  C   UNL A   1      44.495  26.169  36.841  1.00  0.00     0.059 A 
ATOM     74  C   UNL A   1      46.205  27.533  35.786  1.00  0.00     0.059 A 
ATOM     75  F   UNL A   1      45.580  29.347  34.438  1.00  0.00    -0.206 F 
ATOM     76  C   UNL A   1      45.838  26.476  36.618  1.00  0.00     0.060 A 
BRANCH  76  77
ATOM     77  S   UNL A   1      47.097  25.470  37.430  1.00  0.00     0.124 S 
ATOM     78  O   UNL A   1      46.498  24.141  37.359  1.00  0.00    -0.237 OA
ATOM     79  O   UNL A   1      48.265  25.683  36.580  1.00  0.00    -0.237 OA
ATOM     80  O   UNL A   1      47.186  26.049  38.766  1.00  0.00    -0.744 OA
ENDBRANCH  76  77
ENDBRANCH  55  69
BRANCH  56  81
ATOM     81  C   UNL A   1      36.489  33.255  30.852  1.00  0.00     0.058 A 
ATOM     82  C   UNL A   1      35.184  33.152  31.356  1.00  0.00     0.135 A 
ATOM     83  C   UNL A   1      36.701  34.106  29.758  1.00  0.00     0.135 A 
ATOM     84  F   UNL A   1      34.933  32.355  32.406  1.00  0.00    -0.206 F 
ATOM     85  C   UNL A   1      34.126  33.855  30.791  1.00  0.00     0.059 A 
ATOM     86  C   UNL A   1      35.663  34.837  29.187  1.00  0.00     0.059 A 
ATOM     87  F   UNL A   1      37.937  34.263  29.256  1.00  0.00    -0.206 F 
ATOM     88  C   UNL A   1      34.377  34.698  29.706  1.00  0.00     0.060 A 
BRANCH  88  89
ATOM     89  S   UNL A   1      33.004  35.650  29.019  1.00  0.00     0.124 S 
ATOM     90  O   UNL A   1      33.708  36.735  28.345  1.00  0.00    -0.237 OA
ATOM     91  O   UNL A   1      32.355  34.672  28.151  1.00  0.00    -0.237 OA
ATOM     92  O   UNL A   1      32.237  36.032  30.202  1.00  0.00    -0.744 OA
ENDBRANCH  88  89
ENDBRANCH  56  81
BRANCH  68  93
ATOM     93  C   UNL A   1      39.949  33.917  36.891  1.00  0.00     0.058 A 
ATOM     94  C   UNL A   1      40.589  35.159  36.785  1.00  0.00     0.135 A 
ATOM     95  C   UNL A   1      39.134  33.681  38.009  1.00  0.00     0.135 A 
ATOM     96  F   UNL A   1      41.383  35.424  35.735  1.00  0.00    -0.206 F 
ATOM     97  C   UNL A   1      40.422  36.140  37.755  1.00  0.00     0.059 A 
ATOM     98  C   UNL A   1      38.936  34.655  38.979  1.00  0.00     0.059 A 
ATOM     99  F   UNL A   1      38.496  32.508  38.146  1.00  0.00    -0.206 F 
ATOM    100  C   UNL A   1      39.584  35.882  38.842  1.00  0.00     0.060 A 
BRANCH 100 101
ATOM    101  S   UNL A   1      39.305  37.195  40.048  1.00  0.00     0.124 S 
ATOM    102  O   UNL A   1      38.532  38.153  39.263  1.00  0.00    -0.237 OA
ATOM    103  O   UNL A   1      38.571  36.499  41.101  1.00  0.00    -0.237 OA
ATOM    104  O   UNL A   1      40.654  37.617  40.407  1.00  0.00    -0.744 OA
ENDBRANCH 100 101
ENDBRANCH  68  93
ENDBRANCH  42  43
ENDBRANCH  34  37
ENDBRANCH   1  33
TORSDOF 16
ENDMDL
MODEL 3
REMARK VINA RESULT:     -14.9      1.378      2.183
REMARK SMILES COc1ccc(/C=C2/C(=O)N(c3ccccc3)C(=O)[NH+]=C2NCCCNC(=O)c2ccc(-c3c4nc(c(-c5c(F)cc(S(=O)(=O)[O-])cc5F)c5ccc([nH]5)c(-c5c(F)cc(S(=O)(=O)[O-])cc5F)c5nc(c(-c6c(F)cc(S(=O)(=O)[O-])cc6F)c6ccc3[nH]6)C=C5)C=C4)cc2)cc1C(=O)[O-]
REMARK SMILES IDX 25 1 24 2 23 3 22 4 7 5 8 6 9 7 21 8 10 9 11 10 20 11 18 12
REMARK SMILES IDX 19 15 6 16 3 17 4 18 96 19 5 20 95 21 2 22 1 23 97 24 98 25
REMARK SMILES IDX 99 26 12 27 13 28 17 29 14 30 16 31 15 32 26 33 27 34 28 36
REMARK SMILES IDX 29 37 30 38 94 39 31 40 93 41 32 42 33 43 34 44 87 45 35 46
REMARK SMILES IDX 92 47 86 48 88 49 36 50 91 51 85 52 84 53 37 55 71 56 50 57
REMARK SMILES IDX 70 58 51 59 54 60 69 61 89 62 52 63 53 64 68 66 90 67 55 68
REMARK SMILES IDX 38 69 39 70 48 71 40 72 41 73 47 74 49 75 42 76 43 77 44 78
REMARK SMILES IDX 45 79 46 80 72 81 73 82 82 83 74 84 75 85 81 86 83 87 76 88
REMARK SMILES IDX 77 89 78 90 79 91 80 92 56 93 57 94 66 95 58 96 59 97 65 98
REMARK SMILES IDX 67 99 60 100 61 101 62 102 63 103 64 104
REMARK H PARENT 20 13 22 14 26 35 88 54 54 65
REMARK Flexibility Score: inf
ROOT
ATOM      1  C   UNL A   1      34.641  29.155  27.229  1.00  0.00     0.119 C 
ENDROOT
BRANCH   1   2
ATOM      2  C   UNL A   1      33.502  28.836  25.922  1.00  0.00     0.059 C 
BRANCH   2   3
ATOM      3  C   UNL A   1      32.422  27.070  25.187  1.00  0.00     0.195 C 
BRANCH   3   4
ATOM      4  N   UNL A   1      32.260  25.604  25.857  1.00  0.00    -0.305 N 
ATOM      5  C   UNL A   1      32.224  25.050  22.866  1.00  0.00     0.030 C 
ATOM      6  C   UNL A   1      32.512  24.135  23.804  1.00  0.00     0.129 C 
ATOM      7  C   UNL A   1      33.040  22.794  23.481  1.00  0.00     0.328 C 
ATOM      8  C   UNL A   1      32.213  24.370  25.241  1.00  0.00     0.236 C 
ATOM      9  O   UNL A   1      33.771  22.613  22.512  1.00  0.00    -0.249 OA
ATOM     10  N   UNL A   1      32.579  21.830  24.366  1.00  0.00    -0.155 N 
ATOM     11  N   UNL A   1      31.803  23.369  25.968  1.00  0.00    -0.209 N 
ATOM     12  C   UNL A   1      31.652  22.145  25.355  1.00  0.00     0.448 C 
ATOM     13  H   UNL A   1      31.608  23.485  26.925  1.00  0.00     0.270 HD
ATOM     14  H   UNL A   1      32.185  25.592  26.838  1.00  0.00     0.256 HD
ATOM     15  O   UNL A   1      30.742  21.388  25.685  1.00  0.00    -0.212 OA
BRANCH   5  16
ATOM     16  C   UNL A   1      31.738  26.344  23.346  1.00  0.00    -0.024 A 
ATOM     17  C   UNL A   1      29.877  29.400  22.843  1.00  0.00     0.127 A 
ATOM     18  C   UNL A   1      31.640  29.343  22.452  1.00  0.00     0.048 A 
ATOM     19  C   UNL A   1      29.042  27.912  23.403  1.00  0.00     0.040 A 
ATOM     20  C   UNL A   1      32.608  27.849  22.821  1.00  0.00     0.012 A 
ATOM     21  C   UNL A   1      29.971  26.410  23.703  1.00  0.00     0.022 A 
BRANCH  17  22
ATOM     22  O   UNL A   1      29.235  30.587  22.659  1.00  0.00    -0.496 OA
ATOM     23  C   UNL A   1      28.774  30.708  21.310  1.00  0.00     0.278 C 
ENDBRANCH  17  22
BRANCH  19  24
ATOM     24  C   UNL A   1      27.597  27.845  23.584  1.00  0.00     0.075 C 
ATOM     25  O   UNL A   1      26.792  28.631  23.130  1.00  0.00    -0.545 OA
ATOM     26  O   UNL A   1      27.271  26.708  24.210  1.00  0.00    -0.545 OA
ENDBRANCH  19  24
ENDBRANCH   5  16
BRANCH  10  27
ATOM     27  C   UNL A   1      32.903  20.477  24.131  1.00  0.00     0.111 A 
ATOM     28  C   UNL A   1      33.947  19.849  24.812  1.00  0.00     0.044 A 
ATOM     29  C   UNL A   1      32.173  19.778  23.162  1.00  0.00     0.044 A 
ATOM     30  C   UNL A   1      34.251  18.516  24.532  1.00  0.00     0.004 A 
ATOM     31  C   UNL A   1      32.495  18.455  22.868  1.00  0.00     0.004 A 
ATOM     32  C   UNL A   1      33.528  17.822  23.559  1.00  0.00     0.000 A 
ENDBRANCH  10  27
ENDBRANCH   3   4
ENDBRANCH   2   3
ENDBRANCH   1   2
BRANCH   1  33
ATOM     33  N   UNL A   1      34.471  30.330  28.103  1.00  0.00    -0.352 N 
ATOM     34  C   UNL A   1      35.242  30.853  29.096  1.00  0.00     0.251 C 
ATOM     35  H   UNL A   1      33.641  30.833  27.937  1.00  0.00     0.163 HD
ATOM     36  O   UNL A   1      34.799  31.711  29.851  1.00  0.00    -0.269 OA
BRANCH  34  37
ATOM     37  C   UNL A   1      36.627  30.414  29.205  1.00  0.00     0.039 A 
ATOM     38  C   UNL A   1      37.100  29.907  30.416  1.00  0.00     0.014 A 
ATOM     39  C   UNL A   1      37.446  30.550  28.083  1.00  0.00     0.014 A 
ATOM     40  C   UNL A   1      38.418  29.478  30.488  1.00  0.00     0.010 A 
ATOM     41  C   UNL A   1      38.735  30.074  28.139  1.00  0.00     0.010 A 
ATOM     42  C   UNL A   1      39.225  29.550  29.345  1.00  0.00    -0.014 A 
BRANCH  42  43
ATOM     43  C   UNL A   1      40.636  29.143  29.357  1.00  0.00     0.031 A 
ATOM     44  C   UNL A   1      41.666  30.206  29.575  1.00  0.00     0.074 A 
ATOM     45  C   UNL A   1      40.944  27.887  29.000  1.00  0.00     0.049 A 
ATOM     46  N   UNL A   1      42.953  30.157  29.382  1.00  0.00    -0.248 NA
ATOM     47  C   UNL A   1      41.168  31.522  30.018  1.00  0.00     0.031 C 
ATOM     48  C   UNL A   1      39.974  26.824  28.722  1.00  0.00     0.029 A 
ATOM     49  N   UNL A   1      42.157  27.304  28.765  1.00  0.00    -0.354 N 
ATOM     50  C   UNL A   1      43.417  31.439  29.649  1.00  0.00     0.074 A 
ATOM     51  C   UNL A   1      42.269  32.256  29.974  1.00  0.00     0.031 C 
ATOM     52  C   UNL A   1      40.634  25.718  28.341  1.00  0.00     0.029 A 
ATOM     53  C   UNL A   1      42.062  26.010  28.315  1.00  0.00     0.049 A 
ATOM     54  H   UNL A   1      43.016  27.766  28.904  1.00  0.00     0.167 HD
ATOM     55  C   UNL A   1      44.695  31.878  29.633  1.00  0.00     0.037 A 
ATOM     56  C   UNL A   1      43.033  25.171  27.909  1.00  0.00     0.037 A 
ATOM     57  C   UNL A   1      45.806  31.021  29.323  1.00  0.00     0.049 A 
ATOM     58  C   UNL A   1      44.451  25.670  27.940  1.00  0.00     0.074 A 
ATOM     59  C   UNL A   1      47.155  31.319  29.319  1.00  0.00     0.029 A 
ATOM     60  N   UNL A   1      45.685  29.684  28.965  1.00  0.00    -0.354 N 
ATOM     61  N   UNL A   1      44.892  26.869  28.246  1.00  0.00    -0.248 NA
ATOM     62  C   UNL A   1      45.503  24.712  27.584  1.00  0.00     0.031 C 
ATOM     63  C   UNL A   1      47.848  30.166  28.938  1.00  0.00     0.029 A 
ATOM     64  C   UNL A   1      46.934  29.139  28.740  1.00  0.00     0.049 A 
ATOM     65  H   UNL A   1      44.834  29.195  28.885  1.00  0.00     0.167 HD
ATOM     66  C   UNL A   1      46.275  26.801  28.155  1.00  0.00     0.074 A 
ATOM     67  C   UNL A   1      46.597  25.443  27.761  1.00  0.00     0.031 C 
ATOM     68  C   UNL A   1      47.199  27.769  28.377  1.00  0.00     0.037 A 
BRANCH  55  69
ATOM     69  C   UNL A   1      44.939  33.324  29.961  1.00  0.00     0.058 A 
ATOM     70  C   UNL A   1      45.151  33.751  31.283  1.00  0.00     0.135 A 
ATOM     71  C   UNL A   1      44.955  34.298  28.951  1.00  0.00     0.135 A 
ATOM     72  F   UNL A   1      45.124  32.866  32.292  1.00  0.00    -0.206 F 
ATOM     73  C   UNL A   1      45.336  35.094  31.595  1.00  0.00     0.059 A 
ATOM     74  C   UNL A   1      45.167  35.645  29.236  1.00  0.00     0.059 A 
ATOM     75  F   UNL A   1      44.751  33.950  27.671  1.00  0.00    -0.206 F 
ATOM     76  C   UNL A   1      45.338  36.035  30.564  1.00  0.00     0.060 A 
BRANCH  76  77
ATOM     77  S   UNL A   1      45.573  37.774  30.986  1.00  0.00     0.124 S 
ATOM     78  O   UNL A   1      44.209  38.284  30.887  1.00  0.00    -0.237 OA
ATOM     79  O   UNL A   1      46.123  37.698  32.336  1.00  0.00    -0.237 OA
ATOM     80  O   UNL A   1      46.498  38.250  29.963  1.00  0.00    -0.744 OA
ENDBRANCH  76  77
ENDBRANCH  55  69
BRANCH  56  81
ATOM     81  C   UNL A   1      42.691  23.787  27.492  1.00  0.00     0.058 A 
ATOM     82  C   UNL A   1      42.555  23.466  26.134  1.00  0.00     0.135 A 
ATOM     83  C   UNL A   1      42.550  22.750  28.426  1.00  0.00     0.135 A 
ATOM     84  F   UNL A   1      42.689  24.423  25.203  1.00  0.00    -0.206 F 
ATOM     85  C   UNL A   1      42.277  22.169  25.715  1.00  0.00     0.059 A 
ATOM     86  C   UNL A   1      42.291  21.440  28.032  1.00  0.00     0.059 A 
ATOM     87  F   UNL A   1      42.700  22.999  29.737  1.00  0.00    -0.206 F 
ATOM     88  C   UNL A   1      42.149  21.162  26.674  1.00  0.00     0.060 A 
BRANCH  88  89
ATOM     89  S   UNL A   1      41.845  19.472  26.112  1.00  0.00     0.124 S 
ATOM     90  O   UNL A   1      40.425  19.522  25.786  1.00  0.00    -0.237 OA
ATOM     91  O   UNL A   1      42.758  19.355  24.980  1.00  0.00    -0.237 OA
ATOM     92  O   UNL A   1      42.198  18.665  27.277  1.00  0.00    -0.744 OA
ENDBRANCH  88  89
ENDBRANCH  56  81
BRANCH  68  93
ATOM     93  C   UNL A   1      48.641  27.379  28.253  1.00  0.00     0.058 A 
ATOM     94  C   UNL A   1      49.340  27.533  27.049  1.00  0.00     0.135 A 
ATOM     95  C   UNL A   1      49.352  26.956  29.387  1.00  0.00     0.135 A 
ATOM     96  F   UNL A   1      48.696  27.927  25.938  1.00  0.00    -0.206 F 
ATOM     97  C   UNL A   1      50.704  27.283  26.972  1.00  0.00     0.059 A 
ATOM     98  C   UNL A   1      50.720  26.723  29.338  1.00  0.00     0.059 A 
ATOM     99  F   UNL A   1      48.722  26.804  30.563  1.00  0.00    -0.206 F 
ATOM    100  C   UNL A   1      51.388  26.889  28.125  1.00  0.00     0.060 A 
BRANCH 100 101
ATOM    101  S   UNL A   1      53.174  26.655  28.033  1.00  0.00     0.124 S 
ATOM    102  O   UNL A   1      53.499  26.334  29.419  1.00  0.00    -0.237 OA
ATOM    103  O   UNL A   1      53.294  25.553  27.081  1.00  0.00    -0.237 OA
ATOM    104  O   UNL A   1      53.660  27.944  27.554  1.00  0.00    -0.744 OA
ENDBRANCH 100 101
ENDBRANCH  68  93
ENDBRANCH  42  43
ENDBRANCH  34  37
ENDBRANCH   1  33
TORSDOF 16
ENDMDL
