MODEL 1
REMARK VINA RESULT:     -12.1      0.000      0.000
REMARK SMILES C/C=C(\C)[C@H]1C(C)=C[C@H]2CC[C@@H](OS(=O)(=O)[O-])[C@@H](C)[C@H]2[C@H]1/C=C/C=C/C(=O)NCCCNC(=O)c1ccc(-c2c3nc(c(-c4c(F)cc(S(=O)(=O)[O-])cc4F)c4ccc([nH]4)c(-c4c(F)cc(S(=O)(=O)[O-])cc4F)c4nc(c(-c5c(F)cc(S(=O)(=O)[O-])cc5F)c5ccc2[nH]5)C=C4)C=C3)cc1
REMARK SMILES IDX 29 1 28 2 26 3 27 4 25 6 24 7 23 8 22 9 21 10 5 11 6 12 7 13
REMARK SMILES IDX 8 14 20 15 9 16 18 17 10 18 12 19 19 20 11 21 3 22 1 23 2 24
REMARK SMILES IDX 4 25 13 26 14 27 15 28 16 29 17 30 30 31 31 32 32 33 33 34
REMARK SMILES IDX 34 36 35 37 36 38 100 39 37 40 99 41 38 42 39 43 40 44 93 45
REMARK SMILES IDX 41 46 98 47 92 48 94 49 42 50 97 51 91 52 90 53 43 55 77 56
REMARK SMILES IDX 56 57 76 58 57 59 60 60 75 61 95 62 58 63 59 64 74 66 96 67
REMARK SMILES IDX 61 68 44 69 45 70 54 71 46 72 47 73 53 74 55 75 48 76 49 77
REMARK SMILES IDX 50 78 51 79 52 80 78 81 79 82 88 83 80 84 81 85 87 86 89 87
REMARK SMILES IDX 82 88 83 89 84 90 85 91 86 92 62 93 63 94 72 95 64 96 65 97
REMARK SMILES IDX 71 98 73 99 66 100 67 101 68 102 69 103 70 104
REMARK H PARENT 28 5 32 35 94 54 60 65
REMARK Flexibility Score: inf
ROOT
ATOM      1  C   UNL A   1      39.313  22.356  26.195  1.00  0.00     0.118 C 
ENDROOT
BRANCH   1   2
ATOM      2  N   UNL A   1      38.399  21.258  25.902  1.00  0.00    -0.352 N 
ATOM      3  C   UNL A   1      37.333  21.134  25.066  1.00  0.00     0.243 C 
ATOM      4  O   UNL A   1      36.802  20.028  24.951  1.00  0.00    -0.270 OA
ATOM      5  H   UNL A   1      38.593  20.441  26.414  1.00  0.00     0.163 HD
BRANCH   3   6
ATOM      6  C   UNL A   1      36.820  22.251  24.236  1.00  0.00     0.071 C 
ATOM      7  C   UNL A   1      35.894  23.119  24.649  1.00  0.00     0.005 C 
BRANCH   7   8
ATOM      8  C   UNL A   1      35.324  24.219  23.909  1.00  0.00    -0.004 C 
ATOM      9  C   UNL A   1      34.171  24.724  24.375  1.00  0.00    -0.022 C 
BRANCH   9  10
ATOM     10  C   UNL A   1      33.189  25.625  23.669  1.00  0.00     0.027 C 
ATOM     11  C   UNL A   1      31.688  25.059  23.687  1.00  0.00     0.047 C 
ATOM     12  C   UNL A   1      30.615  26.147  23.779  1.00  0.00    -0.069 C 
ATOM     13  C   UNL A   1      29.166  25.739  23.871  1.00  0.00     0.040 C 
ATOM     14  C   UNL A   1      30.909  27.459  23.672  1.00  0.00    -0.024 C 
ATOM     15  C   UNL A   1      33.376  27.105  24.123  1.00  0.00     0.009 C 
ATOM     16  C   UNL A   1      32.297  27.998  23.469  1.00  0.00     0.016 C 
ATOM     17  C   UNL A   1      33.591  27.381  25.651  1.00  0.00     0.021 C 
ATOM     18  C   UNL A   1      32.432  29.476  23.880  1.00  0.00     0.011 C 
ATOM     19  C   UNL A   1      33.798  28.894  25.896  1.00  0.00     0.141 C 
ATOM     20  C   UNL A   1      32.527  26.806  26.596  1.00  0.00     0.011 C 
ATOM     21  C   UNL A   1      32.607  29.692  25.377  1.00  0.00     0.034 C 
BRANCH  11  22
ATOM     22  C   UNL A   1      31.476  23.784  24.562  1.00  0.00    -0.070 C 
ATOM     23  C   UNL A   1      30.547  22.860  26.773  1.00  0.00     0.035 C 
ATOM     24  C   UNL A   1      30.985  23.926  25.817  1.00  0.00    -0.031 C 
ATOM     25  C   UNL A   1      31.760  22.415  24.005  1.00  0.00     0.040 C 
ENDBRANCH  11  22
BRANCH  19  26
ATOM     26  O   UNL A   1      33.954  29.123  27.290  1.00  0.00    -0.276 OA
BRANCH  26  27
ATOM     27  S   UNL A   1      35.153  30.073  27.815  1.00  0.00     0.217 S 
ATOM     28  O   UNL A   1      35.295  29.911  29.247  1.00  0.00    -0.213 OA
ATOM     29  O   UNL A   1      36.285  29.935  26.933  1.00  0.00    -0.213 OA
ATOM     30  O   UNL A   1      34.566  31.552  27.575  1.00  0.00    -0.726 OA
ENDBRANCH  26  27
ENDBRANCH  19  26
ENDBRANCH   9  10
ENDBRANCH   7   8
ENDBRANCH   3   6
ENDBRANCH   1   2
BRANCH   1  31
ATOM     31  C   UNL A   1      40.568  21.863  26.921  1.00  0.00     0.042 C 
BRANCH  31  32
ATOM     32  C   UNL A   1      41.471  22.999  27.401  1.00  0.00     0.118 C 
BRANCH  32  33
ATOM     33  N   UNL A   1      41.893  23.854  26.300  1.00  0.00    -0.352 N 
ATOM     34  C   UNL A   1      41.870  25.216  26.158  1.00  0.00     0.251 C 
ATOM     35  H   UNL A   1      42.258  23.370  25.525  1.00  0.00     0.163 HD
ATOM     36  O   UNL A   1      42.043  25.691  25.038  1.00  0.00    -0.269 OA
BRANCH  34  37
ATOM     37  C   UNL A   1      41.651  26.112  27.314  1.00  0.00     0.039 A 
ATOM     38  C   UNL A   1      40.508  25.915  28.096  1.00  0.00     0.014 A 
ATOM     39  C   UNL A   1      42.503  27.184  27.590  1.00  0.00     0.014 A 
ATOM     40  C   UNL A   1      40.238  26.773  29.162  1.00  0.00     0.010 A 
ATOM     41  C   UNL A   1      42.280  27.986  28.709  1.00  0.00     0.010 A 
ATOM     42  C   UNL A   1      41.134  27.803  29.494  1.00  0.00    -0.014 A 
BRANCH  42  43
ATOM     43  C   UNL A   1      40.866  28.682  30.661  1.00  0.00     0.031 A 
ATOM     44  C   UNL A   1      41.665  28.547  31.929  1.00  0.00     0.074 A 
ATOM     45  C   UNL A   1      39.883  29.599  30.577  1.00  0.00     0.049 A 
ATOM     46  N   UNL A   1      41.601  29.260  33.024  1.00  0.00    -0.248 NA
ATOM     47  C   UNL A   1      42.647  27.452  31.987  1.00  0.00     0.031 C 
ATOM     48  C   UNL A   1      38.993  29.774  29.427  1.00  0.00     0.029 A 
ATOM     49  N   UNL A   1      39.469  30.558  31.466  1.00  0.00    -0.354 N 
ATOM     50  C   UNL A   1      42.531  28.705  33.897  1.00  0.00     0.074 A 
ATOM     51  C   UNL A   1      43.090  27.549  33.232  1.00  0.00     0.031 C 
ATOM     52  C   UNL A   1      38.166  30.803  29.663  1.00  0.00     0.029 A 
ATOM     53  C   UNL A   1      38.440  31.337  30.994  1.00  0.00     0.049 A 
ATOM     54  H   UNL A   1      39.871  30.677  32.355  1.00  0.00     0.167 HD
ATOM     55  C   UNL A   1      42.907  29.137  35.124  1.00  0.00     0.037 A 
ATOM     56  C   UNL A   1      37.787  32.368  31.565  1.00  0.00     0.037 A 
ATOM     57  C   UNL A   1      42.337  30.290  35.777  1.00  0.00     0.049 A 
ATOM     58  C   UNL A   1      38.224  32.841  32.923  1.00  0.00     0.074 A 
ATOM     59  C   UNL A   1      42.669  30.839  37.003  1.00  0.00     0.029 A 
ATOM     60  N   UNL A   1      41.308  31.065  35.259  1.00  0.00    -0.354 N 
ATOM     61  N   UNL A   1      39.158  32.351  33.704  1.00  0.00    -0.248 NA
ATOM     62  C   UNL A   1      37.535  34.015  33.470  1.00  0.00     0.031 C 
ATOM     63  C   UNL A   1      41.806  31.911  37.251  1.00  0.00     0.029 A 
ATOM     64  C   UNL A   1      40.980  32.075  36.150  1.00  0.00     0.049 A 
ATOM     65  H   UNL A   1      40.876  30.919  34.388  1.00  0.00     0.167 HD
ATOM     66  C   UNL A   1      39.186  33.172  34.825  1.00  0.00     0.074 A 
ATOM     67  C   UNL A   1      38.184  34.198  34.612  1.00  0.00     0.031 C 
ATOM     68  C   UNL A   1      39.973  33.088  35.927  1.00  0.00     0.037 A 
BRANCH  55  69
ATOM     69  C   UNL A   1      43.981  28.354  35.836  1.00  0.00     0.058 A 
ATOM     70  C   UNL A   1      43.669  27.306  36.720  1.00  0.00     0.135 A 
ATOM     71  C   UNL A   1      45.340  28.651  35.636  1.00  0.00     0.135 A 
ATOM     72  F   UNL A   1      42.389  26.981  36.961  1.00  0.00    -0.206 F 
ATOM     73  C   UNL A   1      44.659  26.620  37.418  1.00  0.00     0.059 A 
ATOM     74  C   UNL A   1      46.348  27.952  36.296  1.00  0.00     0.059 A 
ATOM     75  F   UNL A   1      45.701  29.636  34.800  1.00  0.00    -0.206 F 
ATOM     76  C   UNL A   1      45.996  26.954  37.202  1.00  0.00     0.060 A 
BRANCH  76  77
ATOM     77  S   UNL A   1      47.264  26.074  38.138  1.00  0.00     0.124 S 
ATOM     78  O   UNL A   1      48.486  26.595  37.532  1.00  0.00    -0.237 OA
ATOM     79  O   UNL A   1      47.001  26.509  39.506  1.00  0.00    -0.237 OA
ATOM     80  O   UNL A   1      46.979  24.670  37.863  1.00  0.00    -0.744 OA
ENDBRANCH  76  77
ENDBRANCH  55  69
BRANCH  56  81
ATOM     81  C   UNL A   1      36.681  33.029  30.824  1.00  0.00     0.058 A 
ATOM     82  C   UNL A   1      35.342  32.855  31.201  1.00  0.00     0.135 A 
ATOM     83  C   UNL A   1      36.950  33.905  29.759  1.00  0.00     0.135 A 
ATOM     84  F   UNL A   1      35.031  32.026  32.210  1.00  0.00    -0.206 F 
ATOM     85  C   UNL A   1      34.308  33.523  30.553  1.00  0.00     0.059 A 
ATOM     86  C   UNL A   1      35.938  34.606  29.113  1.00  0.00     0.059 A 
ATOM     87  F   UNL A   1      38.216  34.122  29.372  1.00  0.00    -0.206 F 
ATOM     88  C   UNL A   1      34.618  34.405  29.515  1.00  0.00     0.060 A 
BRANCH  88  89
ATOM     89  S   UNL A   1      33.278  35.334  28.737  1.00  0.00     0.124 S 
ATOM     90  O   UNL A   1      34.017  36.314  27.951  1.00  0.00    -0.237 OA
ATOM     91  O   UNL A   1      32.586  34.295  27.982  1.00  0.00    -0.237 OA
ATOM     92  O   UNL A   1      32.536  35.869  29.875  1.00  0.00    -0.744 OA
ENDBRANCH  88  89
ENDBRANCH  56  81
BRANCH  68  93
ATOM     93  C   UNL A   1      39.811  34.155  36.976  1.00  0.00     0.058 A 
ATOM     94  C   UNL A   1      39.008  33.968  38.112  1.00  0.00     0.135 A 
ATOM     95  C   UNL A   1      40.506  35.371  36.860  1.00  0.00     0.135 A 
ATOM     96  F   UNL A   1      38.318  32.827  38.272  1.00  0.00    -0.206 F 
ATOM     97  C   UNL A   1      38.872  34.960  39.077  1.00  0.00     0.059 A 
ATOM     98  C   UNL A   1      40.412  36.364  37.830  1.00  0.00     0.059 A 
ATOM     99  F   UNL A   1      41.298  35.599  35.800  1.00  0.00    -0.206 F 
ATOM    100  C   UNL A   1      39.579  36.155  38.927  1.00  0.00     0.060 A 
BRANCH 100 101
ATOM    101  S   UNL A   1      39.407  37.427  40.197  1.00  0.00     0.124 S 
ATOM    102  O   UNL A   1      40.768  37.943  40.283  1.00  0.00    -0.237 OA
ATOM    103  O   UNL A   1      38.422  38.328  39.604  1.00  0.00    -0.237 OA
ATOM    104  O   UNL A   1      38.943  36.682  41.365  1.00  0.00    -0.744 OA
ENDBRANCH 100 101
ENDBRANCH  68  93
ENDBRANCH  42  43
ENDBRANCH  34  37
ENDBRANCH  32  33
ENDBRANCH  31  32
ENDBRANCH   1  31
TORSDOF 18
ENDMDL
MODEL 2
REMARK VINA RESULT:     -11.6      6.222     11.573
REMARK SMILES C/C=C(\C)[C@H]1C(C)=C[C@H]2CC[C@@H](OS(=O)(=O)[O-])[C@@H](C)[C@H]2[C@H]1/C=C/C=C/C(=O)NCCCNC(=O)c1ccc(-c2c3nc(c(-c4c(F)cc(S(=O)(=O)[O-])cc4F)c4ccc([nH]4)c(-c4c(F)cc(S(=O)(=O)[O-])cc4F)c4nc(c(-c5c(F)cc(S(=O)(=O)[O-])cc5F)c5ccc2[nH]5)C=C4)C=C3)cc1
REMARK SMILES IDX 29 1 28 2 26 3 27 4 25 6 24 7 23 8 22 9 21 10 5 11 6 12 7 13
REMARK SMILES IDX 8 14 20 15 9 16 18 17 10 18 12 19 19 20 11 21 3 22 1 23 2 24
REMARK SMILES IDX 4 25 13 26 14 27 15 28 16 29 17 30 30 31 31 32 32 33 33 34
REMARK SMILES IDX 34 36 35 37 36 38 100 39 37 40 99 41 38 42 39 43 40 44 93 45
REMARK SMILES IDX 41 46 98 47 92 48 94 49 42 50 97 51 91 52 90 53 43 55 77 56
REMARK SMILES IDX 56 57 76 58 57 59 60 60 75 61 95 62 58 63 59 64 74 66 96 67
REMARK SMILES IDX 61 68 44 69 45 70 54 71 46 72 47 73 53 74 55 75 48 76 49 77
REMARK SMILES IDX 50 78 51 79 52 80 78 81 79 82 88 83 80 84 81 85 87 86 89 87
REMARK SMILES IDX 82 88 83 89 84 90 85 91 86 92 62 93 63 94 72 95 64 96 65 97
REMARK SMILES IDX 71 98 73 99 66 100 67 101 68 102 69 103 70 104
REMARK H PARENT 28 5 32 35 94 54 60 65
REMARK Flexibility Score: inf
ROOT
ATOM      1  C   UNL A   1      33.828  31.505  28.045  1.00  0.00     0.118 C 
ENDROOT
BRANCH   1   2
ATOM      2  N   UNL A   1      32.833  31.505  26.980  1.00  0.00    -0.352 N 
ATOM      3  C   UNL A   1      31.992  30.554  26.491  1.00  0.00     0.243 C 
ATOM      4  O   UNL A   1      31.171  30.880  25.631  1.00  0.00    -0.270 OA
ATOM      5  H   UNL A   1      32.753  32.372  26.520  1.00  0.00     0.163 HD
BRANCH   3   6
ATOM      6  C   UNL A   1      31.973  29.157  26.989  1.00  0.00     0.071 C 
ATOM      7  C   UNL A   1      32.431  28.114  26.294  1.00  0.00     0.005 C 
BRANCH   7   8
ATOM      8  C   UNL A   1      32.436  26.726  26.688  1.00  0.00    -0.004 C 
ATOM      9  C   UNL A   1      32.834  25.839  25.762  1.00  0.00    -0.022 C 
BRANCH   9  10
ATOM     10  C   UNL A   1      32.645  24.343  25.753  1.00  0.00     0.027 C 
ATOM     11  C   UNL A   1      31.936  23.804  24.420  1.00  0.00     0.047 C 
ATOM     12  C   UNL A   1      32.430  22.428  23.966  1.00  0.00    -0.069 C 
ATOM     13  C   UNL A   1      31.887  21.842  22.687  1.00  0.00     0.040 C 
ATOM     14  C   UNL A   1      33.252  21.673  24.722  1.00  0.00    -0.024 C 
ATOM     15  C   UNL A   1      33.960  23.620  26.178  1.00  0.00     0.009 C 
ATOM     16  C   UNL A   1      33.781  22.089  26.066  1.00  0.00     0.016 C 
ATOM     17  C   UNL A   1      35.312  24.149  25.584  1.00  0.00     0.021 C 
ATOM     18  C   UNL A   1      35.051  21.319  26.474  1.00  0.00     0.011 C 
ATOM     19  C   UNL A   1      36.498  23.337  26.151  1.00  0.00     0.141 C 
ATOM     20  C   UNL A   1      35.384  24.241  24.053  1.00  0.00     0.011 C 
ATOM     21  C   UNL A   1      36.331  21.852  25.846  1.00  0.00     0.034 C 
BRANCH  11  22
ATOM     22  C   UNL A   1      31.722  24.878  23.308  1.00  0.00    -0.070 C 
ATOM     23  C   UNL A   1      32.576  25.816  21.072  1.00  0.00     0.035 C 
ATOM     24  C   UNL A   1      32.642  24.989  22.319  1.00  0.00    -0.031 C 
ATOM     25  C   UNL A   1      30.489  25.741  23.301  1.00  0.00     0.040 C 
ENDBRANCH  11  22
BRANCH  19  26
ATOM     26  O   UNL A   1      37.707  23.809  25.572  1.00  0.00    -0.276 OA
BRANCH  26  27
ATOM     27  S   UNL A   1      39.019  23.995  26.498  1.00  0.00     0.217 S 
ATOM     28  O   UNL A   1      39.505  22.692  26.901  1.00  0.00    -0.213 OA
ATOM     29  O   UNL A   1      39.897  24.961  25.885  1.00  0.00    -0.213 OA
ATOM     30  O   UNL A   1      38.425  24.695  27.819  1.00  0.00    -0.726 OA
ENDBRANCH  26  27
ENDBRANCH  19  26
ENDBRANCH   9  10
ENDBRANCH   7   8
ENDBRANCH   3   6
ENDBRANCH   1   2
BRANCH   1  31
ATOM     31  C   UNL A   1      35.103  30.770  27.623  1.00  0.00     0.042 C 
BRANCH  31  32
ATOM     32  C   UNL A   1      35.661  29.856  28.714  1.00  0.00     0.118 C 
BRANCH  32  33
ATOM     33  N   UNL A   1      35.803  30.556  29.983  1.00  0.00    -0.352 N 
ATOM     34  C   UNL A   1      36.865  30.659  30.840  1.00  0.00     0.251 C 
ATOM     35  H   UNL A   1      34.996  31.038  30.275  1.00  0.00     0.163 HD
ATOM     36  O   UNL A   1      36.665  31.093  31.972  1.00  0.00    -0.269 OA
BRANCH  34  37
ATOM     37  C   UNL A   1      38.232  30.269  30.430  1.00  0.00     0.039 A 
ATOM     38  C   UNL A   1      38.616  30.496  29.105  1.00  0.00     0.014 A 
ATOM     39  C   UNL A   1      39.106  29.613  31.301  1.00  0.00     0.014 A 
ATOM     40  C   UNL A   1      39.876  30.093  28.667  1.00  0.00     0.010 A 
ATOM     41  C   UNL A   1      40.397  29.291  30.887  1.00  0.00     0.010 A 
ATOM     42  C   UNL A   1      40.789  29.507  29.560  1.00  0.00    -0.014 A 
BRANCH  42  43
ATOM     43  C   UNL A   1      42.148  29.126  29.098  1.00  0.00     0.031 A 
ATOM     44  C   UNL A   1      42.431  27.736  28.596  1.00  0.00     0.074 A 
ATOM     45  C   UNL A   1      43.137  30.040  29.146  1.00  0.00     0.049 A 
ATOM     46  N   UNL A   1      43.542  27.244  28.109  1.00  0.00    -0.248 NA
ATOM     47  C   UNL A   1      41.332  26.760  28.675  1.00  0.00     0.031 C 
ATOM     48  C   UNL A   1      43.001  31.397  29.680  1.00  0.00     0.029 A 
ATOM     49  N   UNL A   1      44.444  29.974  28.737  1.00  0.00    -0.354 N 
ATOM     50  C   UNL A   1      43.276  25.910  27.822  1.00  0.00     0.074 A 
ATOM     51  C   UNL A   1      41.924  25.649  28.262  1.00  0.00     0.031 C 
ATOM     52  C   UNL A   1      44.164  32.047  29.531  1.00  0.00     0.029 A 
ATOM     53  C   UNL A   1      45.139  31.145  28.926  1.00  0.00     0.049 A 
ATOM     54  H   UNL A   1      44.846  29.166  28.346  1.00  0.00     0.167 HD
ATOM     55  C   UNL A   1      44.074  24.996  27.219  1.00  0.00     0.037 A 
ATOM     56  C   UNL A   1      46.418  31.461  28.642  1.00  0.00     0.037 A 
ATOM     57  C   UNL A   1      45.423  25.269  26.789  1.00  0.00     0.049 A 
ATOM     58  C   UNL A   1      47.285  30.439  27.964  1.00  0.00     0.074 A 
ATOM     59  C   UNL A   1      46.307  24.429  26.135  1.00  0.00     0.029 A 
ATOM     60  N   UNL A   1      46.087  26.474  26.982  1.00  0.00    -0.354 N 
ATOM     61  N   UNL A   1      46.994  29.203  27.631  1.00  0.00    -0.248 NA
ATOM     62  C   UNL A   1      48.646  30.856  27.607  1.00  0.00     0.031 C 
ATOM     63  C   UNL A   1      47.521  25.106  25.981  1.00  0.00     0.029 A 
ATOM     64  C   UNL A   1      47.375  26.392  26.477  1.00  0.00     0.049 A 
ATOM     65  H   UNL A   1      45.699  27.269  27.413  1.00  0.00     0.167 HD
ATOM     66  C   UNL A   1      48.127  28.702  27.002  1.00  0.00     0.074 A 
ATOM     67  C   UNL A   1      49.103  29.774  26.990  1.00  0.00     0.031 C 
ATOM     68  C   UNL A   1      48.339  27.468  26.477  1.00  0.00     0.037 A 
BRANCH  55  69
ATOM     69  C   UNL A   1      43.504  23.618  26.996  1.00  0.00     0.058 A 
ATOM     70  C   UNL A   1      43.417  22.676  28.036  1.00  0.00     0.135 A 
ATOM     71  C   UNL A   1      43.037  23.230  25.729  1.00  0.00     0.135 A 
ATOM     72  F   UNL A   1      43.857  22.984  29.267  1.00  0.00    -0.206 F 
ATOM     73  C   UNL A   1      42.941  21.386  27.816  1.00  0.00     0.059 A 
ATOM     74  C   UNL A   1      42.523  21.956  25.496  1.00  0.00     0.059 A 
ATOM     75  F   UNL A   1      43.088  24.086  24.697  1.00  0.00    -0.206 F 
ATOM     76  C   UNL A   1      42.500  21.035  26.541  1.00  0.00     0.060 A 
BRANCH  76  77
ATOM     77  S   UNL A   1      41.914  19.350  26.267  1.00  0.00     0.124 S 
ATOM     78  O   UNL A   1      40.480  19.565  26.095  1.00  0.00    -0.237 OA
ATOM     79  O   UNL A   1      42.644  18.957  25.066  1.00  0.00    -0.237 OA
ATOM     80  O   UNL A   1      42.300  18.651  27.488  1.00  0.00    -0.744 OA
ENDBRANCH  76  77
ENDBRANCH  55  69
BRANCH  56  81
ATOM     81  C   UNL A   1      46.922  32.819  28.976  1.00  0.00     0.058 A 
ATOM     82  C   UNL A   1      47.568  33.081  30.192  1.00  0.00     0.135 A 
ATOM     83  C   UNL A   1      46.825  33.870  28.049  1.00  0.00     0.135 A 
ATOM     84  F   UNL A   1      47.682  32.111  31.113  1.00  0.00    -0.206 F 
ATOM     85  C   UNL A   1      48.100  34.334  30.481  1.00  0.00     0.059 A 
ATOM     86  C   UNL A   1      47.373  35.123  28.302  1.00  0.00     0.059 A 
ATOM     87  F   UNL A   1      46.234  33.666  26.862  1.00  0.00    -0.206 F 
ATOM     88  C   UNL A   1      48.006  35.346  29.524  1.00  0.00     0.060 A 
BRANCH  88  89
ATOM     89  S   UNL A   1      48.776  36.943  29.872  1.00  0.00     0.124 S 
ATOM     90  O   UNL A   1      47.963  37.844  29.066  1.00  0.00    -0.237 OA
ATOM     91  O   UNL A   1      48.611  37.052  31.318  1.00  0.00    -0.237 OA
ATOM     92  O   UNL A   1      50.152  36.758  29.419  1.00  0.00    -0.744 OA
ENDBRANCH  88  89
ENDBRANCH  56  81
BRANCH  68  93
ATOM     93  C   UNL A   1      49.665  27.219  25.810  1.00  0.00     0.058 A 
ATOM     94  C   UNL A   1      49.860  27.435  24.437  1.00  0.00     0.135 A 
ATOM     95  C   UNL A   1      50.770  26.795  26.568  1.00  0.00     0.135 A 
ATOM     96  F   UNL A   1      48.839  27.836  23.663  1.00  0.00    -0.206 F 
ATOM     97  C   UNL A   1      51.093  27.207  23.833  1.00  0.00     0.059 A 
ATOM     98  C   UNL A   1      52.019  26.593  25.992  1.00  0.00     0.059 A 
ATOM     99  F   UNL A   1      50.643  26.584  27.888  1.00  0.00    -0.206 F 
ATOM    100  C   UNL A   1      52.167  26.787  24.620  1.00  0.00     0.060 A 
BRANCH 100 101
ATOM    101  S   UNL A   1      53.765  26.512  23.826  1.00  0.00     0.124 S 
ATOM    102  O   UNL A   1      53.361  26.002  22.521  1.00  0.00    -0.237 OA
ATOM    103  O   UNL A   1      54.351  27.849  23.833  1.00  0.00    -0.237 OA
ATOM    104  O   UNL A   1      54.418  25.543  24.703  1.00  0.00    -0.744 OA
ENDBRANCH 100 101
ENDBRANCH  68  93
ENDBRANCH  42  43
ENDBRANCH  34  37
ENDBRANCH  32  33
ENDBRANCH  31  32
ENDBRANCH   1  31
TORSDOF 18
ENDMDL
MODEL 3
REMARK VINA RESULT:     -11.5      4.177      8.120
REMARK SMILES C/C=C(\C)[C@H]1C(C)=C[C@H]2CC[C@@H](OS(=O)(=O)[O-])[C@@H](C)[C@H]2[C@H]1/C=C/C=C/C(=O)NCCCNC(=O)c1ccc(-c2c3nc(c(-c4c(F)cc(S(=O)(=O)[O-])cc4F)c4ccc([nH]4)c(-c4c(F)cc(S(=O)(=O)[O-])cc4F)c4nc(c(-c5c(F)cc(S(=O)(=O)[O-])cc5F)c5ccc2[nH]5)C=C4)C=C3)cc1
REMARK SMILES IDX 29 1 28 2 26 3 27 4 25 6 24 7 23 8 22 9 21 10 5 11 6 12 7 13
REMARK SMILES IDX 8 14 20 15 9 16 18 17 10 18 12 19 19 20 11 21 3 22 1 23 2 24
REMARK SMILES IDX 4 25 13 26 14 27 15 28 16 29 17 30 30 31 31 32 32 33 33 34
REMARK SMILES IDX 34 36 35 37 36 38 100 39 37 40 99 41 38 42 39 43 40 44 93 45
REMARK SMILES IDX 41 46 98 47 92 48 94 49 42 50 97 51 91 52 90 53 43 55 77 56
REMARK SMILES IDX 56 57 76 58 57 59 60 60 75 61 95 62 58 63 59 64 74 66 96 67
REMARK SMILES IDX 61 68 44 69 45 70 54 71 46 72 47 73 53 74 55 75 48 76 49 77
REMARK SMILES IDX 50 78 51 79 52 80 78 81 79 82 88 83 80 84 81 85 87 86 89 87
REMARK SMILES IDX 82 88 83 89 84 90 85 91 86 92 62 93 63 94 72 95 64 96 65 97
REMARK SMILES IDX 71 98 73 99 66 100 67 101 68 102 69 103 70 104
REMARK H PARENT 28 5 32 35 94 54 60 65
REMARK Flexibility Score: inf
ROOT
ATOM      1  C   UNL A   1      42.428  20.808  26.931  1.00  0.00     0.118 C 
ENDROOT
BRANCH   1   2
ATOM      2  N   UNL A   1      43.214  19.952  26.050  1.00  0.00    -0.352 N 
ATOM      3  C   UNL A   1      44.225  20.197  25.173  1.00  0.00     0.243 C 
ATOM      4  O   UNL A   1      44.778  19.240  24.629  1.00  0.00    -0.270 OA
ATOM      5  H   UNL A   1      42.961  19.002  26.099  1.00  0.00     0.163 HD
BRANCH   3   6
ATOM      6  C   UNL A   1      44.738  21.560  24.890  1.00  0.00     0.071 C 
ATOM      7  C   UNL A   1      45.656  22.178  25.636  1.00  0.00     0.005 C 
BRANCH   7   8
ATOM      8  C   UNL A   1      46.198  23.503  25.450  1.00  0.00    -0.004 C 
ATOM      9  C   UNL A   1      46.184  24.314  26.519  1.00  0.00    -0.022 C 
BRANCH   9  10
ATOM     10  C   UNL A   1      46.368  25.810  26.564  1.00  0.00     0.027 C 
ATOM     11  C   UNL A   1      45.858  26.468  27.934  1.00  0.00     0.047 C 
ATOM     12  C   UNL A   1      46.689  27.669  28.394  1.00  0.00    -0.069 C 
ATOM     13  C   UNL A   1      46.351  28.334  29.704  1.00  0.00     0.040 C 
ATOM     14  C   UNL A   1      47.645  28.222  27.620  1.00  0.00    -0.024 C 
ATOM     15  C   UNL A   1      47.805  26.202  26.100  1.00  0.00     0.009 C 
ATOM     16  C   UNL A   1      48.010  27.727  26.249  1.00  0.00     0.016 C 
ATOM     17  C   UNL A   1      49.005  25.342  26.630  1.00  0.00     0.021 C 
ATOM     18  C   UNL A   1      49.415  28.174  25.804  1.00  0.00     0.011 C 
ATOM     19  C   UNL A   1      50.334  25.856  26.031  1.00  0.00     0.141 C 
ATOM     20  C   UNL A   1      49.104  25.192  28.154  1.00  0.00     0.011 C 
ATOM     21  C   UNL A   1      50.546  27.327  26.371  1.00  0.00     0.034 C 
BRANCH  11  22
ATOM     22  C   UNL A   1      45.426  25.448  29.033  1.00  0.00    -0.070 C 
ATOM     23  C   UNL A   1      43.736  23.625  29.688  1.00  0.00     0.035 C 
ATOM     24  C   UNL A   1      44.270  24.759  28.868  1.00  0.00    -0.031 C 
ATOM     25  C   UNL A   1      46.302  25.191  30.230  1.00  0.00     0.040 C 
ENDBRANCH  11  22
BRANCH  19  26
ATOM     26  O   UNL A   1      51.409  25.087  26.553  1.00  0.00    -0.276 OA
BRANCH  26  27
ATOM     27  S   UNL A   1      52.825  25.057  25.772  1.00  0.00     0.217 S 
ATOM     28  O   UNL A   1      53.169  23.684  25.464  1.00  0.00    -0.213 OA
ATOM     29  O   UNL A   1      52.821  26.072  24.747  1.00  0.00    -0.213 OA
ATOM     30  O   UNL A   1      53.862  25.551  26.898  1.00  0.00    -0.726 OA
ENDBRANCH  26  27
ENDBRANCH  19  26
ENDBRANCH   9  10
ENDBRANCH   7   8
ENDBRANCH   3   6
ENDBRANCH   1   2
BRANCH   1  31
ATOM     31  C   UNL A   1      41.525  21.754  26.136  1.00  0.00     0.042 C 
BRANCH  31  32
ATOM     32  C   UNL A   1      41.538  23.188  26.669  1.00  0.00     0.118 C 
BRANCH  32  33
ATOM     33  N   UNL A   1      42.105  24.117  25.700  1.00  0.00    -0.352 N 
ATOM     34  C   UNL A   1      42.140  25.485  25.680  1.00  0.00     0.251 C 
ATOM     35  H   UNL A   1      42.536  23.687  24.927  1.00  0.00     0.163 HD
ATOM     36  O   UNL A   1      42.449  26.048  24.632  1.00  0.00    -0.269 OA
BRANCH  34  37
ATOM     37  C   UNL A   1      41.824  26.286  26.883  1.00  0.00     0.039 A 
ATOM     38  C   UNL A   1      42.545  27.464  27.102  1.00  0.00     0.014 A 
ATOM     39  C   UNL A   1      40.895  25.856  27.834  1.00  0.00     0.014 A 
ATOM     40  C   UNL A   1      42.314  28.218  28.252  1.00  0.00     0.010 A 
ATOM     41  C   UNL A   1      40.601  26.655  28.938  1.00  0.00     0.010 A 
ATOM     42  C   UNL A   1      41.322  27.833  29.170  1.00  0.00    -0.014 A 
BRANCH  42  43
ATOM     43  C   UNL A   1      41.047  28.668  30.368  1.00  0.00     0.031 A 
ATOM     44  C   UNL A   1      41.868  28.515  31.620  1.00  0.00     0.074 A 
ATOM     45  C   UNL A   1      40.038  29.560  30.326  1.00  0.00     0.049 A 
ATOM     46  N   UNL A   1      41.800  29.192  32.738  1.00  0.00    -0.248 NA
ATOM     47  C   UNL A   1      42.880  27.447  31.630  1.00  0.00     0.031 C 
ATOM     48  C   UNL A   1      39.127  29.746  29.195  1.00  0.00     0.029 A 
ATOM     49  N   UNL A   1      39.612  30.479  31.250  1.00  0.00    -0.354 N 
ATOM     50  C   UNL A   1      42.757  28.636  33.580  1.00  0.00     0.074 A 
ATOM     51  C   UNL A   1      43.338  27.517  32.871  1.00  0.00     0.031 C 
ATOM     52  C   UNL A   1      38.276  30.744  29.475  1.00  0.00     0.029 A 
ATOM     53  C   UNL A   1      38.555  31.243  30.818  1.00  0.00     0.049 A 
ATOM     54  H   UNL A   1      40.023  30.581  32.138  1.00  0.00     0.167 HD
ATOM     55  C   UNL A   1      43.140  29.040  34.815  1.00  0.00     0.037 A 
ATOM     56  C   UNL A   1      37.883  32.238  31.430  1.00  0.00     0.037 A 
ATOM     57  C   UNL A   1      42.549  30.156  35.512  1.00  0.00     0.049 A 
ATOM     58  C   UNL A   1      38.327  32.680  32.796  1.00  0.00     0.074 A 
ATOM     59  C   UNL A   1      42.883  30.675  36.750  1.00  0.00     0.029 A 
ATOM     60  N   UNL A   1      41.491  30.918  35.033  1.00  0.00    -0.354 N 
ATOM     61  N   UNL A   1      39.285  32.192  33.549  1.00  0.00    -0.248 NA
ATOM     62  C   UNL A   1      37.613  33.817  33.389  1.00  0.00     0.031 C 
ATOM     63  C   UNL A   1      41.995  31.715  37.043  1.00  0.00     0.029 A 
ATOM     64  C   UNL A   1      41.148  31.890  35.959  1.00  0.00     0.049 A 
ATOM     65  H   UNL A   1      41.050  30.788  34.163  1.00  0.00     0.167 HD
ATOM     66  C   UNL A   1      39.307  32.978  34.694  1.00  0.00     0.074 A 
ATOM     67  C   UNL A   1      38.274  33.982  34.528  1.00  0.00     0.031 C 
ATOM     68  C   UNL A   1      40.112  32.881  35.783  1.00  0.00     0.037 A 
BRANCH  55  69
ATOM     69  C   UNL A   1      44.244  28.265  35.487  1.00  0.00     0.058 A 
ATOM     70  C   UNL A   1      45.597  28.610  35.321  1.00  0.00     0.135 A 
ATOM     71  C   UNL A   1      43.953  27.164  36.310  1.00  0.00     0.135 A 
ATOM     72  F   UNL A   1      45.940  29.646  34.539  1.00  0.00    -0.206 F 
ATOM     73  C   UNL A   1      46.619  27.861  35.898  1.00  0.00     0.059 A 
ATOM     74  C   UNL A   1      44.958  26.423  36.927  1.00  0.00     0.059 A 
ATOM     75  F   UNL A   1      42.681  26.789  36.513  1.00  0.00    -0.206 F 
ATOM     76  C   UNL A   1      46.289  26.766  36.696  1.00  0.00     0.060 A 
BRANCH  76  77
ATOM     77  S   UNL A   1      47.627  25.788  37.411  1.00  0.00     0.124 S 
ATOM     78  O   UNL A   1      46.939  24.538  37.723  1.00  0.00    -0.237 OA
ATOM     79  O   UNL A   1      48.589  25.726  36.315  1.00  0.00    -0.237 OA
ATOM     80  O   UNL A   1      48.046  26.576  38.566  1.00  0.00    -0.744 OA
ENDBRANCH  76  77
ENDBRANCH  55  69
BRANCH  56  81
ATOM     81  C   UNL A   1      36.748  32.891  30.725  1.00  0.00     0.058 A 
ATOM     82  C   UNL A   1      35.418  32.633  31.085  1.00  0.00     0.135 A 
ATOM     83  C   UNL A   1      36.978  33.841  29.717  1.00  0.00     0.135 A 
ATOM     84  F   UNL A   1      35.145  31.729  32.040  1.00  0.00    -0.206 F 
ATOM     85  C   UNL A   1      34.356  33.290  30.474  1.00  0.00     0.059 A 
ATOM     86  C   UNL A   1      35.936  34.533  29.110  1.00  0.00     0.059 A 
ATOM     87  F   UNL A   1      38.234  34.140  29.350  1.00  0.00    -0.206 F 
ATOM     88  C   UNL A   1      34.626  34.247  29.493  1.00  0.00     0.060 A 
BRANCH  88  89
ATOM     89  S   UNL A   1      33.246  35.159  28.767  1.00  0.00     0.124 S 
ATOM     90  O   UNL A   1      33.941  36.195  28.015  1.00  0.00    -0.237 OA
ATOM     91  O   UNL A   1      32.583  34.127  27.975  1.00  0.00    -0.237 OA
ATOM     92  O   UNL A   1      32.497  35.619  29.933  1.00  0.00    -0.744 OA
ENDBRANCH  88  89
ENDBRANCH  56  81
BRANCH  68  93
ATOM     93  C   UNL A   1      39.936  33.911  36.866  1.00  0.00     0.058 A 
ATOM     94  C   UNL A   1      40.553  35.170  36.805  1.00  0.00     0.135 A 
ATOM     95  C   UNL A   1      39.102  33.644  37.965  1.00  0.00     0.135 A 
ATOM     96  F   UNL A   1      41.364  35.476  35.780  1.00  0.00    -0.206 F 
ATOM     97  C   UNL A   1      40.377  36.115  37.810  1.00  0.00     0.059 A 
ATOM     98  C   UNL A   1      38.885  34.587  38.965  1.00  0.00     0.059 A 
ATOM     99  F   UNL A   1      38.477  32.460  38.069  1.00  0.00    -0.206 F 
ATOM    100  C   UNL A   1      39.540  35.814  38.887  1.00  0.00     0.060 A 
BRANCH 100 101
ATOM    101  S   UNL A   1      39.307  37.057  40.175  1.00  0.00     0.124 S 
ATOM    102  O   UNL A   1      38.537  36.313  41.165  1.00  0.00    -0.237 OA
ATOM    103  O   UNL A   1      40.681  37.379  40.550  1.00  0.00    -0.237 OA
ATOM    104  O   UNL A   1      38.583  38.125  39.491  1.00  0.00    -0.744 OA
ENDBRANCH 100 101
ENDBRANCH  68  93
ENDBRANCH  42  43
ENDBRANCH  34  37
ENDBRANCH  32  33
ENDBRANCH  31  32
ENDBRANCH   1  31
TORSDOF 18
ENDMDL
