MODEL 1
REMARK VINA RESULT:     -13.9      0.000      0.000
REMARK SMILES CC(C)c1ccc2c(c1)C(=O)C[C@@H]1[C@@]2(C)CCC[C@]1(C)C(=O)NCCCNC(=O)c1ccc(-c2c3nc(c(-c4c(F)cc(S(=O)(=O)[O-])cc4F)c4ccc([nH]4)c(-c4c(F)cc(S(=O)(=O)[O-])cc4F)c4nc(c(-c5c(F)cc(S(=O)(=O)[O-])cc5F)c5ccc2[nH]5)C=C4)C=C3)cc1
REMARK SMILES IDX 26 1 25 2 24 3 23 4 21 5 22 6 19 8 4 9 5 10 9 11 6 12 8 13
REMARK SMILES IDX 7 14 10 15 14 16 12 17 11 18 13 19 16 20 15 21 17 22 18 23
REMARK SMILES IDX 20 24 2 25 1 26 3 27 27 28 28 29 29 31 30 32 31 33 95 34
REMARK SMILES IDX 32 35 94 36 33 37 34 38 35 39 88 40 36 41 93 42 87 43 89 44
REMARK SMILES IDX 37 45 92 46 86 47 85 48 38 50 72 51 51 52 71 53 52 54 55 55
REMARK SMILES IDX 70 56 90 57 53 58 54 59 69 61 91 62 56 63 39 64 40 65 49 66
REMARK SMILES IDX 41 67 42 68 48 69 50 70 43 71 44 72 45 73 46 74 47 75 73 76
REMARK SMILES IDX 74 77 83 78 75 79 76 80 82 81 84 82 77 83 78 84 79 85 80 86
REMARK SMILES IDX 81 87 57 88 58 89 67 90 59 91 60 92 66 93 68 94 61 95 62 96
REMARK SMILES IDX 63 97 64 98 65 99
REMARK H PARENT 23 7 27 30 89 49 55 60
REMARK Flexibility Score: inf
ROOT
ATOM      1  C   UNL A   1      40.484  23.025  27.016  1.00  0.00     0.118 C 
ENDROOT
BRANCH   1   2
ATOM      2  C   UNL A   1      39.306  22.176  26.557  1.00  0.00     0.042 C 
BRANCH   2   3
ATOM      3  C   UNL A   1      38.246  22.974  25.813  1.00  0.00     0.117 C 
BRANCH   3   4
ATOM      4  N   UNL A   1      37.011  23.141  26.564  1.00  0.00    -0.356 N 
ATOM      5  C   UNL A   1      35.826  23.335  25.913  1.00  0.00     0.226 C 
ATOM      6  O   UNL A   1      35.522  24.471  25.558  1.00  0.00    -0.274 OA
ATOM      7  H   UNL A   1      37.030  23.114  27.548  1.00  0.00     0.163 HD
BRANCH   5   8
ATOM      8  C   UNL A   1      34.865  22.126  25.841  1.00  0.00     0.050 C 
ATOM      9  C   UNL A   1      30.782  26.575  23.340  1.00  0.00    -0.045 A 
ATOM     10  C   UNL A   1      30.381  26.280  24.642  1.00  0.00     0.004 A 
ATOM     11  C   UNL A   1      31.729  25.733  22.744  1.00  0.00     0.016 A 
ATOM     12  C   UNL A   1      30.905  25.172  25.318  1.00  0.00     0.005 A 
ATOM     13  C   UNL A   1      32.253  24.617  23.429  1.00  0.00     0.022 A 
ATOM     14  C   UNL A   1      31.867  24.317  24.736  1.00  0.00    -0.031 A 
ATOM     15  C   UNL A   1      33.201  23.758  22.706  1.00  0.00     0.163 C 
ATOM     16  C   UNL A   1      32.363  23.068  25.486  1.00  0.00    -0.003 C 
ATOM     17  C   UNL A   1      34.138  22.908  23.506  1.00  0.00     0.086 C 
ATOM     18  O   UNL A   1      33.288  23.827  21.481  1.00  0.00    -0.294 OA
ATOM     19  C   UNL A   1      33.649  22.381  24.872  1.00  0.00     0.022 C 
ATOM     20  C   UNL A   1      32.526  23.405  26.992  1.00  0.00     0.012 C 
ATOM     21  C   UNL A   1      31.203  22.032  25.382  1.00  0.00     0.017 C 
ATOM     22  C   UNL A   1      33.208  22.357  27.849  1.00  0.00     0.002 C 
ATOM     23  C   UNL A   1      34.421  21.675  27.243  1.00  0.00     0.017 C 
ATOM     24  C   UNL A   1      35.715  20.946  25.273  1.00  0.00     0.022 C 
BRANCH   9  25
ATOM     25  C   UNL A   1      30.220  27.760  22.576  1.00  0.00     0.013 C 
ATOM     26  C   UNL A   1      28.827  28.162  23.074  1.00  0.00     0.012 C 
ATOM     27  C   UNL A   1      31.177  28.953  22.630  1.00  0.00     0.012 C 
ENDBRANCH   9  25
ENDBRANCH   5   8
ENDBRANCH   3   4
ENDBRANCH   2   3
ENDBRANCH   1   2
BRANCH   1  28
ATOM     28  N   UNL A   1      40.927  23.974  25.996  1.00  0.00    -0.352 N 
ATOM     29  C   UNL A   1      41.148  25.329  26.094  1.00  0.00     0.251 C 
ATOM     30  H   UNL A   1      41.093  23.586  25.107  1.00  0.00     0.163 HD
ATOM     31  O   UNL A   1      41.327  26.001  25.082  1.00  0.00    -0.269 OA
BRANCH  29  32
ATOM     32  C   UNL A   1      41.120  25.968  27.423  1.00  0.00     0.039 A 
ATOM     33  C   UNL A   1      39.956  25.922  28.186  1.00  0.00     0.014 A 
ATOM     34  C   UNL A   1      42.233  26.680  27.877  1.00  0.00     0.014 A 
ATOM     35  C   UNL A   1      39.818  26.778  29.267  1.00  0.00     0.010 A 
ATOM     36  C   UNL A   1      42.131  27.445  29.043  1.00  0.00     0.010 A 
ATOM     37  C   UNL A   1      40.900  27.555  29.709  1.00  0.00    -0.014 A 
BRANCH  37  38
ATOM     38  C   UNL A   1      40.702  28.487  30.852  1.00  0.00     0.031 A 
ATOM     39  C   UNL A   1      41.636  28.469  32.034  1.00  0.00     0.074 A 
ATOM     40  C   UNL A   1      39.724  29.412  30.777  1.00  0.00     0.049 A 
ATOM     41  N   UNL A   1      41.607  29.206  33.116  1.00  0.00    -0.248 NA
ATOM     42  C   UNL A   1      42.741  27.497  32.009  1.00  0.00     0.031 C 
ATOM     43  C   UNL A   1      38.774  29.546  29.669  1.00  0.00     0.029 A 
ATOM     44  N   UNL A   1      39.390  30.438  31.622  1.00  0.00    -0.354 N 
ATOM     45  C   UNL A   1      42.664  28.770  33.908  1.00  0.00     0.074 A 
ATOM     46  C   UNL A   1      43.305  27.687  33.194  1.00  0.00     0.031 C 
ATOM     47  C   UNL A   1      38.018  30.636  29.864  1.00  0.00     0.029 A 
ATOM     48  C   UNL A   1      38.369  31.229  31.149  1.00  0.00     0.049 A 
ATOM     49  H   UNL A   1      39.837  30.595  32.485  1.00  0.00     0.167 HD
ATOM     50  C   UNL A   1      43.069  29.238  35.113  1.00  0.00     0.037 A 
ATOM     51  C   UNL A   1      37.766  32.303  31.692  1.00  0.00     0.037 A 
ATOM     52  C   UNL A   1      42.451  30.344  35.799  1.00  0.00     0.049 A 
ATOM     53  C   UNL A   1      38.213  32.781  33.042  1.00  0.00     0.074 A 
ATOM     54  C   UNL A   1      42.789  30.895  37.023  1.00  0.00     0.029 A 
ATOM     55  N   UNL A   1      41.377  31.076  35.314  1.00  0.00    -0.354 N 
ATOM     56  N   UNL A   1      39.187  32.325  33.793  1.00  0.00    -0.248 NA
ATOM     57  C   UNL A   1      37.469  33.902  33.629  1.00  0.00     0.031 C 
ATOM     58  C   UNL A   1      41.899  31.940  37.293  1.00  0.00     0.029 A 
ATOM     59  C   UNL A   1      41.032  32.066  36.220  1.00  0.00     0.049 A 
ATOM     60  H   UNL A   1      40.927  30.916  34.454  1.00  0.00     0.167 HD
ATOM     61  C   UNL A   1      39.174  33.105  34.943  1.00  0.00     0.074 A 
ATOM     62  C   UNL A   1      38.110  34.076  34.777  1.00  0.00     0.031 C 
ATOM     63  C   UNL A   1      39.965  33.020  36.038  1.00  0.00     0.037 A 
BRANCH  50  64
ATOM     64  C   UNL A   1      44.229  28.552  35.782  1.00  0.00     0.058 A 
ATOM     65  C   UNL A   1      45.554  28.956  35.561  1.00  0.00     0.135 A 
ATOM     66  C   UNL A   1      44.007  27.514  36.703  1.00  0.00     0.135 A 
ATOM     67  F   UNL A   1      45.826  29.931  34.678  1.00  0.00    -0.206 F 
ATOM     68  C   UNL A   1      46.621  28.346  36.217  1.00  0.00     0.059 A 
ATOM     69  C   UNL A   1      45.056  26.906  37.388  1.00  0.00     0.059 A 
ATOM     70  F   UNL A   1      42.759  27.088  36.952  1.00  0.00    -0.206 F 
ATOM     71  C   UNL A   1      46.361  27.322  37.129  1.00  0.00     0.060 A 
BRANCH  71  72
ATOM     72  S   UNL A   1      47.755  26.550  37.979  1.00  0.00     0.124 S 
ATOM     73  O   UNL A   1      48.763  27.604  37.901  1.00  0.00    -0.237 OA
ATOM     74  O   UNL A   1      47.208  26.296  39.308  1.00  0.00    -0.237 OA
ATOM     75  O   UNL A   1      48.028  25.362  37.178  1.00  0.00    -0.744 OA
ENDBRANCH  71  72
ENDBRANCH  50  64
BRANCH  51  76
ATOM     76  C   UNL A   1      36.667  32.978  30.956  1.00  0.00     0.058 A 
ATOM     77  C   UNL A   1      35.328  32.786  31.322  1.00  0.00     0.135 A 
ATOM     78  C   UNL A   1      36.939  33.871  29.907  1.00  0.00     0.135 A 
ATOM     79  F   UNL A   1      35.019  31.937  32.313  1.00  0.00    -0.206 F 
ATOM     80  C   UNL A   1      34.295  33.457  30.676  1.00  0.00     0.059 A 
ATOM     81  C   UNL A   1      35.926  34.574  29.264  1.00  0.00     0.059 A 
ATOM     82  F   UNL A   1      38.207  34.101  29.531  1.00  0.00    -0.206 F 
ATOM     83  C   UNL A   1      34.606  34.355  29.653  1.00  0.00     0.060 A 
BRANCH  83  84
ATOM     84  S   UNL A   1      33.265  35.279  28.872  1.00  0.00     0.124 S 
ATOM     85  O   UNL A   1      32.519  35.750  30.033  1.00  0.00    -0.237 OA
ATOM     86  O   UNL A   1      33.991  36.300  28.122  1.00  0.00    -0.237 OA
ATOM     87  O   UNL A   1      32.595  34.272  28.056  1.00  0.00    -0.744 OA
ENDBRANCH  83  84
ENDBRANCH  51  76
BRANCH  63  88
ATOM     88  C   UNL A   1      39.717  34.005  37.143  1.00  0.00     0.058 A 
ATOM     89  C   UNL A   1      38.942  33.666  38.262  1.00  0.00     0.135 A 
ATOM     90  C   UNL A   1      40.306  35.279  37.109  1.00  0.00     0.135 A 
ATOM     91  F   UNL A   1      38.352  32.462  38.335  1.00  0.00    -0.206 F 
ATOM     92  C   UNL A   1      38.747  34.562  39.306  1.00  0.00     0.059 A 
ATOM     93  C   UNL A   1      40.142  36.183  38.152  1.00  0.00     0.059 A 
ATOM     94  F   UNL A   1      41.062  35.647  36.063  1.00  0.00    -0.206 F 
ATOM     95  C   UNL A   1      39.354  35.818  39.244  1.00  0.00     0.060 A 
BRANCH  95  96
ATOM     96  S   UNL A   1      39.126  36.956  40.626  1.00  0.00     0.124 S 
ATOM     97  O   UNL A   1      40.500  37.353  40.910  1.00  0.00    -0.237 OA
ATOM     98  O   UNL A   1      38.274  37.989  40.043  1.00  0.00    -0.237 OA
ATOM     99  O   UNL A   1      38.488  36.129  41.645  1.00  0.00    -0.744 OA
ENDBRANCH  95  96
ENDBRANCH  63  88
ENDBRANCH  37  38
ENDBRANCH  29  32
ENDBRANCH   1  28
TORSDOF 14
ENDMDL
MODEL 2
REMARK VINA RESULT:     -13.9      1.464      2.065
REMARK SMILES CC(C)c1ccc2c(c1)C(=O)C[C@@H]1[C@@]2(C)CCC[C@]1(C)C(=O)NCCCNC(=O)c1ccc(-c2c3nc(c(-c4c(F)cc(S(=O)(=O)[O-])cc4F)c4ccc([nH]4)c(-c4c(F)cc(S(=O)(=O)[O-])cc4F)c4nc(c(-c5c(F)cc(S(=O)(=O)[O-])cc5F)c5ccc2[nH]5)C=C4)C=C3)cc1
REMARK SMILES IDX 26 1 25 2 24 3 23 4 21 5 22 6 19 8 4 9 5 10 9 11 6 12 8 13
REMARK SMILES IDX 7 14 10 15 14 16 12 17 11 18 13 19 16 20 15 21 17 22 18 23
REMARK SMILES IDX 20 24 2 25 1 26 3 27 27 28 28 29 29 31 30 32 31 33 95 34
REMARK SMILES IDX 32 35 94 36 33 37 34 38 35 39 88 40 36 41 93 42 87 43 89 44
REMARK SMILES IDX 37 45 92 46 86 47 85 48 38 50 72 51 51 52 71 53 52 54 55 55
REMARK SMILES IDX 70 56 90 57 53 58 54 59 69 61 91 62 56 63 39 64 40 65 49 66
REMARK SMILES IDX 41 67 42 68 48 69 50 70 43 71 44 72 45 73 46 74 47 75 73 76
REMARK SMILES IDX 74 77 83 78 75 79 76 80 82 81 84 82 77 83 78 84 79 85 80 86
REMARK SMILES IDX 81 87 57 88 58 89 67 90 59 91 60 92 66 93 68 94 61 95 62 96
REMARK SMILES IDX 63 97 64 98 65 99
REMARK H PARENT 23 7 27 30 89 49 55 60
REMARK Flexibility Score: inf
ROOT
ATOM      1  C   UNL A   1      38.498  23.894  26.227  1.00  0.00     0.118 C 
ENDROOT
BRANCH   1   2
ATOM      2  C   UNL A   1      37.787  22.684  25.636  1.00  0.00     0.042 C 
BRANCH   2   3
ATOM      3  C   UNL A   1      36.509  23.043  24.893  1.00  0.00     0.117 C 
BRANCH   3   4
ATOM      4  N   UNL A   1      35.346  22.296  25.346  1.00  0.00    -0.356 N 
ATOM      5  C   UNL A   1      34.222  22.952  25.762  1.00  0.00     0.226 C 
ATOM      6  O   UNL A   1      34.162  23.350  26.923  1.00  0.00    -0.274 OA
ATOM      7  H   UNL A   1      35.369  21.312  25.353  1.00  0.00     0.163 HD
BRANCH   5   8
ATOM      8  C   UNL A   1      33.025  22.973  24.783  1.00  0.00     0.050 C 
ATOM      9  C   UNL A   1      32.446  29.119  26.929  1.00  0.00    -0.045 A 
ATOM     10  C   UNL A   1      31.429  28.350  27.493  1.00  0.00     0.004 A 
ATOM     11  C   UNL A   1      33.175  28.562  25.873  1.00  0.00     0.016 A 
ATOM     12  C   UNL A   1      31.147  27.069  27.004  1.00  0.00     0.005 A 
ATOM     13  C   UNL A   1      32.887  27.271  25.383  1.00  0.00     0.022 A 
ATOM     14  C   UNL A   1      31.878  26.487  25.945  1.00  0.00    -0.031 A 
ATOM     15  C   UNL A   1      33.668  26.788  24.236  1.00  0.00     0.163 C 
ATOM     16  C   UNL A   1      31.489  25.106  25.389  1.00  0.00    -0.003 C 
ATOM     17  C   UNL A   1      33.762  25.310  24.015  1.00  0.00     0.086 C 
ATOM     18  O   UNL A   1      34.311  27.579  23.548  1.00  0.00    -0.294 OA
ATOM     19  C   UNL A   1      32.560  24.439  24.435  1.00  0.00     0.022 C 
ATOM     20  C   UNL A   1      31.073  24.179  26.562  1.00  0.00     0.012 C 
ATOM     21  C   UNL A   1      30.208  25.347  24.533  1.00  0.00     0.017 C 
ATOM     22  C   UNL A   1      30.862  22.716  26.226  1.00  0.00     0.002 C 
ATOM     23  C   UNL A   1      31.871  22.088  25.283  1.00  0.00     0.017 C 
ATOM     24  C   UNL A   1      33.540  22.291  23.476  1.00  0.00     0.022 C 
BRANCH   9  25
ATOM     25  C   UNL A   1      32.764  30.518  27.427  1.00  0.00     0.013 C 
ATOM     26  C   UNL A   1      34.262  30.832  27.354  1.00  0.00     0.012 C 
ATOM     27  C   UNL A   1      31.955  31.570  26.665  1.00  0.00     0.012 C 
ENDBRANCH   9  25
ENDBRANCH   5   8
ENDBRANCH   3   4
ENDBRANCH   2   3
ENDBRANCH   1   2
BRANCH   1  28
ATOM     28  N   UNL A   1      39.954  23.789  26.142  1.00  0.00    -0.352 N 
ATOM     29  C   UNL A   1      40.926  24.622  26.650  1.00  0.00     0.251 C 
ATOM     30  H   UNL A   1      40.290  23.006  25.649  1.00  0.00     0.163 HD
ATOM     31  O   UNL A   1      42.098  24.484  26.310  1.00  0.00    -0.269 OA
BRANCH  29  32
ATOM     32  C   UNL A   1      40.534  25.709  27.567  1.00  0.00     0.039 A 
ATOM     33  C   UNL A   1      41.177  26.942  27.488  1.00  0.00     0.014 A 
ATOM     34  C   UNL A   1      39.577  25.474  28.556  1.00  0.00     0.014 A 
ATOM     35  C   UNL A   1      41.049  27.842  28.534  1.00  0.00     0.010 A 
ATOM     36  C   UNL A   1      39.356  26.441  29.542  1.00  0.00     0.010 A 
ATOM     37  C   UNL A   1      40.141  27.605  29.578  1.00  0.00    -0.014 A 
BRANCH  37  38
ATOM     38  C   UNL A   1      40.057  28.579  30.699  1.00  0.00     0.031 A 
ATOM     39  C   UNL A   1      41.046  28.535  31.836  1.00  0.00     0.074 A 
ATOM     40  C   UNL A   1      39.135  29.560  30.644  1.00  0.00     0.049 A 
ATOM     41  N   UNL A   1      41.116  29.302  32.895  1.00  0.00    -0.248 NA
ATOM     42  C   UNL A   1      42.087  27.495  31.787  1.00  0.00     0.031 C 
ATOM     43  C   UNL A   1      38.141  29.722  29.579  1.00  0.00     0.029 A 
ATOM     44  N   UNL A   1      38.907  30.628  31.472  1.00  0.00    -0.354 N 
ATOM     45  C   UNL A   1      42.183  28.823  33.647  1.00  0.00     0.074 A 
ATOM     46  C   UNL A   1      42.721  27.683  32.937  1.00  0.00     0.031 C 
ATOM     47  C   UNL A   1      37.464  30.862  29.776  1.00  0.00     0.029 A 
ATOM     48  C   UNL A   1      37.914  31.468  31.024  1.00  0.00     0.049 A 
ATOM     49  H   UNL A   1      39.405  30.781  32.307  1.00  0.00     0.167 HD
ATOM     50  C   UNL A   1      42.675  29.298  34.817  1.00  0.00     0.037 A 
ATOM     51  C   UNL A   1      37.406  32.592  31.562  1.00  0.00     0.037 A 
ATOM     52  C   UNL A   1      42.161  30.459  35.497  1.00  0.00     0.049 A 
ATOM     53  C   UNL A   1      37.948  33.078  32.874  1.00  0.00     0.074 A 
ATOM     54  C   UNL A   1      42.593  31.021  36.686  1.00  0.00     0.029 A 
ATOM     55  N   UNL A   1      41.111  31.243  35.043  1.00  0.00    -0.354 N 
ATOM     56  N   UNL A   1      38.928  32.584  33.591  1.00  0.00    -0.248 NA
ATOM     57  C   UNL A   1      37.304  34.260  33.461  1.00  0.00     0.031 C 
ATOM     58  C   UNL A   1      41.783  32.127  36.966  1.00  0.00     0.029 A 
ATOM     59  C   UNL A   1      40.873  32.277  35.933  1.00  0.00     0.049 A 
ATOM     60  H   UNL A   1      40.610  31.088  34.210  1.00  0.00     0.167 HD
ATOM     61  C   UNL A   1      39.020  33.395  34.715  1.00  0.00     0.074 A 
ATOM     62  C   UNL A   1      38.011  34.426  34.571  1.00  0.00     0.031 C 
ATOM     63  C   UNL A   1      39.859  33.290  35.773  1.00  0.00     0.037 A 
BRANCH  50  64
ATOM     64  C   UNL A   1      43.823  28.559  35.450  1.00  0.00     0.058 A 
ATOM     65  C   UNL A   1      45.158  28.879  35.160  1.00  0.00     0.135 A 
ATOM     66  C   UNL A   1      43.584  27.557  36.406  1.00  0.00     0.135 A 
ATOM     67  F   UNL A   1      45.445  29.816  34.241  1.00  0.00    -0.206 F 
ATOM     68  C   UNL A   1      46.216  28.222  35.782  1.00  0.00     0.059 A 
ATOM     69  C   UNL A   1      44.626  26.904  37.058  1.00  0.00     0.059 A 
ATOM     70  F   UNL A   1      42.326  27.211  36.721  1.00  0.00    -0.206 F 
ATOM     71  C   UNL A   1      45.940  27.236  36.731  1.00  0.00     0.060 A 
BRANCH  71  72
ATOM     72  S   UNL A   1      47.325  26.402  37.537  1.00  0.00     0.124 S 
ATOM     73  O   UNL A   1      48.027  27.528  38.145  1.00  0.00    -0.237 OA
ATOM     74  O   UNL A   1      46.649  25.501  38.465  1.00  0.00    -0.237 OA
ATOM     75  O   UNL A   1      48.022  25.752  36.431  1.00  0.00    -0.744 OA
ENDBRANCH  71  72
ENDBRANCH  50  64
BRANCH  51  76
ATOM     76  C   UNL A   1      36.314  33.315  30.859  1.00  0.00     0.058 A 
ATOM     77  C   UNL A   1      35.002  33.294  31.349  1.00  0.00     0.135 A 
ATOM     78  C   UNL A   1      36.576  34.084  29.714  1.00  0.00     0.135 A 
ATOM     79  F   UNL A   1      34.704  32.566  32.437  1.00  0.00    -0.206 F 
ATOM     80  C   UNL A   1      33.984  34.012  30.731  1.00  0.00     0.059 A 
ATOM     81  C   UNL A   1      35.581  34.832  29.094  1.00  0.00     0.059 A 
ATOM     82  F   UNL A   1      37.821  34.149  29.216  1.00  0.00    -0.206 F 
ATOM     83  C   UNL A   1      34.286  34.785  29.608  1.00  0.00     0.060 A 
BRANCH  83  84
ATOM     84  S   UNL A   1      32.975  35.774  28.857  1.00  0.00     0.124 S 
ATOM     85  O   UNL A   1      33.743  36.816  28.185  1.00  0.00    -0.237 OA
ATOM     86  O   UNL A   1      32.317  34.803  27.987  1.00  0.00    -0.237 OA
ATOM     87  O   UNL A   1      32.185  36.211  30.004  1.00  0.00    -0.744 OA
ENDBRANCH  83  84
ENDBRANCH  51  76
BRANCH  63  88
ATOM     88  C   UNL A   1      39.727  34.320  36.858  1.00  0.00     0.058 A 
ATOM     89  C   UNL A   1      38.961  34.074  38.007  1.00  0.00     0.135 A 
ATOM     90  C   UNL A   1      40.418  35.538  36.773  1.00  0.00     0.135 A 
ATOM     91  F   UNL A   1      38.275  32.925  38.129  1.00  0.00    -0.206 F 
ATOM     92  C   UNL A   1      38.872  35.008  39.032  1.00  0.00     0.059 A 
ATOM     93  C   UNL A   1      40.361  36.478  37.796  1.00  0.00     0.059 A 
ATOM     94  F   UNL A   1      41.170  35.817  35.696  1.00  0.00    -0.206 F 
ATOM     95  C   UNL A   1      39.579  36.207  38.919  1.00  0.00     0.060 A 
BRANCH  95  96
ATOM     96  S   UNL A   1      39.487  37.394  40.276  1.00  0.00     0.124 S 
ATOM     97  O   UNL A   1      38.699  38.465  39.677  1.00  0.00    -0.237 OA
ATOM     98  O   UNL A   1      38.821  36.622  41.321  1.00  0.00    -0.237 OA
ATOM     99  O   UNL A   1      40.886  37.717  40.540  1.00  0.00    -0.744 OA
ENDBRANCH  95  96
ENDBRANCH  63  88
ENDBRANCH  37  38
ENDBRANCH  29  32
ENDBRANCH   1  28
TORSDOF 14
ENDMDL
MODEL 3
REMARK VINA RESULT:     -13.8      6.563     11.988
REMARK SMILES CC(C)c1ccc2c(c1)C(=O)C[C@@H]1[C@@]2(C)CCC[C@]1(C)C(=O)NCCCNC(=O)c1ccc(-c2c3nc(c(-c4c(F)cc(S(=O)(=O)[O-])cc4F)c4ccc([nH]4)c(-c4c(F)cc(S(=O)(=O)[O-])cc4F)c4nc(c(-c5c(F)cc(S(=O)(=O)[O-])cc5F)c5ccc2[nH]5)C=C4)C=C3)cc1
REMARK SMILES IDX 26 1 25 2 24 3 23 4 21 5 22 6 19 8 4 9 5 10 9 11 6 12 8 13
REMARK SMILES IDX 7 14 10 15 14 16 12 17 11 18 13 19 16 20 15 21 17 22 18 23
REMARK SMILES IDX 20 24 2 25 1 26 3 27 27 28 28 29 29 31 30 32 31 33 95 34
REMARK SMILES IDX 32 35 94 36 33 37 34 38 35 39 88 40 36 41 93 42 87 43 89 44
REMARK SMILES IDX 37 45 92 46 86 47 85 48 38 50 72 51 51 52 71 53 52 54 55 55
REMARK SMILES IDX 70 56 90 57 53 58 54 59 69 61 91 62 56 63 39 64 40 65 49 66
REMARK SMILES IDX 41 67 42 68 48 69 50 70 43 71 44 72 45 73 46 74 47 75 73 76
REMARK SMILES IDX 74 77 83 78 75 79 76 80 82 81 84 82 77 83 78 84 79 85 80 86
REMARK SMILES IDX 81 87 57 88 58 89 67 90 59 91 60 92 66 93 68 94 61 95 62 96
REMARK SMILES IDX 63 97 64 98 65 99
REMARK H PARENT 23 7 27 30 89 49 55 60
REMARK Flexibility Score: inf
ROOT
ATOM      1  C   UNL A   1      35.723  31.916  28.623  1.00  0.00     0.118 C 
ENDROOT
BRANCH   1   2
ATOM      2  C   UNL A   1      34.567  31.803  27.639  1.00  0.00     0.042 C 
BRANCH   2   3
ATOM      3  C   UNL A   1      34.030  30.386  27.504  1.00  0.00     0.117 C 
BRANCH   3   4
ATOM      4  N   UNL A   1      34.314  29.778  26.214  1.00  0.00    -0.356 N 
ATOM      5  C   UNL A   1      33.828  28.537  25.912  1.00  0.00     0.226 C 
ATOM      6  O   UNL A   1      34.453  27.547  26.285  1.00  0.00    -0.274 OA
ATOM      7  H   UNL A   1      34.861  30.263  25.554  1.00  0.00     0.163 HD
BRANCH   5   8
ATOM      8  C   UNL A   1      32.618  28.479  24.951  1.00  0.00     0.050 C 
ATOM      9  C   UNL A   1      34.015  22.094  24.909  1.00  0.00    -0.045 A 
ATOM     10  C   UNL A   1      34.417  22.649  23.694  1.00  0.00     0.004 A 
ATOM     11  C   UNL A   1      33.195  22.868  25.738  1.00  0.00     0.016 A 
ATOM     12  C   UNL A   1      34.000  23.932  23.322  1.00  0.00     0.005 A 
ATOM     13  C   UNL A   1      32.776  24.159  25.358  1.00  0.00     0.022 A 
ATOM     14  C   UNL A   1      33.179  24.730  24.150  1.00  0.00    -0.031 A 
ATOM     15  C   UNL A   1      31.871  24.877  26.267  1.00  0.00     0.163 C 
ATOM     16  C   UNL A   1      32.683  26.106  23.671  1.00  0.00    -0.003 C 
ATOM     17  C   UNL A   1      31.814  26.370  26.175  1.00  0.00     0.086 C 
ATOM     18  O   UNL A   1      31.267  24.267  27.147  1.00  0.00    -0.294 OA
ATOM     19  C   UNL A   1      32.045  27.019  24.794  1.00  0.00     0.022 C 
ATOM     20  C   UNL A   1      33.820  26.819  22.893  1.00  0.00     0.012 C 
ATOM     21  C   UNL A   1      31.555  25.805  22.638  1.00  0.00     0.017 C 
ATOM     22  C   UNL A   1      33.584  28.272  22.531  1.00  0.00     0.002 C 
ATOM     23  C   UNL A   1      32.940  29.138  23.598  1.00  0.00     0.017 C 
ATOM     24  C   UNL A   1      31.520  29.377  25.603  1.00  0.00     0.022 C 
BRANCH   9  25
ATOM     25  C   UNL A   1      34.438  20.699  25.333  1.00  0.00     0.013 C 
ATOM     26  C   UNL A   1      33.585  19.610  24.673  1.00  0.00     0.012 C 
ATOM     27  C   UNL A   1      35.924  20.466  25.049  1.00  0.00     0.012 C 
ENDBRANCH   9  25
ENDBRANCH   5   8
ENDBRANCH   3   4
ENDBRANCH   2   3
ENDBRANCH   1   2
BRANCH   1  28
ATOM     28  N   UNL A   1      35.566  31.038  29.781  1.00  0.00    -0.352 N 
ATOM     29  C   UNL A   1      36.452  30.137  30.328  1.00  0.00     0.251 C 
ATOM     30  H   UNL A   1      34.697  31.100  30.239  1.00  0.00     0.163 HD
ATOM     31  O   UNL A   1      36.075  29.340  31.183  1.00  0.00    -0.269 OA
BRANCH  29  32
ATOM     32  C   UNL A   1      37.844  30.111  29.840  1.00  0.00     0.039 A 
ATOM     33  C   UNL A   1      38.096  29.916  28.484  1.00  0.00     0.014 A 
ATOM     34  C   UNL A   1      38.901  30.206  30.748  1.00  0.00     0.014 A 
ATOM     35  C   UNL A   1      39.374  29.570  28.074  1.00  0.00     0.010 A 
ATOM     36  C   UNL A   1      40.209  29.982  30.305  1.00  0.00     0.010 A 
ATOM     37  C   UNL A   1      40.448  29.594  28.977  1.00  0.00    -0.014 A 
BRANCH  37  38
ATOM     38  C   UNL A   1      41.798  29.184  28.506  1.00  0.00     0.031 A 
ATOM     39  C   UNL A   1      42.957  30.147  28.550  1.00  0.00     0.074 A 
ATOM     40  C   UNL A   1      41.994  27.908  28.118  1.00  0.00     0.049 A 
ATOM     41  N   UNL A   1      44.197  29.958  28.175  1.00  0.00    -0.248 NA
ATOM     42  C   UNL A   1      42.695  31.498  29.073  1.00  0.00     0.031 C 
ATOM     43  C   UNL A   1      40.954  26.877  28.059  1.00  0.00     0.029 A 
ATOM     44  N   UNL A   1      43.134  27.247  27.741  1.00  0.00    -0.354 N 
ATOM     45  C   UNL A   1      44.852  31.166  28.389  1.00  0.00     0.074 A 
ATOM     46  C   UNL A   1      43.869  32.092  28.906  1.00  0.00     0.031 C 
ATOM     47  C   UNL A   1      41.516  25.700  27.747  1.00  0.00     0.029 A 
ATOM     48  C   UNL A   1      42.938  25.908  27.498  1.00  0.00     0.049 A 
ATOM     49  H   UNL A   1      44.010  27.688  27.653  1.00  0.00     0.167 HD
ATOM     50  C   UNL A   1      46.157  31.470  28.183  1.00  0.00     0.037 A 
ATOM     51  C   UNL A   1      43.798  24.952  27.102  1.00  0.00     0.037 A 
ATOM     52  C   UNL A   1      47.139  30.531  27.706  1.00  0.00     0.049 A 
ATOM     53  C   UNL A   1      45.230  25.323  26.851  1.00  0.00     0.074 A 
ATOM     54  C   UNL A   1      48.486  30.741  27.467  1.00  0.00     0.029 A 
ATOM     55  N   UNL A   1      46.884  29.200  27.409  1.00  0.00    -0.354 N 
ATOM     56  N   UNL A   1      45.819  26.483  27.017  1.00  0.00    -0.248 NA
ATOM     57  C   UNL A   1      46.110  24.265  26.338  1.00  0.00     0.031 C 
ATOM     58  C   UNL A   1      49.039  29.546  26.995  1.00  0.00     0.029 A 
ATOM     59  C   UNL A   1      48.046  28.580  26.978  1.00  0.00     0.049 A 
ATOM     60  H   UNL A   1      46.007  28.761  27.493  1.00  0.00     0.167 HD
ATOM     61  C   UNL A   1      47.140  26.295  26.631  1.00  0.00     0.074 A 
ATOM     62  C   UNL A   1      47.268  24.903  26.245  1.00  0.00     0.031 C 
ATOM     63  C   UNL A   1      48.151  27.195  26.592  1.00  0.00     0.037 A 
BRANCH  50  64
ATOM     64  C   UNL A   1      46.603  32.881  28.458  1.00  0.00     0.058 A 
ATOM     65  C   UNL A   1      47.115  33.263  29.707  1.00  0.00     0.135 A 
ATOM     66  C   UNL A   1      46.574  33.848  27.440  1.00  0.00     0.135 A 
ATOM     67  F   UNL A   1      47.150  32.384  30.722  1.00  0.00    -0.206 F 
ATOM     68  C   UNL A   1      47.568  34.558  29.943  1.00  0.00     0.059 A 
ATOM     69  C   UNL A   1      47.043  35.143  27.646  1.00  0.00     0.059 A 
ATOM     70  F   UNL A   1      46.093  33.536  26.226  1.00  0.00    -0.206 F 
ATOM     71  C   UNL A   1      47.528  35.491  28.905  1.00  0.00     0.060 A 
BRANCH  71  72
ATOM     72  S   UNL A   1      48.131  37.164  29.225  1.00  0.00     0.124 S 
ATOM     73  O   UNL A   1      49.418  36.892  29.859  1.00  0.00    -0.237 OA
ATOM     74  O   UNL A   1      48.195  37.734  27.883  1.00  0.00    -0.237 OA
ATOM     75  O   UNL A   1      47.110  37.733  30.098  1.00  0.00    -0.744 OA
ENDBRANCH  71  72
ENDBRANCH  50  64
BRANCH  51  76
ATOM     76  C   UNL A   1      43.312  23.562  26.906  1.00  0.00     0.058 A 
ATOM     77  C   UNL A   1      43.081  23.052  25.622  1.00  0.00     0.135 A 
ATOM     78  C   UNL A   1      43.123  22.700  27.999  1.00  0.00     0.135 A 
ATOM     79  F   UNL A   1      43.241  23.841  24.548  1.00  0.00    -0.206 F 
ATOM     80  C   UNL A   1      42.680  21.735  25.425  1.00  0.00     0.059 A 
ATOM     81  C   UNL A   1      42.750  21.372  27.826  1.00  0.00     0.059 A 
ATOM     82  F   UNL A   1      43.348  23.138  29.248  1.00  0.00    -0.206 F 
ATOM     83  C   UNL A   1      42.525  20.901  26.533  1.00  0.00     0.060 A 
BRANCH  83  84
ATOM     84  S   UNL A   1      42.078  19.172  26.263  1.00  0.00     0.124 S 
ATOM     85  O   UNL A   1      42.374  18.587  27.566  1.00  0.00    -0.237 OA
ATOM     86  O   UNL A   1      40.664  19.271  25.914  1.00  0.00    -0.237 OA
ATOM     87  O   UNL A   1      42.958  18.764  25.172  1.00  0.00    -0.744 OA
ENDBRANCH  83  84
ENDBRANCH  51  76
BRANCH  63  88
ATOM     88  C   UNL A   1      49.489  26.703  26.122  1.00  0.00     0.058 A 
ATOM     89  C   UNL A   1      49.927  26.924  24.808  1.00  0.00     0.135 A 
ATOM     90  C   UNL A   1      50.364  26.056  27.009  1.00  0.00     0.135 A 
ATOM     91  F   UNL A   1      49.122  27.532  23.921  1.00  0.00    -0.206 F 
ATOM     92  C   UNL A   1      51.182  26.508  24.383  1.00  0.00     0.059 A 
ATOM     93  C   UNL A   1      51.633  25.651  26.611  1.00  0.00     0.059 A 
ATOM     94  F   UNL A   1      49.994  25.828  28.279  1.00  0.00    -0.206 F 
ATOM     95  C   UNL A   1      52.031  25.875  25.294  1.00  0.00     0.060 A 
BRANCH  95  96
ATOM     96  S   UNL A   1      53.675  25.376  24.739  1.00  0.00     0.124 S 
ATOM     97  O   UNL A   1      53.717  25.947  23.397  1.00  0.00    -0.237 OA
ATOM     98  O   UNL A   1      54.543  26.010  25.726  1.00  0.00    -0.237 OA
ATOM     99  O   UNL A   1      53.626  23.919  24.800  1.00  0.00    -0.744 OA
ENDBRANCH  95  96
ENDBRANCH  63  88
ENDBRANCH  37  38
ENDBRANCH  29  32
ENDBRANCH   1  28
TORSDOF 14
ENDMDL
