MODEL 1
REMARK VINA RESULT:     -12.7      0.000      0.000
REMARK SMILES C[C@@H]1CC[C@H](C)[N@H+]1Cc1cc2c(cc1Cl)C=C(C(=O)NCCCNC(=O)c1ccc(-c3c4nc(c(-c5c(F)cc(S(=O)(=O)[O-])cc5F)c5ccc([nH]5)c(-c5c(F)cc(S(=O)(=O)[O-])cc5F)c5nc(c(-c6c(F)cc(S(=O)(=O)[O-])cc6F)c6ccc3[nH]6)C=C5)C=C4)cc1)[C@@H](C(F)(F)F)O2
REMARK SMILES IDX 22 1 21 2 20 3 18 4 19 5 17 7 9 8 10 9 14 10 11 11 13 12
REMARK SMILES IDX 15 13 12 14 98 15 16 16 93 17 8 18 7 19 6 20 5 21 4 22 3 23
REMARK SMILES IDX 2 24 1 26 94 27 95 28 96 29 97 30 23 31 24 32 25 33 26 35
REMARK SMILES IDX 27 36 28 37 92 38 29 39 91 40 30 41 31 42 32 43 85 44 33 45
REMARK SMILES IDX 90 46 84 47 86 48 34 49 89 50 83 51 82 52 35 54 69 55 48 56
REMARK SMILES IDX 68 57 49 58 52 59 67 60 87 61 50 62 51 63 66 65 88 66 53 67
REMARK SMILES IDX 36 68 37 69 46 70 38 71 39 72 45 73 47 74 40 75 41 76 42 77
REMARK SMILES IDX 43 78 44 79 70 80 71 81 80 82 72 83 73 84 79 85 81 86 74 87
REMARK SMILES IDX 75 88 76 89 77 90 78 91 54 92 55 93 64 94 56 95 57 96 63 97
REMARK SMILES IDX 65 98 58 99 59 100 60 101 61 102 62 103
REMARK H PARENT 20 6 7 25 24 34 86 53 52 64
REMARK Flexibility Score: inf
ROOT
ATOM      1  C   UNL A   1      40.255  21.850  26.916  1.00  0.00     0.042 C 
ENDROOT
BRANCH   1   2
ATOM      2  C   UNL A   1      39.062  22.415  26.163  1.00  0.00     0.118 C 
BRANCH   2   3
ATOM      3  N   UNL A   1      38.096  21.375  25.841  1.00  0.00    -0.352 N 
ATOM      4  C   UNL A   1      36.771  21.299  25.591  1.00  0.00     0.251 C 
ATOM      5  O   UNL A   1      36.339  20.160  25.387  1.00  0.00    -0.270 OA
ATOM      6  H   UNL A   1      38.523  20.490  25.792  1.00  0.00     0.163 HD
BRANCH   4   7
ATOM      7  C   UNL A   1      35.846  22.461  25.527  1.00  0.00     0.067 C 
ATOM      8  C   UNL A   1      31.989  25.638  26.190  1.00  0.00     0.029 A 
ATOM      9  C   UNL A   1      33.304  25.776  25.701  1.00  0.00     0.058 A 
ATOM     10  C   UNL A   1      31.583  24.361  26.621  1.00  0.00     0.050 A 
ATOM     11  C   UNL A   1      34.181  24.695  25.707  1.00  0.00     0.128 A 
ATOM     12  C   UNL A   1      32.502  23.310  26.724  1.00  0.00     0.033 A 
ATOM     13  Cl  UNL A   1      29.932  23.954  26.939  1.00  0.00    -0.084 Cl
ATOM     14  C   UNL A   1      33.807  23.481  26.277  1.00  0.00     0.019 A 
ATOM     15  O   UNL A   1      35.408  24.865  25.126  1.00  0.00    -0.475 OA
ATOM     16  C   UNL A   1      34.786  22.405  26.355  1.00  0.00     0.025 C 
ATOM     17  C   UNL A   1      35.981  23.631  24.591  1.00  0.00     0.314 C 
BRANCH   8  18
ATOM     18  C   UNL A   1      31.099  26.868  26.215  1.00  0.00     0.301 C 
BRANCH  18  19
ATOM     19  N   UNL A   1      31.643  28.098  25.618  1.00  0.00    -0.327 N 
ATOM     20  C   UNL A   1      33.046  29.384  27.202  1.00  0.00     0.075 C 
ATOM     21  C   UNL A   1      31.707  29.286  26.484  1.00  0.00     0.181 C 
ATOM     22  C   UNL A   1      31.486  30.471  25.547  1.00  0.00     0.071 C 
ATOM     23  C   UNL A   1      30.563  29.896  24.495  1.00  0.00     0.071 C 
ATOM     24  C   UNL A   1      31.081  28.476  24.317  1.00  0.00     0.181 C 
ATOM     25  H   UNL A   1      32.603  27.788  25.471  1.00  0.00     0.348 HD
ATOM     26  C   UNL A   1      32.179  28.383  23.259  1.00  0.00     0.075 C 
ENDBRANCH  18  19
ENDBRANCH   8  18
BRANCH  17  27
ATOM     27  C   UNL A   1      35.395  23.322  23.193  1.00  0.00     0.429 C 
ATOM     28  F   UNL A   1      34.773  24.412  22.681  1.00  0.00    -0.167 F 
ATOM     29  F   UNL A   1      36.351  22.967  22.300  1.00  0.00    -0.167 F 
ATOM     30  F   UNL A   1      34.494  22.311  23.205  1.00  0.00    -0.167 F 
ENDBRANCH  17  27
ENDBRANCH   4   7
ENDBRANCH   2   3
ENDBRANCH   1   2
BRANCH   1  31
ATOM     31  C   UNL A   1      41.275  22.924  27.269  1.00  0.00     0.118 C 
BRANCH  31  32
ATOM     32  N   UNL A   1      41.499  23.853  26.164  1.00  0.00    -0.352 N 
ATOM     33  C   UNL A   1      41.406  25.226  26.124  1.00  0.00     0.251 C 
ATOM     34  H   UNL A   1      41.758  23.430  25.314  1.00  0.00     0.163 HD
ATOM     35  O   UNL A   1      41.385  25.803  25.047  1.00  0.00    -0.269 OA
BRANCH  33  36
ATOM     36  C   UNL A   1      41.318  25.990  27.387  1.00  0.00     0.039 A 
ATOM     37  C   UNL A   1      40.218  25.825  28.227  1.00  0.00     0.014 A 
ATOM     38  C   UNL A   1      42.336  26.882  27.731  1.00  0.00     0.014 A 
ATOM     39  C   UNL A   1      40.033  26.691  29.293  1.00  0.00     0.010 A 
ATOM     40  C   UNL A   1      42.202  27.675  28.876  1.00  0.00     0.010 A 
ATOM     41  C   UNL A   1      41.024  27.622  29.637  1.00  0.00    -0.014 A 
BRANCH  41  42
ATOM     42  C   UNL A   1      40.792  28.525  30.794  1.00  0.00     0.031 A 
ATOM     43  C   UNL A   1      41.695  28.478  31.998  1.00  0.00     0.074 A 
ATOM     44  C   UNL A   1      39.808  29.443  30.717  1.00  0.00     0.049 A 
ATOM     45  N   UNL A   1      41.644  29.195  33.092  1.00  0.00    -0.248 NA
ATOM     46  C   UNL A   1      42.797  27.501  31.980  1.00  0.00     0.031 C 
ATOM     47  C   UNL A   1      38.883  29.595  29.589  1.00  0.00     0.029 A 
ATOM     48  N   UNL A   1      39.443  30.447  31.577  1.00  0.00    -0.354 N 
ATOM     49  C   UNL A   1      42.684  28.745  33.896  1.00  0.00     0.074 A 
ATOM     50  C   UNL A   1      43.338  27.674  33.178  1.00  0.00     0.031 C 
ATOM     51  C   UNL A   1      38.109  30.670  29.794  1.00  0.00     0.029 A 
ATOM     52  C   UNL A   1      38.423  31.235  31.100  1.00  0.00     0.049 A 
ATOM     53  H   UNL A   1      39.870  30.589  32.452  1.00  0.00     0.167 HD
ATOM     54  C   UNL A   1      43.065  29.193  35.116  1.00  0.00     0.037 A 
ATOM     55  C   UNL A   1      37.793  32.287  31.658  1.00  0.00     0.037 A 
ATOM     56  C   UNL A   1      42.429  30.285  35.807  1.00  0.00     0.049 A 
ATOM     57  C   UNL A   1      38.210  32.735  33.028  1.00  0.00     0.074 A 
ATOM     58  C   UNL A   1      42.744  30.820  37.044  1.00  0.00     0.029 A 
ATOM     59  N   UNL A   1      41.356  31.016  35.318  1.00  0.00    -0.354 N 
ATOM     60  N   UNL A   1      39.180  32.278  33.783  1.00  0.00    -0.248 NA
ATOM     61  C   UNL A   1      37.436  33.827  33.633  1.00  0.00     0.031 C 
ATOM     62  C   UNL A   1      41.841  31.852  37.318  1.00  0.00     0.029 A 
ATOM     63  C   UNL A   1      40.988  31.987  36.234  1.00  0.00     0.049 A 
ATOM     64  H   UNL A   1      40.920  30.866  34.447  1.00  0.00     0.167 HD
ATOM     65  C   UNL A   1      39.138  33.030  34.949  1.00  0.00     0.074 A 
ATOM     66  C   UNL A   1      38.061  33.987  34.791  1.00  0.00     0.031 C 
ATOM     67  C   UNL A   1      39.915  32.931  36.055  1.00  0.00     0.037 A 
BRANCH  54  68
ATOM     68  C   UNL A   1      44.223  28.512  35.792  1.00  0.00     0.058 A 
ATOM     69  C   UNL A   1      44.035  27.419  36.650  1.00  0.00     0.135 A 
ATOM     70  C   UNL A   1      45.543  28.911  35.518  1.00  0.00     0.135 A 
ATOM     71  F   UNL A   1      42.795  27.009  36.961  1.00  0.00    -0.206 F 
ATOM     72  C   UNL A   1      45.113  26.748  37.219  1.00  0.00     0.059 A 
ATOM     73  C   UNL A   1      46.636  28.241  36.059  1.00  0.00     0.059 A 
ATOM     74  F   UNL A   1      45.778  29.954  34.706  1.00  0.00    -0.206 F 
ATOM     75  C   UNL A   1      46.410  27.163  36.913  1.00  0.00     0.060 A 
BRANCH  75  76
ATOM     76  S   UNL A   1      47.795  26.259  37.638  1.00  0.00     0.124 S 
ATOM     77  O   UNL A   1      48.846  27.273  37.619  1.00  0.00    -0.237 OA
ATOM     78  O   UNL A   1      47.280  25.906  38.956  1.00  0.00    -0.237 OA
ATOM     79  O   UNL A   1      47.990  25.140  36.722  1.00  0.00    -0.744 OA
ENDBRANCH  75  76
ENDBRANCH  54  68
BRANCH  55  80
ATOM     80  C   UNL A   1      36.692  32.967  30.926  1.00  0.00     0.058 A 
ATOM     81  C   UNL A   1      35.352  32.756  31.279  1.00  0.00     0.135 A 
ATOM     82  C   UNL A   1      36.959  33.858  29.874  1.00  0.00     0.135 A 
ATOM     83  F   UNL A   1      35.045  31.908  32.273  1.00  0.00    -0.206 F 
ATOM     84  C   UNL A   1      34.313  33.397  30.610  1.00  0.00     0.059 A 
ATOM     85  C   UNL A   1      35.941  34.532  29.210  1.00  0.00     0.059 A 
ATOM     86  F   UNL A   1      38.227  34.107  29.509  1.00  0.00    -0.206 F 
ATOM     87  C   UNL A   1      34.619  34.286  29.578  1.00  0.00     0.060 A 
BRANCH  87  88
ATOM     88  S   UNL A   1      33.268  35.149  28.749  1.00  0.00     0.124 S 
ATOM     89  O   UNL A   1      32.473  35.605  29.881  1.00  0.00    -0.237 OA
ATOM     90  O   UNL A   1      33.978  36.186  28.005  1.00  0.00    -0.237 OA
ATOM     91  O   UNL A   1      32.660  34.107  27.927  1.00  0.00    -0.744 OA
ENDBRANCH  87  88
ENDBRANCH  55  80
BRANCH  67  92
ATOM     92  C   UNL A   1      39.638  33.888  37.178  1.00  0.00     0.058 A 
ATOM     93  C   UNL A   1      38.810  33.532  38.254  1.00  0.00     0.135 A 
ATOM     94  C   UNL A   1      40.257  35.147  37.211  1.00  0.00     0.135 A 
ATOM     95  F   UNL A   1      38.188  32.343  38.263  1.00  0.00    -0.206 F 
ATOM     96  C   UNL A   1      38.596  34.398  39.320  1.00  0.00     0.059 A 
ATOM     97  C   UNL A   1      40.078  36.020  38.278  1.00  0.00     0.059 A 
ATOM     98  F   UNL A   1      41.065  35.530  36.208  1.00  0.00    -0.206 F 
ATOM     99  C   UNL A   1      39.239  35.638  39.325  1.00  0.00     0.060 A 
BRANCH  99 100
ATOM    100  S   UNL A   1      38.990  36.731  40.740  1.00  0.00     0.124 S 
ATOM    101  O   UNL A   1      40.360  36.927  41.204  1.00  0.00    -0.237 OA
ATOM    102  O   UNL A   1      38.355  37.893  40.127  1.00  0.00    -0.237 OA
ATOM    103  O   UNL A   1      38.132  35.950  41.627  1.00  0.00    -0.744 OA
ENDBRANCH  99 100
ENDBRANCH  67  92
ENDBRANCH  41  42
ENDBRANCH  33  36
ENDBRANCH  31  32
ENDBRANCH   1  31
TORSDOF 16
ENDMDL
MODEL 2
REMARK VINA RESULT:     -12.6      6.338     11.990
REMARK SMILES C[C@@H]1CC[C@H](C)[N@H+]1Cc1cc2c(cc1Cl)C=C(C(=O)NCCCNC(=O)c1ccc(-c3c4nc(c(-c5c(F)cc(S(=O)(=O)[O-])cc5F)c5ccc([nH]5)c(-c5c(F)cc(S(=O)(=O)[O-])cc5F)c5nc(c(-c6c(F)cc(S(=O)(=O)[O-])cc6F)c6ccc3[nH]6)C=C5)C=C4)cc1)[C@@H](C(F)(F)F)O2
REMARK SMILES IDX 22 1 21 2 20 3 18 4 19 5 17 7 9 8 10 9 14 10 11 11 13 12
REMARK SMILES IDX 15 13 12 14 98 15 16 16 93 17 8 18 7 19 6 20 5 21 4 22 3 23
REMARK SMILES IDX 2 24 1 26 94 27 95 28 96 29 97 30 23 31 24 32 25 33 26 35
REMARK SMILES IDX 27 36 28 37 92 38 29 39 91 40 30 41 31 42 32 43 85 44 33 45
REMARK SMILES IDX 90 46 84 47 86 48 34 49 89 50 83 51 82 52 35 54 69 55 48 56
REMARK SMILES IDX 68 57 49 58 52 59 67 60 87 61 50 62 51 63 66 65 88 66 53 67
REMARK SMILES IDX 36 68 37 69 46 70 38 71 39 72 45 73 47 74 40 75 41 76 42 77
REMARK SMILES IDX 43 78 44 79 70 80 71 81 80 82 72 83 73 84 79 85 81 86 74 87
REMARK SMILES IDX 75 88 76 89 77 90 78 91 54 92 55 93 64 94 56 95 57 96 63 97
REMARK SMILES IDX 65 98 58 99 59 100 60 101 61 102 62 103
REMARK H PARENT 20 6 7 25 24 34 86 53 52 64
REMARK Flexibility Score: inf
ROOT
ATOM      1  C   UNL A   1      34.781  32.542  28.422  1.00  0.00     0.042 C 
ENDROOT
BRANCH   1   2
ATOM      2  C   UNL A   1      34.518  31.262  27.645  1.00  0.00     0.118 C 
BRANCH   2   3
ATOM      3  N   UNL A   1      33.273  31.342  26.896  1.00  0.00    -0.352 N 
ATOM      4  C   UNL A   1      32.539  30.527  26.108  1.00  0.00     0.251 C 
ATOM      5  O   UNL A   1      31.521  31.037  25.629  1.00  0.00    -0.270 OA
ATOM      6  H   UNL A   1      32.854  32.227  26.989  1.00  0.00     0.163 HD
BRANCH   4   7
ATOM      7  C   UNL A   1      32.860  29.105  25.814  1.00  0.00     0.067 C 
ATOM      8  C   UNL A   1      33.965  24.750  23.532  1.00  0.00     0.029 A 
ATOM      9  C   UNL A   1      34.080  25.224  24.854  1.00  0.00     0.058 A 
ATOM     10  C   UNL A   1      33.443  25.630  22.565  1.00  0.00     0.050 A 
ATOM     11  C   UNL A   1      33.745  26.537  25.169  1.00  0.00     0.128 A 
ATOM     12  C   UNL A   1      33.212  26.977  22.868  1.00  0.00     0.033 A 
ATOM     13  Cl  UNL A   1      32.939  25.113  20.993  1.00  0.00    -0.084 Cl
ATOM     14  C   UNL A   1      33.376  27.435  24.171  1.00  0.00     0.019 A 
ATOM     15  O   UNL A   1      33.781  26.907  26.486  1.00  0.00    -0.475 OA
ATOM     16  C   UNL A   1      33.130  28.826  24.525  1.00  0.00     0.025 C 
ATOM     17  C   UNL A   1      32.852  27.986  26.819  1.00  0.00     0.314 C 
BRANCH   8  18
ATOM     18  C   UNL A   1      34.404  23.326  23.238  1.00  0.00     0.301 C 
BRANCH  18  19
ATOM     19  N   UNL A   1      34.058  22.301  24.235  1.00  0.00    -0.327 N 
ATOM     20  C   UNL A   1      35.988  21.656  25.646  1.00  0.00     0.075 C 
ATOM     21  C   UNL A   1      35.066  21.263  24.500  1.00  0.00     0.181 C 
ATOM     22  C   UNL A   1      34.263  20.007  24.833  1.00  0.00     0.071 C 
ATOM     23  C   UNL A   1      33.018  20.176  23.990  1.00  0.00     0.071 C 
ATOM     24  C   UNL A   1      32.743  21.671  24.069  1.00  0.00     0.181 C 
ATOM     25  H   UNL A   1      34.022  22.895  25.063  1.00  0.00     0.348 HD
ATOM     26  C   UNL A   1      31.864  22.041  25.262  1.00  0.00     0.075 C 
ENDBRANCH  18  19
ENDBRANCH   8  18
BRANCH  17  27
ATOM     27  C   UNL A   1      31.429  27.425  27.046  1.00  0.00     0.429 C 
ATOM     28  F   UNL A   1      30.824  28.055  28.083  1.00  0.00    -0.167 F 
ATOM     29  F   UNL A   1      30.627  27.602  25.966  1.00  0.00    -0.167 F 
ATOM     30  F   UNL A   1      31.415  26.099  27.315  1.00  0.00    -0.167 F 
ENDBRANCH  17  27
ENDBRANCH   4   7
ENDBRANCH   2   3
ENDBRANCH   1   2
BRANCH   1  31
ATOM     31  C   UNL A   1      36.012  32.434  29.311  1.00  0.00     0.118 C 
BRANCH  31  32
ATOM     32  N   UNL A   1      35.810  31.503  30.419  1.00  0.00    -0.352 N 
ATOM     33  C   UNL A   1      36.571  30.431  30.830  1.00  0.00     0.251 C 
ATOM     34  H   UNL A   1      35.001  31.666  30.955  1.00  0.00     0.163 HD
ATOM     35  O   UNL A   1      36.106  29.623  31.619  1.00  0.00    -0.269 OA
BRANCH  33  36
ATOM     36  C   UNL A   1      37.941  30.262  30.301  1.00  0.00     0.039 A 
ATOM     37  C   UNL A   1      38.145  30.107  28.931  1.00  0.00     0.014 A 
ATOM     38  C   UNL A   1      39.028  30.252  31.179  1.00  0.00     0.014 A 
ATOM     39  C   UNL A   1      39.396  29.736  28.462  1.00  0.00     0.010 A 
ATOM     40  C   UNL A   1      40.311  29.993  30.686  1.00  0.00     0.010 A 
ATOM     41  C   UNL A   1      40.497  29.681  29.330  1.00  0.00    -0.014 A 
BRANCH  41  42
ATOM     42  C   UNL A   1      41.824  29.290  28.785  1.00  0.00     0.031 A 
ATOM     43  C   UNL A   1      42.970  30.267  28.779  1.00  0.00     0.074 A 
ATOM     44  C   UNL A   1      42.009  28.022  28.369  1.00  0.00     0.049 A 
ATOM     45  N   UNL A   1      44.193  30.095  28.349  1.00  0.00    -0.248 NA
ATOM     46  C   UNL A   1      42.713  31.613  29.320  1.00  0.00     0.031 C 
ATOM     47  C   UNL A   1      40.975  26.981  28.349  1.00  0.00     0.029 A 
ATOM     48  N   UNL A   1      43.132  27.375  27.923  1.00  0.00    -0.354 N 
ATOM     49  C   UNL A   1      44.844  31.307  28.546  1.00  0.00     0.074 A 
ATOM     50  C   UNL A   1      43.875  32.219  29.111  1.00  0.00     0.031 C 
ATOM     51  C   UNL A   1      41.528  25.816  27.983  1.00  0.00     0.029 A 
ATOM     52  C   UNL A   1      42.932  26.040  27.664  1.00  0.00     0.049 A 
ATOM     53  H   UNL A   1      44.000  27.824  27.799  1.00  0.00     0.167 HD
ATOM     54  C   UNL A   1      46.136  31.625  28.291  1.00  0.00     0.037 A 
ATOM     55  C   UNL A   1      43.778  25.099  27.201  1.00  0.00     0.037 A 
ATOM     56  C   UNL A   1      47.102  30.699  27.761  1.00  0.00     0.049 A 
ATOM     57  C   UNL A   1      45.192  25.491  26.887  1.00  0.00     0.074 A 
ATOM     58  C   UNL A   1      48.438  30.921  27.471  1.00  0.00     0.029 A 
ATOM     59  N   UNL A   1      46.843  29.371  27.449  1.00  0.00    -0.354 N 
ATOM     60  N   UNL A   1      45.781  26.651  27.056  1.00  0.00    -0.248 NA
ATOM     61  C   UNL A   1      46.053  24.456  26.301  1.00  0.00     0.031 C 
ATOM     62  C   UNL A   1      48.977  29.739  26.954  1.00  0.00     0.029 A 
ATOM     63  C   UNL A   1      47.988  28.767  26.960  1.00  0.00     0.049 A 
ATOM     64  H   UNL A   1      45.972  28.925  27.562  1.00  0.00     0.167 HD
ATOM     65  C   UNL A   1      47.083  26.484  26.604  1.00  0.00     0.074 A 
ATOM     66  C   UNL A   1      47.203  25.105  26.175  1.00  0.00     0.031 C 
ATOM     67  C   UNL A   1      48.086  27.393  26.540  1.00  0.00     0.037 A 
BRANCH  54  68
ATOM     68  C   UNL A   1      46.590  33.030  28.576  1.00  0.00     0.058 A 
ATOM     69  C   UNL A   1      46.497  34.044  27.611  1.00  0.00     0.135 A 
ATOM     70  C   UNL A   1      47.054  33.382  29.855  1.00  0.00     0.135 A 
ATOM     71  F   UNL A   1      46.080  33.759  26.368  1.00  0.00    -0.206 F 
ATOM     72  C   UNL A   1      46.854  35.357  27.902  1.00  0.00     0.059 A 
ATOM     73  C   UNL A   1      47.395  34.693  30.174  1.00  0.00     0.059 A 
ATOM     74  F   UNL A   1      47.164  32.449  30.814  1.00  0.00    -0.206 F 
ATOM     75  C   UNL A   1      47.297  35.673  29.188  1.00  0.00     0.060 A 
BRANCH  75  76
ATOM     76  S   UNL A   1      47.726  37.389  29.552  1.00  0.00     0.124 S 
ATOM     77  O   UNL A   1      46.430  37.936  29.944  1.00  0.00    -0.237 OA
ATOM     78  O   UNL A   1      48.703  37.244  30.625  1.00  0.00    -0.237 OA
ATOM     79  O   UNL A   1      48.257  37.885  28.286  1.00  0.00    -0.744 OA
ENDBRANCH  75  76
ENDBRANCH  54  68
BRANCH  55  80
ATOM     80  C   UNL A   1      43.298  23.708  26.990  1.00  0.00     0.058 A 
ATOM     81  C   UNL A   1      42.950  23.251  25.712  1.00  0.00     0.135 A 
ATOM     82  C   UNL A   1      43.201  22.802  28.059  1.00  0.00     0.135 A 
ATOM     83  F   UNL A   1      43.019  24.081  24.659  1.00  0.00    -0.206 F 
ATOM     84  C   UNL A   1      42.512  21.947  25.499  1.00  0.00     0.059 A 
ATOM     85  C   UNL A   1      42.795  21.487  27.867  1.00  0.00     0.059 A 
ATOM     86  F   UNL A   1      43.540  23.187  29.300  1.00  0.00    -0.206 F 
ATOM     87  C   UNL A   1      42.441  21.071  26.584  1.00  0.00     0.060 A 
BRANCH  87  88
ATOM     88  S   UNL A   1      41.919  19.369  26.292  1.00  0.00     0.124 S 
ATOM     89  O   UNL A   1      42.397  18.704  27.498  1.00  0.00    -0.237 OA
ATOM     90  O   UNL A   1      40.471  19.509  26.169  1.00  0.00    -0.237 OA
ATOM     91  O   UNL A   1      42.612  19.013  25.057  1.00  0.00    -0.744 OA
ENDBRANCH  87  88
ENDBRANCH  55  80
BRANCH  67  92
ATOM     92  C   UNL A   1      49.405  26.924  25.998  1.00  0.00     0.058 A 
ATOM     93  C   UNL A   1      49.729  27.068  24.640  1.00  0.00     0.135 A 
ATOM     94  C   UNL A   1      50.378  26.387  26.855  1.00  0.00     0.135 A 
ATOM     95  F   UNL A   1      48.828  27.567  23.780  1.00  0.00    -0.206 F 
ATOM     96  C   UNL A   1      50.970  26.683  24.148  1.00  0.00     0.059 A 
ATOM     97  C   UNL A   1      51.635  26.018  26.390  1.00  0.00     0.059 A 
ATOM     98  F   UNL A   1      50.117  26.237  28.165  1.00  0.00    -0.206 F 
ATOM     99  C   UNL A   1      51.919  26.164  25.032  1.00  0.00     0.060 A 
BRANCH  99 100
ATOM    100  S   UNL A   1      53.544  25.715  24.386  1.00  0.00     0.124 S 
ATOM    101  O   UNL A   1      53.362  25.938  22.955  1.00  0.00    -0.237 OA
ATOM    102  O   UNL A   1      54.421  26.661  25.068  1.00  0.00    -0.237 OA
ATOM    103  O   UNL A   1      53.697  24.321  24.791  1.00  0.00    -0.744 OA
ENDBRANCH  99 100
ENDBRANCH  67  92
ENDBRANCH  41  42
ENDBRANCH  33  36
ENDBRANCH  31  32
ENDBRANCH   1  31
TORSDOF 16
ENDMDL
MODEL 3
REMARK VINA RESULT:     -12.6      6.462     11.860
REMARK SMILES C[C@@H]1CC[C@H](C)[N@H+]1Cc1cc2c(cc1Cl)C=C(C(=O)NCCCNC(=O)c1ccc(-c3c4nc(c(-c5c(F)cc(S(=O)(=O)[O-])cc5F)c5ccc([nH]5)c(-c5c(F)cc(S(=O)(=O)[O-])cc5F)c5nc(c(-c6c(F)cc(S(=O)(=O)[O-])cc6F)c6ccc3[nH]6)C=C5)C=C4)cc1)[C@@H](C(F)(F)F)O2
REMARK SMILES IDX 22 1 21 2 20 3 18 4 19 5 17 7 9 8 10 9 14 10 11 11 13 12
REMARK SMILES IDX 15 13 12 14 98 15 16 16 93 17 8 18 7 19 6 20 5 21 4 22 3 23
REMARK SMILES IDX 2 24 1 26 94 27 95 28 96 29 97 30 23 31 24 32 25 33 26 35
REMARK SMILES IDX 27 36 28 37 92 38 29 39 91 40 30 41 31 42 32 43 85 44 33 45
REMARK SMILES IDX 90 46 84 47 86 48 34 49 89 50 83 51 82 52 35 54 69 55 48 56
REMARK SMILES IDX 68 57 49 58 52 59 67 60 87 61 50 62 51 63 66 65 88 66 53 67
REMARK SMILES IDX 36 68 37 69 46 70 38 71 39 72 45 73 47 74 40 75 41 76 42 77
REMARK SMILES IDX 43 78 44 79 70 80 71 81 80 82 72 83 73 84 79 85 81 86 74 87
REMARK SMILES IDX 75 88 76 89 77 90 78 91 54 92 55 93 64 94 56 95 57 96 63 97
REMARK SMILES IDX 65 98 58 99 59 100 60 101 61 102 62 103
REMARK H PARENT 20 6 7 25 24 34 86 53 52 64
REMARK Flexibility Score: inf
ROOT
ATOM      1  C   UNL A   1      33.579  29.680  27.165  1.00  0.00     0.042 C 
ENDROOT
BRANCH   1   2
ATOM      2  C   UNL A   1      33.605  29.935  25.667  1.00  0.00     0.118 C 
BRANCH   2   3
ATOM      3  N   UNL A   1      32.262  30.087  25.130  1.00  0.00    -0.352 N 
ATOM      4  C   UNL A   1      31.323  29.291  24.574  1.00  0.00     0.251 C 
ATOM      5  O   UNL A   1      30.291  29.868  24.215  1.00  0.00    -0.270 OA
ATOM      6  H   UNL A   1      31.954  31.020  25.188  1.00  0.00     0.163 HD
BRANCH   4   7
ATOM      7  C   UNL A   1      31.445  27.820  24.397  1.00  0.00     0.067 C 
ATOM      8  C   UNL A   1      31.735  22.847  25.163  1.00  0.00     0.029 A 
ATOM      9  C   UNL A   1      31.456  23.655  24.043  1.00  0.00     0.058 A 
ATOM     10  C   UNL A   1      31.993  23.494  26.387  1.00  0.00     0.050 A 
ATOM     11  C   UNL A   1      31.378  25.039  24.166  1.00  0.00     0.128 A 
ATOM     12  C   UNL A   1      31.806  24.874  26.524  1.00  0.00     0.033 A 
ATOM     13  Cl  UNL A   1      32.661  22.682  27.761  1.00  0.00    -0.084 Cl
ATOM     14  C   UNL A   1      31.486  25.647  25.414  1.00  0.00     0.019 A 
ATOM     15  O   UNL A   1      31.205  25.773  23.025  1.00  0.00    -0.475 OA
ATOM     16  C   UNL A   1      31.299  27.088  25.517  1.00  0.00     0.025 C 
ATOM     17  C   UNL A   1      31.764  27.122  23.103  1.00  0.00     0.314 C 
BRANCH   8  18
ATOM     18  C   UNL A   1      31.746  21.340  24.978  1.00  0.00     0.301 C 
BRANCH  18  19
ATOM     19  N   UNL A   1      32.959  20.747  24.394  1.00  0.00    -0.327 N 
ATOM     20  C   UNL A   1      32.520  18.571  23.296  1.00  0.00     0.075 C 
ATOM     21  C   UNL A   1      33.106  19.287  24.505  1.00  0.00     0.181 C 
ATOM     22  C   UNL A   1      34.610  19.049  24.622  1.00  0.00     0.071 C 
ATOM     23  C   UNL A   1      35.087  20.287  25.351  1.00  0.00     0.071 C 
ATOM     24  C   UNL A   1      34.224  21.393  24.762  1.00  0.00     0.181 C 
ATOM     25  H   UNL A   1      32.773  20.951  23.412  1.00  0.00     0.348 HD
ATOM     26  C   UNL A   1      34.844  22.014  23.512  1.00  0.00     0.075 C 
ENDBRANCH  18  19
ENDBRANCH   8  18
BRANCH  17  27
ATOM     27  C   UNL A   1      33.285  27.097  22.822  1.00  0.00     0.429 C 
ATOM     28  F   UNL A   1      33.989  27.108  23.980  1.00  0.00    -0.167 F 
ATOM     29  F   UNL A   1      33.666  25.983  22.149  1.00  0.00    -0.167 F 
ATOM     30  F   UNL A   1      33.707  28.148  22.082  1.00  0.00    -0.167 F 
ENDBRANCH  17  27
ENDBRANCH   4   7
ENDBRANCH   2   3
ENDBRANCH   1   2
BRANCH   1  31
ATOM     31  C   UNL A   1      34.976  29.519  27.748  1.00  0.00     0.118 C 
BRANCH  31  32
ATOM     32  N   UNL A   1      35.160  30.311  28.961  1.00  0.00    -0.352 N 
ATOM     33  C   UNL A   1      36.245  30.410  29.803  1.00  0.00     0.251 C 
ATOM     34  H   UNL A   1      34.386  30.862  29.218  1.00  0.00     0.163 HD
ATOM     35  O   UNL A   1      36.117  30.929  30.901  1.00  0.00    -0.269 OA
BRANCH  33  36
ATOM     36  C   UNL A   1      37.553  29.872  29.374  1.00  0.00     0.039 A 
ATOM     37  C   UNL A   1      38.410  29.293  30.309  1.00  0.00     0.014 A 
ATOM     38  C   UNL A   1      37.931  29.952  28.031  1.00  0.00     0.014 A 
ATOM     39  C   UNL A   1      39.713  28.987  29.948  1.00  0.00     0.010 A 
ATOM     40  C   UNL A   1      39.208  29.533  27.646  1.00  0.00     0.010 A 
ATOM     41  C   UNL A   1      40.128  29.096  28.612  1.00  0.00    -0.014 A 
BRANCH  41  42
ATOM     42  C   UNL A   1      41.531  28.747  28.264  1.00  0.00     0.031 A 
ATOM     43  C   UNL A   1      42.628  29.772  28.377  1.00  0.00     0.074 A 
ATOM     44  C   UNL A   1      41.820  27.475  27.923  1.00  0.00     0.049 A 
ATOM     45  N   UNL A   1      43.905  29.640  28.122  1.00  0.00    -0.248 NA
ATOM     46  C   UNL A   1      42.249  31.121  28.830  1.00  0.00     0.031 C 
ATOM     47  C   UNL A   1      40.840  26.391  27.801  1.00  0.00     0.029 A 
ATOM     48  N   UNL A   1      43.018  26.864  27.655  1.00  0.00    -0.354 N 
ATOM     49  C   UNL A   1      44.475  30.884  28.361  1.00  0.00     0.074 A 
ATOM     50  C   UNL A   1      43.404  31.770  28.757  1.00  0.00     0.031 C 
ATOM     51  C   UNL A   1      41.481  25.240  27.555  1.00  0.00     0.029 A 
ATOM     52  C   UNL A   1      42.906  25.514  27.420  1.00  0.00     0.049 A 
ATOM     53  H   UNL A   1      43.876  27.346  27.633  1.00  0.00     0.167 HD
ATOM     54  C   UNL A   1      45.776  31.250  28.270  1.00  0.00     0.037 A 
ATOM     55  C   UNL A   1      43.843  24.598  27.109  1.00  0.00     0.037 A 
ATOM     56  C   UNL A   1      46.841  30.350  27.908  1.00  0.00     0.049 A 
ATOM     57  C   UNL A   1      45.271  25.041  26.974  1.00  0.00     0.074 A 
ATOM     58  C   UNL A   1      48.194  30.621  27.793  1.00  0.00     0.029 A 
ATOM     59  N   UNL A   1      46.678  29.004  27.613  1.00  0.00    -0.354 N 
ATOM     60  N   UNL A   1      45.786  26.230  27.179  1.00  0.00    -0.248 NA
ATOM     61  C   UNL A   1      46.243  24.027  26.547  1.00  0.00     0.031 C 
ATOM     62  C   UNL A   1      48.844  29.448  27.396  1.00  0.00     0.029 A 
ATOM     63  C   UNL A   1      47.902  28.436  27.303  1.00  0.00     0.049 A 
ATOM     64  H   UNL A   1      45.818  28.524  27.623  1.00  0.00     0.167 HD
ATOM     65  C   UNL A   1      47.142  26.106  26.912  1.00  0.00     0.074 A 
ATOM     66  C   UNL A   1      47.373  24.721  26.553  1.00  0.00     0.031 C 
ATOM     67  C   UNL A   1      48.109  27.055  26.951  1.00  0.00     0.037 A 
BRANCH  54  68
ATOM     68  C   UNL A   1      46.133  32.681  28.563  1.00  0.00     0.058 A 
ATOM     69  C   UNL A   1      46.452  33.109  29.860  1.00  0.00     0.135 A 
ATOM     70  C   UNL A   1      46.229  33.619  27.521  1.00  0.00     0.135 A 
ATOM     71  F   UNL A   1      46.357  32.259  30.895  1.00  0.00    -0.206 F 
ATOM     72  C   UNL A   1      46.849  34.417  30.116  1.00  0.00     0.059 A 
ATOM     73  C   UNL A   1      46.645  34.927  27.751  1.00  0.00     0.059 A 
ATOM     74  F   UNL A   1      45.932  33.262  26.262  1.00  0.00    -0.206 F 
ATOM     75  C   UNL A   1      46.947  35.319  29.054  1.00  0.00     0.060 A 
BRANCH  75  76
ATOM     76  S   UNL A   1      47.493  37.004  29.404  1.00  0.00     0.124 S 
ATOM     77  O   UNL A   1      48.924  36.808  29.618  1.00  0.00    -0.237 OA
ATOM     78  O   UNL A   1      47.126  37.709  28.181  1.00  0.00    -0.237 OA
ATOM     79  O   UNL A   1      46.728  37.372  30.591  1.00  0.00    -0.744 OA
ENDBRANCH  75  76
ENDBRANCH  54  68
BRANCH  55  80
ATOM     80  C   UNL A   1      43.451  23.181  26.886  1.00  0.00     0.058 A 
ATOM     81  C   UNL A   1      43.074  22.360  27.956  1.00  0.00     0.135 A 
ATOM     82  C   UNL A   1      43.423  22.630  25.595  1.00  0.00     0.135 A 
ATOM     83  F   UNL A   1      43.091  22.839  29.210  1.00  0.00    -0.206 F 
ATOM     84  C   UNL A   1      42.692  21.036  27.759  1.00  0.00     0.059 A 
ATOM     85  C   UNL A   1      43.016  21.320  25.368  1.00  0.00     0.059 A 
ATOM     86  F   UNL A   1      43.759  23.382  24.534  1.00  0.00    -0.206 F 
ATOM     87  C   UNL A   1      42.663  20.527  26.459  1.00  0.00     0.060 A 
BRANCH  87  88
ATOM     88  S   UNL A   1      42.120  18.824  26.207  1.00  0.00     0.124 S 
ATOM     89  O   UNL A   1      42.301  18.259  27.538  1.00  0.00    -0.237 OA
ATOM     90  O   UNL A   1      40.739  19.004  25.770  1.00  0.00    -0.237 OA
ATOM     91  O   UNL A   1      43.033  18.329  25.181  1.00  0.00    -0.744 OA
ENDBRANCH  87  88
ENDBRANCH  55  80
BRANCH  67  92
ATOM     92  C   UNL A   1      49.506  26.628  26.608  1.00  0.00     0.058 A 
ATOM     93  C   UNL A   1      50.364  26.090  27.579  1.00  0.00     0.135 A 
ATOM     94  C   UNL A   1      49.969  26.697  25.284  1.00  0.00     0.135 A 
ATOM     95  F   UNL A   1      49.971  26.012  28.860  1.00  0.00    -0.206 F 
ATOM     96  C   UNL A   1      51.640  25.645  27.251  1.00  0.00     0.059 A 
ATOM     97  C   UNL A   1      51.231  26.235  24.929  1.00  0.00     0.059 A 
ATOM     98  F   UNL A   1      49.181  27.197  24.318  1.00  0.00    -0.206 F 
ATOM     99  C   UNL A   1      52.062  25.716  25.922  1.00  0.00     0.060 A 
BRANCH  99 100
ATOM    100  S   UNL A   1      53.702  25.089  25.505  1.00  0.00     0.124 S 
ATOM    101  O   UNL A   1      54.033  25.890  24.330  1.00  0.00    -0.237 OA
ATOM    102  O   UNL A   1      54.466  25.389  26.712  1.00  0.00    -0.237 OA
ATOM    103  O   UNL A   1      53.470  23.670  25.253  1.00  0.00    -0.744 OA
ENDBRANCH  99 100
ENDBRANCH  67  92
ENDBRANCH  41  42
ENDBRANCH  33  36
ENDBRANCH  31  32
ENDBRANCH   1  31
TORSDOF 16
ENDMDL
