MODEL 1
REMARK VINA RESULT:     -12.0      0.000      0.000
REMARK SMILES [NH3+][C@]1(C(=O)NCCCNC(=O)c2ccc(-c3c4nc(c(-c5c(F)cc(S(=O)(=O)[O-])cc5F)c5ccc([nH]5)c(-c5c(F)cc(S(=O)(=O)[O-])cc5F)c5nc(c(-c6c(F)cc(S(=O)(=O)[O-])cc6F)c6ccc3[nH]6)C=C5)C=C4)cc2)CC[C@@H]([NH+]2CCC(C(F)(F)F)CC2)C1
REMARK SMILES IDX 7 1 6 2 5 3 3 4 4 5 2 7 78 8 91 9 79 10 80 11 1 12 81 16
REMARK SMILES IDX 82 17 90 18 83 20 89 21 84 22 85 23 86 24 87 25 88 26 8 27
REMARK SMILES IDX 9 28 10 29 11 31 12 32 13 33 77 34 14 35 76 36 15 37 16 38
REMARK SMILES IDX 17 39 70 40 18 41 75 42 69 43 71 44 19 45 74 46 68 47 67 48
REMARK SMILES IDX 20 50 54 51 33 52 53 53 34 54 37 55 52 56 72 57 35 58 36 59
REMARK SMILES IDX 51 61 73 62 38 63 21 64 22 65 31 66 23 67 24 68 30 69 32 70
REMARK SMILES IDX 25 71 26 72 27 73 28 74 29 75 55 76 56 77 65 78 57 79 58 80
REMARK SMILES IDX 64 81 66 82 59 83 60 84 61 85 62 86 63 87 39 88 40 89 49 90
REMARK SMILES IDX 41 91 42 92 48 93 50 94 43 95 44 96 45 97 46 98 47 99
REMARK H PARENT 5 6 1 13 1 14 1 15 81 19 9 30 71 49 37 60
REMARK Flexibility Score: inf
ROOT
ATOM      1  C   UNL A   1      32.235  27.875  27.276  1.00  0.00     0.042 C 
ENDROOT
BRANCH   1   2
ATOM      2  C   UNL A   1      31.682  27.695  25.868  1.00  0.00     0.118 C 
BRANCH   2   3
ATOM      3  N   UNL A   1      31.004  28.882  25.384  1.00  0.00    -0.351 N 
ATOM      4  C   UNL A   1      30.789  29.391  24.143  1.00  0.00     0.281 C 
ATOM      5  O   UNL A   1      30.103  30.423  24.119  1.00  0.00    -0.268 OA
ATOM      6  H   UNL A   1      30.620  29.433  26.104  1.00  0.00     0.163 HD
BRANCH   4   7
ATOM      7  C   UNL A   1      31.434  28.846  22.834  1.00  0.00     0.179 C 
ATOM      8  C   UNL A   1      32.934  28.580  23.074  1.00  0.00     0.085 C 
ATOM      9  C   UNL A   1      30.879  27.441  22.526  1.00  0.00     0.144 C 
ATOM     10  C   UNL A   1      33.303  27.493  22.078  1.00  0.00     0.072 C 
ATOM     11  C   UNL A   1      32.058  26.594  21.987  1.00  0.00     0.191 C 
BRANCH   7  12
ATOM     12  N   UNL A   1      31.290  29.737  21.664  1.00  0.00    -0.345 N 
ATOM     13  H   UNL A   1      32.168  29.759  21.145  1.00  0.00     0.345 HD
ATOM     14  H   UNL A   1      31.057  30.679  21.980  1.00  0.00     0.345 HD
ATOM     15  H   UNL A   1      30.546  29.387  21.061  1.00  0.00     0.345 HD
ENDBRANCH   7  12
BRANCH  11  16
ATOM     16  N   UNL A   1      32.245  25.267  22.608  1.00  0.00    -0.332 N 
ATOM     17  C   UNL A   1      31.009  24.638  23.092  1.00  0.00     0.263 C 
ATOM     18  C   UNL A   1      33.005  24.366  21.727  1.00  0.00     0.263 C 
ATOM     19  H   UNL A   1      32.796  25.441  23.448  1.00  0.00     0.348 HD
ATOM     20  C   UNL A   1      31.310  23.342  23.846  1.00  0.00     0.074 C 
ATOM     21  C   UNL A   1      33.360  23.062  22.442  1.00  0.00     0.074 C 
ATOM     22  C   UNL A   1      32.104  22.367  22.976  1.00  0.00     0.106 C 
BRANCH  22  23
ATOM     23  C   UNL A   1      32.458  21.114  23.753  1.00  0.00     0.392 C 
ATOM     24  F   UNL A   1      31.723  21.027  24.885  1.00  0.00    -0.171 F 
ATOM     25  F   UNL A   1      32.209  20.003  23.026  1.00  0.00    -0.171 F 
ATOM     26  F   UNL A   1      33.760  21.090  24.110  1.00  0.00    -0.171 F 
ENDBRANCH  22  23
ENDBRANCH  11  16
ENDBRANCH   4   7
ENDBRANCH   2   3
ENDBRANCH   1   2
BRANCH   1  27
ATOM     27  C   UNL A   1      33.623  28.518  27.307  1.00  0.00     0.118 C 
BRANCH  27  28
ATOM     28  N   UNL A   1      33.577  29.933  27.661  1.00  0.00    -0.352 N 
ATOM     29  C   UNL A   1      34.523  30.723  28.269  1.00  0.00     0.251 C 
ATOM     30  H   UNL A   1      32.739  30.394  27.428  1.00  0.00     0.163 HD
ATOM     31  O   UNL A   1      34.222  31.851  28.648  1.00  0.00    -0.269 OA
BRANCH  29  32
ATOM     32  C   UNL A   1      35.893  30.212  28.481  1.00  0.00     0.039 A 
ATOM     33  C   UNL A   1      36.792  30.205  27.409  1.00  0.00     0.014 A 
ATOM     34  C   UNL A   1      36.287  29.725  29.729  1.00  0.00     0.014 A 
ATOM     35  C   UNL A   1      38.108  29.784  27.610  1.00  0.00     0.010 A 
ATOM     36  C   UNL A   1      37.614  29.367  29.944  1.00  0.00     0.010 A 
ATOM     37  C   UNL A   1      38.540  29.398  28.888  1.00  0.00    -0.014 A 
BRANCH  37  38
ATOM     38  C   UNL A   1      39.951  29.027  29.165  1.00  0.00     0.031 A 
ATOM     39  C   UNL A   1      40.912  30.069  29.666  1.00  0.00     0.074 A 
ATOM     40  C   UNL A   1      40.388  27.788  28.862  1.00  0.00     0.049 A 
ATOM     41  N   UNL A   1      42.212  30.002  29.791  1.00  0.00    -0.248 NA
ATOM     42  C   UNL A   1      40.336  31.369  30.046  1.00  0.00     0.031 C 
ATOM     43  C   UNL A   1      39.560  26.700  28.338  1.00  0.00     0.029 A 
ATOM     44  N   UNL A   1      41.648  27.244  28.922  1.00  0.00    -0.354 N 
ATOM     45  C   UNL A   1      42.614  31.257  30.233  1.00  0.00     0.074 A 
ATOM     46  C   UNL A   1      41.424  32.075  30.324  1.00  0.00     0.031 C 
ATOM     47  C   UNL A   1      40.331  25.621  28.124  1.00  0.00     0.029 A 
ATOM     48  C   UNL A   1      41.714  25.953  28.452  1.00  0.00     0.049 A 
ATOM     49  H   UNL A   1      42.429  27.732  29.268  1.00  0.00     0.167 HD
ATOM     50  C   UNL A   1      43.861  31.683  30.546  1.00  0.00     0.037 A 
ATOM     51  C   UNL A   1      42.772  25.137  28.281  1.00  0.00     0.037 A 
ATOM     52  C   UNL A   1      45.033  30.850  30.491  1.00  0.00     0.049 A 
ATOM     53  C   UNL A   1      44.146  25.628  28.648  1.00  0.00     0.074 A 
ATOM     54  C   UNL A   1      46.332  31.170  30.847  1.00  0.00     0.029 A 
ATOM     55  N   UNL A   1      45.049  29.532  30.061  1.00  0.00    -0.354 N 
ATOM     56  N   UNL A   1      44.504  26.805  29.105  1.00  0.00    -0.248 NA
ATOM     57  C   UNL A   1      45.262  24.686  28.477  1.00  0.00     0.031 C 
ATOM     58  C   UNL A   1      47.140  30.056  30.600  1.00  0.00     0.029 A 
ATOM     59  C   UNL A   1      46.337  29.028  30.130  1.00  0.00     0.049 A 
ATOM     60  H   UNL A   1      44.262  29.029  29.751  1.00  0.00     0.167 HD
ATOM     61  C   UNL A   1      45.878  26.734  29.306  1.00  0.00     0.074 A 
ATOM     62  C   UNL A   1      46.288  25.398  28.923  1.00  0.00     0.031 C 
ATOM     63  C   UNL A   1      46.722  27.687  29.768  1.00  0.00     0.037 A 
BRANCH  50  64
ATOM     64  C   UNL A   1      44.023  33.112  30.980  1.00  0.00     0.058 A 
ATOM     65  C   UNL A   1      43.957  33.483  32.332  1.00  0.00     0.135 A 
ATOM     66  C   UNL A   1      44.294  34.117  30.037  1.00  0.00     0.135 A 
ATOM     67  F   UNL A   1      43.686  32.564  33.272  1.00  0.00    -0.206 F 
ATOM     68  C   UNL A   1      44.128  34.804  32.732  1.00  0.00     0.059 A 
ATOM     69  C   UNL A   1      44.494  35.441  30.418  1.00  0.00     0.059 A 
ATOM     70  F   UNL A   1      44.367  33.817  28.731  1.00  0.00    -0.206 F 
ATOM     71  C   UNL A   1      44.396  35.777  31.767  1.00  0.00     0.060 A 
BRANCH  71  72
ATOM     72  S   UNL A   1      44.625  37.485  32.304  1.00  0.00     0.124 S 
ATOM     73  O   UNL A   1      44.640  38.190  31.026  1.00  0.00    -0.237 OA
ATOM     74  O   UNL A   1      43.449  37.712  33.139  1.00  0.00    -0.237 OA
ATOM     75  O   UNL A   1      45.897  37.449  33.016  1.00  0.00    -0.744 OA
ENDBRANCH  71  72
ENDBRANCH  50  64
BRANCH  51  76
ATOM     76  C   UNL A   1      42.575  23.766  27.741  1.00  0.00     0.058 A 
ATOM     77  C   UNL A   1      42.497  22.659  28.598  1.00  0.00     0.135 A 
ATOM     78  C   UNL A   1      42.454  23.535  26.361  1.00  0.00     0.135 A 
ATOM     79  F   UNL A   1      42.613  22.828  29.924  1.00  0.00    -0.206 F 
ATOM     80  C   UNL A   1      42.324  21.368  28.108  1.00  0.00     0.059 A 
ATOM     81  C   UNL A   1      42.257  22.257  25.849  1.00  0.00     0.059 A 
ATOM     82  F   UNL A   1      42.503  24.563  25.500  1.00  0.00    -0.206 F 
ATOM     83  C   UNL A   1      42.204  21.178  26.730  1.00  0.00     0.060 A 
BRANCH  83  84
ATOM     84  S   UNL A   1      41.936  19.505  26.105  1.00  0.00     0.124 S 
ATOM     85  O   UNL A   1      42.804  19.487  24.933  1.00  0.00    -0.237 OA
ATOM     86  O   UNL A   1      42.365  18.682  27.231  1.00  0.00    -0.237 OA
ATOM     87  O   UNL A   1      40.502  19.477  25.831  1.00  0.00    -0.744 OA
ENDBRANCH  83  84
ENDBRANCH  51  76
BRANCH  63  88
ATOM     88  C   UNL A   1      48.168  27.318  29.936  1.00  0.00     0.058 A 
ATOM     89  C   UNL A   1      49.104  27.520  28.911  1.00  0.00     0.135 A 
ATOM     90  C   UNL A   1      48.635  26.837  31.170  1.00  0.00     0.135 A 
ATOM     91  F   UNL A   1      48.706  27.970  27.711  1.00  0.00    -0.206 F 
ATOM     92  C   UNL A   1      50.456  27.255  29.103  1.00  0.00     0.059 A 
ATOM     93  C   UNL A   1      49.985  26.586  31.390  1.00  0.00     0.059 A 
ATOM     94  F   UNL A   1      47.779  26.634  32.183  1.00  0.00    -0.206 F 
ATOM     95  C   UNL A   1      50.888  26.794  30.349  1.00  0.00     0.060 A 
BRANCH  95  96
ATOM     96  S   UNL A   1      52.653  26.517  30.605  1.00  0.00     0.124 S 
ATOM     97  O   UNL A   1      53.126  26.343  29.236  1.00  0.00    -0.237 OA
ATOM     98  O   UNL A   1      53.071  27.749  31.267  1.00  0.00    -0.237 OA
ATOM     99  O   UNL A   1      52.690  25.320  31.441  1.00  0.00    -0.744 OA
ENDBRANCH  95  96
ENDBRANCH  63  88
ENDBRANCH  37  38
ENDBRANCH  29  32
ENDBRANCH  27  28
ENDBRANCH   1  27
TORSDOF 16
ENDMDL
MODEL 2
REMARK VINA RESULT:     -12.0      1.515      2.334
REMARK SMILES [NH3+][C@]1(C(=O)NCCCNC(=O)c2ccc(-c3c4nc(c(-c5c(F)cc(S(=O)(=O)[O-])cc5F)c5ccc([nH]5)c(-c5c(F)cc(S(=O)(=O)[O-])cc5F)c5nc(c(-c6c(F)cc(S(=O)(=O)[O-])cc6F)c6ccc3[nH]6)C=C5)C=C4)cc2)CC[C@@H]([NH+]2CCC(C(F)(F)F)CC2)C1
REMARK SMILES IDX 7 1 6 2 5 3 3 4 4 5 2 7 78 8 91 9 79 10 80 11 1 12 81 16
REMARK SMILES IDX 82 17 90 18 83 20 89 21 84 22 85 23 86 24 87 25 88 26 8 27
REMARK SMILES IDX 9 28 10 29 11 31 12 32 13 33 77 34 14 35 76 36 15 37 16 38
REMARK SMILES IDX 17 39 70 40 18 41 75 42 69 43 71 44 19 45 74 46 68 47 67 48
REMARK SMILES IDX 20 50 54 51 33 52 53 53 34 54 37 55 52 56 72 57 35 58 36 59
REMARK SMILES IDX 51 61 73 62 38 63 21 64 22 65 31 66 23 67 24 68 30 69 32 70
REMARK SMILES IDX 25 71 26 72 27 73 28 74 29 75 55 76 56 77 65 78 57 79 58 80
REMARK SMILES IDX 64 81 66 82 59 83 60 84 61 85 62 86 63 87 39 88 40 89 49 90
REMARK SMILES IDX 41 91 42 92 48 93 50 94 43 95 44 96 45 97 46 98 47 99
REMARK H PARENT 5 6 1 13 1 14 1 15 81 19 9 30 71 49 37 60
REMARK Flexibility Score: inf
ROOT
ATOM      1  C   UNL A   1      32.790  27.984  26.025  1.00  0.00     0.042 C 
ENDROOT
BRANCH   1   2
ATOM      2  C   UNL A   1      31.352  27.567  26.306  1.00  0.00     0.118 C 
BRANCH   2   3
ATOM      3  N   UNL A   1      31.263  26.240  26.883  1.00  0.00    -0.351 N 
ATOM      4  C   UNL A   1      31.398  24.990  26.368  1.00  0.00     0.281 C 
ATOM      5  O   UNL A   1      31.307  24.075  27.199  1.00  0.00    -0.268 OA
ATOM      6  H   UNL A   1      31.065  26.246  27.847  1.00  0.00     0.163 HD
BRANCH   4   7
ATOM      7  C   UNL A   1      31.524  24.662  24.850  1.00  0.00     0.179 C 
ATOM      8  C   UNL A   1      33.015  24.590  24.464  1.00  0.00     0.085 C 
ATOM      9  C   UNL A   1      31.029  23.226  24.585  1.00  0.00     0.144 C 
ATOM     10  C   UNL A   1      33.065  23.659  23.263  1.00  0.00     0.072 C 
ATOM     11  C   UNL A   1      31.975  22.606  23.528  1.00  0.00     0.191 C 
BRANCH   7  12
ATOM     12  N   UNL A   1      30.848  25.625  23.958  1.00  0.00    -0.345 N 
ATOM     13  H   UNL A   1      29.886  25.323  23.799  1.00  0.00     0.345 HD
ATOM     14  H   UNL A   1      31.343  25.668  23.067  1.00  0.00     0.345 HD
ATOM     15  H   UNL A   1      30.848  26.548  24.392  1.00  0.00     0.345 HD
ENDBRANCH   7  12
BRANCH  11  16
ATOM     16  N   UNL A   1      32.517  21.268  23.842  1.00  0.00    -0.332 N 
ATOM     17  C   UNL A   1      32.336  20.846  25.237  1.00  0.00     0.263 C 
ATOM     18  C   UNL A   1      32.020  20.255  22.898  1.00  0.00     0.263 C 
ATOM     19  H   UNL A   1      33.526  21.354  23.724  1.00  0.00     0.348 HD
ATOM     20  C   UNL A   1      33.050  19.522  25.508  1.00  0.00     0.074 C 
ATOM     21  C   UNL A   1      32.723  18.912  23.106  1.00  0.00     0.074 C 
ATOM     22  C   UNL A   1      32.572  18.429  24.550  1.00  0.00     0.106 C 
BRANCH  22  23
ATOM     23  C   UNL A   1      33.334  17.138  24.780  1.00  0.00     0.392 C 
ATOM     24  F   UNL A   1      34.622  17.262  24.384  1.00  0.00    -0.171 F 
ATOM     25  F   UNL A   1      33.347  16.805  26.089  1.00  0.00    -0.171 F 
ATOM     26  F   UNL A   1      32.796  16.104  24.098  1.00  0.00    -0.171 F 
ENDBRANCH  22  23
ENDBRANCH  11  16
ENDBRANCH   4   7
ENDBRANCH   2   3
ENDBRANCH   1   2
BRANCH   1  27
ATOM     27  C   UNL A   1      33.579  28.339  27.286  1.00  0.00     0.118 C 
BRANCH  27  28
ATOM     28  N   UNL A   1      33.521  29.763  27.602  1.00  0.00    -0.352 N 
ATOM     29  C   UNL A   1      34.463  30.578  28.182  1.00  0.00     0.251 C 
ATOM     30  H   UNL A   1      32.677  30.209  27.362  1.00  0.00     0.163 HD
ATOM     31  O   UNL A   1      34.153  31.713  28.533  1.00  0.00    -0.269 OA
BRANCH  29  32
ATOM     32  C   UNL A   1      35.839  30.086  28.400  1.00  0.00     0.039 A 
ATOM     33  C   UNL A   1      36.748  30.111  27.337  1.00  0.00     0.014 A 
ATOM     34  C   UNL A   1      36.229  29.587  29.644  1.00  0.00     0.014 A 
ATOM     35  C   UNL A   1      38.069  29.709  27.544  1.00  0.00     0.010 A 
ATOM     36  C   UNL A   1      37.559  29.247  29.866  1.00  0.00     0.010 A 
ATOM     37  C   UNL A   1      38.495  29.310  28.820  1.00  0.00    -0.014 A 
BRANCH  37  38
ATOM     38  C   UNL A   1      39.909  28.958  29.105  1.00  0.00     0.031 A 
ATOM     39  C   UNL A   1      40.853  30.012  29.612  1.00  0.00     0.074 A 
ATOM     40  C   UNL A   1      40.365  27.725  28.804  1.00  0.00     0.049 A 
ATOM     41  N   UNL A   1      42.153  29.963  29.745  1.00  0.00    -0.248 NA
ATOM     42  C   UNL A   1      40.258  31.304  29.990  1.00  0.00     0.031 C 
ATOM     43  C   UNL A   1      39.555  26.626  28.274  1.00  0.00     0.029 A 
ATOM     44  N   UNL A   1      41.631  27.198  28.871  1.00  0.00    -0.354 N 
ATOM     45  C   UNL A   1      42.536  31.223  30.190  1.00  0.00     0.074 A 
ATOM     46  C   UNL A   1      41.334  32.025  30.275  1.00  0.00     0.031 C 
ATOM     47  C   UNL A   1      40.342  25.558  28.064  1.00  0.00     0.029 A 
ATOM     48  C   UNL A   1      41.718  25.908  28.401  1.00  0.00     0.049 A 
ATOM     49  H   UNL A   1      42.404  27.696  29.222  1.00  0.00     0.167 HD
ATOM     50  C   UNL A   1      43.774  31.665  30.511  1.00  0.00     0.037 A 
ATOM     51  C   UNL A   1      42.788  25.107  28.236  1.00  0.00     0.037 A 
ATOM     52  C   UNL A   1      44.959  30.849  30.462  1.00  0.00     0.049 A 
ATOM     53  C   UNL A   1      44.153  25.616  28.610  1.00  0.00     0.074 A 
ATOM     54  C   UNL A   1      46.251  31.185  30.826  1.00  0.00     0.029 A 
ATOM     55  N   UNL A   1      44.995  29.531  30.032  1.00  0.00    -0.354 N 
ATOM     56  N   UNL A   1      44.492  26.797  29.071  1.00  0.00    -0.248 NA
ATOM     57  C   UNL A   1      45.282  24.690  28.446  1.00  0.00     0.031 C 
ATOM     58  C   UNL A   1      47.075  30.082  30.584  1.00  0.00     0.029 A 
ATOM     59  C   UNL A   1      46.288  29.044  30.108  1.00  0.00     0.049 A 
ATOM     60  H   UNL A   1      44.216  29.018  29.717  1.00  0.00     0.167 HD
ATOM     61  C   UNL A   1      45.865  26.745  29.280  1.00  0.00     0.074 A 
ATOM     62  C   UNL A   1      46.296  25.415  28.898  1.00  0.00     0.031 C 
ATOM     63  C   UNL A   1      46.694  27.709  29.748  1.00  0.00     0.037 A 
BRANCH  50  64
ATOM     64  C   UNL A   1      43.915  33.096  30.947  1.00  0.00     0.058 A 
ATOM     65  C   UNL A   1      44.131  34.130  30.021  1.00  0.00     0.135 A 
ATOM     66  C   UNL A   1      43.788  33.446  32.301  1.00  0.00     0.135 A 
ATOM     67  F   UNL A   1      44.275  33.848  28.716  1.00  0.00    -0.206 F 
ATOM     68  C   UNL A   1      44.241  35.456  30.425  1.00  0.00     0.059 A 
ATOM     69  C   UNL A   1      43.869  34.770  32.724  1.00  0.00     0.059 A 
ATOM     70  F   UNL A   1      43.582  32.497  33.227  1.00  0.00    -0.206 F 
ATOM     71  C   UNL A   1      44.109  35.766  31.779  1.00  0.00     0.060 A 
BRANCH  71  72
ATOM     72  S   UNL A   1      44.245  37.493  32.286  1.00  0.00     0.124 S 
ATOM     73  O   UNL A   1      43.910  38.186  31.045  1.00  0.00    -0.237 OA
ATOM     74  O   UNL A   1      43.250  37.586  33.351  1.00  0.00    -0.237 OA
ATOM     75  O   UNL A   1      45.632  37.614  32.717  1.00  0.00    -0.744 OA
ENDBRANCH  71  72
ENDBRANCH  50  64
BRANCH  51  76
ATOM     76  C   UNL A   1      42.613  23.734  27.693  1.00  0.00     0.058 A 
ATOM     77  C   UNL A   1      42.521  22.627  28.550  1.00  0.00     0.135 A 
ATOM     78  C   UNL A   1      42.526  23.500  26.311  1.00  0.00     0.135 A 
ATOM     79  F   UNL A   1      42.605  22.800  29.878  1.00  0.00    -0.206 F 
ATOM     80  C   UNL A   1      42.368  21.335  28.059  1.00  0.00     0.059 A 
ATOM     81  C   UNL A   1      42.349  22.219  25.797  1.00  0.00     0.059 A 
ATOM     82  F   UNL A   1      42.589  24.527  25.450  1.00  0.00    -0.206 F 
ATOM     83  C   UNL A   1      42.283  21.141  26.679  1.00  0.00     0.060 A 
BRANCH  83  84
ATOM     84  S   UNL A   1      42.040  19.466  26.051  1.00  0.00     0.124 S 
ATOM     85  O   UNL A   1      42.519  18.661  27.169  1.00  0.00    -0.237 OA
ATOM     86  O   UNL A   1      40.602  19.432  25.809  1.00  0.00    -0.237 OA
ATOM     87  O   UNL A   1      42.870  19.436  24.849  1.00  0.00    -0.744 OA
ENDBRANCH  83  84
ENDBRANCH  51  76
BRANCH  63  88
ATOM     88  C   UNL A   1      48.144  27.360  29.924  1.00  0.00     0.058 A 
ATOM     89  C   UNL A   1      49.105  27.692  28.958  1.00  0.00     0.135 A 
ATOM     90  C   UNL A   1      48.586  26.761  31.115  1.00  0.00     0.135 A 
ATOM     91  F   UNL A   1      48.732  28.259  27.800  1.00  0.00    -0.206 F 
ATOM     92  C   UNL A   1      50.457  27.441  29.166  1.00  0.00     0.059 A 
ATOM     93  C   UNL A   1      49.935  26.521  31.352  1.00  0.00     0.059 A 
ATOM     94  F   UNL A   1      47.705  26.430  32.072  1.00  0.00    -0.206 F 
ATOM     95  C   UNL A   1      50.864  26.861  30.369  1.00  0.00     0.060 A 
BRANCH  95  96
ATOM     96  S   UNL A   1      52.627  26.602  30.655  1.00  0.00     0.124 S 
ATOM     97  O   UNL A   1      53.109  26.344  29.301  1.00  0.00    -0.237 OA
ATOM     98  O   UNL A   1      53.040  27.872  31.243  1.00  0.00    -0.237 OA
ATOM     99  O   UNL A   1      52.659  25.458  31.561  1.00  0.00    -0.744 OA
ENDBRANCH  95  96
ENDBRANCH  63  88
ENDBRANCH  37  38
ENDBRANCH  29  32
ENDBRANCH  27  28
ENDBRANCH   1  27
TORSDOF 16
ENDMDL
MODEL 3
REMARK VINA RESULT:     -11.8      3.920      6.997
REMARK SMILES [NH3+][C@]1(C(=O)NCCCNC(=O)c2ccc(-c3c4nc(c(-c5c(F)cc(S(=O)(=O)[O-])cc5F)c5ccc([nH]5)c(-c5c(F)cc(S(=O)(=O)[O-])cc5F)c5nc(c(-c6c(F)cc(S(=O)(=O)[O-])cc6F)c6ccc3[nH]6)C=C5)C=C4)cc2)CC[C@@H]([NH+]2CCC(C(F)(F)F)CC2)C1
REMARK SMILES IDX 7 1 6 2 5 3 3 4 4 5 2 7 78 8 91 9 79 10 80 11 1 12 81 16
REMARK SMILES IDX 82 17 90 18 83 20 89 21 84 22 85 23 86 24 87 25 88 26 8 27
REMARK SMILES IDX 9 28 10 29 11 31 12 32 13 33 77 34 14 35 76 36 15 37 16 38
REMARK SMILES IDX 17 39 70 40 18 41 75 42 69 43 71 44 19 45 74 46 68 47 67 48
REMARK SMILES IDX 20 50 54 51 33 52 53 53 34 54 37 55 52 56 72 57 35 58 36 59
REMARK SMILES IDX 51 61 73 62 38 63 21 64 22 65 31 66 23 67 24 68 30 69 32 70
REMARK SMILES IDX 25 71 26 72 27 73 28 74 29 75 55 76 56 77 65 78 57 79 58 80
REMARK SMILES IDX 64 81 66 82 59 83 60 84 61 85 62 86 63 87 39 88 40 89 49 90
REMARK SMILES IDX 41 91 42 92 48 93 50 94 43 95 44 96 45 97 46 98 47 99
REMARK H PARENT 5 6 1 13 1 14 1 15 81 19 9 30 71 49 37 60
REMARK Flexibility Score: inf
ROOT
ATOM      1  C   UNL A   1      34.501  34.454  28.186  1.00  0.00     0.042 C 
ENDROOT
BRANCH   1   2
ATOM      2  C   UNL A   1      33.265  34.582  29.068  1.00  0.00     0.118 C 
BRANCH   2   3
ATOM      3  N   UNL A   1      33.125  35.910  29.634  1.00  0.00    -0.351 N 
ATOM      4  C   UNL A   1      33.142  36.388  30.905  1.00  0.00     0.281 C 
ATOM      5  O   UNL A   1      33.042  37.619  30.997  1.00  0.00    -0.268 OA
ATOM      6  H   UNL A   1      32.988  36.611  28.955  1.00  0.00     0.163 HD
BRANCH   4   7
ATOM      7  C   UNL A   1      33.150  35.503  32.188  1.00  0.00     0.179 C 
ATOM      8  C   UNL A   1      33.632  34.083  31.827  1.00  0.00     0.085 C 
ATOM      9  C   UNL A   1      34.240  36.001  33.157  1.00  0.00     0.144 C 
ATOM     10  C   UNL A   1      34.235  33.536  33.111  1.00  0.00     0.072 C 
ATOM     11  C   UNL A   1      34.892  34.749  33.792  1.00  0.00     0.191 C 
BRANCH   7  12
ATOM     12  N   UNL A   1      31.844  35.403  32.871  1.00  0.00    -0.345 N 
ATOM     13  H   UNL A   1      31.313  36.260  32.715  1.00  0.00     0.345 HD
ATOM     14  H   UNL A   1      31.993  35.271  33.871  1.00  0.00     0.345 HD
ATOM     15  H   UNL A   1      31.325  34.608  32.496  1.00  0.00     0.345 HD
ENDBRANCH   7  12
BRANCH  11  16
ATOM     16  N   UNL A   1      36.369  34.702  33.775  1.00  0.00    -0.332 N 
ATOM     17  C   UNL A   1      36.972  33.979  34.902  1.00  0.00     0.263 C 
ATOM     18  C   UNL A   1      36.875  34.215  32.482  1.00  0.00     0.263 C 
ATOM     19  H   UNL A   1      36.668  35.670  33.897  1.00  0.00     0.348 HD
ATOM     20  C   UNL A   1      38.495  34.104  34.885  1.00  0.00     0.074 C 
ATOM     21  C   UNL A   1      38.396  34.344  32.398  1.00  0.00     0.074 C 
ATOM     22  C   UNL A   1      39.077  33.612  33.558  1.00  0.00     0.106 C 
BRANCH  22  23
ATOM     23  C   UNL A   1      40.580  33.804  33.523  1.00  0.00     0.392 C 
ATOM     24  F   UNL A   1      41.030  34.301  34.699  1.00  0.00    -0.171 F 
ATOM     25  F   UNL A   1      41.217  32.631  33.314  1.00  0.00    -0.171 F 
ATOM     26  F   UNL A   1      40.959  34.658  32.548  1.00  0.00    -0.171 F 
ENDBRANCH  22  23
ENDBRANCH  11  16
ENDBRANCH   4   7
ENDBRANCH   2   3
ENDBRANCH   1   2
BRANCH   1  27
ATOM     27  C   UNL A   1      35.210  33.106  28.324  1.00  0.00     0.118 C 
BRANCH  27  28
ATOM     28  N   UNL A   1      34.299  31.975  28.176  1.00  0.00    -0.352 N 
ATOM     29  C   UNL A   1      34.568  30.632  28.070  1.00  0.00     0.251 C 
ATOM     30  H   UNL A   1      33.344  32.211  28.147  1.00  0.00     0.163 HD
ATOM     31  O   UNL A   1      33.670  29.853  27.766  1.00  0.00    -0.269 OA
BRANCH  29  32
ATOM     32  C   UNL A   1      35.937  30.128  28.305  1.00  0.00     0.039 A 
ATOM     33  C   UNL A   1      36.841  30.085  27.239  1.00  0.00     0.014 A 
ATOM     34  C   UNL A   1      36.325  29.684  29.571  1.00  0.00     0.014 A 
ATOM     35  C   UNL A   1      38.156  29.671  27.460  1.00  0.00     0.010 A 
ATOM     36  C   UNL A   1      37.651  29.333  29.804  1.00  0.00     0.010 A 
ATOM     37  C   UNL A   1      38.581  29.329  28.752  1.00  0.00    -0.014 A 
BRANCH  37  38
ATOM     38  C   UNL A   1      39.991  28.967  29.048  1.00  0.00     0.031 A 
ATOM     39  C   UNL A   1      40.941  30.017  29.553  1.00  0.00     0.074 A 
ATOM     40  C   UNL A   1      40.439  27.728  28.758  1.00  0.00     0.049 A 
ATOM     41  N   UNL A   1      42.239  29.958  29.694  1.00  0.00    -0.248 NA
ATOM     42  C   UNL A   1      40.354  31.317  29.918  1.00  0.00     0.031 C 
ATOM     43  C   UNL A   1      39.623  26.632  28.232  1.00  0.00     0.029 A 
ATOM     44  N   UNL A   1      41.700  27.191  28.837  1.00  0.00    -0.354 N 
ATOM     45  C   UNL A   1      42.630  31.218  30.132  1.00  0.00     0.074 A 
ATOM     46  C   UNL A   1      41.434  32.031  30.204  1.00  0.00     0.031 C 
ATOM     47  C   UNL A   1      40.402  25.557  28.034  1.00  0.00     0.029 A 
ATOM     48  C   UNL A   1      41.779  25.898  28.377  1.00  0.00     0.049 A 
ATOM     49  H   UNL A   1      42.475  27.686  29.189  1.00  0.00     0.167 HD
ATOM     50  C   UNL A   1      43.870  31.653  30.458  1.00  0.00     0.037 A 
ATOM     51  C   UNL A   1      42.844  25.086  28.223  1.00  0.00     0.037 A 
ATOM     52  C   UNL A   1      45.048  30.826  30.422  1.00  0.00     0.049 A 
ATOM     53  C   UNL A   1      44.211  25.588  28.603  1.00  0.00     0.074 A 
ATOM     54  C   UNL A   1      46.340  31.155  30.791  1.00  0.00     0.029 A 
ATOM     55  N   UNL A   1      45.076  29.506  30.001  1.00  0.00    -0.354 N 
ATOM     56  N   UNL A   1      44.557  26.769  29.056  1.00  0.00    -0.248 NA
ATOM     57  C   UNL A   1      45.333  24.650  28.451  1.00  0.00     0.031 C 
ATOM     58  C   UNL A   1      47.157  30.044  30.561  1.00  0.00     0.029 A 
ATOM     59  C   UNL A   1      46.365  29.009  30.088  1.00  0.00     0.049 A 
ATOM     60  H   UNL A   1      44.295  28.996  29.685  1.00  0.00     0.167 HD
ATOM     61  C   UNL A   1      45.928  26.707  29.274  1.00  0.00     0.074 A 
ATOM     62  C   UNL A   1      46.350  25.371  28.905  1.00  0.00     0.031 C 
ATOM     63  C   UNL A   1      46.762  27.668  29.740  1.00  0.00     0.037 A 
BRANCH  50  64
ATOM     64  C   UNL A   1      44.020  33.086  30.883  1.00  0.00     0.058 A 
ATOM     65  C   UNL A   1      44.032  34.134  29.950  1.00  0.00     0.135 A 
ATOM     66  C   UNL A   1      44.108  33.420  32.245  1.00  0.00     0.135 A 
ATOM     67  F   UNL A   1      43.967  33.868  28.635  1.00  0.00    -0.206 F 
ATOM     68  C   UNL A   1      44.151  35.461  30.348  1.00  0.00     0.059 A 
ATOM     69  C   UNL A   1      44.201  34.743  32.667  1.00  0.00     0.059 A 
ATOM     70  F   UNL A   1      44.101  32.457  33.179  1.00  0.00    -0.206 F 
ATOM     71  C   UNL A   1      44.236  35.756  31.710  1.00  0.00     0.060 A 
BRANCH  71  72
ATOM     72  S   UNL A   1      44.379  37.484  32.211  1.00  0.00     0.124 S 
ATOM     73  O   UNL A   1      43.479  37.528  33.360  1.00  0.00    -0.237 OA
ATOM     74  O   UNL A   1      45.802  37.605  32.517  1.00  0.00    -0.237 OA
ATOM     75  O   UNL A   1      43.931  38.218  31.034  1.00  0.00    -0.744 OA
ENDBRANCH  71  72
ENDBRANCH  50  64
BRANCH  51  76
ATOM     76  C   UNL A   1      42.660  23.711  27.690  1.00  0.00     0.058 A 
ATOM     77  C   UNL A   1      42.670  23.468  26.308  1.00  0.00     0.135 A 
ATOM     78  C   UNL A   1      42.478  22.613  28.546  1.00  0.00     0.135 A 
ATOM     79  F   UNL A   1      42.834  24.486  25.450  1.00  0.00    -0.206 F 
ATOM     80  C   UNL A   1      42.489  22.189  25.792  1.00  0.00     0.059 A 
ATOM     81  C   UNL A   1      42.318  21.322  28.054  1.00  0.00     0.059 A 
ATOM     82  F   UNL A   1      42.480  22.790  29.876  1.00  0.00    -0.206 F 
ATOM     83  C   UNL A   1      42.314  21.121  26.674  1.00  0.00     0.060 A 
BRANCH  83  84
ATOM     84  S   UNL A   1      42.122  19.458  25.997  1.00  0.00     0.124 S 
ATOM     85  O   UNL A   1      42.646  18.637  27.083  1.00  0.00    -0.237 OA
ATOM     86  O   UNL A   1      40.683  19.380  25.773  1.00  0.00    -0.237 OA
ATOM     87  O   UNL A   1      42.935  19.496  24.784  1.00  0.00    -0.744 OA
ENDBRANCH  83  84
ENDBRANCH  51  76
BRANCH  63  88
ATOM     88  C   UNL A   1      48.208  27.308  29.927  1.00  0.00     0.058 A 
ATOM     89  C   UNL A   1      49.183  27.659  28.983  1.00  0.00     0.135 A 
ATOM     90  C   UNL A   1      48.631  26.679  31.110  1.00  0.00     0.135 A 
ATOM     91  F   UNL A   1      48.828  28.254  27.833  1.00  0.00    -0.206 F 
ATOM     92  C   UNL A   1      50.531  27.397  29.203  1.00  0.00     0.059 A 
ATOM     93  C   UNL A   1      49.976  26.427  31.359  1.00  0.00     0.059 A 
ATOM     94  F   UNL A   1      47.736  26.330  32.046  1.00  0.00    -0.206 F 
ATOM     95  C   UNL A   1      50.919  26.787  30.397  1.00  0.00     0.060 A 
BRANCH  95  96
ATOM     96  S   UNL A   1      52.678  26.513  30.700  1.00  0.00     0.124 S 
ATOM     97  O   UNL A   1      53.166  26.225  29.355  1.00  0.00    -0.237 OA
ATOM     98  O   UNL A   1      53.100  27.789  31.268  1.00  0.00    -0.237 OA
ATOM     99  O   UNL A   1      52.690  25.385  31.627  1.00  0.00    -0.744 OA
ENDBRANCH  95  96
ENDBRANCH  63  88
ENDBRANCH  37  38
ENDBRANCH  29  32
ENDBRANCH  27  28
ENDBRANCH   1  27
TORSDOF 16
ENDMDL
