MODEL 1
REMARK VINA RESULT:     -13.2      0.000      0.000
REMARK SMILES Cc1cccc(CN(C)c2ccc(C(=O)NCCCNC(=O)c3ccc(-c4c5nc(c(-c6c(F)cc(S(=O)(=O)[O-])cc6F)c6ccc([nH]6)c(-c6c(F)cc(S(=O)(=O)[O-])cc6F)c6nc(c(-c7c(F)cc(S(=O)(=O)[O-])cc7F)c7ccc4[nH]7)C=C6)C=C5)cc3)cc2C)n1
REMARK SMILES IDX 18 1 17 2 16 3 14 4 15 5 13 7 10 8 11 9 90 10 12 11 89 12
REMARK SMILES IDX 91 13 8 14 9 15 7 16 6 17 1 18 2 19 3 20 92 21 4 22 5 23
REMARK SMILES IDX 19 24 20 25 21 26 22 28 23 29 24 30 88 31 25 32 87 33 26 34
REMARK SMILES IDX 27 35 28 36 81 37 29 38 86 39 80 40 82 41 30 42 85 43 79 44
REMARK SMILES IDX 78 45 31 47 65 48 44 49 64 50 45 51 48 52 63 53 83 54 46 55
REMARK SMILES IDX 47 56 62 58 84 59 49 60 32 61 33 62 42 63 34 64 35 65 41 66
REMARK SMILES IDX 43 67 36 68 37 69 38 70 39 71 40 72 66 73 67 74 76 75 68 76
REMARK SMILES IDX 69 77 75 78 77 79 70 80 71 81 72 82 73 83 74 84 50 85 51 86
REMARK SMILES IDX 60 87 52 88 53 89 59 90 61 91 54 92 55 93 56 94 57 95 58 96
REMARK H PARENT 16 6 20 27 82 46 48 57
REMARK Flexibility Score: inf
ROOT
ATOM      1  C   UNL A   1      32.935  29.511  25.326  1.00  0.00     0.042 C 
ENDROOT
BRANCH   1   2
ATOM      2  C   UNL A   1      31.424  29.542  25.096  1.00  0.00     0.118 C 
BRANCH   2   3
ATOM      3  N   UNL A   1      31.042  29.175  23.736  1.00  0.00    -0.352 N 
ATOM      4  C   UNL A   1      30.861  27.946  23.140  1.00  0.00     0.251 C 
ATOM      5  O   UNL A   1      30.300  27.900  22.045  1.00  0.00    -0.269 OA
ATOM      6  H   UNL A   1      30.885  29.942  23.138  1.00  0.00     0.163 HD
BRANCH   4   7
ATOM      7  C   UNL A   1      31.310  26.665  23.761  1.00  0.00     0.040 A 
ATOM      8  C   UNL A   1      32.270  24.257  24.956  1.00  0.00     0.040 A 
ATOM      9  C   UNL A   1      31.146  24.934  25.434  1.00  0.00     0.027 A 
ATOM     10  C   UNL A   1      32.992  24.871  23.916  1.00  0.00    -0.027 A 
ATOM     11  C   UNL A   1      30.670  26.101  24.849  1.00  0.00     0.016 A 
ATOM     12  C   UNL A   1      32.504  26.068  23.329  1.00  0.00     0.019 A 
ATOM     13  C   UNL A   1      34.331  24.351  23.474  1.00  0.00     0.046 C 
BRANCH   8  14
ATOM     14  N   UNL A   1      32.679  23.063  25.553  1.00  0.00    -0.368 N 
ATOM     15  C   UNL A   1      33.574  23.226  26.689  1.00  0.00     0.144 C 
BRANCH  14  16
ATOM     16  C   UNL A   1      31.749  21.909  25.575  1.00  0.00     0.172 C 
BRANCH  16  17
ATOM     17  C   UNL A   1      32.158  20.695  24.742  1.00  0.00     0.060 A 
ATOM     18  C   UNL A   1      32.564  17.082  25.342  1.00  0.00     0.067 C 
ATOM     19  C   UNL A   1      32.525  18.395  24.618  1.00  0.00     0.038 A 
ATOM     20  C   UNL A   1      32.540  18.431  23.227  1.00  0.00     0.023 A 
ATOM     21  N   UNL A   1      32.370  19.509  25.380  1.00  0.00    -0.256 NA
ATOM     22  C   UNL A   1      32.393  19.656  22.589  1.00  0.00     0.004 A 
ATOM     23  C   UNL A   1      32.194  20.802  23.350  1.00  0.00     0.026 A 
ENDBRANCH  16  17
ENDBRANCH  14  16
ENDBRANCH   8  14
ENDBRANCH   4   7
ENDBRANCH   2   3
ENDBRANCH   1   2
BRANCH   1  24
ATOM     24  C   UNL A   1      33.351  29.673  26.780  1.00  0.00     0.118 C 
BRANCH  24  25
ATOM     25  N   UNL A   1      33.795  31.028  27.078  1.00  0.00    -0.352 N 
ATOM     26  C   UNL A   1      34.864  31.410  27.867  1.00  0.00     0.251 C 
ATOM     27  H   UNL A   1      33.273  31.756  26.669  1.00  0.00     0.163 HD
ATOM     28  O   UNL A   1      35.013  32.558  28.244  1.00  0.00    -0.269 OA
BRANCH  26  29
ATOM     29  C   UNL A   1      35.896  30.383  28.110  1.00  0.00     0.039 A 
ATOM     30  C   UNL A   1      35.895  29.785  29.376  1.00  0.00     0.014 A 
ATOM     31  C   UNL A   1      36.981  30.254  27.248  1.00  0.00     0.014 A 
ATOM     32  C   UNL A   1      37.058  29.191  29.853  1.00  0.00     0.010 A 
ATOM     33  C   UNL A   1      38.157  29.731  27.756  1.00  0.00     0.010 A 
ATOM     34  C   UNL A   1      38.208  29.238  29.073  1.00  0.00    -0.014 A 
BRANCH  34  35
ATOM     35  C   UNL A   1      39.537  28.879  29.560  1.00  0.00     0.031 A 
ATOM     36  C   UNL A   1      40.130  27.567  29.204  1.00  0.00     0.074 A 
ATOM     37  C   UNL A   1      40.303  29.806  30.177  1.00  0.00     0.049 A 
ATOM     38  N   UNL A   1      41.245  27.122  29.684  1.00  0.00    -0.248 NA
ATOM     39  C   UNL A   1      39.471  26.604  28.320  1.00  0.00     0.031 C 
ATOM     40  C   UNL A   1      41.762  29.828  30.249  1.00  0.00     0.029 A 
ATOM     41  N   UNL A   1      39.898  30.799  31.073  1.00  0.00    -0.354 N 
ATOM     42  C   UNL A   1      41.610  26.048  28.912  1.00  0.00     0.074 A 
ATOM     43  C   UNL A   1      40.418  25.669  28.200  1.00  0.00     0.031 C 
ATOM     44  C   UNL A   1      42.141  30.602  31.274  1.00  0.00     0.029 A 
ATOM     45  C   UNL A   1      40.942  30.958  32.009  1.00  0.00     0.049 A 
ATOM     46  H   UNL A   1      39.047  31.295  31.054  1.00  0.00     0.167 HD
ATOM     47  C   UNL A   1      42.927  25.717  28.821  1.00  0.00     0.037 A 
ATOM     48  C   UNL A   1      40.758  30.712  33.341  1.00  0.00     0.037 A 
ATOM     49  C   UNL A   1      43.710  26.315  29.900  1.00  0.00     0.049 A 
ATOM     50  C   UNL A   1      41.648  29.633  33.918  1.00  0.00     0.074 A 
ATOM     51  C   UNL A   1      44.690  27.289  29.956  1.00  0.00     0.029 A 
ATOM     52  N   UNL A   1      43.351  26.041  31.218  1.00  0.00    -0.354 N 
ATOM     53  N   UNL A   1      42.370  28.818  33.201  1.00  0.00    -0.248 NA
ATOM     54  C   UNL A   1      41.769  29.365  35.350  1.00  0.00     0.031 C 
ATOM     55  C   UNL A   1      44.829  27.683  31.317  1.00  0.00     0.029 A 
ATOM     56  C   UNL A   1      43.978  26.909  32.088  1.00  0.00     0.049 A 
ATOM     57  H   UNL A   1      42.735  25.324  31.492  1.00  0.00     0.167 HD
ATOM     58  C   UNL A   1      42.971  27.894  34.016  1.00  0.00     0.074 A 
ATOM     59  C   UNL A   1      42.606  28.312  35.358  1.00  0.00     0.031 C 
ATOM     60  C   UNL A   1      43.690  26.845  33.516  1.00  0.00     0.037 A 
BRANCH  47  61
ATOM     61  C   UNL A   1      43.532  25.006  27.630  1.00  0.00     0.058 A 
ATOM     62  C   UNL A   1      43.463  23.602  27.519  1.00  0.00     0.135 A 
ATOM     63  C   UNL A   1      44.324  25.639  26.642  1.00  0.00     0.135 A 
ATOM     64  F   UNL A   1      42.775  22.875  28.413  1.00  0.00    -0.206 F 
ATOM     65  C   UNL A   1      44.121  22.887  26.509  1.00  0.00     0.059 A 
ATOM     66  C   UNL A   1      44.939  24.953  25.595  1.00  0.00     0.059 A 
ATOM     67  F   UNL A   1      44.605  26.948  26.683  1.00  0.00    -0.206 F 
ATOM     68  C   UNL A   1      44.857  23.573  25.550  1.00  0.00     0.060 A 
BRANCH  68  69
ATOM     69  S   UNL A   1      45.726  22.670  24.252  1.00  0.00     0.124 S 
ATOM     70  O   UNL A   1      46.602  23.702  23.707  1.00  0.00    -0.237 OA
ATOM     71  O   UNL A   1      46.385  21.599  24.991  1.00  0.00    -0.237 OA
ATOM     72  O   UNL A   1      44.648  22.236  23.367  1.00  0.00    -0.744 OA
ENDBRANCH  68  69
ENDBRANCH  47  61
BRANCH  48  73
ATOM     73  C   UNL A   1      39.389  31.050  33.810  1.00  0.00     0.058 A 
ATOM     74  C   UNL A   1      39.150  32.389  34.171  1.00  0.00     0.135 A 
ATOM     75  C   UNL A   1      38.288  30.271  33.427  1.00  0.00     0.135 A 
ATOM     76  F   UNL A   1      40.169  33.166  34.576  1.00  0.00    -0.206 F 
ATOM     77  C   UNL A   1      37.916  32.989  33.958  1.00  0.00     0.059 A 
ATOM     78  C   UNL A   1      37.035  30.850  33.218  1.00  0.00     0.059 A 
ATOM     79  F   UNL A   1      38.456  28.983  33.090  1.00  0.00    -0.206 F 
ATOM     80  C   UNL A   1      36.892  32.227  33.401  1.00  0.00     0.060 A 
BRANCH  80  81
ATOM     81  S   UNL A   1      35.469  33.109  32.714  1.00  0.00     0.124 S 
ATOM     82  O   UNL A   1      36.104  34.069  31.818  1.00  0.00    -0.237 OA
ATOM     83  O   UNL A   1      34.740  32.023  32.062  1.00  0.00    -0.237 OA
ATOM     84  O   UNL A   1      34.824  33.677  33.893  1.00  0.00    -0.744 OA
ENDBRANCH  80  81
ENDBRANCH  48  73
BRANCH  60  85
ATOM     85  C   UNL A   1      44.222  25.682  34.324  1.00  0.00     0.058 A 
ATOM     86  C   UNL A   1      43.417  24.683  34.898  1.00  0.00     0.135 A 
ATOM     87  C   UNL A   1      45.619  25.472  34.432  1.00  0.00     0.135 A 
ATOM     88  F   UNL A   1      42.083  24.700  34.762  1.00  0.00    -0.206 F 
ATOM     89  C   UNL A   1      43.950  23.596  35.597  1.00  0.00     0.059 A 
ATOM     90  C   UNL A   1      46.172  24.368  35.077  1.00  0.00     0.059 A 
ATOM     91  F   UNL A   1      46.495  26.339  33.901  1.00  0.00    -0.206 F 
ATOM     92  C   UNL A   1      45.331  23.447  35.685  1.00  0.00     0.060 A 
BRANCH  92  93
ATOM     93  S   UNL A   1      46.039  22.026  36.538  1.00  0.00     0.124 S 
ATOM     94  O   UNL A   1      45.368  20.918  35.867  1.00  0.00    -0.237 OA
ATOM     95  O   UNL A   1      47.468  22.153  36.265  1.00  0.00    -0.237 OA
ATOM     96  O   UNL A   1      45.654  22.252  37.928  1.00  0.00    -0.744 OA
ENDBRANCH  92  93
ENDBRANCH  60  85
ENDBRANCH  34  35
ENDBRANCH  26  29
ENDBRANCH  24  25
ENDBRANCH   1  24
TORSDOF 16
ENDMDL
MODEL 2
REMARK VINA RESULT:     -13.1      1.365      2.172
REMARK SMILES Cc1cccc(CN(C)c2ccc(C(=O)NCCCNC(=O)c3ccc(-c4c5nc(c(-c6c(F)cc(S(=O)(=O)[O-])cc6F)c6ccc([nH]6)c(-c6c(F)cc(S(=O)(=O)[O-])cc6F)c6nc(c(-c7c(F)cc(S(=O)(=O)[O-])cc7F)c7ccc4[nH]7)C=C6)C=C5)cc3)cc2C)n1
REMARK SMILES IDX 18 1 17 2 16 3 14 4 15 5 13 7 10 8 11 9 90 10 12 11 89 12
REMARK SMILES IDX 91 13 8 14 9 15 7 16 6 17 1 18 2 19 3 20 92 21 4 22 5 23
REMARK SMILES IDX 19 24 20 25 21 26 22 28 23 29 24 30 88 31 25 32 87 33 26 34
REMARK SMILES IDX 27 35 28 36 81 37 29 38 86 39 80 40 82 41 30 42 85 43 79 44
REMARK SMILES IDX 78 45 31 47 65 48 44 49 64 50 45 51 48 52 63 53 83 54 46 55
REMARK SMILES IDX 47 56 62 58 84 59 49 60 32 61 33 62 42 63 34 64 35 65 41 66
REMARK SMILES IDX 43 67 36 68 37 69 38 70 39 71 40 72 66 73 67 74 76 75 68 76
REMARK SMILES IDX 69 77 75 78 77 79 70 80 71 81 72 82 73 83 74 84 50 85 51 86
REMARK SMILES IDX 60 87 52 88 53 89 59 90 61 91 54 92 55 93 56 94 57 95 58 96
REMARK H PARENT 16 6 20 27 82 46 48 57
REMARK Flexibility Score: inf
ROOT
ATOM      1  C   UNL A   1      32.925  29.719  25.496  1.00  0.00     0.042 C 
ENDROOT
BRANCH   1   2
ATOM      2  C   UNL A   1      31.410  29.701  25.288  1.00  0.00     0.118 C 
BRANCH   2   3
ATOM      3  N   UNL A   1      31.024  29.663  23.881  1.00  0.00    -0.352 N 
ATOM      4  C   UNL A   1      31.002  28.631  22.968  1.00  0.00     0.251 C 
ATOM      5  O   UNL A   1      30.402  28.798  21.906  1.00  0.00    -0.269 OA
ATOM      6  H   UNL A   1      30.725  30.530  23.520  1.00  0.00     0.163 HD
BRANCH   4   7
ATOM      7  C   UNL A   1      31.668  27.318  23.208  1.00  0.00     0.040 A 
ATOM      8  C   UNL A   1      32.883  24.762  23.586  1.00  0.00     0.040 A 
ATOM      9  C   UNL A   1      33.631  25.926  23.396  1.00  0.00     0.027 A 
ATOM     10  C   UNL A   1      31.485  24.875  23.473  1.00  0.00    -0.027 A 
ATOM     11  C   UNL A   1      33.044  27.173  23.222  1.00  0.00     0.016 A 
ATOM     12  C   UNL A   1      30.893  26.151  23.285  1.00  0.00     0.019 A 
ATOM     13  C   UNL A   1      30.598  23.662  23.439  1.00  0.00     0.046 C 
BRANCH   8  14
ATOM     14  N   UNL A   1      33.523  23.541  23.803  1.00  0.00    -0.368 N 
ATOM     15  C   UNL A   1      34.419  23.125  22.734  1.00  0.00     0.144 C 
BRANCH  14  16
ATOM     16  C   UNL A   1      33.882  23.147  25.187  1.00  0.00     0.172 C 
BRANCH  16  17
ATOM     17  C   UNL A   1      35.358  22.844  25.442  1.00  0.00     0.060 A 
ATOM     18  C   UNL A   1      37.607  19.975  24.903  1.00  0.00     0.067 C 
ATOM     19  C   UNL A   1      37.141  21.347  25.289  1.00  0.00     0.038 A 
ATOM     20  C   UNL A   1      38.063  22.357  25.546  1.00  0.00     0.023 A 
ATOM     21  N   UNL A   1      35.800  21.566  25.266  1.00  0.00    -0.256 NA
ATOM     22  C   UNL A   1      37.596  23.641  25.793  1.00  0.00     0.004 A 
ATOM     23  C   UNL A   1      36.230  23.894  25.736  1.00  0.00     0.026 A 
ENDBRANCH  16  17
ENDBRANCH  14  16
ENDBRANCH   8  14
ENDBRANCH   4   7
ENDBRANCH   2   3
ENDBRANCH   1   2
BRANCH   1  24
ATOM     24  C   UNL A   1      33.357  29.736  26.954  1.00  0.00     0.118 C 
BRANCH  24  25
ATOM     25  N   UNL A   1      33.749  31.067  27.397  1.00  0.00    -0.352 N 
ATOM     26  C   UNL A   1      34.787  31.400  28.247  1.00  0.00     0.251 C 
ATOM     27  H   UNL A   1      33.212  31.816  27.050  1.00  0.00     0.163 HD
ATOM     28  O   UNL A   1      34.889  32.509  28.741  1.00  0.00    -0.269 OA
BRANCH  26  29
ATOM     29  C   UNL A   1      35.847  30.387  28.413  1.00  0.00     0.039 A 
ATOM     30  C   UNL A   1      35.914  29.752  29.658  1.00  0.00     0.014 A 
ATOM     31  C   UNL A   1      36.894  30.304  27.500  1.00  0.00     0.014 A 
ATOM     32  C   UNL A   1      37.108  29.166  30.065  1.00  0.00     0.010 A 
ATOM     33  C   UNL A   1      38.101  29.789  27.938  1.00  0.00     0.010 A 
ATOM     34  C   UNL A   1      38.221  29.259  29.236  1.00  0.00    -0.014 A 
BRANCH  34  35
ATOM     35  C   UNL A   1      39.576  28.911  29.652  1.00  0.00     0.031 A 
ATOM     36  C   UNL A   1      40.151  27.593  29.290  1.00  0.00     0.074 A 
ATOM     37  C   UNL A   1      40.375  29.852  30.204  1.00  0.00     0.049 A 
ATOM     38  N   UNL A   1      41.292  27.159  29.712  1.00  0.00    -0.248 NA
ATOM     39  C   UNL A   1      39.442  26.611  28.466  1.00  0.00     0.031 C 
ATOM     40  C   UNL A   1      41.835  29.877  30.190  1.00  0.00     0.029 A 
ATOM     41  N   UNL A   1      40.021  30.863  31.101  1.00  0.00    -0.354 N 
ATOM     42  C   UNL A   1      41.614  26.069  28.943  1.00  0.00     0.074 A 
ATOM     43  C   UNL A   1      40.383  25.674  28.310  1.00  0.00     0.031 C 
ATOM     44  C   UNL A   1      42.272  30.672  31.175  1.00  0.00     0.029 A 
ATOM     45  C   UNL A   1      41.117  31.043  31.971  1.00  0.00     0.049 A 
ATOM     46  H   UNL A   1      39.169  31.357  31.121  1.00  0.00     0.167 HD
ATOM     47  C   UNL A   1      42.924  25.737  28.783  1.00  0.00     0.037 A 
ATOM     48  C   UNL A   1      41.012  30.825  33.316  1.00  0.00     0.037 A 
ATOM     49  C   UNL A   1      43.767  26.359  29.801  1.00  0.00     0.049 A 
ATOM     50  C   UNL A   1      41.936  29.759  33.862  1.00  0.00     0.074 A 
ATOM     51  C   UNL A   1      44.747  27.334  29.779  1.00  0.00     0.029 A 
ATOM     52  N   UNL A   1      43.487  26.113  31.143  1.00  0.00    -0.354 N 
ATOM     53  N   UNL A   1      42.617  28.930  33.122  1.00  0.00    -0.248 NA
ATOM     54  C   UNL A   1      42.142  29.521  35.290  1.00  0.00     0.031 C 
ATOM     55  C   UNL A   1      44.965  27.758  31.122  1.00  0.00     0.029 A 
ATOM     56  C   UNL A   1      44.161  26.999  31.957  1.00  0.00     0.049 A 
ATOM     57  H   UNL A   1      42.889  25.401  31.468  1.00  0.00     0.167 HD
ATOM     58  C   UNL A   1      43.267  28.023  33.920  1.00  0.00     0.074 A 
ATOM     59  C   UNL A   1      42.979  28.469  35.271  1.00  0.00     0.031 C 
ATOM     60  C   UNL A   1      43.957  26.965  33.400  1.00  0.00     0.037 A 
BRANCH  47  61
ATOM     61  C   UNL A   1      43.460  25.003  27.573  1.00  0.00     0.058 A 
ATOM     62  C   UNL A   1      43.500  23.593  27.548  1.00  0.00     0.135 A 
ATOM     63  C   UNL A   1      44.088  25.632  26.471  1.00  0.00     0.135 A 
ATOM     64  F   UNL A   1      42.973  22.873  28.550  1.00  0.00    -0.206 F 
ATOM     65  C   UNL A   1      44.108  22.869  26.513  1.00  0.00     0.059 A 
ATOM     66  C   UNL A   1      44.647  24.932  25.403  1.00  0.00     0.059 A 
ATOM     67  F   UNL A   1      44.259  26.959  26.411  1.00  0.00    -0.206 F 
ATOM     68  C   UNL A   1      44.679  23.549  25.443  1.00  0.00     0.060 A 
BRANCH  68  69
ATOM     69  S   UNL A   1      45.482  22.637  24.110  1.00  0.00     0.124 S 
ATOM     70  O   UNL A   1      45.963  21.450  24.808  1.00  0.00    -0.237 OA
ATOM     71  O   UNL A   1      44.392  22.423  23.165  1.00  0.00    -0.237 OA
ATOM     72  O   UNL A   1      46.521  23.557  23.653  1.00  0.00    -0.744 OA
ENDBRANCH  68  69
ENDBRANCH  47  61
BRANCH  48  73
ATOM     73  C   UNL A   1      39.672  31.171  33.857  1.00  0.00     0.058 A 
ATOM     74  C   UNL A   1      39.441  32.523  34.172  1.00  0.00     0.135 A 
ATOM     75  C   UNL A   1      38.558  30.365  33.582  1.00  0.00     0.135 A 
ATOM     76  F   UNL A   1      40.474  33.327  34.475  1.00  0.00    -0.206 F 
ATOM     77  C   UNL A   1      38.188  33.101  34.013  1.00  0.00     0.059 A 
ATOM     78  C   UNL A   1      37.287  30.922  33.429  1.00  0.00     0.059 A 
ATOM     79  F   UNL A   1      38.719  29.065  33.292  1.00  0.00    -0.206 F 
ATOM     80  C   UNL A   1      37.140  32.305  33.558  1.00  0.00     0.060 A 
BRANCH  80  81
ATOM     81  S   UNL A   1      35.665  33.142  32.926  1.00  0.00     0.124 S 
ATOM     82  O   UNL A   1      35.052  32.108  32.101  1.00  0.00    -0.237 OA
ATOM     83  O   UNL A   1      34.959  33.463  34.165  1.00  0.00    -0.237 OA
ATOM     84  O   UNL A   1      36.211  34.285  32.203  1.00  0.00    -0.744 OA
ENDBRANCH  80  81
ENDBRANCH  48  73
BRANCH  60  85
ATOM     85  C   UNL A   1      44.538  25.820  34.200  1.00  0.00     0.058 A 
ATOM     86  C   UNL A   1      45.916  25.594  34.373  1.00  0.00     0.135 A 
ATOM     87  C   UNL A   1      43.686  24.969  34.945  1.00  0.00     0.135 A 
ATOM     88  F   UNL A   1      46.829  26.404  33.820  1.00  0.00    -0.206 F 
ATOM     89  C   UNL A   1      46.414  24.552  35.162  1.00  0.00     0.059 A 
ATOM     90  C   UNL A   1      44.162  23.959  35.779  1.00  0.00     0.059 A 
ATOM     91  F   UNL A   1      42.352  25.100  34.889  1.00  0.00    -0.206 F 
ATOM     92  C   UNL A   1      45.529  23.736  35.859  1.00  0.00     0.060 A 
BRANCH  92  93
ATOM     93  S   UNL A   1      46.153  22.419  36.922  1.00  0.00     0.124 S 
ATOM     94  O   UNL A   1      47.595  22.572  36.760  1.00  0.00    -0.237 OA
ATOM     95  O   UNL A   1      45.627  22.777  38.236  1.00  0.00    -0.237 OA
ATOM     96  O   UNL A   1      45.572  21.218  36.329  1.00  0.00    -0.744 OA
ENDBRANCH  92  93
ENDBRANCH  60  85
ENDBRANCH  34  35
ENDBRANCH  26  29
ENDBRANCH  24  25
ENDBRANCH   1  24
TORSDOF 16
ENDMDL
MODEL 3
REMARK VINA RESULT:     -13.1      3.812     10.509
REMARK SMILES Cc1cccc(CN(C)c2ccc(C(=O)NCCCNC(=O)c3ccc(-c4c5nc(c(-c6c(F)cc(S(=O)(=O)[O-])cc6F)c6ccc([nH]6)c(-c6c(F)cc(S(=O)(=O)[O-])cc6F)c6nc(c(-c7c(F)cc(S(=O)(=O)[O-])cc7F)c7ccc4[nH]7)C=C6)C=C5)cc3)cc2C)n1
REMARK SMILES IDX 18 1 17 2 16 3 14 4 15 5 13 7 10 8 11 9 90 10 12 11 89 12
REMARK SMILES IDX 91 13 8 14 9 15 7 16 6 17 1 18 2 19 3 20 92 21 4 22 5 23
REMARK SMILES IDX 19 24 20 25 21 26 22 28 23 29 24 30 88 31 25 32 87 33 26 34
REMARK SMILES IDX 27 35 28 36 81 37 29 38 86 39 80 40 82 41 30 42 85 43 79 44
REMARK SMILES IDX 78 45 31 47 65 48 44 49 64 50 45 51 48 52 63 53 83 54 46 55
REMARK SMILES IDX 47 56 62 58 84 59 49 60 32 61 33 62 42 63 34 64 35 65 41 66
REMARK SMILES IDX 43 67 36 68 37 69 38 70 39 71 40 72 66 73 67 74 76 75 68 76
REMARK SMILES IDX 69 77 75 78 77 79 70 80 71 81 72 82 73 83 74 84 50 85 51 86
REMARK SMILES IDX 60 87 52 88 53 89 59 90 61 91 54 92 55 93 56 94 57 95 58 96
REMARK H PARENT 16 6 20 27 82 46 48 57
REMARK Flexibility Score: inf
ROOT
ATOM      1  C   UNL A   1      36.099  21.840  25.875  1.00  0.00     0.042 C 
ENDROOT
BRANCH   1   2
ATOM      2  C   UNL A   1      35.715  20.651  24.993  1.00  0.00     0.118 C 
BRANCH   2   3
ATOM      3  N   UNL A   1      34.365  20.160  25.246  1.00  0.00    -0.352 N 
ATOM      4  C   UNL A   1      33.130  20.661  24.894  1.00  0.00     0.251 C 
ATOM      5  O   UNL A   1      32.144  19.934  25.014  1.00  0.00    -0.269 OA
ATOM      6  H   UNL A   1      34.329  19.320  25.760  1.00  0.00     0.163 HD
BRANCH   4   7
ATOM      7  C   UNL A   1      32.933  22.044  24.370  1.00  0.00     0.040 A 
ATOM      8  C   UNL A   1      32.634  24.724  23.432  1.00  0.00     0.040 A 
ATOM      9  C   UNL A   1      32.800  23.642  22.565  1.00  0.00     0.027 A 
ATOM     10  C   UNL A   1      32.730  24.460  24.811  1.00  0.00    -0.027 A 
ATOM     11  C   UNL A   1      32.935  22.335  23.018  1.00  0.00     0.016 A 
ATOM     12  C   UNL A   1      32.878  23.124  25.265  1.00  0.00     0.019 A 
ATOM     13  C   UNL A   1      32.788  25.570  25.823  1.00  0.00     0.046 C 
BRANCH   8  14
ATOM     14  N   UNL A   1      32.455  26.012  22.924  1.00  0.00    -0.368 N 
ATOM     15  C   UNL A   1      33.587  26.531  22.170  1.00  0.00     0.144 C 
BRANCH  14  16
ATOM     16  C   UNL A   1      31.100  26.444  22.507  1.00  0.00     0.172 C 
BRANCH  16  17
ATOM     17  C   UNL A   1      30.718  27.886  22.839  1.00  0.00     0.060 A 
ATOM     18  C   UNL A   1      28.297  30.352  21.558  1.00  0.00     0.067 C 
ATOM     19  C   UNL A   1      29.371  29.742  22.409  1.00  0.00     0.038 A 
ATOM     20  C   UNL A   1      29.742  30.340  23.609  1.00  0.00     0.023 A 
ATOM     21  N   UNL A   1      29.869  28.545  22.000  1.00  0.00    -0.256 NA
ATOM     22  C   UNL A   1      30.661  29.691  24.423  1.00  0.00     0.004 A 
ATOM     23  C   UNL A   1      31.153  28.448  24.041  1.00  0.00     0.026 A 
ENDBRANCH  16  17
ENDBRANCH  14  16
ENDBRANCH   8  14
ENDBRANCH   4   7
ENDBRANCH   2   3
ENDBRANCH   1   2
BRANCH   1  24
ATOM     24  C   UNL A   1      37.385  22.537  25.461  1.00  0.00     0.118 C 
BRANCH  24  25
ATOM     25  N   UNL A   1      38.559  21.942  26.084  1.00  0.00    -0.352 N 
ATOM     26  C   UNL A   1      39.674  22.595  26.578  1.00  0.00     0.251 C 
ATOM     27  H   UNL A   1      38.559  20.961  26.165  1.00  0.00     0.163 HD
ATOM     28  O   UNL A   1      40.698  22.002  26.864  1.00  0.00    -0.269 OA
BRANCH  26  29
ATOM     29  C   UNL A   1      39.510  24.031  26.876  1.00  0.00     0.039 A 
ATOM     30  C   UNL A   1      40.272  24.919  26.107  1.00  0.00     0.014 A 
ATOM     31  C   UNL A   1      38.883  24.442  28.048  1.00  0.00     0.014 A 
ATOM     32  C   UNL A   1      40.548  26.189  26.600  1.00  0.00     0.010 A 
ATOM     33  C   UNL A   1      39.224  25.677  28.570  1.00  0.00     0.010 A 
ATOM     34  C   UNL A   1      40.091  26.534  27.868  1.00  0.00    -0.014 A 
BRANCH  34  35
ATOM     35  C   UNL A   1      40.521  27.727  28.591  1.00  0.00     0.031 A 
ATOM     36  C   UNL A   1      39.672  28.942  28.596  1.00  0.00     0.074 A 
ATOM     37  C   UNL A   1      41.598  27.669  29.407  1.00  0.00     0.049 A 
ATOM     38  N   UNL A   1      40.027  30.073  29.110  1.00  0.00    -0.248 NA
ATOM     39  C   UNL A   1      38.359  29.003  27.948  1.00  0.00     0.031 C 
ATOM     40  C   UNL A   1      41.863  28.518  30.566  1.00  0.00     0.029 A 
ATOM     41  N   UNL A   1      42.794  26.974  29.207  1.00  0.00    -0.354 N 
ATOM     42  C   UNL A   1      38.896  30.845  29.195  1.00  0.00     0.074 A 
ATOM     43  C   UNL A   1      37.939  30.215  28.324  1.00  0.00     0.031 C 
ATOM     44  C   UNL A   1      43.172  28.482  30.848  1.00  0.00     0.029 A 
ATOM     45  C   UNL A   1      43.823  27.756  29.773  1.00  0.00     0.049 A 
ATOM     46  H   UNL A   1      42.898  26.104  28.757  1.00  0.00     0.167 HD
ATOM     47  C   UNL A   1      38.835  31.826  30.137  1.00  0.00     0.037 A 
ATOM     48  C   UNL A   1      44.844  28.260  29.017  1.00  0.00     0.037 A 
ATOM     49  C   UNL A   1      40.161  32.172  30.643  1.00  0.00     0.049 A 
ATOM     50  C   UNL A   1      44.956  29.768  29.021  1.00  0.00     0.074 A 
ATOM     51  C   UNL A   1      40.798  32.025  31.862  1.00  0.00     0.029 A 
ATOM     52  N   UNL A   1      41.134  32.591  29.739  1.00  0.00    -0.354 N 
ATOM     53  N   UNL A   1      44.042  30.570  29.493  1.00  0.00    -0.248 NA
ATOM     54  C   UNL A   1      46.094  30.496  28.464  1.00  0.00     0.031 C 
ATOM     55  C   UNL A   1      42.189  32.242  31.651  1.00  0.00     0.029 A 
ATOM     56  C   UNL A   1      42.384  32.578  30.321  1.00  0.00     0.049 A 
ATOM     57  H   UNL A   1      40.953  32.861  28.809  1.00  0.00     0.167 HD
ATOM     58  C   UNL A   1      44.397  31.871  29.248  1.00  0.00     0.074 A 
ATOM     59  C   UNL A   1      45.715  31.773  28.649  1.00  0.00     0.031 C 
ATOM     60  C   UNL A   1      43.561  32.915  29.529  1.00  0.00     0.037 A 
BRANCH  47  61
ATOM     61  C   UNL A   1      37.541  32.329  30.739  1.00  0.00     0.058 A 
ATOM     62  C   UNL A   1      36.891  33.461  30.203  1.00  0.00     0.135 A 
ATOM     63  C   UNL A   1      36.971  31.832  31.936  1.00  0.00     0.135 A 
ATOM     64  F   UNL A   1      37.351  34.055  29.091  1.00  0.00    -0.206 F 
ATOM     65  C   UNL A   1      35.768  34.046  30.803  1.00  0.00     0.059 A 
ATOM     66  C   UNL A   1      35.821  32.363  32.518  1.00  0.00     0.059 A 
ATOM     67  F   UNL A   1      37.545  30.852  32.645  1.00  0.00    -0.206 F 
ATOM     68  C   UNL A   1      35.239  33.489  31.962  1.00  0.00     0.060 A 
BRANCH  68  69
ATOM     69  S   UNL A   1      33.805  34.237  32.759  1.00  0.00     0.124 S 
ATOM     70  O   UNL A   1      33.191  34.960  31.650  1.00  0.00    -0.237 OA
ATOM     71  O   UNL A   1      33.069  33.078  33.251  1.00  0.00    -0.237 OA
ATOM     72  O   UNL A   1      34.399  35.076  33.798  1.00  0.00    -0.744 OA
ENDBRANCH  68  69
ENDBRANCH  47  61
BRANCH  48  73
ATOM     73  C   UNL A   1      45.232  27.364  27.896  1.00  0.00     0.058 A 
ATOM     74  C   UNL A   1      46.134  26.325  28.191  1.00  0.00     0.135 A 
ATOM     75  C   UNL A   1      44.392  27.203  26.784  1.00  0.00     0.135 A 
ATOM     76  F   UNL A   1      46.981  26.447  29.227  1.00  0.00    -0.206 F 
ATOM     77  C   UNL A   1      46.061  25.096  27.548  1.00  0.00     0.059 A 
ATOM     78  C   UNL A   1      44.311  25.981  26.115  1.00  0.00     0.059 A 
ATOM     79  F   UNL A   1      43.525  28.170  26.447  1.00  0.00    -0.206 F 
ATOM     80  C   UNL A   1      45.086  24.913  26.570  1.00  0.00     0.060 A 
BRANCH  80  81
ATOM     81  S   UNL A   1      44.703  23.214  26.078  1.00  0.00     0.124 S 
ATOM     82  O   UNL A   1      46.022  22.592  26.062  1.00  0.00    -0.237 OA
ATOM     83  O   UNL A   1      43.818  22.790  27.161  1.00  0.00    -0.237 OA
ATOM     84  O   UNL A   1      44.066  23.376  24.776  1.00  0.00    -0.744 OA
ENDBRANCH  80  81
ENDBRANCH  48  73
BRANCH  60  85
ATOM     85  C   UNL A   1      43.788  34.354  29.121  1.00  0.00     0.058 A 
ATOM     86  C   UNL A   1      43.733  34.819  27.795  1.00  0.00     0.135 A 
ATOM     87  C   UNL A   1      43.945  35.356  30.109  1.00  0.00     0.135 A 
ATOM     88  F   UNL A   1      43.469  33.987  26.776  1.00  0.00    -0.206 F 
ATOM     89  C   UNL A   1      43.900  36.166  27.462  1.00  0.00     0.059 A 
ATOM     90  C   UNL A   1      44.059  36.711  29.804  1.00  0.00     0.059 A 
ATOM     91  F   UNL A   1      43.984  35.046  31.414  1.00  0.00    -0.206 F 
ATOM     92  C   UNL A   1      44.066  37.107  28.474  1.00  0.00     0.060 A 
BRANCH  92  93
ATOM     93  S   UNL A   1      44.232  38.856  28.070  1.00  0.00     0.124 S 
ATOM     94  O   UNL A   1      43.282  39.462  28.997  1.00  0.00    -0.237 OA
ATOM     95  O   UNL A   1      45.639  39.128  28.346  1.00  0.00    -0.237 OA
ATOM     96  O   UNL A   1      43.859  38.904  26.659  1.00  0.00    -0.744 OA
ENDBRANCH  92  93
ENDBRANCH  60  85
ENDBRANCH  34  35
ENDBRANCH  26  29
ENDBRANCH  24  25
ENDBRANCH   1  24
TORSDOF 16
ENDMDL
