MODEL 1
REMARK VINA RESULT:     -11.1      0.000      0.000
REMARK SMILES CC(C)C[C@H](NC(=O)Cc1ccccc1)C(=O)NCCCNC(=O)c1ccc(-c2c3nc(c(-c4c(F)cc(S(=O)(=O)[O-])cc4F)c4ccc([nH]4)c(-c4c(F)cc(S(=O)(=O)[O-])cc4F)c4nc(c(-c5c(F)cc(S(=O)(=O)[O-])cc5F)c5ccc2[nH]5)C=C4)C=C3)cc1
REMARK SMILES IDX 20 1 19 2 18 3 16 4 17 5 5 7 4 8 2 9 1 10 3 11 6 12 7 13
REMARK SMILES IDX 8 15 9 16 10 17 11 18 15 19 12 20 14 21 13 22 21 23 22 24
REMARK SMILES IDX 23 25 24 27 25 28 26 29 90 30 27 31 89 32 28 33 29 34 30 35
REMARK SMILES IDX 83 36 31 37 88 38 82 39 84 40 32 41 87 42 81 43 80 44 33 46
REMARK SMILES IDX 67 47 46 48 66 49 47 50 50 51 65 52 85 53 48 54 49 55 64 57
REMARK SMILES IDX 86 58 51 59 34 60 35 61 44 62 36 63 37 64 43 65 45 66 38 67
REMARK SMILES IDX 39 68 40 69 41 70 42 71 68 72 69 73 78 74 70 75 71 76 77 77
REMARK SMILES IDX 79 78 72 79 73 80 74 81 75 82 76 83 52 84 53 85 62 86 54 87
REMARK SMILES IDX 55 88 61 89 63 90 56 91 57 92 58 93 59 94 60 95
REMARK H PARENT 18 6 6 14 22 26 84 45 50 56
REMARK Flexibility Score: inf
ROOT
ATOM      1  C   UNL A   1      37.360  23.205  25.660  1.00  0.00     0.042 C 
ENDROOT
BRANCH   1   2
ATOM      2  C   UNL A   1      36.031  23.805  25.231  1.00  0.00     0.117 C 
BRANCH   2   3
ATOM      3  N   UNL A   1      35.083  22.794  24.778  1.00  0.00    -0.354 N 
ATOM      4  C   UNL A   1      33.858  22.930  24.182  1.00  0.00     0.242 C 
ATOM      5  O   UNL A   1      33.319  21.918  23.730  1.00  0.00    -0.273 OA
ATOM      6  H   UNL A   1      35.370  21.863  24.924  1.00  0.00     0.163 HD
BRANCH   4   7
ATOM      7  C   UNL A   1      33.233  24.325  23.973  1.00  0.00     0.171 C 
BRANCH   7   8
ATOM      8  C   UNL A   1      31.950  24.414  24.810  1.00  0.00     0.038 C 
BRANCH   8   9
ATOM      9  C   UNL A   1      31.982  25.351  26.030  1.00  0.00    -0.015 C 
ATOM     10  C   UNL A   1      33.169  26.312  25.945  1.00  0.00     0.007 C 
ATOM     11  C   UNL A   1      30.675  26.152  26.077  1.00  0.00     0.007 C 
ENDBRANCH   8   9
ENDBRANCH   7   8
BRANCH   7  12
ATOM     12  N   UNL A   1      33.072  24.525  22.520  1.00  0.00    -0.344 N 
ATOM     13  C   UNL A   1      33.215  25.597  21.696  1.00  0.00     0.225 C 
ATOM     14  H   UNL A   1      32.803  23.705  22.044  1.00  0.00     0.164 HD
ATOM     15  O   UNL A   1      33.125  25.394  20.483  1.00  0.00    -0.275 OA
BRANCH  13  16
ATOM     16  C   UNL A   1      33.441  26.997  22.232  1.00  0.00     0.135 C 
BRANCH  16  17
ATOM     17  C   UNL A   1      32.182  27.738  22.641  1.00  0.00    -0.039 A 
ATOM     18  C   UNL A   1      32.305  28.871  23.465  1.00  0.00     0.004 A 
ATOM     19  C   UNL A   1      30.898  27.264  22.333  1.00  0.00     0.004 A 
ATOM     20  C   UNL A   1      31.178  29.431  24.068  1.00  0.00     0.000 A 
ATOM     21  C   UNL A   1      29.774  27.825  22.943  1.00  0.00     0.000 A 
ATOM     22  C   UNL A   1      29.918  28.892  23.827  1.00  0.00     0.000 A 
ENDBRANCH  16  17
ENDBRANCH  13  16
ENDBRANCH   7  12
ENDBRANCH   4   7
ENDBRANCH   2   3
ENDBRANCH   1   2
BRANCH   1  23
ATOM     23  C   UNL A   1      38.258  24.167  26.426  1.00  0.00     0.118 C 
BRANCH  23  24
ATOM     24  N   UNL A   1      39.678  23.925  26.204  1.00  0.00    -0.352 N 
ATOM     25  C   UNL A   1      40.759  24.635  26.670  1.00  0.00     0.251 C 
ATOM     26  H   UNL A   1      39.893  23.143  25.645  1.00  0.00     0.163 HD
ATOM     27  O   UNL A   1      41.888  24.365  26.270  1.00  0.00    -0.269 OA
BRANCH  25  28
ATOM     28  C   UNL A   1      40.549  25.746  27.624  1.00  0.00     0.039 A 
ATOM     29  C   UNL A   1      39.576  25.612  28.617  1.00  0.00     0.014 A 
ATOM     30  C   UNL A   1      41.338  26.897  27.561  1.00  0.00     0.014 A 
ATOM     31  C   UNL A   1      39.450  26.601  29.596  1.00  0.00     0.010 A 
ATOM     32  C   UNL A   1      41.269  27.836  28.584  1.00  0.00     0.010 A 
ATOM     33  C   UNL A   1      40.326  27.700  29.613  1.00  0.00    -0.014 A 
BRANCH  33  34
ATOM     34  C   UNL A   1      40.273  28.716  30.695  1.00  0.00     0.031 A 
ATOM     35  C   UNL A   1      41.173  28.585  31.895  1.00  0.00     0.074 A 
ATOM     36  C   UNL A   1      39.365  29.711  30.635  1.00  0.00     0.049 A 
ATOM     37  N   UNL A   1      41.219  29.319  32.977  1.00  0.00    -0.248 NA
ATOM     38  C   UNL A   1      42.126  27.463  31.891  1.00  0.00     0.031 C 
ATOM     39  C   UNL A   1      38.397  29.912  29.553  1.00  0.00     0.029 A 
ATOM     40  N   UNL A   1      39.099  30.736  31.509  1.00  0.00    -0.354 N 
ATOM     41  C   UNL A   1      42.187  28.739  33.787  1.00  0.00     0.074 A 
ATOM     42  C   UNL A   1      42.664  27.560  33.097  1.00  0.00     0.031 C 
ATOM     43  C   UNL A   1      37.662  31.004  29.816  1.00  0.00     0.029 A 
ATOM     44  C   UNL A   1      38.077  31.561  31.099  1.00  0.00     0.049 A 
ATOM     45  H   UNL A   1      39.593  30.868  32.350  1.00  0.00     0.167 HD
ATOM     46  C   UNL A   1      42.656  29.163  34.985  1.00  0.00     0.037 A 
ATOM     47  C   UNL A   1      37.532  32.639  31.694  1.00  0.00     0.037 A 
ATOM     48  C   UNL A   1      42.201  30.355  35.650  1.00  0.00     0.049 A 
ATOM     49  C   UNL A   1      38.076  33.098  33.020  1.00  0.00     0.074 A 
ATOM     50  C   UNL A   1      42.659  30.910  36.832  1.00  0.00     0.029 A 
ATOM     51  N   UNL A   1      41.183  31.179  35.191  1.00  0.00    -0.354 N 
ATOM     52  N   UNL A   1      39.040  32.576  33.740  1.00  0.00    -0.248 NA
ATOM     53  C   UNL A   1      37.462  34.295  33.613  1.00  0.00     0.031 C 
ATOM     54  C   UNL A   1      41.893  32.046  37.109  1.00  0.00     0.029 A 
ATOM     55  C   UNL A   1      40.987  32.227  36.076  1.00  0.00     0.049 A 
ATOM     56  H   UNL A   1      40.677  31.040  34.358  1.00  0.00     0.167 HD
ATOM     57  C   UNL A   1      39.165  33.392  34.858  1.00  0.00     0.074 A 
ATOM     58  C   UNL A   1      38.187  34.452  34.713  1.00  0.00     0.031 C 
ATOM     59  C   UNL A   1      40.011  33.275  35.912  1.00  0.00     0.037 A 
BRANCH  46  60
ATOM     60  C   UNL A   1      43.724  28.336  35.646  1.00  0.00     0.058 A 
ATOM     61  C   UNL A   1      43.409  27.327  36.569  1.00  0.00     0.135 A 
ATOM     62  C   UNL A   1      45.080  28.535  35.332  1.00  0.00     0.135 A 
ATOM     63  F   UNL A   1      42.132  27.104  36.917  1.00  0.00    -0.206 F 
ATOM     64  C   UNL A   1      44.398  26.567  37.184  1.00  0.00     0.059 A 
ATOM     65  C   UNL A   1      46.084  27.767  35.914  1.00  0.00     0.059 A 
ATOM     66  F   UNL A   1      45.438  29.487  34.457  1.00  0.00    -0.206 F 
ATOM     67  C   UNL A   1      45.734  26.795  36.850  1.00  0.00     0.060 A 
BRANCH  67  68
ATOM     68  S   UNL A   1      47.005  25.799  37.656  1.00  0.00     0.124 S 
ATOM     69  O   UNL A   1      48.007  25.697  36.600  1.00  0.00    -0.237 OA
ATOM     70  O   UNL A   1      47.373  26.627  38.800  1.00  0.00    -0.237 OA
ATOM     71  O   UNL A   1      46.309  24.558  37.983  1.00  0.00    -0.744 OA
ENDBRANCH  67  68
ENDBRANCH  46  60
BRANCH  47  72
ATOM     72  C   UNL A   1      36.422  33.375  31.029  1.00  0.00     0.058 A 
ATOM     73  C   UNL A   1      36.656  34.147  29.882  1.00  0.00     0.135 A 
ATOM     74  C   UNL A   1      35.108  33.312  31.517  1.00  0.00     0.135 A 
ATOM     75  F   UNL A   1      37.898  34.243  29.381  1.00  0.00    -0.206 F 
ATOM     76  C   UNL A   1      35.633  34.844  29.250  1.00  0.00     0.059 A 
ATOM     77  C   UNL A   1      34.061  33.981  30.889  1.00  0.00     0.059 A 
ATOM     78  F   UNL A   1      34.827  32.574  32.602  1.00  0.00    -0.206 F 
ATOM     79  C   UNL A   1      34.336  34.753  29.760  1.00  0.00     0.060 A 
BRANCH  79  80
ATOM     80  S   UNL A   1      33.006  35.624  28.903  1.00  0.00     0.124 S 
ATOM     81  O   UNL A   1      33.748  36.634  28.160  1.00  0.00    -0.237 OA
ATOM     82  O   UNL A   1      32.403  34.558  28.108  1.00  0.00    -0.237 OA
ATOM     83  O   UNL A   1      32.176  36.124  29.996  1.00  0.00    -0.744 OA
ENDBRANCH  79  80
ENDBRANCH  47  72
BRANCH  59  84
ATOM     84  C   UNL A   1      39.937  34.332  36.978  1.00  0.00     0.058 A 
ATOM     85  C   UNL A   1      39.065  34.216  38.072  1.00  0.00     0.135 A 
ATOM     86  C   UNL A   1      40.788  35.449  36.933  1.00  0.00     0.135 A 
ATOM     87  F   UNL A   1      38.226  33.171  38.159  1.00  0.00    -0.206 F 
ATOM     88  C   UNL A   1      39.023  35.181  39.071  1.00  0.00     0.059 A 
ATOM     89  C   UNL A   1      40.782  36.412  37.936  1.00  0.00     0.059 A 
ATOM     90  F   UNL A   1      41.648  35.602  35.913  1.00  0.00    -0.206 F 
ATOM     91  C   UNL A   1      39.888  36.275  38.996  1.00  0.00     0.060 A 
BRANCH  91  92
ATOM     92  S   UNL A   1      39.849  37.502  40.320  1.00  0.00     0.124 S 
ATOM     93  O   UNL A   1      40.726  38.539  39.786  1.00  0.00    -0.237 OA
ATOM     94  O   UNL A   1      38.431  37.844  40.389  1.00  0.00    -0.237 OA
ATOM     95  O   UNL A   1      40.367  36.772  41.474  1.00  0.00    -0.744 OA
ENDBRANCH  91  92
ENDBRANCH  59  84
ENDBRANCH  33  34
ENDBRANCH  25  28
ENDBRANCH  23  24
ENDBRANCH   1  23
TORSDOF 18
ENDMDL
MODEL 2
REMARK VINA RESULT:     -11.0      4.872     10.569
REMARK SMILES CC(C)C[C@H](NC(=O)Cc1ccccc1)C(=O)NCCCNC(=O)c1ccc(-c2c3nc(c(-c4c(F)cc(S(=O)(=O)[O-])cc4F)c4ccc([nH]4)c(-c4c(F)cc(S(=O)(=O)[O-])cc4F)c4nc(c(-c5c(F)cc(S(=O)(=O)[O-])cc5F)c5ccc2[nH]5)C=C4)C=C3)cc1
REMARK SMILES IDX 20 1 19 2 18 3 16 4 17 5 5 7 4 8 2 9 1 10 3 11 6 12 7 13
REMARK SMILES IDX 8 15 9 16 10 17 11 18 15 19 12 20 14 21 13 22 21 23 22 24
REMARK SMILES IDX 23 25 24 27 25 28 26 29 90 30 27 31 89 32 28 33 29 34 30 35
REMARK SMILES IDX 83 36 31 37 88 38 82 39 84 40 32 41 87 42 81 43 80 44 33 46
REMARK SMILES IDX 67 47 46 48 66 49 47 50 50 51 65 52 85 53 48 54 49 55 64 57
REMARK SMILES IDX 86 58 51 59 34 60 35 61 44 62 36 63 37 64 43 65 45 66 38 67
REMARK SMILES IDX 39 68 40 69 41 70 42 71 68 72 69 73 78 74 70 75 71 76 77 77
REMARK SMILES IDX 79 78 72 79 73 80 74 81 75 82 76 83 52 84 53 85 62 86 54 87
REMARK SMILES IDX 55 88 61 89 63 90 56 91 57 92 58 93 59 94 60 95
REMARK H PARENT 18 6 6 14 22 26 84 45 50 56
REMARK Flexibility Score: inf
ROOT
ATOM      1  C   UNL A   1      32.210  27.790  27.397  1.00  0.00     0.042 C 
ENDROOT
BRANCH   1   2
ATOM      2  C   UNL A   1      31.645  27.130  26.149  1.00  0.00     0.117 C 
BRANCH   2   3
ATOM      3  N   UNL A   1      32.427  27.432  24.956  1.00  0.00    -0.354 N 
ATOM      4  C   UNL A   1      33.196  26.617  24.169  1.00  0.00     0.242 C 
ATOM      5  O   UNL A   1      33.621  27.074  23.107  1.00  0.00    -0.273 OA
ATOM      6  H   UNL A   1      32.396  28.373  24.669  1.00  0.00     0.163 HD
BRANCH   4   7
ATOM      7  C   UNL A   1      33.416  25.137  24.545  1.00  0.00     0.171 C 
BRANCH   7   8
ATOM      8  C   UNL A   1      34.629  25.047  25.481  1.00  0.00     0.038 C 
BRANCH   8   9
ATOM      9  C   UNL A   1      35.273  23.660  25.649  1.00  0.00    -0.015 C 
ATOM     10  C   UNL A   1      36.785  23.784  25.846  1.00  0.00     0.007 C 
ATOM     11  C   UNL A   1      34.651  22.967  26.867  1.00  0.00     0.007 C 
ENDBRANCH   8   9
ENDBRANCH   7   8
BRANCH   7  12
ATOM     12  N   UNL A   1      33.512  24.371  23.287  1.00  0.00    -0.344 N 
ATOM     13  C   UNL A   1      33.036  23.164  22.881  1.00  0.00     0.225 C 
ATOM     14  H   UNL A   1      34.034  24.834  22.591  1.00  0.00     0.164 HD
ATOM     15  O   UNL A   1      33.193  22.863  21.696  1.00  0.00    -0.275 OA
BRANCH  13  16
ATOM     16  C   UNL A   1      32.365  22.201  23.842  1.00  0.00     0.135 C 
BRANCH  16  17
ATOM     17  C   UNL A   1      32.814  20.757  23.719  1.00  0.00    -0.039 A 
ATOM     18  C   UNL A   1      32.137  19.916  22.817  1.00  0.00     0.004 A 
ATOM     19  C   UNL A   1      33.790  20.199  24.558  1.00  0.00     0.004 A 
ATOM     20  C   UNL A   1      32.342  18.536  22.849  1.00  0.00     0.000 A 
ATOM     21  C   UNL A   1      33.987  18.817  24.590  1.00  0.00     0.000 A 
ATOM     22  C   UNL A   1      33.247  17.986  23.753  1.00  0.00     0.000 A 
ENDBRANCH  16  17
ENDBRANCH  13  16
ENDBRANCH   7  12
ENDBRANCH   4   7
ENDBRANCH   2   3
ENDBRANCH   1   2
BRANCH   1  23
ATOM     23  C   UNL A   1      33.524  28.523  27.170  1.00  0.00     0.118 C 
BRANCH  23  24
ATOM     24  N   UNL A   1      33.470  29.928  27.555  1.00  0.00    -0.352 N 
ATOM     25  C   UNL A   1      34.443  30.700  28.145  1.00  0.00     0.251 C 
ATOM     26  H   UNL A   1      32.619  30.388  27.367  1.00  0.00     0.163 HD
ATOM     27  O   UNL A   1      34.175  31.838  28.525  1.00  0.00    -0.269 OA
BRANCH  25  28
ATOM     28  C   UNL A   1      35.797  30.143  28.349  1.00  0.00     0.039 A 
ATOM     29  C   UNL A   1      36.709  30.170  27.292  1.00  0.00     0.014 A 
ATOM     30  C   UNL A   1      36.176  29.631  29.593  1.00  0.00     0.014 A 
ATOM     31  C   UNL A   1      38.026  29.757  27.506  1.00  0.00     0.010 A 
ATOM     32  C   UNL A   1      37.507  29.302  29.826  1.00  0.00     0.010 A 
ATOM     33  C   UNL A   1      38.447  29.361  28.787  1.00  0.00    -0.014 A 
BRANCH  33  34
ATOM     34  C   UNL A   1      39.863  29.006  29.062  1.00  0.00     0.031 A 
ATOM     35  C   UNL A   1      40.799  30.036  29.636  1.00  0.00     0.074 A 
ATOM     36  C   UNL A   1      40.324  27.785  28.726  1.00  0.00     0.049 A 
ATOM     37  N   UNL A   1      42.083  29.946  29.869  1.00  0.00    -0.248 NA
ATOM     38  C   UNL A   1      40.222  31.350  29.962  1.00  0.00     0.031 C 
ATOM     39  C   UNL A   1      39.529  26.719  28.109  1.00  0.00     0.029 A 
ATOM     40  N   UNL A   1      41.576  27.235  28.845  1.00  0.00    -0.354 N 
ATOM     41  C   UNL A   1      42.469  31.192  30.348  1.00  0.00     0.074 A 
ATOM     42  C   UNL A   1      41.295  32.037  30.321  1.00  0.00     0.031 C 
ATOM     43  C   UNL A   1      40.307  25.639  27.926  1.00  0.00     0.029 A 
ATOM     44  C   UNL A   1      41.660  25.944  28.376  1.00  0.00     0.049 A 
ATOM     45  H   UNL A   1      42.342  27.719  29.229  1.00  0.00     0.167 HD
ATOM     46  C   UNL A   1      43.684  31.588  30.797  1.00  0.00     0.037 A 
ATOM     47  C   UNL A   1      42.712  25.104  28.311  1.00  0.00     0.037 A 
ATOM     48  C   UNL A   1      44.839  30.733  30.854  1.00  0.00     0.049 A 
ATOM     49  C   UNL A   1      44.050  25.564  28.824  1.00  0.00     0.074 A 
ATOM     50  C   UNL A   1      46.097  31.016  31.354  1.00  0.00     0.029 A 
ATOM     51  N   UNL A   1      44.879  29.423  30.395  1.00  0.00    -0.354 N 
ATOM     52  N   UNL A   1      44.380  26.724  29.338  1.00  0.00    -0.248 NA
ATOM     53  C   UNL A   1      45.156  24.600  28.753  1.00  0.00     0.031 C 
ATOM     54  C   UNL A   1      46.909  29.894  31.162  1.00  0.00     0.029 A 
ATOM     55  C   UNL A   1      46.144  28.893  30.584  1.00  0.00     0.049 A 
ATOM     56  H   UNL A   1      44.118  28.942  29.996  1.00  0.00     0.167 HD
ATOM     57  C   UNL A   1      45.725  26.622  29.674  1.00  0.00     0.074 A 
ATOM     58  C   UNL A   1      46.144  25.282  29.317  1.00  0.00     0.031 C 
ATOM     59  C   UNL A   1      46.542  27.554  30.225  1.00  0.00     0.037 A 
BRANCH  46  60
ATOM     60  C   UNL A   1      43.820  33.009  31.272  1.00  0.00     0.058 A 
ATOM     61  C   UNL A   1      44.214  34.041  30.406  1.00  0.00     0.135 A 
ATOM     62  C   UNL A   1      43.526  33.349  32.603  1.00  0.00     0.135 A 
ATOM     63  F   UNL A   1      44.522  33.770  29.128  1.00  0.00    -0.206 F 
ATOM     64  C   UNL A   1      44.345  35.353  30.848  1.00  0.00     0.059 A 
ATOM     65  C   UNL A   1      43.622  34.661  33.060  1.00  0.00     0.059 A 
ATOM     66  F   UNL A   1      43.145  32.403  33.475  1.00  0.00    -0.206 F 
ATOM     67  C   UNL A   1      44.047  35.653  32.177  1.00  0.00     0.060 A 
BRANCH  67  68
ATOM     68  S   UNL A   1      44.221  37.361  32.734  1.00  0.00     0.124 S 
ATOM     69  O   UNL A   1      43.149  37.455  33.720  1.00  0.00    -0.237 OA
ATOM     70  O   UNL A   1      45.578  37.379  33.271  1.00  0.00    -0.237 OA
ATOM     71  O   UNL A   1      44.022  38.139  31.515  1.00  0.00    -0.744 OA
ENDBRANCH  67  68
ENDBRANCH  46  60
BRANCH  47  72
ATOM     72  C   UNL A   1      42.536  23.734  27.758  1.00  0.00     0.058 A 
ATOM     73  C   UNL A   1      42.520  23.513  26.374  1.00  0.00     0.135 A 
ATOM     74  C   UNL A   1      42.393  22.620  28.600  1.00  0.00     0.135 A 
ATOM     75  F   UNL A   1      42.646  24.548  25.528  1.00  0.00    -0.206 F 
ATOM     76  C   UNL A   1      42.352  22.240  25.840  1.00  0.00     0.059 A 
ATOM     77  C   UNL A   1      42.248  21.332  28.090  1.00  0.00     0.059 A 
ATOM     78  F   UNL A   1      42.418  22.775  29.932  1.00  0.00    -0.206 F 
ATOM     79  C   UNL A   1      42.219  21.154  26.708  1.00  0.00     0.060 A 
BRANCH  79  80
ATOM     80  S   UNL A   1      42.050  19.499  26.003  1.00  0.00     0.124 S 
ATOM     81  O   UNL A   1      42.892  19.598  24.817  1.00  0.00    -0.237 OA
ATOM     82  O   UNL A   1      42.559  18.654  27.080  1.00  0.00    -0.237 OA
ATOM     83  O   UNL A   1      40.616  19.387  25.755  1.00  0.00    -0.744 OA
ENDBRANCH  79  80
ENDBRANCH  47  72
BRANCH  59  84
ATOM     84  C   UNL A   1      47.962  27.151  30.502  1.00  0.00     0.058 A 
ATOM     85  C   UNL A   1      48.984  27.357  29.562  1.00  0.00     0.135 A 
ATOM     86  C   UNL A   1      48.316  26.601  31.746  1.00  0.00     0.135 A 
ATOM     87  F   UNL A   1      48.697  27.874  28.356  1.00  0.00    -0.206 F 
ATOM     88  C   UNL A   1      50.302  27.011  29.836  1.00  0.00     0.059 A 
ATOM     89  C   UNL A   1      49.633  26.273  32.051  1.00  0.00     0.059 A 
ATOM     90  F   UNL A   1      47.379  26.394  32.685  1.00  0.00    -0.206 F 
ATOM     91  C   UNL A   1      50.618  26.471  31.085  1.00  0.00     0.060 A 
BRANCH  91  92
ATOM     92  S   UNL A   1      52.340  26.061  31.440  1.00  0.00     0.124 S 
ATOM     93  O   UNL A   1      52.938  26.125  30.111  1.00  0.00    -0.237 OA
ATOM     94  O   UNL A   1      52.730  27.122  32.364  1.00  0.00    -0.237 OA
ATOM     95  O   UNL A   1      52.256  24.727  32.028  1.00  0.00    -0.744 OA
ENDBRANCH  91  92
ENDBRANCH  59  84
ENDBRANCH  33  34
ENDBRANCH  25  28
ENDBRANCH  23  24
ENDBRANCH   1  23
TORSDOF 18
ENDMDL
MODEL 3
REMARK VINA RESULT:     -11.0      1.199      2.383
REMARK SMILES CC(C)C[C@H](NC(=O)Cc1ccccc1)C(=O)NCCCNC(=O)c1ccc(-c2c3nc(c(-c4c(F)cc(S(=O)(=O)[O-])cc4F)c4ccc([nH]4)c(-c4c(F)cc(S(=O)(=O)[O-])cc4F)c4nc(c(-c5c(F)cc(S(=O)(=O)[O-])cc5F)c5ccc2[nH]5)C=C4)C=C3)cc1
REMARK SMILES IDX 20 1 19 2 18 3 16 4 17 5 5 7 4 8 2 9 1 10 3 11 6 12 7 13
REMARK SMILES IDX 8 15 9 16 10 17 11 18 15 19 12 20 14 21 13 22 21 23 22 24
REMARK SMILES IDX 23 25 24 27 25 28 26 29 90 30 27 31 89 32 28 33 29 34 30 35
REMARK SMILES IDX 83 36 31 37 88 38 82 39 84 40 32 41 87 42 81 43 80 44 33 46
REMARK SMILES IDX 67 47 46 48 66 49 47 50 50 51 65 52 85 53 48 54 49 55 64 57
REMARK SMILES IDX 86 58 51 59 34 60 35 61 44 62 36 63 37 64 43 65 45 66 38 67
REMARK SMILES IDX 39 68 40 69 41 70 42 71 68 72 69 73 78 74 70 75 71 76 77 77
REMARK SMILES IDX 79 78 72 79 73 80 74 81 75 82 76 83 52 84 53 85 62 86 54 87
REMARK SMILES IDX 55 88 61 89 63 90 56 91 57 92 58 93 59 94 60 95
REMARK H PARENT 18 6 6 14 22 26 84 45 50 56
REMARK Flexibility Score: inf
ROOT
ATOM      1  C   UNL A   1      37.766  23.029  25.673  1.00  0.00     0.042 C 
ENDROOT
BRANCH   1   2
ATOM      2  C   UNL A   1      36.349  23.549  25.490  1.00  0.00     0.117 C 
BRANCH   2   3
ATOM      3  N   UNL A   1      35.831  23.295  24.150  1.00  0.00    -0.354 N 
ATOM      4  C   UNL A   1      34.675  23.718  23.551  1.00  0.00     0.242 C 
ATOM      5  O   UNL A   1      34.542  23.514  22.343  1.00  0.00    -0.273 OA
ATOM      6  H   UNL A   1      36.406  22.729  23.585  1.00  0.00     0.163 HD
BRANCH   4   7
ATOM      7  C   UNL A   1      33.630  24.534  24.341  1.00  0.00     0.171 C 
BRANCH   7   8
ATOM      8  C   UNL A   1      32.279  23.813  24.248  1.00  0.00     0.038 C 
BRANCH   8   9
ATOM      9  C   UNL A   1      31.789  23.094  25.517  1.00  0.00    -0.015 C 
ATOM     10  C   UNL A   1      31.772  21.578  25.309  1.00  0.00     0.007 C 
ATOM     11  C   UNL A   1      32.727  23.441  26.679  1.00  0.00     0.007 C 
ENDBRANCH   8   9
ENDBRANCH   7   8
BRANCH   7  12
ATOM     12  N   UNL A   1      33.663  25.915  23.821  1.00  0.00    -0.344 N 
ATOM     13  C   UNL A   1      33.765  27.138  24.407  1.00  0.00     0.225 C 
ATOM     14  H   UNL A   1      33.598  25.961  22.840  1.00  0.00     0.164 HD
ATOM     15  O   UNL A   1      33.893  28.113  23.662  1.00  0.00    -0.275 OA
BRANCH  13  16
ATOM     16  C   UNL A   1      33.693  27.317  25.911  1.00  0.00     0.135 C 
BRANCH  16  17
ATOM     17  C   UNL A   1      33.755  28.756  26.389  1.00  0.00    -0.039 A 
ATOM     18  C   UNL A   1      34.916  29.196  27.049  1.00  0.00     0.004 A 
ATOM     19  C   UNL A   1      32.655  29.623  26.309  1.00  0.00     0.004 A 
ATOM     20  C   UNL A   1      34.926  30.418  27.722  1.00  0.00     0.000 A 
ATOM     21  C   UNL A   1      32.667  30.842  26.988  1.00  0.00     0.000 A 
ATOM     22  C   UNL A   1      33.793  31.228  27.713  1.00  0.00     0.000 A 
ENDBRANCH  16  17
ENDBRANCH  13  16
ENDBRANCH   7  12
ENDBRANCH   4   7
ENDBRANCH   2   3
ENDBRANCH   1   2
BRANCH   1  23
ATOM     23  C   UNL A   1      38.650  23.926  26.529  1.00  0.00     0.118 C 
BRANCH  23  24
ATOM     24  N   UNL A   1      40.065  23.819  26.197  1.00  0.00    -0.352 N 
ATOM     25  C   UNL A   1      41.104  24.639  26.569  1.00  0.00     0.251 C 
ATOM     26  H   UNL A   1      40.311  23.053  25.629  1.00  0.00     0.163 HD
ATOM     27  O   UNL A   1      42.220  24.473  26.082  1.00  0.00    -0.269 OA
BRANCH  25  28
ATOM     28  C   UNL A   1      40.862  25.739  27.527  1.00  0.00     0.039 A 
ATOM     29  C   UNL A   1      39.815  25.623  28.444  1.00  0.00     0.014 A 
ATOM     30  C   UNL A   1      41.691  26.864  27.544  1.00  0.00     0.014 A 
ATOM     31  C   UNL A   1      39.651  26.598  29.430  1.00  0.00     0.010 A 
ATOM     32  C   UNL A   1      41.579  27.787  28.578  1.00  0.00     0.010 A 
ATOM     33  C   UNL A   1      40.558  27.666  29.532  1.00  0.00    -0.014 A 
BRANCH  33  34
ATOM     34  C   UNL A   1      40.460  28.664  30.628  1.00  0.00     0.031 A 
ATOM     35  C   UNL A   1      41.334  28.533  31.847  1.00  0.00     0.074 A 
ATOM     36  C   UNL A   1      39.535  29.642  30.561  1.00  0.00     0.049 A 
ATOM     37  N   UNL A   1      41.341  29.251  32.940  1.00  0.00    -0.248 NA
ATOM     38  C   UNL A   1      42.309  27.429  31.849  1.00  0.00     0.031 C 
ATOM     39  C   UNL A   1      38.589  29.840  29.459  1.00  0.00     0.029 A 
ATOM     40  N   UNL A   1      39.228  30.648  31.443  1.00  0.00    -0.354 N 
ATOM     41  C   UNL A   1      42.300  28.677  33.764  1.00  0.00     0.074 A 
ATOM     42  C   UNL A   1      42.817  27.518  33.069  1.00  0.00     0.031 C 
ATOM     43  C   UNL A   1      37.826  30.914  29.721  1.00  0.00     0.029 A 
ATOM     44  C   UNL A   1      38.200  31.459  31.021  1.00  0.00     0.049 A 
ATOM     45  H   UNL A   1      39.699  30.777  32.297  1.00  0.00     0.167 HD
ATOM     46  C   UNL A   1      42.733  29.092  34.979  1.00  0.00     0.037 A 
ATOM     47  C   UNL A   1      37.620  32.518  31.619  1.00  0.00     0.037 A 
ATOM     48  C   UNL A   1      42.239  30.265  35.651  1.00  0.00     0.049 A 
ATOM     49  C   UNL A   1      38.123  32.967  32.964  1.00  0.00     0.074 A 
ATOM     50  C   UNL A   1      42.658  30.811  36.851  1.00  0.00     0.029 A 
ATOM     51  N   UNL A   1      41.216  31.076  35.180  1.00  0.00    -0.354 N 
ATOM     52  N   UNL A   1      39.080  32.453  33.699  1.00  0.00    -0.248 NA
ATOM     53  C   UNL A   1      37.473  34.143  33.559  1.00  0.00     0.031 C 
ATOM     54  C   UNL A   1      41.863  31.928  37.126  1.00  0.00     0.029 A 
ATOM     55  C   UNL A   1      40.978  32.106  36.075  1.00  0.00     0.049 A 
ATOM     56  H   UNL A   1      40.732  30.940  34.333  1.00  0.00     0.167 HD
ATOM     57  C   UNL A   1      39.163  33.254  34.831  1.00  0.00     0.074 A 
ATOM     58  C   UNL A   1      38.168  34.297  34.678  1.00  0.00     0.031 C 
ATOM     59  C   UNL A   1      39.986  33.138  35.904  1.00  0.00     0.037 A 
BRANCH  46  60
ATOM     60  C   UNL A   1      43.801  28.276  35.653  1.00  0.00     0.058 A 
ATOM     61  C   UNL A   1      45.165  28.500  35.406  1.00  0.00     0.135 A 
ATOM     62  C   UNL A   1      43.460  27.276  36.579  1.00  0.00     0.135 A 
ATOM     63  F   UNL A   1      45.547  29.432  34.520  1.00  0.00    -0.206 F 
ATOM     64  C   UNL A   1      46.151  27.741  36.026  1.00  0.00     0.059 A 
ATOM     65  C   UNL A   1      44.432  26.524  37.233  1.00  0.00     0.059 A 
ATOM     66  F   UNL A   1      42.172  27.019  36.853  1.00  0.00    -0.206 F 
ATOM     67  C   UNL A   1      45.775  26.754  36.938  1.00  0.00     0.060 A 
BRANCH  67  68
ATOM     68  S   UNL A   1      47.068  25.779  37.734  1.00  0.00     0.124 S 
ATOM     69  O   UNL A   1      46.280  24.882  38.574  1.00  0.00    -0.237 OA
ATOM     70  O   UNL A   1      47.736  25.156  36.596  1.00  0.00    -0.237 OA
ATOM     71  O   UNL A   1      47.856  26.778  38.450  1.00  0.00    -0.744 OA
ENDBRANCH  67  68
ENDBRANCH  46  60
BRANCH  47  72
ATOM     72  C   UNL A   1      36.512  33.242  30.938  1.00  0.00     0.058 A 
ATOM     73  C   UNL A   1      35.182  33.072  31.349  1.00  0.00     0.135 A 
ATOM     74  C   UNL A   1      36.760  34.123  29.874  1.00  0.00     0.135 A 
ATOM     75  F   UNL A   1      34.894  32.235  32.358  1.00  0.00    -0.206 F 
ATOM     76  C   UNL A   1      34.134  33.737  30.722  1.00  0.00     0.059 A 
ATOM     77  C   UNL A   1      35.731  34.819  29.246  1.00  0.00     0.059 A 
ATOM     78  F   UNL A   1      38.016  34.333  29.453  1.00  0.00    -0.206 F 
ATOM     79  C   UNL A   1      34.419  34.611  29.671  1.00  0.00     0.060 A 
BRANCH  79  80
ATOM     80  S   UNL A   1      33.055  35.506  28.895  1.00  0.00     0.124 S 
ATOM     81  O   UNL A   1      32.334  36.008  30.058  1.00  0.00    -0.237 OA
ATOM     82  O   UNL A   1      33.758  36.506  28.097  1.00  0.00    -0.237 OA
ATOM     83  O   UNL A   1      32.372  34.470  28.126  1.00  0.00    -0.744 OA
ENDBRANCH  79  80
ENDBRANCH  47  72
BRANCH  59  84
ATOM     84  C   UNL A   1      39.866  34.177  36.982  1.00  0.00     0.058 A 
ATOM     85  C   UNL A   1      40.440  35.450  36.846  1.00  0.00     0.135 A 
ATOM     86  C   UNL A   1      39.120  33.914  38.143  1.00  0.00     0.135 A 
ATOM     87  F   UNL A   1      41.168  35.750  35.758  1.00  0.00    -0.206 F 
ATOM     88  C   UNL A   1      40.299  36.419  37.833  1.00  0.00     0.059 A 
ATOM     89  C   UNL A   1      38.944  34.878  39.131  1.00  0.00     0.059 A 
ATOM     90  F   UNL A   1      38.541  32.716  38.318  1.00  0.00    -0.206 F 
ATOM     91  C   UNL A   1      39.546  36.124  38.972  1.00  0.00     0.060 A 
BRANCH  91  92
ATOM     92  S   UNL A   1      39.341  37.404  40.229  1.00  0.00     0.124 S 
ATOM     93  O   UNL A   1      40.725  37.776  40.498  1.00  0.00    -0.237 OA
ATOM     94  O   UNL A   1      38.539  38.404  39.529  1.00  0.00    -0.237 OA
ATOM     95  O   UNL A   1      38.654  36.706  41.313  1.00  0.00    -0.744 OA
ENDBRANCH  91  92
ENDBRANCH  59  84
ENDBRANCH  33  34
ENDBRANCH  25  28
ENDBRANCH  23  24
ENDBRANCH   1  23
TORSDOF 18
ENDMDL
