MODEL 1
REMARK VINA RESULT:     -12.8      0.000      0.000
REMARK SMILES Cc1ccc(F)c(C(=O)Nc2cccc(C(=O)NCCCNC(=O)c3ccc(-c4c5nc(c(-c6c(F)cc(S(=O)(=O)[O-])cc6F)c6ccc([nH]6)c(-c6c(F)cc(S(=O)(=O)[O-])cc6F)c6nc(c(-c7c(F)cc(S(=O)(=O)[O-])cc7F)c7ccc4[nH]7)C=C6)C=C5)cc3)c2)c1
REMARK SMILES IDX 20 1 19 2 18 3 16 4 17 5 15 7 11 8 12 9 91 10 13 11 14 12
REMARK SMILES IDX 10 13 8 14 9 15 7 17 1 18 2 19 3 20 92 21 4 22 5 23 6 24
REMARK SMILES IDX 21 25 22 26 23 27 24 29 25 30 26 31 90 32 27 33 89 34 28 35
REMARK SMILES IDX 29 36 30 37 83 38 31 39 88 40 82 41 84 42 32 43 87 44 81 45
REMARK SMILES IDX 80 46 33 48 67 49 46 50 66 51 47 52 50 53 65 54 85 55 48 56
REMARK SMILES IDX 49 57 64 59 86 60 51 61 34 62 35 63 44 64 36 65 37 66 43 67
REMARK SMILES IDX 45 68 38 69 39 70 40 71 41 72 42 73 68 74 69 75 78 76 70 77
REMARK SMILES IDX 71 78 77 79 79 80 72 81 73 82 74 83 75 84 76 85 52 86 53 87
REMARK SMILES IDX 62 88 54 89 55 90 61 91 63 92 56 93 57 94 58 95 59 96 60 97
REMARK H PARENT 18 6 10 16 22 28 84 47 50 58
REMARK Flexibility Score: inf
ROOT
ATOM      1  C   UNL A   1      37.502  23.692  25.497  1.00  0.00     0.042 C 
ENDROOT
BRANCH   1   2
ATOM      2  C   UNL A   1      37.126  22.217  25.535  1.00  0.00     0.118 C 
BRANCH   2   3
ATOM      3  N   UNL A   1      36.103  21.943  26.521  1.00  0.00    -0.352 N 
ATOM      4  C   UNL A   1      34.745  21.786  26.432  1.00  0.00     0.251 C 
ATOM      5  O   UNL A   1      34.152  21.476  27.467  1.00  0.00    -0.269 OA
ATOM      6  H   UNL A   1      36.452  21.854  27.438  1.00  0.00     0.163 HD
BRANCH   4   7
ATOM      7  C   UNL A   1      33.964  21.897  25.162  1.00  0.00     0.041 A 
ATOM      8  C   UNL A   1      33.310  22.943  23.071  1.00  0.00     0.042 A 
ATOM      9  C   UNL A   1      32.492  21.858  22.762  1.00  0.00     0.026 A 
ATOM     10  C   UNL A   1      33.952  23.006  24.312  1.00  0.00     0.040 A 
ATOM     11  C   UNL A   1      32.444  20.767  23.624  1.00  0.00     0.003 A 
ATOM     12  C   UNL A   1      33.198  20.775  24.799  1.00  0.00     0.014 A 
BRANCH   8  13
ATOM     13  N   UNL A   1      33.515  23.903  22.070  1.00  0.00    -0.322 N 
ATOM     14  C   UNL A   1      32.956  25.158  21.895  1.00  0.00     0.258 C 
ATOM     15  O   UNL A   1      33.225  25.764  20.858  1.00  0.00    -0.269 OA
ATOM     16  H   UNL A   1      34.164  23.641  21.378  1.00  0.00     0.170 HD
BRANCH  14  17
ATOM     17  C   UNL A   1      32.171  25.853  22.959  1.00  0.00     0.076 A 
ATOM     18  C   UNL A   1      28.557  26.542  23.968  1.00  0.00     0.044 C 
ATOM     19  C   UNL A   1      30.058  26.484  24.019  1.00  0.00    -0.050 A 
ATOM     20  C   UNL A   1      30.757  27.243  24.962  1.00  0.00     0.006 A 
ATOM     21  C   UNL A   1      30.776  25.727  23.078  1.00  0.00     0.020 A 
ATOM     22  C   UNL A   1      32.150  27.292  24.919  1.00  0.00     0.040 A 
ATOM     23  C   UNL A   1      32.845  26.620  23.912  1.00  0.00     0.135 A 
ATOM     24  F   UNL A   1      34.178  26.757  23.881  1.00  0.00    -0.206 F 
ENDBRANCH  14  17
ENDBRANCH   8  13
ENDBRANCH   4   7
ENDBRANCH   2   3
ENDBRANCH   1   2
BRANCH   1  25
ATOM     25  C   UNL A   1      38.471  24.063  26.608  1.00  0.00     0.118 C 
BRANCH  25  26
ATOM     26  N   UNL A   1      39.847  24.097  26.130  1.00  0.00    -0.352 N 
ATOM     27  C   UNL A   1      40.859  24.975  26.424  1.00  0.00     0.251 C 
ATOM     28  H   UNL A   1      40.087  23.381  25.499  1.00  0.00     0.163 HD
ATOM     29  O   UNL A   1      41.884  24.952  25.749  1.00  0.00    -0.269 OA
BRANCH  27  30
ATOM     30  C   UNL A   1      40.714  25.943  27.534  1.00  0.00     0.039 A 
ATOM     31  C   UNL A   1      41.562  27.053  27.572  1.00  0.00     0.014 A 
ATOM     32  C   UNL A   1      39.779  25.740  28.553  1.00  0.00     0.014 A 
ATOM     33  C   UNL A   1      41.450  27.972  28.616  1.00  0.00     0.010 A 
ATOM     34  C   UNL A   1      39.608  26.704  29.541  1.00  0.00     0.010 A 
ATOM     35  C   UNL A   1      40.460  27.814  29.599  1.00  0.00    -0.014 A 
BRANCH  35  36
ATOM     36  C   UNL A   1      40.336  28.774  30.723  1.00  0.00     0.031 A 
ATOM     37  C   UNL A   1      41.206  28.619  31.942  1.00  0.00     0.074 A 
ATOM     38  C   UNL A   1      39.406  29.747  30.667  1.00  0.00     0.049 A 
ATOM     39  N   UNL A   1      41.221  29.327  33.041  1.00  0.00    -0.248 NA
ATOM     40  C   UNL A   1      42.161  27.499  31.940  1.00  0.00     0.031 C 
ATOM     41  C   UNL A   1      38.461  29.952  29.567  1.00  0.00     0.029 A 
ATOM     42  N   UNL A   1      39.099  30.742  31.559  1.00  0.00    -0.354 N 
ATOM     43  C   UNL A   1      42.164  28.725  33.867  1.00  0.00     0.074 A 
ATOM     44  C   UNL A   1      42.658  27.561  33.166  1.00  0.00     0.031 C 
ATOM     45  C   UNL A   1      37.697  31.023  29.838  1.00  0.00     0.029 A 
ATOM     46  C   UNL A   1      38.079  31.562  31.140  1.00  0.00     0.049 A 
ATOM     47  H   UNL A   1      39.565  30.859  32.418  1.00  0.00     0.167 HD
ATOM     48  C   UNL A   1      42.598  29.122  35.087  1.00  0.00     0.037 A 
ATOM     49  C   UNL A   1      37.517  32.631  31.737  1.00  0.00     0.037 A 
ATOM     50  C   UNL A   1      42.132  30.307  35.756  1.00  0.00     0.049 A 
ATOM     51  C   UNL A   1      38.053  33.085  33.066  1.00  0.00     0.074 A 
ATOM     52  C   UNL A   1      42.558  30.844  36.957  1.00  0.00     0.029 A 
ATOM     53  N   UNL A   1      41.132  31.142  35.276  1.00  0.00    -0.354 N 
ATOM     54  N   UNL A   1      38.999  32.548  33.801  1.00  0.00    -0.248 NA
ATOM     55  C   UNL A   1      37.459  34.299  33.641  1.00  0.00     0.031 C 
ATOM     56  C   UNL A   1      41.791  31.984  37.222  1.00  0.00     0.029 A 
ATOM     57  C   UNL A   1      40.918  32.183  36.163  1.00  0.00     0.049 A 
ATOM     58  H   UNL A   1      40.647  31.013  34.430  1.00  0.00     0.167 HD
ATOM     59  C   UNL A   1      39.130  33.371  34.914  1.00  0.00     0.074 A 
ATOM     60  C   UNL A   1      38.176  34.450  34.747  1.00  0.00     0.031 C 
ATOM     61  C   UNL A   1      39.964  33.248  35.975  1.00  0.00     0.037 A 
BRANCH  48  62
ATOM     62  C   UNL A   1      43.635  28.269  35.767  1.00  0.00     0.058 A 
ATOM     63  C   UNL A   1      43.281  27.238  36.654  1.00  0.00     0.135 A 
ATOM     64  C   UNL A   1      45.003  28.478  35.522  1.00  0.00     0.135 A 
ATOM     65  F   UNL A   1      41.990  27.005  36.938  1.00  0.00    -0.206 F 
ATOM     66  C   UNL A   1      44.244  26.471  37.302  1.00  0.00     0.059 A 
ATOM     67  C   UNL A   1      45.982  27.701  36.137  1.00  0.00     0.059 A 
ATOM     68  F   UNL A   1      45.400  29.448  34.685  1.00  0.00    -0.206 F 
ATOM     69  C   UNL A   1      45.594  26.713  37.040  1.00  0.00     0.060 A 
BRANCH  69  70
ATOM     70  S   UNL A   1      46.831  25.716  37.894  1.00  0.00     0.124 S 
ATOM     71  O   UNL A   1      46.916  24.549  37.020  1.00  0.00    -0.237 OA
ATOM     72  O   UNL A   1      47.997  26.593  37.893  1.00  0.00    -0.237 OA
ATOM     73  O   UNL A   1      46.231  25.477  39.202  1.00  0.00    -0.744 OA
ENDBRANCH  69  70
ENDBRANCH  48  62
BRANCH  49  74
ATOM     74  C   UNL A   1      36.417  33.362  31.057  1.00  0.00     0.058 A 
ATOM     75  C   UNL A   1      36.668  34.159  29.930  1.00  0.00     0.135 A 
ATOM     76  C   UNL A   1      35.088  33.251  31.495  1.00  0.00     0.135 A 
ATOM     77  F   UNL A   1      37.923  34.298  29.474  1.00  0.00    -0.206 F 
ATOM     78  C   UNL A   1      35.645  34.829  29.268  1.00  0.00     0.059 A 
ATOM     79  C   UNL A   1      34.045  33.892  30.837  1.00  0.00     0.059 A 
ATOM     80  F   UNL A   1      34.793  32.484  32.558  1.00  0.00    -0.206 F 
ATOM     81  C   UNL A   1      34.334  34.687  29.728  1.00  0.00     0.060 A 
BRANCH  81  82
ATOM     82  S   UNL A   1      33.006  35.516  28.827  1.00  0.00     0.124 S 
ATOM     83  O   UNL A   1      32.201  36.052  29.918  1.00  0.00    -0.237 OA
ATOM     84  O   UNL A   1      33.740  36.496  28.032  1.00  0.00    -0.237 OA
ATOM     85  O   UNL A   1      32.394  34.433  28.063  1.00  0.00    -0.744 OA
ENDBRANCH  81  82
ENDBRANCH  49  74
BRANCH  61  86
ATOM     86  C   UNL A   1      39.902  34.322  37.025  1.00  0.00     0.058 A 
ATOM     87  C   UNL A   1      40.604  35.530  36.887  1.00  0.00     0.135 A 
ATOM     88  C   UNL A   1      39.098  34.155  38.164  1.00  0.00     0.135 A 
ATOM     89  F   UNL A   1      41.390  35.736  35.818  1.00  0.00    -0.206 F 
ATOM     90  C   UNL A   1      40.536  36.523  37.857  1.00  0.00     0.059 A 
ATOM     91  C   UNL A   1      38.993  35.147  39.133  1.00  0.00     0.059 A 
ATOM     92  F   UNL A   1      38.396  33.024  38.336  1.00  0.00    -0.206 F 
ATOM     93  C   UNL A   1      39.728  36.321  38.979  1.00  0.00     0.060 A 
BRANCH  93  94
ATOM     94  S   UNL A   1      39.630  37.625  40.223  1.00  0.00     0.124 S 
ATOM     95  O   UNL A   1      38.637  38.518  39.634  1.00  0.00    -0.237 OA
ATOM     96  O   UNL A   1      39.200  36.895  41.411  1.00  0.00    -0.237 OA
ATOM     97  O   UNL A   1      40.992  38.148  40.275  1.00  0.00    -0.744 OA
ENDBRANCH  93  94
ENDBRANCH  61  86
ENDBRANCH  35  36
ENDBRANCH  27  30
ENDBRANCH  25  26
ENDBRANCH   1  25
TORSDOF 15
ENDMDL
MODEL 2
REMARK VINA RESULT:     -12.8      1.279      2.073
REMARK SMILES Cc1ccc(F)c(C(=O)Nc2cccc(C(=O)NCCCNC(=O)c3ccc(-c4c5nc(c(-c6c(F)cc(S(=O)(=O)[O-])cc6F)c6ccc([nH]6)c(-c6c(F)cc(S(=O)(=O)[O-])cc6F)c6nc(c(-c7c(F)cc(S(=O)(=O)[O-])cc7F)c7ccc4[nH]7)C=C6)C=C5)cc3)c2)c1
REMARK SMILES IDX 20 1 19 2 18 3 16 4 17 5 15 7 11 8 12 9 91 10 13 11 14 12
REMARK SMILES IDX 10 13 8 14 9 15 7 17 1 18 2 19 3 20 92 21 4 22 5 23 6 24
REMARK SMILES IDX 21 25 22 26 23 27 24 29 25 30 26 31 90 32 27 33 89 34 28 35
REMARK SMILES IDX 29 36 30 37 83 38 31 39 88 40 82 41 84 42 32 43 87 44 81 45
REMARK SMILES IDX 80 46 33 48 67 49 46 50 66 51 47 52 50 53 65 54 85 55 48 56
REMARK SMILES IDX 49 57 64 59 86 60 51 61 34 62 35 63 44 64 36 65 37 66 43 67
REMARK SMILES IDX 45 68 38 69 39 70 40 71 41 72 42 73 68 74 69 75 78 76 70 77
REMARK SMILES IDX 71 78 77 79 79 80 72 81 73 82 74 83 75 84 76 85 52 86 53 87
REMARK SMILES IDX 62 88 54 89 55 90 61 91 63 92 56 93 57 94 58 95 59 96 60 97
REMARK H PARENT 18 6 10 16 22 28 84 47 50 58
REMARK Flexibility Score: inf
ROOT
ATOM      1  C   UNL A   1      37.502  23.537  25.452  1.00  0.00     0.042 C 
ENDROOT
BRANCH   1   2
ATOM      2  C   UNL A   1      36.122  23.206  26.005  1.00  0.00     0.118 C 
BRANCH   2   3
ATOM      3  N   UNL A   1      35.743  21.837  25.731  1.00  0.00    -0.352 N 
ATOM      4  C   UNL A   1      34.640  21.280  25.139  1.00  0.00     0.251 C 
ATOM      5  O   UNL A   1      34.652  20.057  24.980  1.00  0.00    -0.269 OA
ATOM      6  H   UNL A   1      36.408  21.175  26.029  1.00  0.00     0.163 HD
BRANCH   4   7
ATOM      7  C   UNL A   1      33.475  22.060  24.621  1.00  0.00     0.041 A 
ATOM      8  C   UNL A   1      31.337  23.196  24.804  1.00  0.00     0.042 A 
ATOM      9  C   UNL A   1      31.438  23.639  23.486  1.00  0.00     0.026 A 
ATOM     10  C   UNL A   1      32.297  22.323  25.325  1.00  0.00     0.040 A 
ATOM     11  C   UNL A   1      32.578  23.340  22.746  1.00  0.00     0.003 A 
ATOM     12  C   UNL A   1      33.600  22.582  23.321  1.00  0.00     0.014 A 
BRANCH   8  13
ATOM     13  N   UNL A   1      30.295  23.718  25.583  1.00  0.00    -0.322 N 
ATOM     14  C   UNL A   1      30.092  24.996  26.078  1.00  0.00     0.258 C 
ATOM     15  O   UNL A   1      29.141  25.169  26.840  1.00  0.00    -0.269 OA
ATOM     16  H   UNL A   1      29.592  23.070  25.816  1.00  0.00     0.170 HD
BRANCH  14  17
ATOM     17  C   UNL A   1      30.880  26.179  25.620  1.00  0.00     0.076 A 
ATOM     18  C   UNL A   1      33.925  28.249  26.620  1.00  0.00     0.044 C 
ATOM     19  C   UNL A   1      32.762  27.730  25.821  1.00  0.00    -0.050 A 
ATOM     20  C   UNL A   1      32.277  28.461  24.732  1.00  0.00     0.006 A 
ATOM     21  C   UNL A   1      32.106  26.547  26.201  1.00  0.00     0.020 A 
ATOM     22  C   UNL A   1      31.116  28.046  24.079  1.00  0.00     0.040 A 
ATOM     23  C   UNL A   1      30.415  26.928  24.536  1.00  0.00     0.135 A 
ATOM     24  F   UNL A   1      29.272  26.615  23.910  1.00  0.00    -0.206 F 
ENDBRANCH  14  17
ENDBRANCH   8  13
ENDBRANCH   4   7
ENDBRANCH   2   3
ENDBRANCH   1   2
BRANCH   1  25
ATOM     25  C   UNL A   1      38.384  24.216  26.486  1.00  0.00     0.118 C 
BRANCH  25  26
ATOM     26  N   UNL A   1      39.795  24.117  26.133  1.00  0.00    -0.352 N 
ATOM     27  C   UNL A   1      40.856  24.896  26.522  1.00  0.00     0.251 C 
ATOM     28  H   UNL A   1      40.021  23.379  25.523  1.00  0.00     0.163 HD
ATOM     29  O   UNL A   1      41.930  24.773  25.943  1.00  0.00    -0.269 OA
BRANCH  27  30
ATOM     30  C   UNL A   1      40.704  25.876  27.620  1.00  0.00     0.039 A 
ATOM     31  C   UNL A   1      41.604  26.942  27.698  1.00  0.00     0.014 A 
ATOM     32  C   UNL A   1      39.710  25.727  28.592  1.00  0.00     0.014 A 
ATOM     33  C   UNL A   1      41.486  27.872  28.732  1.00  0.00     0.010 A 
ATOM     34  C   UNL A   1      39.538  26.703  29.567  1.00  0.00     0.010 A 
ATOM     35  C   UNL A   1      40.441  27.769  29.664  1.00  0.00    -0.014 A 
BRANCH  35  36
ATOM     36  C   UNL A   1      40.309  28.741  30.776  1.00  0.00     0.031 A 
ATOM     37  C   UNL A   1      41.174  28.602  32.001  1.00  0.00     0.074 A 
ATOM     38  C   UNL A   1      39.377  29.712  30.706  1.00  0.00     0.049 A 
ATOM     39  N   UNL A   1      41.182  29.321  33.093  1.00  0.00    -0.248 NA
ATOM     40  C   UNL A   1      42.132  27.484  32.016  1.00  0.00     0.031 C 
ATOM     41  C   UNL A   1      38.436  29.902  29.599  1.00  0.00     0.029 A 
ATOM     42  N   UNL A   1      39.063  30.715  31.586  1.00  0.00    -0.354 N 
ATOM     43  C   UNL A   1      42.122  28.731  33.929  1.00  0.00     0.074 A 
ATOM     44  C   UNL A   1      42.623  27.561  33.243  1.00  0.00     0.031 C 
ATOM     45  C   UNL A   1      37.669  30.974  29.855  1.00  0.00     0.029 A 
ATOM     46  C   UNL A   1      38.043  31.528  31.153  1.00  0.00     0.049 A 
ATOM     47  H   UNL A   1      39.524  30.842  32.445  1.00  0.00     0.167 HD
ATOM     48  C   UNL A   1      42.550  29.142  35.147  1.00  0.00     0.037 A 
ATOM     49  C   UNL A   1      37.476  32.601  31.736  1.00  0.00     0.037 A 
ATOM     50  C   UNL A   1      42.077  30.333  35.801  1.00  0.00     0.049 A 
ATOM     51  C   UNL A   1      38.004  33.072  33.062  1.00  0.00     0.074 A 
ATOM     52  C   UNL A   1      42.497  30.884  36.998  1.00  0.00     0.029 A 
ATOM     53  N   UNL A   1      41.078  31.160  35.308  1.00  0.00    -0.354 N 
ATOM     54  N   UNL A   1      38.948  32.545  33.807  1.00  0.00    -0.248 NA
ATOM     55  C   UNL A   1      37.404  34.290  33.622  1.00  0.00     0.031 C 
ATOM     56  C   UNL A   1      41.725  32.025  37.247  1.00  0.00     0.029 A 
ATOM     57  C   UNL A   1      40.857  32.210  36.183  1.00  0.00     0.049 A 
ATOM     58  H   UNL A   1      40.597  31.021  34.460  1.00  0.00     0.167 HD
ATOM     59  C   UNL A   1      39.071  33.380  34.912  1.00  0.00     0.074 A 
ATOM     60  C   UNL A   1      38.115  34.455  34.729  1.00  0.00     0.031 C 
ATOM     61  C   UNL A   1      39.901  33.271  35.979  1.00  0.00     0.037 A 
BRANCH  48  62
ATOM     62  C   UNL A   1      43.587  28.300  35.841  1.00  0.00     0.058 A 
ATOM     63  C   UNL A   1      44.962  28.509  35.649  1.00  0.00     0.135 A 
ATOM     64  C   UNL A   1      43.200  27.274  36.720  1.00  0.00     0.135 A 
ATOM     65  F   UNL A   1      45.389  29.465  34.807  1.00  0.00    -0.206 F 
ATOM     66  C   UNL A   1      45.916  27.710  36.271  1.00  0.00     0.059 A 
ATOM     67  C   UNL A   1      44.138  26.481  37.377  1.00  0.00     0.059 A 
ATOM     68  F   UNL A   1      41.900  27.028  36.942  1.00  0.00    -0.206 F 
ATOM     69  C   UNL A   1      45.493  26.694  37.131  1.00  0.00     0.060 A 
BRANCH  69  70
ATOM     70  S   UNL A   1      46.741  25.661  37.924  1.00  0.00     0.124 S 
ATOM     71  O   UNL A   1      47.605  25.331  36.794  1.00  0.00    -0.237 OA
ATOM     72  O   UNL A   1      47.314  26.565  38.916  1.00  0.00    -0.237 OA
ATOM     73  O   UNL A   1      45.967  24.549  38.466  1.00  0.00    -0.744 OA
ENDBRANCH  69  70
ENDBRANCH  48  62
BRANCH  49  74
ATOM     74  C   UNL A   1      36.376  33.323  31.043  1.00  0.00     0.058 A 
ATOM     75  C   UNL A   1      35.056  33.246  31.511  1.00  0.00     0.135 A 
ATOM     76  C   UNL A   1      36.628  34.132  29.924  1.00  0.00     0.135 A 
ATOM     77  F   UNL A   1      34.766  32.484  32.576  1.00  0.00    -0.206 F 
ATOM     78  C   UNL A   1      34.021  33.935  30.887  1.00  0.00     0.059 A 
ATOM     79  C   UNL A   1      35.614  34.849  29.298  1.00  0.00     0.059 A 
ATOM     80  F   UNL A   1      37.879  34.254  29.450  1.00  0.00    -0.206 F 
ATOM     81  C   UNL A   1      34.311  34.737  29.782  1.00  0.00     0.060 A 
BRANCH  81  82
ATOM     82  S   UNL A   1      32.969  35.673  29.016  1.00  0.00     0.124 S 
ATOM     83  O   UNL A   1      32.172  36.050  30.176  1.00  0.00    -0.237 OA
ATOM     84  O   UNL A   1      33.691  36.757  28.356  1.00  0.00    -0.237 OA
ATOM     85  O   UNL A   1      32.356  34.701  28.115  1.00  0.00    -0.744 OA
ENDBRANCH  81  82
ENDBRANCH  49  74
BRANCH  61  86
ATOM     86  C   UNL A   1      39.832  34.355  37.016  1.00  0.00     0.058 A 
ATOM     87  C   UNL A   1      40.538  35.561  36.873  1.00  0.00     0.135 A 
ATOM     88  C   UNL A   1      39.016  34.203  38.149  1.00  0.00     0.135 A 
ATOM     89  F   UNL A   1      41.334  35.754  35.809  1.00  0.00    -0.206 F 
ATOM     90  C   UNL A   1      40.462  36.564  37.832  1.00  0.00     0.059 A 
ATOM     91  C   UNL A   1      38.904  35.205  39.107  1.00  0.00     0.059 A 
ATOM     92  F   UNL A   1      38.309  33.076  38.326  1.00  0.00    -0.206 F 
ATOM     93  C   UNL A   1      39.643  36.376  38.947  1.00  0.00     0.060 A 
BRANCH  93  94
ATOM     94  S   UNL A   1      39.536  37.693  40.177  1.00  0.00     0.124 S 
ATOM     95  O   UNL A   1      38.590  38.607  39.545  1.00  0.00    -0.237 OA
ATOM     96  O   UNL A   1      39.043  36.985  41.354  1.00  0.00    -0.237 OA
ATOM     97  O   UNL A   1      40.910  38.178  40.274  1.00  0.00    -0.744 OA
ENDBRANCH  93  94
ENDBRANCH  61  86
ENDBRANCH  35  36
ENDBRANCH  27  30
ENDBRANCH  25  26
ENDBRANCH   1  25
TORSDOF 15
ENDMDL
MODEL 3
REMARK VINA RESULT:     -12.8      6.810     12.353
REMARK SMILES Cc1ccc(F)c(C(=O)Nc2cccc(C(=O)NCCCNC(=O)c3ccc(-c4c5nc(c(-c6c(F)cc(S(=O)(=O)[O-])cc6F)c6ccc([nH]6)c(-c6c(F)cc(S(=O)(=O)[O-])cc6F)c6nc(c(-c7c(F)cc(S(=O)(=O)[O-])cc7F)c7ccc4[nH]7)C=C6)C=C5)cc3)c2)c1
REMARK SMILES IDX 20 1 19 2 18 3 16 4 17 5 15 7 11 8 12 9 91 10 13 11 14 12
REMARK SMILES IDX 10 13 8 14 9 15 7 17 1 18 2 19 3 20 92 21 4 22 5 23 6 24
REMARK SMILES IDX 21 25 22 26 23 27 24 29 25 30 26 31 90 32 27 33 89 34 28 35
REMARK SMILES IDX 29 36 30 37 83 38 31 39 88 40 82 41 84 42 32 43 87 44 81 45
REMARK SMILES IDX 80 46 33 48 67 49 46 50 66 51 47 52 50 53 65 54 85 55 48 56
REMARK SMILES IDX 49 57 64 59 86 60 51 61 34 62 35 63 44 64 36 65 37 66 43 67
REMARK SMILES IDX 45 68 38 69 39 70 40 71 41 72 42 73 68 74 69 75 78 76 70 77
REMARK SMILES IDX 71 78 77 79 79 80 72 81 73 82 74 83 75 84 76 85 52 86 53 87
REMARK SMILES IDX 62 88 54 89 55 90 61 91 63 92 56 93 57 94 58 95 59 96 60 97
REMARK H PARENT 18 6 10 16 22 28 84 47 50 58
REMARK Flexibility Score: inf
ROOT
ATOM      1  C   UNL A   1      35.489  32.612  27.797  1.00  0.00     0.042 C 
ENDROOT
BRANCH   1   2
ATOM      2  C   UNL A   1      34.356  31.600  27.895  1.00  0.00     0.118 C 
BRANCH   2   3
ATOM      3  N   UNL A   1      33.096  32.152  27.449  1.00  0.00    -0.352 N 
ATOM      4  C   UNL A   1      31.993  31.592  26.859  1.00  0.00     0.251 C 
ATOM      5  O   UNL A   1      31.027  32.334  26.669  1.00  0.00    -0.269 OA
ATOM      6  H   UNL A   1      33.014  33.122  27.597  1.00  0.00     0.163 HD
BRANCH   4   7
ATOM      7  C   UNL A   1      31.869  30.145  26.504  1.00  0.00     0.041 A 
ATOM      8  C   UNL A   1      31.706  28.266  24.976  1.00  0.00     0.042 A 
ATOM      9  C   UNL A   1      31.766  27.369  26.042  1.00  0.00     0.026 A 
ATOM     10  C   UNL A   1      31.648  29.641  25.219  1.00  0.00     0.040 A 
ATOM     11  C   UNL A   1      31.928  27.852  27.336  1.00  0.00     0.003 A 
ATOM     12  C   UNL A   1      32.010  29.228  27.560  1.00  0.00     0.014 A 
BRANCH   8  13
ATOM     13  N   UNL A   1      31.786  27.735  23.680  1.00  0.00    -0.322 N 
ATOM     14  C   UNL A   1      30.877  27.764  22.635  1.00  0.00     0.258 C 
ATOM     15  O   UNL A   1      31.148  27.117  21.624  1.00  0.00    -0.269 OA
ATOM     16  H   UNL A   1      32.627  27.265  23.481  1.00  0.00     0.170 HD
BRANCH  14  17
ATOM     17  C   UNL A   1      29.673  28.647  22.631  1.00  0.00     0.076 A 
ATOM     18  C   UNL A   1      28.689  32.270  21.951  1.00  0.00     0.044 C 
ATOM     19  C   UNL A   1      28.576  30.801  22.247  1.00  0.00    -0.050 A 
ATOM     20  C   UNL A   1      27.370  30.270  22.712  1.00  0.00     0.006 A 
ATOM     21  C   UNL A   1      29.697  29.961  22.130  1.00  0.00     0.020 A 
ATOM     22  C   UNL A   1      27.307  28.936  23.114  1.00  0.00     0.040 A 
ATOM     23  C   UNL A   1      28.456  28.142  23.094  1.00  0.00     0.135 A 
ATOM     24  F   UNL A   1      28.350  26.887  23.553  1.00  0.00    -0.206 F 
ENDBRANCH  14  17
ENDBRANCH   8  13
ENDBRANCH   4   7
ENDBRANCH   2   3
ENDBRANCH   1   2
BRANCH   1  25
ATOM     25  C   UNL A   1      36.474  32.482  28.947  1.00  0.00     0.118 C 
BRANCH  25  26
ATOM     26  N   UNL A   1      36.001  31.539  29.953  1.00  0.00    -0.352 N 
ATOM     27  C   UNL A   1      36.524  30.333  30.343  1.00  0.00     0.251 C 
ATOM     28  H   UNL A   1      35.181  31.810  30.425  1.00  0.00     0.163 HD
ATOM     29  O   UNL A   1      35.854  29.595  31.058  1.00  0.00    -0.269 OA
BRANCH  27  30
ATOM     30  C   UNL A   1      37.875  29.922  29.900  1.00  0.00     0.039 A 
ATOM     31  C   UNL A   1      38.847  29.656  30.868  1.00  0.00     0.014 A 
ATOM     32  C   UNL A   1      38.198  29.840  28.542  1.00  0.00     0.014 A 
ATOM     33  C   UNL A   1      40.131  29.279  30.472  1.00  0.00     0.010 A 
ATOM     34  C   UNL A   1      39.449  29.376  28.152  1.00  0.00     0.010 A 
ATOM     35  C   UNL A   1      40.437  29.119  29.111  1.00  0.00    -0.014 A 
BRANCH  35  36
ATOM     36  C   UNL A   1      41.799  28.731  28.672  1.00  0.00     0.031 A 
ATOM     37  C   UNL A   1      42.889  29.768  28.604  1.00  0.00     0.074 A 
ATOM     38  C   UNL A   1      42.039  27.463  28.286  1.00  0.00     0.049 A 
ATOM     39  N   UNL A   1      44.129  29.639  28.210  1.00  0.00    -0.248 NA
ATOM     40  C   UNL A   1      42.528  31.140  28.998  1.00  0.00     0.031 C 
ATOM     41  C   UNL A   1      41.044  26.389  28.244  1.00  0.00     0.029 A 
ATOM     42  N   UNL A   1      43.193  26.865  27.848  1.00  0.00    -0.354 N 
ATOM     43  C   UNL A   1      44.685  30.911  28.284  1.00  0.00     0.074 A 
ATOM     44  C   UNL A   1      43.633  31.808  28.706  1.00  0.00     0.031 C 
ATOM     45  C   UNL A   1      41.636  25.257  27.830  1.00  0.00     0.029 A 
ATOM     46  C   UNL A   1      43.043  25.531  27.551  1.00  0.00     0.049 A 
ATOM     47  H   UNL A   1      44.047  27.344  27.756  1.00  0.00     0.167 HD
ATOM     48  C   UNL A   1      45.964  31.292  28.049  1.00  0.00     0.037 A 
ATOM     49  C   UNL A   1      43.941  24.631  27.107  1.00  0.00     0.037 A 
ATOM     50  C   UNL A   1      47.013  30.382  27.673  1.00  0.00     0.049 A 
ATOM     51  C   UNL A   1      45.366  25.064  26.905  1.00  0.00     0.074 A 
ATOM     52  C   UNL A   1      48.358  30.648  27.485  1.00  0.00     0.029 A 
ATOM     53  N   UNL A   1      46.834  29.028  27.430  1.00  0.00    -0.354 N 
ATOM     54  N   UNL A   1      45.893  26.257  27.053  1.00  0.00    -0.248 NA
ATOM     55  C   UNL A   1      46.323  24.028  26.493  1.00  0.00     0.031 C 
ATOM     56  C   UNL A   1      48.985  29.459  27.092  1.00  0.00     0.029 A 
ATOM     57  C   UNL A   1      48.040  28.446  27.081  1.00  0.00     0.049 A 
ATOM     58  H   UNL A   1      45.975  28.551  27.497  1.00  0.00     0.167 HD
ATOM     59  C   UNL A   1      47.248  26.110  26.775  1.00  0.00     0.074 A 
ATOM     60  C   UNL A   1      47.460  24.710  26.465  1.00  0.00     0.031 C 
ATOM     61  C   UNL A   1      48.228  27.048  26.778  1.00  0.00     0.037 A 
BRANCH  48  62
ATOM     62  C   UNL A   1      46.294  32.753  28.202  1.00  0.00     0.058 A 
ATOM     63  C   UNL A   1      46.702  33.295  29.432  1.00  0.00     0.135 A 
ATOM     64  C   UNL A   1      46.211  33.621  27.100  1.00  0.00     0.135 A 
ATOM     65  F   UNL A   1      46.782  32.515  30.521  1.00  0.00    -0.206 F 
ATOM     66  C   UNL A   1      46.978  34.651  29.575  1.00  0.00     0.059 A 
ATOM     67  C   UNL A   1      46.513  34.976  27.214  1.00  0.00     0.059 A 
ATOM     68  F   UNL A   1      45.827  33.159  25.901  1.00  0.00    -0.206 F 
ATOM     69  C   UNL A   1      46.877  35.485  28.460  1.00  0.00     0.060 A 
BRANCH  69  70
ATOM     70  S   UNL A   1      47.231  37.243  28.662  1.00  0.00     0.124 S 
ATOM     71  O   UNL A   1      46.413  37.828  27.604  1.00  0.00    -0.237 OA
ATOM     72  O   UNL A   1      46.779  37.500  30.026  1.00  0.00    -0.237 OA
ATOM     73  O   UNL A   1      48.673  37.325  28.458  1.00  0.00    -0.744 OA
ENDBRANCH  69  70
ENDBRANCH  48  62
BRANCH  49  74
ATOM     74  C   UNL A   1      43.520  23.225  26.869  1.00  0.00     0.058 A 
ATOM     75  C   UNL A   1      43.417  22.714  25.567  1.00  0.00     0.135 A 
ATOM     76  C   UNL A   1      43.248  22.355  27.936  1.00  0.00     0.135 A 
ATOM     77  F   UNL A   1      43.664  23.508  24.513  1.00  0.00    -0.206 F 
ATOM     78  C   UNL A   1      43.048  21.394  25.329  1.00  0.00     0.059 A 
ATOM     79  C   UNL A   1      42.900  21.026  27.725  1.00  0.00     0.059 A 
ATOM     80  F   UNL A   1      43.352  22.791  29.202  1.00  0.00    -0.206 F 
ATOM     81  C   UNL A   1      42.795  20.556  26.415  1.00  0.00     0.060 A 
BRANCH  81  82
ATOM     82  S   UNL A   1      42.372  18.828  26.097  1.00  0.00     0.124 S 
ATOM     83  O   UNL A   1      42.639  18.217  27.394  1.00  0.00    -0.237 OA
ATOM     84  O   UNL A   1      40.968  18.923  25.712  1.00  0.00    -0.237 OA
ATOM     85  O   UNL A   1      43.285  18.454  25.021  1.00  0.00    -0.744 OA
ENDBRANCH  81  82
ENDBRANCH  49  74
BRANCH  61  86
ATOM     86  C   UNL A   1      49.622  26.584  26.464  1.00  0.00     0.058 A 
ATOM     87  C   UNL A   1      50.480  26.093  27.462  1.00  0.00     0.135 A 
ATOM     88  C   UNL A   1      50.092  26.593  25.140  1.00  0.00     0.135 A 
ATOM     89  F   UNL A   1      50.079  26.067  28.743  1.00  0.00    -0.206 F 
ATOM     90  C   UNL A   1      51.765  25.657  27.163  1.00  0.00     0.059 A 
ATOM     91  C   UNL A   1      51.364  26.135  24.815  1.00  0.00     0.059 A 
ATOM     92  F   UNL A   1      49.306  27.039  24.148  1.00  0.00    -0.206 F 
ATOM     93  C   UNL A   1      52.199  25.684  25.836  1.00  0.00     0.060 A 
BRANCH  93  94
ATOM     94  S   UNL A   1      53.863  25.096  25.456  1.00  0.00     0.124 S 
ATOM     95  O   UNL A   1      54.358  26.161  24.589  1.00  0.00    -0.237 OA
ATOM     96  O   UNL A   1      54.479  25.017  26.777  1.00  0.00    -0.237 OA
ATOM     97  O   UNL A   1      53.629  23.812  24.802  1.00  0.00    -0.744 OA
ENDBRANCH  93  94
ENDBRANCH  61  86
ENDBRANCH  35  36
ENDBRANCH  27  30
ENDBRANCH  25  26
ENDBRANCH   1  25
TORSDOF 15
ENDMDL
