MODEL 1
REMARK VINA RESULT:     -12.2      0.000      0.000
REMARK SMILES CC(C)(CC(=O)NCCCNC(=O)c1ccc(-c2c3nc(c(-c4c(F)cc(S(=O)(=O)[O-])cc4F)c4ccc([nH]4)c(-c4c(F)cc(S(=O)(=O)[O-])cc4F)c4nc(c(-c5c(F)cc(S(=O)(=O)[O-])cc5F)c5ccc2[nH]5)C=C4)C=C3)cc1)NC(=O)c1nc(C(C)(C)C)n[nH]1
REMARK SMILES IDX 8 1 7 2 5 3 6 4 4 6 2 7 1 8 3 9 80 10 81 11 82 13 83 14
REMARK SMILES IDX 84 15 91 16 85 17 90 18 86 20 87 21 88 22 89 23 9 24 10 25
REMARK SMILES IDX 11 26 12 27 13 29 14 30 15 31 79 32 16 33 78 34 17 35 18 36
REMARK SMILES IDX 19 37 72 38 20 39 77 40 71 41 73 42 21 43 76 44 70 45 69 46
REMARK SMILES IDX 22 48 56 49 35 50 55 51 36 52 39 53 54 54 74 55 37 56 38 57
REMARK SMILES IDX 53 59 75 60 40 61 23 62 24 63 33 64 25 65 26 66 32 67 34 68
REMARK SMILES IDX 27 69 28 70 29 71 30 72 31 73 57 74 58 75 67 76 59 77 60 78
REMARK SMILES IDX 66 79 68 80 61 81 62 82 63 83 64 84 65 85 41 86 42 87 51 88
REMARK SMILES IDX 43 89 44 90 50 91 52 92 45 93 46 94 47 95 48 96 49 97
REMARK H PARENT 7 5 80 12 91 19 11 28 73 47 39 58
REMARK Flexibility Score: inf
ROOT
ATOM      1  C   UNL A   1      36.945  22.506  25.500  1.00  0.00     0.117 C 
ENDROOT
BRANCH   1   2
ATOM      2  N   UNL A   1      35.995  22.221  26.566  1.00  0.00    -0.356 N 
ATOM      3  C   UNL A   1      34.637  22.304  26.611  1.00  0.00     0.222 C 
ATOM      4  O   UNL A   1      34.062  21.832  27.595  1.00  0.00    -0.275 OA
ATOM      5  H   UNL A   1      36.409  21.910  27.404  1.00  0.00     0.163 HD
BRANCH   3   6
ATOM      6  C   UNL A   1      33.830  22.910  25.480  1.00  0.00     0.127 C 
BRANCH   6   7
ATOM      7  C   UNL A   1      32.564  22.114  25.078  1.00  0.00     0.044 C 
ATOM      8  C   UNL A   1      32.045  22.588  23.714  1.00  0.00     0.035 C 
ATOM      9  C   UNL A   1      32.979  20.633  24.887  1.00  0.00     0.035 C 
BRANCH   7  10
ATOM     10  N   UNL A   1      31.568  22.087  26.172  1.00  0.00    -0.344 N 
ATOM     11  C   UNL A   1      30.787  23.019  26.801  1.00  0.00     0.289 C 
ATOM     12  H   UNL A   1      31.434  21.182  26.535  1.00  0.00     0.164 HD
ATOM     13  O   UNL A   1      30.022  22.595  27.686  1.00  0.00    -0.266 OA
BRANCH  11  14
ATOM     14  C   UNL A   1      30.784  24.382  26.381  1.00  0.00     0.214 A 
ATOM     15  N   UNL A   1      31.726  25.273  26.625  1.00  0.00    -0.207 NA
ATOM     16  N   UNL A   1      29.752  25.000  25.743  1.00  0.00    -0.255 N 
ATOM     17  C   UNL A   1      31.184  26.445  26.153  1.00  0.00     0.156 A 
ATOM     18  N   UNL A   1      30.011  26.296  25.525  1.00  0.00    -0.158 NA
ATOM     19  H   UNL A   1      28.919  24.549  25.474  1.00  0.00     0.192 HD
BRANCH  17  20
ATOM     20  C   UNL A   1      31.890  27.767  26.277  1.00  0.00     0.024 C 
ATOM     21  C   UNL A   1      31.564  28.466  27.610  1.00  0.00     0.019 C 
ATOM     22  C   UNL A   1      33.416  27.536  26.243  1.00  0.00     0.019 C 
ATOM     23  C   UNL A   1      31.432  28.690  25.136  1.00  0.00     0.019 C 
ENDBRANCH  17  20
ENDBRANCH  11  14
ENDBRANCH   7  10
ENDBRANCH   6   7
ENDBRANCH   3   6
ENDBRANCH   1   2
BRANCH   1  24
ATOM     24  C   UNL A   1      37.876  23.682  25.820  1.00  0.00     0.042 C 
BRANCH  24  25
ATOM     25  C   UNL A   1      39.069  23.354  26.737  1.00  0.00     0.118 C 
BRANCH  25  26
ATOM     26  N   UNL A   1      40.351  23.716  26.148  1.00  0.00    -0.352 N 
ATOM     27  C   UNL A   1      41.205  24.779  26.352  1.00  0.00     0.251 C 
ATOM     28  H   UNL A   1      40.671  23.077  25.471  1.00  0.00     0.163 HD
ATOM     29  O   UNL A   1      42.168  24.889  25.591  1.00  0.00    -0.269 OA
BRANCH  27  30
ATOM     30  C   UNL A   1      41.016  25.809  27.413  1.00  0.00     0.039 A 
ATOM     31  C   UNL A   1      39.934  25.666  28.292  1.00  0.00     0.014 A 
ATOM     32  C   UNL A   1      41.794  26.961  27.514  1.00  0.00     0.014 A 
ATOM     33  C   UNL A   1      39.684  26.615  29.303  1.00  0.00     0.010 A 
ATOM     34  C   UNL A   1      41.573  27.882  28.563  1.00  0.00     0.010 A 
ATOM     35  C   UNL A   1      40.532  27.719  29.496  1.00  0.00    -0.014 A 
BRANCH  35  36
ATOM     36  C   UNL A   1      40.348  28.651  30.670  1.00  0.00     0.031 A 
ATOM     37  C   UNL A   1      41.191  28.538  31.926  1.00  0.00     0.074 A 
ATOM     38  C   UNL A   1      39.380  29.599  30.664  1.00  0.00     0.049 A 
ATOM     39  N   UNL A   1      41.151  29.266  33.020  1.00  0.00    -0.248 NA
ATOM     40  C   UNL A   1      42.178  27.453  31.974  1.00  0.00     0.031 C 
ATOM     41  C   UNL A   1      38.406  29.820  29.594  1.00  0.00     0.029 A 
ATOM     42  N   UNL A   1      39.056  30.564  31.597  1.00  0.00    -0.354 N 
ATOM     43  C   UNL A   1      42.082  28.708  33.891  1.00  0.00     0.074 A 
ATOM     44  C   UNL A   1      42.624  27.545  33.218  1.00  0.00     0.031 C 
ATOM     45  C   UNL A   1      37.634  30.874  29.904  1.00  0.00     0.029 A 
ATOM     46  C   UNL A   1      38.033  31.399  31.208  1.00  0.00     0.049 A 
ATOM     47  H   UNL A   1      39.514  30.646  32.464  1.00  0.00     0.167 HD
ATOM     48  C   UNL A   1      42.489  29.129  35.117  1.00  0.00     0.037 A 
ATOM     49  C   UNL A   1      37.480  32.478  31.804  1.00  0.00     0.037 A 
ATOM     50  C   UNL A   1      42.020  30.310  35.796  1.00  0.00     0.049 A 
ATOM     51  C   UNL A   1      37.977  32.963  33.140  1.00  0.00     0.074 A 
ATOM     52  C   UNL A   1      42.455  30.840  37.001  1.00  0.00     0.029 A 
ATOM     53  N   UNL A   1      41.019  31.148  35.335  1.00  0.00    -0.354 N 
ATOM     54  N   UNL A   1      38.926  32.472  33.896  1.00  0.00    -0.248 NA
ATOM     55  C   UNL A   1      37.330  34.164  33.697  1.00  0.00     0.031 C 
ATOM     56  C   UNL A   1      41.705  31.989  37.277  1.00  0.00     0.029 A 
ATOM     57  C   UNL A   1      40.821  32.190  36.232  1.00  0.00     0.049 A 
ATOM     58  H   UNL A   1      40.520  31.024  34.496  1.00  0.00     0.167 HD
ATOM     59  C   UNL A   1      39.017  33.324  34.994  1.00  0.00     0.074 A 
ATOM     60  C   UNL A   1      38.026  34.360  34.810  1.00  0.00     0.031 C 
ATOM     61  C   UNL A   1      39.859  33.248  36.052  1.00  0.00     0.037 A 
BRANCH  48  62
ATOM     62  C   UNL A   1      43.538  28.297  35.803  1.00  0.00     0.058 A 
ATOM     63  C   UNL A   1      43.187  27.282  36.709  1.00  0.00     0.135 A 
ATOM     64  C   UNL A   1      44.904  28.520  35.566  1.00  0.00     0.135 A 
ATOM     65  F   UNL A   1      41.895  27.030  36.972  1.00  0.00    -0.206 F 
ATOM     66  C   UNL A   1      44.151  26.567  37.409  1.00  0.00     0.059 A 
ATOM     67  C   UNL A   1      45.887  27.794  36.234  1.00  0.00     0.059 A 
ATOM     68  F   UNL A   1      45.295  29.462  34.693  1.00  0.00    -0.206 F 
ATOM     69  C   UNL A   1      45.498  26.843  37.178  1.00  0.00     0.060 A 
BRANCH  69  70
ATOM     70  S   UNL A   1      46.743  25.961  38.142  1.00  0.00     0.124 S 
ATOM     71  O   UNL A   1      47.092  24.874  37.233  1.00  0.00    -0.237 OA
ATOM     72  O   UNL A   1      47.774  26.976  38.339  1.00  0.00    -0.237 OA
ATOM     73  O   UNL A   1      46.020  25.568  39.347  1.00  0.00    -0.744 OA
ENDBRANCH  69  70
ENDBRANCH  48  62
BRANCH  49  74
ATOM     74  C   UNL A   1      36.417  33.245  31.101  1.00  0.00     0.058 A 
ATOM     75  C   UNL A   1      35.080  33.146  31.518  1.00  0.00     0.135 A 
ATOM     76  C   UNL A   1      36.705  34.067  30.003  1.00  0.00     0.135 A 
ATOM     77  F   UNL A   1      34.757  32.358  32.554  1.00  0.00    -0.206 F 
ATOM     78  C   UNL A   1      34.062  33.828  30.861  1.00  0.00     0.059 A 
ATOM     79  C   UNL A   1      35.705  34.774  29.342  1.00  0.00     0.059 A 
ATOM     80  F   UNL A   1      37.970  34.195  29.574  1.00  0.00    -0.206 F 
ATOM     81  C   UNL A   1      34.384  34.641  29.774  1.00  0.00     0.060 A 
BRANCH  81  82
ATOM     82  S   UNL A   1      33.061  35.560  28.957  1.00  0.00     0.124 S 
ATOM     83  O   UNL A   1      32.406  34.508  28.186  1.00  0.00    -0.237 OA
ATOM     84  O   UNL A   1      32.304  36.081  30.093  1.00  0.00    -0.237 OA
ATOM     85  O   UNL A   1      33.778  36.563  28.180  1.00  0.00    -0.744 OA
ENDBRANCH  81  82
ENDBRANCH  49  74
BRANCH  61  86
ATOM     86  C   UNL A   1      39.805  34.343  37.083  1.00  0.00     0.058 A 
ATOM     87  C   UNL A   1      40.414  35.591  36.876  1.00  0.00     0.135 A 
ATOM     88  C   UNL A   1      39.083  34.160  38.275  1.00  0.00     0.135 A 
ATOM     89  F   UNL A   1      41.123  35.819  35.759  1.00  0.00    -0.206 F 
ATOM     90  C   UNL A   1      40.318  36.614  37.817  1.00  0.00     0.059 A 
ATOM     91  C   UNL A   1      38.960  35.174  39.221  1.00  0.00     0.059 A 
ATOM     92  F   UNL A   1      38.477  32.988  38.524  1.00  0.00    -0.206 F 
ATOM     93  C   UNL A   1      39.588  36.397  38.987  1.00  0.00     0.060 A 
BRANCH  93  94
ATOM     94  S   UNL A   1      39.428  37.745  40.180  1.00  0.00     0.124 S 
ATOM     95  O   UNL A   1      38.934  37.040  41.358  1.00  0.00    -0.237 OA
ATOM     96  O   UNL A   1      40.794  38.252  40.271  1.00  0.00    -0.237 OA
ATOM     97  O   UNL A   1      38.473  38.649  39.543  1.00  0.00    -0.744 OA
ENDBRANCH  93  94
ENDBRANCH  61  86
ENDBRANCH  35  36
ENDBRANCH  27  30
ENDBRANCH  25  26
ENDBRANCH  24  25
ENDBRANCH   1  24
TORSDOF 17
ENDMDL
MODEL 2
REMARK VINA RESULT:     -12.1      6.873     12.405
REMARK SMILES CC(C)(CC(=O)NCCCNC(=O)c1ccc(-c2c3nc(c(-c4c(F)cc(S(=O)(=O)[O-])cc4F)c4ccc([nH]4)c(-c4c(F)cc(S(=O)(=O)[O-])cc4F)c4nc(c(-c5c(F)cc(S(=O)(=O)[O-])cc5F)c5ccc2[nH]5)C=C4)C=C3)cc1)NC(=O)c1nc(C(C)(C)C)n[nH]1
REMARK SMILES IDX 8 1 7 2 5 3 6 4 4 6 2 7 1 8 3 9 80 10 81 11 82 13 83 14
REMARK SMILES IDX 84 15 91 16 85 17 90 18 86 20 87 21 88 22 89 23 9 24 10 25
REMARK SMILES IDX 11 26 12 27 13 29 14 30 15 31 79 32 16 33 78 34 17 35 18 36
REMARK SMILES IDX 19 37 72 38 20 39 77 40 71 41 73 42 21 43 76 44 70 45 69 46
REMARK SMILES IDX 22 48 56 49 35 50 55 51 36 52 39 53 54 54 74 55 37 56 38 57
REMARK SMILES IDX 53 59 75 60 40 61 23 62 24 63 33 64 25 65 26 66 32 67 34 68
REMARK SMILES IDX 27 69 28 70 29 71 30 72 31 73 57 74 58 75 67 76 59 77 60 78
REMARK SMILES IDX 66 79 68 80 61 81 62 82 63 83 64 84 65 85 41 86 42 87 51 88
REMARK SMILES IDX 43 89 44 90 50 91 52 92 45 93 46 94 47 95 48 96 49 97
REMARK H PARENT 7 5 80 12 91 19 11 28 73 47 39 58
REMARK Flexibility Score: inf
ROOT
ATOM      1  C   UNL A   1      33.048  30.008  26.077  1.00  0.00     0.117 C 
ENDROOT
BRANCH   1   2
ATOM      2  N   UNL A   1      33.668  29.666  24.804  1.00  0.00    -0.356 N 
ATOM      3  C   UNL A   1      33.415  28.665  23.917  1.00  0.00     0.222 C 
ATOM      4  O   UNL A   1      33.981  28.708  22.822  1.00  0.00    -0.275 OA
ATOM      5  H   UNL A   1      34.399  30.269  24.537  1.00  0.00     0.163 HD
BRANCH   3   6
ATOM      6  C   UNL A   1      32.439  27.547  24.223  1.00  0.00     0.127 C 
BRANCH   6   7
ATOM      7  C   UNL A   1      31.322  27.345  23.168  1.00  0.00     0.044 C 
ATOM      8  C   UNL A   1      30.228  26.421  23.719  1.00  0.00     0.035 C 
ATOM      9  C   UNL A   1      30.643  28.719  22.932  1.00  0.00     0.035 C 
BRANCH   7  10
ATOM     10  N   UNL A   1      31.881  26.970  21.850  1.00  0.00    -0.344 N 
ATOM     11  C   UNL A   1      32.656  25.947  21.377  1.00  0.00     0.289 C 
ATOM     12  H   UNL A   1      31.634  27.609  21.143  1.00  0.00     0.164 HD
ATOM     13  O   UNL A   1      32.900  25.955  20.156  1.00  0.00    -0.266 OA
BRANCH  11  14
ATOM     14  C   UNL A   1      33.067  24.879  22.228  1.00  0.00     0.214 A 
ATOM     15  N   UNL A   1      34.229  24.781  22.846  1.00  0.00    -0.207 NA
ATOM     16  N   UNL A   1      32.353  23.742  22.455  1.00  0.00    -0.255 N 
ATOM     17  C   UNL A   1      34.188  23.523  23.399  1.00  0.00     0.156 A 
ATOM     18  N   UNL A   1      33.016  22.893  23.253  1.00  0.00    -0.158 NA
ATOM     19  H   UNL A   1      31.460  23.566  22.079  1.00  0.00     0.192 HD
BRANCH  17  20
ATOM     20  C   UNL A   1      35.347  22.939  24.161  1.00  0.00     0.024 C 
ATOM     21  C   UNL A   1      35.689  23.774  25.409  1.00  0.00     0.019 C 
ATOM     22  C   UNL A   1      34.976  21.521  24.645  1.00  0.00     0.019 C 
ATOM     23  C   UNL A   1      36.587  22.921  23.251  1.00  0.00     0.019 C 
ENDBRANCH  17  20
ENDBRANCH  11  14
ENDBRANCH   7  10
ENDBRANCH   6   7
ENDBRANCH   3   6
ENDBRANCH   1   2
BRANCH   1  24
ATOM     24  C   UNL A   1      33.890  29.592  27.290  1.00  0.00     0.042 C 
BRANCH  24  25
ATOM     25  C   UNL A   1      35.043  30.545  27.655  1.00  0.00     0.118 C 
BRANCH  25  26
ATOM     26  N   UNL A   1      35.155  30.773  29.090  1.00  0.00    -0.352 N 
ATOM     27  C   UNL A   1      36.161  30.527  29.998  1.00  0.00     0.251 C 
ATOM     28  H   UNL A   1      34.354  31.184  29.490  1.00  0.00     0.163 HD
ATOM     29  O   UNL A   1      35.907  30.704  31.191  1.00  0.00    -0.269 OA
BRANCH  27  30
ATOM     30  C   UNL A   1      37.520  30.037  29.626  1.00  0.00     0.039 A 
ATOM     31  C   UNL A   1      37.838  29.933  28.265  1.00  0.00     0.014 A 
ATOM     32  C   UNL A   1      38.453  29.578  30.554  1.00  0.00     0.014 A 
ATOM     33  C   UNL A   1      39.095  29.456  27.844  1.00  0.00     0.010 A 
ATOM     34  C   UNL A   1      39.732  29.151  30.128  1.00  0.00     0.010 A 
ATOM     35  C   UNL A   1      40.092  29.104  28.769  1.00  0.00    -0.014 A 
BRANCH  35  36
ATOM     36  C   UNL A   1      41.485  28.735  28.316  1.00  0.00     0.031 A 
ATOM     37  C   UNL A   1      42.606  29.754  28.252  1.00  0.00     0.074 A 
ATOM     38  C   UNL A   1      41.774  27.478  27.899  1.00  0.00     0.049 A 
ATOM     39  N   UNL A   1      43.857  29.590  27.884  1.00  0.00    -0.248 NA
ATOM     40  C   UNL A   1      42.274  31.138  28.615  1.00  0.00     0.031 C 
ATOM     41  C   UNL A   1      40.822  26.371  27.799  1.00  0.00     0.029 A 
ATOM     42  N   UNL A   1      42.964  26.918  27.479  1.00  0.00    -0.354 N 
ATOM     43  C   UNL A   1      44.447  30.848  27.942  1.00  0.00     0.074 A 
ATOM     44  C   UNL A   1      43.399  31.774  28.322  1.00  0.00     0.031 C 
ATOM     45  C   UNL A   1      41.467  25.263  27.399  1.00  0.00     0.029 A 
ATOM     46  C   UNL A   1      42.879  25.575  27.187  1.00  0.00     0.049 A 
ATOM     47  H   UNL A   1      43.798  27.433  27.395  1.00  0.00     0.167 HD
ATOM     48  C   UNL A   1      45.740  31.214  27.741  1.00  0.00     0.037 A 
ATOM     49  C   UNL A   1      43.816  24.679  26.811  1.00  0.00     0.037 A 
ATOM     50  C   UNL A   1      46.823  30.321  27.420  1.00  0.00     0.049 A 
ATOM     51  C   UNL A   1      45.255  25.089  26.643  1.00  0.00     0.074 A 
ATOM     52  C   UNL A   1      48.172  30.615  27.290  1.00  0.00     0.029 A 
ATOM     53  N   UNL A   1      46.692  28.963  27.184  1.00  0.00    -0.354 N 
ATOM     54  N   UNL A   1      45.802  26.268  26.799  1.00  0.00    -0.248 NA
ATOM     55  C   UNL A   1      46.210  24.034  26.257  1.00  0.00     0.031 C 
ATOM     56  C   UNL A   1      48.854  29.438  26.958  1.00  0.00     0.029 A 
ATOM     57  C   UNL A   1      47.933  28.406  26.907  1.00  0.00     0.049 A 
ATOM     58  H   UNL A   1      45.843  28.465  27.208  1.00  0.00     0.167 HD
ATOM     59  C   UNL A   1      47.164  26.089  26.571  1.00  0.00     0.074 A 
ATOM     60  C   UNL A   1      47.362  24.691  26.262  1.00  0.00     0.031 C 
ATOM     61  C   UNL A   1      48.156  27.010  26.626  1.00  0.00     0.037 A 
BRANCH  48  62
ATOM     62  C   UNL A   1      46.061  32.677  27.895  1.00  0.00     0.058 A 
ATOM     63  C   UNL A   1      46.416  33.217  29.142  1.00  0.00     0.135 A 
ATOM     64  C   UNL A   1      46.002  33.547  26.795  1.00  0.00     0.135 A 
ATOM     65  F   UNL A   1      46.484  32.427  30.225  1.00  0.00    -0.206 F 
ATOM     66  C   UNL A   1      46.630  34.580  29.308  1.00  0.00     0.059 A 
ATOM     67  C   UNL A   1      46.243  34.912  26.934  1.00  0.00     0.059 A 
ATOM     68  F   UNL A   1      45.689  33.080  25.577  1.00  0.00    -0.206 F 
ATOM     69  C   UNL A   1      46.524  35.422  28.201  1.00  0.00     0.060 A 
BRANCH  69  70
ATOM     70  S   UNL A   1      46.734  37.198  28.438  1.00  0.00     0.124 S 
ATOM     71  O   UNL A   1      48.166  37.352  28.201  1.00  0.00    -0.237 OA
ATOM     72  O   UNL A   1      45.860  37.763  27.414  1.00  0.00    -0.237 OA
ATOM     73  O   UNL A   1      46.297  37.409  29.814  1.00  0.00    -0.744 OA
ENDBRANCH  69  70
ENDBRANCH  48  62
BRANCH  49  74
ATOM     74  C   UNL A   1      43.441  23.251  26.632  1.00  0.00     0.058 A 
ATOM     75  C   UNL A   1      43.184  22.441  27.750  1.00  0.00     0.135 A 
ATOM     76  C   UNL A   1      43.349  22.666  25.362  1.00  0.00     0.135 A 
ATOM     77  F   UNL A   1      43.277  22.955  28.986  1.00  0.00    -0.206 F 
ATOM     78  C   UNL A   1      42.861  21.096  27.614  1.00  0.00     0.059 A 
ATOM     79  C   UNL A   1      43.010  21.326  25.201  1.00  0.00     0.059 A 
ATOM     80  F   UNL A   1      43.582  23.403  24.265  1.00  0.00    -0.206 F 
ATOM     81  C   UNL A   1      42.775  20.547  26.335  1.00  0.00     0.060 A 
BRANCH  81  82
ATOM     82  S   UNL A   1      42.308  18.810  26.168  1.00  0.00     0.124 S 
ATOM     83  O   UNL A   1      40.910  18.921  25.762  1.00  0.00    -0.237 OA
ATOM     84  O   UNL A   1      43.233  18.340  25.140  1.00  0.00    -0.237 OA
ATOM     85  O   UNL A   1      42.539  18.270  27.501  1.00  0.00    -0.744 OA
ENDBRANCH  81  82
ENDBRANCH  49  74
BRANCH  61  86
ATOM     86  C   UNL A   1      49.570  26.545  26.406  1.00  0.00     0.058 A 
ATOM     87  C   UNL A   1      50.367  26.065  27.456  1.00  0.00     0.135 A 
ATOM     88  C   UNL A   1      50.118  26.527  25.112  1.00  0.00     0.135 A 
ATOM     89  F   UNL A   1      49.899  26.066  28.714  1.00  0.00    -0.206 F 
ATOM     90  C   UNL A   1      51.660  25.593  27.234  1.00  0.00     0.059 A 
ATOM     91  C   UNL A   1      51.400  26.044  24.864  1.00  0.00     0.059 A 
ATOM     92  F   UNL A   1      49.398  26.971  24.068  1.00  0.00    -0.206 F 
ATOM     93  C   UNL A   1      52.168  25.586  25.934  1.00  0.00     0.060 A 
BRANCH  93  94
ATOM     94  S   UNL A   1      53.826  24.926  25.647  1.00  0.00     0.124 S 
ATOM     95  O   UNL A   1      54.428  25.055  26.970  1.00  0.00    -0.237 OA
ATOM     96  O   UNL A   1      53.552  23.562  25.206  1.00  0.00    -0.237 OA
ATOM     97  O   UNL A   1      54.370  25.811  24.621  1.00  0.00    -0.744 OA
ENDBRANCH  93  94
ENDBRANCH  61  86
ENDBRANCH  35  36
ENDBRANCH  27  30
ENDBRANCH  25  26
ENDBRANCH  24  25
ENDBRANCH   1  24
TORSDOF 17
ENDMDL
MODEL 3
REMARK VINA RESULT:     -12.0      4.828     10.596
REMARK SMILES CC(C)(CC(=O)NCCCNC(=O)c1ccc(-c2c3nc(c(-c4c(F)cc(S(=O)(=O)[O-])cc4F)c4ccc([nH]4)c(-c4c(F)cc(S(=O)(=O)[O-])cc4F)c4nc(c(-c5c(F)cc(S(=O)(=O)[O-])cc5F)c5ccc2[nH]5)C=C4)C=C3)cc1)NC(=O)c1nc(C(C)(C)C)n[nH]1
REMARK SMILES IDX 8 1 7 2 5 3 6 4 4 6 2 7 1 8 3 9 80 10 81 11 82 13 83 14
REMARK SMILES IDX 84 15 91 16 85 17 90 18 86 20 87 21 88 22 89 23 9 24 10 25
REMARK SMILES IDX 11 26 12 27 13 29 14 30 15 31 79 32 16 33 78 34 17 35 18 36
REMARK SMILES IDX 19 37 72 38 20 39 77 40 71 41 73 42 21 43 76 44 70 45 69 46
REMARK SMILES IDX 22 48 56 49 35 50 55 51 36 52 39 53 54 54 74 55 37 56 38 57
REMARK SMILES IDX 53 59 75 60 40 61 23 62 24 63 33 64 25 65 26 66 32 67 34 68
REMARK SMILES IDX 27 69 28 70 29 71 30 72 31 73 57 74 58 75 67 76 59 77 60 78
REMARK SMILES IDX 66 79 68 80 61 81 62 82 63 83 64 84 65 85 41 86 42 87 51 88
REMARK SMILES IDX 43 89 44 90 50 91 52 92 45 93 46 94 47 95 48 96 49 97
REMARK H PARENT 7 5 80 12 91 19 11 28 73 47 39 58
REMARK Flexibility Score: inf
ROOT
ATOM      1  C   UNL A   1      31.514  26.678  26.172  1.00  0.00     0.117 C 
ENDROOT
BRANCH   1   2
ATOM      2  N   UNL A   1      31.475  25.395  26.860  1.00  0.00    -0.356 N 
ATOM      3  C   UNL A   1      31.466  24.118  26.387  1.00  0.00     0.222 C 
ATOM      4  O   UNL A   1      31.606  23.202  27.201  1.00  0.00    -0.275 OA
ATOM      5  H   UNL A   1      31.452  25.464  27.841  1.00  0.00     0.163 HD
BRANCH   3   6
ATOM      6  C   UNL A   1      31.338  23.808  24.910  1.00  0.00     0.127 C 
BRANCH   6   7
ATOM      7  C   UNL A   1      32.678  23.581  24.168  1.00  0.00     0.044 C 
ATOM      8  C   UNL A   1      32.498  22.559  23.038  1.00  0.00     0.035 C 
ATOM      9  C   UNL A   1      33.067  24.916  23.480  1.00  0.00     0.035 C 
BRANCH   7  10
ATOM     10  N   UNL A   1      33.784  23.310  25.113  1.00  0.00    -0.344 N 
ATOM     11  C   UNL A   1      34.259  22.203  25.762  1.00  0.00     0.289 C 
ATOM     12  H   UNL A   1      34.302  24.119  25.325  1.00  0.00     0.164 HD
ATOM     13  O   UNL A   1      35.266  22.368  26.475  1.00  0.00    -0.266 OA
BRANCH  11  14
ATOM     14  C   UNL A   1      33.687  20.915  25.540  1.00  0.00     0.214 A 
ATOM     15  N   UNL A   1      34.273  19.897  24.941  1.00  0.00    -0.207 NA
ATOM     16  N   UNL A   1      32.401  20.572  25.830  1.00  0.00    -0.255 N 
ATOM     17  C   UNL A   1      33.268  18.964  24.844  1.00  0.00     0.156 A 
ATOM     18  N   UNL A   1      32.131  19.313  25.459  1.00  0.00    -0.158 NA
ATOM     19  H   UNL A   1      31.751  21.174  26.259  1.00  0.00     0.192 HD
BRANCH  17  20
ATOM     20  C   UNL A   1      33.461  17.639  24.160  1.00  0.00     0.024 C 
ATOM     21  C   UNL A   1      32.712  16.506  24.886  1.00  0.00     0.019 C 
ATOM     22  C   UNL A   1      32.896  17.718  22.726  1.00  0.00     0.019 C 
ATOM     23  C   UNL A   1      34.958  17.288  24.160  1.00  0.00     0.019 C 
ENDBRANCH  17  20
ENDBRANCH  11  14
ENDBRANCH   7  10
ENDBRANCH   6   7
ENDBRANCH   3   6
ENDBRANCH   1   2
BRANCH   1  24
ATOM     24  C   UNL A   1      31.696  27.868  27.123  1.00  0.00     0.042 C 
BRANCH  24  25
ATOM     25  C   UNL A   1      33.139  28.385  27.270  1.00  0.00     0.118 C 
BRANCH  25  26
ATOM     26  N   UNL A   1      33.201  29.811  27.562  1.00  0.00    -0.352 N 
ATOM     27  C   UNL A   1      34.197  30.617  28.069  1.00  0.00     0.251 C 
ATOM     28  H   UNL A   1      32.368  30.295  27.356  1.00  0.00     0.163 HD
ATOM     29  O   UNL A   1      33.903  31.783  28.339  1.00  0.00    -0.269 OA
BRANCH  27  30
ATOM     30  C   UNL A   1      35.590  30.156  28.335  1.00  0.00     0.039 A 
ATOM     31  C   UNL A   1      36.505  30.165  27.273  1.00  0.00     0.014 A 
ATOM     32  C   UNL A   1      36.003  29.617  29.552  1.00  0.00     0.014 A 
ATOM     33  C   UNL A   1      37.831  29.721  27.450  1.00  0.00     0.010 A 
ATOM     34  C   UNL A   1      37.348  29.223  29.738  1.00  0.00     0.010 A 
ATOM     35  C   UNL A   1      38.298  29.289  28.703  1.00  0.00    -0.014 A 
BRANCH  35  36
ATOM     36  C   UNL A   1      39.755  28.954  28.922  1.00  0.00     0.031 A 
ATOM     37  C   UNL A   1      40.721  29.942  29.549  1.00  0.00     0.074 A 
ATOM     38  C   UNL A   1      40.267  27.767  28.518  1.00  0.00     0.049 A 
ATOM     39  N   UNL A   1      42.002  29.801  29.803  1.00  0.00    -0.248 NA
ATOM     40  C   UNL A   1      40.190  31.264  29.904  1.00  0.00     0.031 C 
ATOM     41  C   UNL A   1      39.532  26.713  27.818  1.00  0.00     0.029 A 
ATOM     42  N   UNL A   1      41.539  27.244  28.642  1.00  0.00    -0.354 N 
ATOM     43  C   UNL A   1      42.433  31.020  30.316  1.00  0.00     0.074 A 
ATOM     44  C   UNL A   1      41.287  31.906  30.278  1.00  0.00     0.031 C 
ATOM     45  C   UNL A   1      40.342  25.660  27.620  1.00  0.00     0.029 A 
ATOM     46  C   UNL A   1      41.668  25.963  28.154  1.00  0.00     0.049 A 
ATOM     47  H   UNL A   1      42.287  27.744  29.041  1.00  0.00     0.167 HD
ATOM     48  C   UNL A   1      43.646  31.377  30.812  1.00  0.00     0.037 A 
ATOM     49  C   UNL A   1      42.714  25.108  28.147  1.00  0.00     0.037 A 
ATOM     50  C   UNL A   1      44.793  30.513  30.923  1.00  0.00     0.049 A 
ATOM     51  C   UNL A   1      44.037  25.500  28.748  1.00  0.00     0.074 A 
ATOM     52  C   UNL A   1      46.025  30.787  31.496  1.00  0.00     0.029 A 
ATOM     53  N   UNL A   1      44.855  29.209  30.460  1.00  0.00    -0.354 N 
ATOM     54  N   UNL A   1      44.387  26.627  29.314  1.00  0.00    -0.248 NA
ATOM     55  C   UNL A   1      45.110  24.489  28.717  1.00  0.00     0.031 C 
ATOM     56  C   UNL A   1      46.839  29.655  31.364  1.00  0.00     0.029 A 
ATOM     57  C   UNL A   1      46.104  28.668  30.733  1.00  0.00     0.049 A 
ATOM     58  H   UNL A   1      44.122  28.737  30.004  1.00  0.00     0.167 HD
ATOM     59  C   UNL A   1      45.700  26.448  29.741  1.00  0.00     0.074 A 
ATOM     60  C   UNL A   1      46.088  25.107  29.366  1.00  0.00     0.031 C 
ATOM     61  C   UNL A   1      46.501  27.324  30.394  1.00  0.00     0.037 A 
BRANCH  48  62
ATOM     62  C   UNL A   1      43.784  32.791  31.309  1.00  0.00     0.058 A 
ATOM     63  C   UNL A   1      44.203  33.826  30.457  1.00  0.00     0.135 A 
ATOM     64  C   UNL A   1      43.507  33.115  32.647  1.00  0.00     0.135 A 
ATOM     65  F   UNL A   1      44.483  33.568  29.169  1.00  0.00    -0.206 F 
ATOM     66  C   UNL A   1      44.414  35.116  30.929  1.00  0.00     0.059 A 
ATOM     67  C   UNL A   1      43.682  34.408  33.134  1.00  0.00     0.059 A 
ATOM     68  F   UNL A   1      43.082  32.169  33.499  1.00  0.00    -0.206 F 
ATOM     69  C   UNL A   1      44.167  35.393  32.273  1.00  0.00     0.060 A 
BRANCH  69  70
ATOM     70  S   UNL A   1      44.510  37.052  32.895  1.00  0.00     0.124 S 
ATOM     71  O   UNL A   1      44.799  37.768  31.657  1.00  0.00    -0.237 OA
ATOM     72  O   UNL A   1      43.258  37.411  33.556  1.00  0.00    -0.237 OA
ATOM     73  O   UNL A   1      45.647  36.849  33.787  1.00  0.00    -0.744 OA
ENDBRANCH  69  70
ENDBRANCH  48  62
BRANCH  49  74
ATOM     74  C   UNL A   1      42.538  23.733  27.608  1.00  0.00     0.058 A 
ATOM     75  C   UNL A   1      42.360  22.648  28.480  1.00  0.00     0.135 A 
ATOM     76  C   UNL A   1      42.560  23.473  26.231  1.00  0.00     0.135 A 
ATOM     77  F   UNL A   1      42.349  22.849  29.807  1.00  0.00    -0.206 F 
ATOM     78  C   UNL A   1      42.224  21.348  28.006  1.00  0.00     0.059 A 
ATOM     79  C   UNL A   1      42.407  22.183  25.732  1.00  0.00     0.059 A 
ATOM     80  F   UNL A   1      42.722  24.480  25.360  1.00  0.00    -0.206 F 
ATOM     81  C   UNL A   1      42.247  21.125  26.629  1.00  0.00     0.060 A 
BRANCH  81  82
ATOM     82  S   UNL A   1      42.021  19.439  26.021  1.00  0.00     0.124 S 
ATOM     83  O   UNL A   1      40.594  19.429  25.713  1.00  0.00    -0.237 OA
ATOM     84  O   UNL A   1      42.921  19.404  24.871  1.00  0.00    -0.237 OA
ATOM     85  O   UNL A   1      42.430  18.616  27.152  1.00  0.00    -0.744 OA
ENDBRANCH  81  82
ENDBRANCH  49  74
BRANCH  61  86
ATOM     86  C   UNL A   1      47.869  26.859  30.812  1.00  0.00     0.058 A 
ATOM     87  C   UNL A   1      49.015  27.136  30.049  1.00  0.00     0.135 A 
ATOM     88  C   UNL A   1      48.046  26.171  32.025  1.00  0.00     0.135 A 
ATOM     89  F   UNL A   1      48.906  27.782  28.878  1.00  0.00    -0.206 F 
ATOM     90  C   UNL A   1      50.283  26.740  30.468  1.00  0.00     0.059 A 
ATOM     91  C   UNL A   1      49.306  25.781  32.472  1.00  0.00     0.059 A 
ATOM     92  F   UNL A   1      46.985  25.883  32.797  1.00  0.00    -0.206 F 
ATOM     93  C   UNL A   1      50.419  26.064  31.682  1.00  0.00     0.060 A 
BRANCH  93  94
ATOM     94  S   UNL A   1      52.073  25.598  32.242  1.00  0.00     0.124 S 
ATOM     95  O   UNL A   1      52.883  25.918  31.071  1.00  0.00    -0.237 OA
ATOM     96  O   UNL A   1      52.269  26.461  33.403  1.00  0.00    -0.237 OA
ATOM     97  O   UNL A   1      51.941  24.175  32.544  1.00  0.00    -0.744 OA
ENDBRANCH  93  94
ENDBRANCH  61  86
ENDBRANCH  35  36
ENDBRANCH  27  30
ENDBRANCH  25  26
ENDBRANCH  24  25
ENDBRANCH   1  24
TORSDOF 17
ENDMDL
