MODEL 1
REMARK VINA RESULT:     -11.8      0.000      0.000
REMARK SMILES CC1(C)[C@@]2(CC[C@@H]2C(=O)NCc2ccco2)[C@]1(C)C(=O)NCCCNC(=O)c1ccc(-c2c3nc(c(-c4c(F)cc(S(=O)(=O)[O-])cc4F)c4ccc([nH]4)c(-c4c(F)cc(S(=O)(=O)[O-])cc4F)c4nc(c(-c5c(F)cc(S(=O)(=O)[O-])cc5F)c5ccc2[nH]5)C=C4)C=C3)cc1
REMARK SMILES IDX 23 1 22 2 21 3 19 4 20 5 17 7 1 8 2 9 3 10 4 11 18 12 5 13
REMARK SMILES IDX 7 14 6 15 8 16 9 17 10 18 11 20 12 21 13 22 16 23 14 24
REMARK SMILES IDX 15 25 24 26 25 27 26 28 27 30 28 31 29 32 93 33 30 34 92 35
REMARK SMILES IDX 31 36 32 37 33 38 86 39 34 40 91 41 85 42 87 43 35 44 90 45
REMARK SMILES IDX 84 46 83 47 36 49 70 50 49 51 69 52 50 53 53 54 68 55 88 56
REMARK SMILES IDX 51 57 52 58 67 60 89 61 54 62 37 63 38 64 47 65 39 66 40 67
REMARK SMILES IDX 46 68 48 69 41 70 42 71 43 72 44 73 45 74 71 75 72 76 81 77
REMARK SMILES IDX 73 78 74 79 80 80 82 81 75 82 76 83 77 84 78 85 79 86 55 87
REMARK SMILES IDX 56 88 65 89 57 90 58 91 64 92 66 93 59 94 60 95 61 96 62 97
REMARK SMILES IDX 63 98
REMARK H PARENT 21 6 10 19 25 29 87 48 53 59
REMARK Flexibility Score: inf
ROOT
ATOM      1  C   UNL A   1      34.080  28.066  25.824  1.00  0.00     0.042 C 
ENDROOT
BRANCH   1   2
ATOM      2  C   UNL A   1      33.070  27.358  24.919  1.00  0.00     0.117 C 
BRANCH   2   3
ATOM      3  N   UNL A   1      32.047  26.697  25.695  1.00  0.00    -0.356 N 
ATOM      4  C   UNL A   1      31.450  25.479  25.546  1.00  0.00     0.227 C 
ATOM      5  O   UNL A   1      30.651  25.115  26.399  1.00  0.00    -0.274 OA
ATOM      6  H   UNL A   1      31.724  27.215  26.468  1.00  0.00     0.163 HD
BRANCH   4   7
ATOM      7  C   UNL A   1      31.875  24.509  24.474  1.00  0.00     0.059 C 
ATOM      8  C   UNL A   1      31.184  22.260  25.661  1.00  0.00     0.013 C 
ATOM      9  C   UNL A   1      31.908  22.969  24.539  1.00  0.00    -0.013 C 
ATOM     10  C   UNL A   1      31.876  22.150  23.263  1.00  0.00     0.013 C 
ATOM     11  C   UNL A   1      33.173  23.718  24.843  1.00  0.00     0.003 C 
ATOM     12  C   UNL A   1      31.728  25.116  23.083  1.00  0.00     0.023 C 
ATOM     13  C   UNL A   1      34.421  23.993  24.082  1.00  0.00     0.010 C 
ATOM     14  C   UNL A   1      33.892  23.700  26.171  1.00  0.00     0.086 C 
ATOM     15  C   UNL A   1      35.095  24.278  25.427  1.00  0.00     0.015 C 
BRANCH  14  16
ATOM     16  C   UNL A   1      34.014  22.416  27.015  1.00  0.00     0.224 C 
ATOM     17  O   UNL A   1      33.714  22.418  28.223  1.00  0.00    -0.275 OA
ATOM     18  N   UNL A   1      34.456  21.204  26.557  1.00  0.00    -0.349 N 
ATOM     19  H   UNL A   1      34.488  20.507  27.253  1.00  0.00     0.163 HD
BRANCH  18  20
ATOM     20  C   UNL A   1      34.887  20.742  25.262  1.00  0.00     0.191 C 
BRANCH  20  21
ATOM     21  C   UNL A   1      34.150  19.507  24.894  1.00  0.00     0.122 A 
ATOM     22  C   UNL A   1      32.828  19.112  24.957  1.00  0.00     0.047 A 
ATOM     23  O   UNL A   1      34.901  18.498  24.358  1.00  0.00    -0.467 OA
ATOM     24  C   UNL A   1      32.770  17.797  24.438  1.00  0.00     0.042 A 
ATOM     25  C   UNL A   1      34.055  17.474  24.076  1.00  0.00     0.195 A 
ENDBRANCH  20  21
ENDBRANCH  18  20
ENDBRANCH  14  16
ENDBRANCH   4   7
ENDBRANCH   2   3
ENDBRANCH   1   2
BRANCH   1  26
ATOM     26  C   UNL A   1      33.583  28.322  27.248  1.00  0.00     0.118 C 
BRANCH  26  27
ATOM     27  N   UNL A   1      33.456  29.738  27.552  1.00  0.00    -0.352 N 
ATOM     28  C   UNL A   1      34.371  30.585  28.129  1.00  0.00     0.251 C 
ATOM     29  H   UNL A   1      32.593  30.147  27.311  1.00  0.00     0.163 HD
ATOM     30  O   UNL A   1      34.023  31.718  28.455  1.00  0.00    -0.269 OA
BRANCH  28  31
ATOM     31  C   UNL A   1      35.759  30.135  28.385  1.00  0.00     0.039 A 
ATOM     32  C   UNL A   1      36.683  30.186  27.335  1.00  0.00     0.014 A 
ATOM     33  C   UNL A   1      36.150  29.641  29.633  1.00  0.00     0.014 A 
ATOM     34  C   UNL A   1      38.008  29.799  27.553  1.00  0.00     0.010 A 
ATOM     35  C   UNL A   1      37.485  29.300  29.862  1.00  0.00     0.010 A 
ATOM     36  C   UNL A   1      38.428  29.380  28.826  1.00  0.00    -0.014 A 
BRANCH  36  37
ATOM     37  C   UNL A   1      39.853  29.049  29.092  1.00  0.00     0.031 A 
ATOM     38  C   UNL A   1      40.786  30.082  29.661  1.00  0.00     0.074 A 
ATOM     39  C   UNL A   1      40.320  27.828  28.764  1.00  0.00     0.049 A 
ATOM     40  N   UNL A   1      42.070  29.992  29.897  1.00  0.00    -0.248 NA
ATOM     41  C   UNL A   1      40.204  31.393  29.989  1.00  0.00     0.031 C 
ATOM     42  C   UNL A   1      39.526  26.751  28.168  1.00  0.00     0.029 A 
ATOM     43  N   UNL A   1      41.579  27.291  28.872  1.00  0.00    -0.354 N 
ATOM     44  C   UNL A   1      42.455  31.234  30.386  1.00  0.00     0.074 A 
ATOM     45  C   UNL A   1      41.273  32.073  30.382  1.00  0.00     0.031 C 
ATOM     46  C   UNL A   1      40.314  25.680  27.975  1.00  0.00     0.029 A 
ATOM     47  C   UNL A   1      41.671  26.002  28.403  1.00  0.00     0.049 A 
ATOM     48  H   UNL A   1      42.343  27.782  29.251  1.00  0.00     0.167 HD
ATOM     49  C   UNL A   1      43.677  31.636  30.813  1.00  0.00     0.037 A 
ATOM     50  C   UNL A   1      42.731  25.174  28.317  1.00  0.00     0.037 A 
ATOM     51  C   UNL A   1      44.845  30.794  30.841  1.00  0.00     0.049 A 
ATOM     52  C   UNL A   1      44.075  25.640  28.805  1.00  0.00     0.074 A 
ATOM     53  C   UNL A   1      46.112  31.095  31.313  1.00  0.00     0.029 A 
ATOM     54  N   UNL A   1      44.893  29.488  30.378  1.00  0.00    -0.354 N 
ATOM     55  N   UNL A   1      44.406  26.801  29.317  1.00  0.00    -0.248 NA
ATOM     56  C   UNL A   1      45.186  24.684  28.708  1.00  0.00     0.031 C 
ATOM     57  C   UNL A   1      46.933  29.981  31.107  1.00  0.00     0.029 A 
ATOM     58  C   UNL A   1      46.170  28.974  30.540  1.00  0.00     0.049 A 
ATOM     59  H   UNL A   1      44.131  28.998  29.992  1.00  0.00     0.167 HD
ATOM     60  C   UNL A   1      45.759  26.707  29.624  1.00  0.00     0.074 A 
ATOM     61  C   UNL A   1      46.181  25.374  29.250  1.00  0.00     0.031 C 
ATOM     62  C   UNL A   1      46.576  27.643  30.168  1.00  0.00     0.037 A 
BRANCH  49  63
ATOM     63  C   UNL A   1      43.814  33.054  31.294  1.00  0.00     0.058 A 
ATOM     64  C   UNL A   1      44.055  34.111  30.403  1.00  0.00     0.135 A 
ATOM     65  C   UNL A   1      43.658  33.366  32.655  1.00  0.00     0.135 A 
ATOM     66  F   UNL A   1      44.224  33.866  29.094  1.00  0.00    -0.206 F 
ATOM     67  C   UNL A   1      44.162  35.425  30.846  1.00  0.00     0.059 A 
ATOM     68  C   UNL A   1      43.739  34.676  33.117  1.00  0.00     0.059 A 
ATOM     69  F   UNL A   1      43.425  32.392  33.549  1.00  0.00    -0.206 F 
ATOM     70  C   UNL A   1      44.005  35.698  32.206  1.00  0.00     0.060 A 
BRANCH  70  71
ATOM     71  S   UNL A   1      44.139  37.409  32.766  1.00  0.00     0.124 S 
ATOM     72  O   UNL A   1      43.033  37.492  33.714  1.00  0.00    -0.237 OA
ATOM     73  O   UNL A   1      45.476  37.446  33.349  1.00  0.00    -0.237 OA
ATOM     74  O   UNL A   1      43.974  38.182  31.538  1.00  0.00    -0.744 OA
ENDBRANCH  70  71
ENDBRANCH  49  63
BRANCH  50  75
ATOM     75  C   UNL A   1      42.558  23.807  27.762  1.00  0.00     0.058 A 
ATOM     76  C   UNL A   1      42.438  22.697  28.610  1.00  0.00     0.135 A 
ATOM     77  C   UNL A   1      42.496  23.585  26.378  1.00  0.00     0.135 A 
ATOM     78  F   UNL A   1      42.499  22.860  29.940  1.00  0.00    -0.206 F 
ATOM     79  C   UNL A   1      42.274  21.411  28.107  1.00  0.00     0.059 A 
ATOM     80  C   UNL A   1      42.311  22.311  25.851  1.00  0.00     0.059 A 
ATOM     81  F   UNL A   1      42.590  24.618  25.526  1.00  0.00    -0.206 F 
ATOM     82  C   UNL A   1      42.210  21.229  26.724  1.00  0.00     0.060 A 
BRANCH  82  83
ATOM     83  S   UNL A   1      41.941  19.563  26.079  1.00  0.00     0.124 S 
ATOM     84  O   UNL A   1      42.814  19.556  24.912  1.00  0.00    -0.237 OA
ATOM     85  O   UNL A   1      42.362  18.725  27.198  1.00  0.00    -0.237 OA
ATOM     86  O   UNL A   1      40.508  19.542  25.798  1.00  0.00    -0.744 OA
ENDBRANCH  82  83
ENDBRANCH  50  75
BRANCH  62  87
ATOM     87  C   UNL A   1      48.003  27.248  30.420  1.00  0.00     0.058 A 
ATOM     88  C   UNL A   1      48.997  27.426  29.447  1.00  0.00     0.135 A 
ATOM     89  C   UNL A   1      48.388  26.727  31.666  1.00  0.00     0.135 A 
ATOM     90  F   UNL A   1      48.679  27.913  28.237  1.00  0.00    -0.206 F 
ATOM     91  C   UNL A   1      50.324  27.084  29.693  1.00  0.00     0.059 A 
ATOM     92  C   UNL A   1      49.711  26.398  31.941  1.00  0.00     0.059 A 
ATOM     93  F   UNL A   1      47.476  26.544  32.634  1.00  0.00    -0.206 F 
ATOM     94  C   UNL A   1      50.670  26.570  30.943  1.00  0.00     0.060 A 
BRANCH  94  95
ATOM     95  S   UNL A   1      52.400  26.159  31.265  1.00  0.00     0.124 S 
ATOM     96  O   UNL A   1      52.789  27.225  32.181  1.00  0.00    -0.237 OA
ATOM     97  O   UNL A   1      52.304  24.825  31.849  1.00  0.00    -0.237 OA
ATOM     98  O   UNL A   1      53.012  26.213  29.942  1.00  0.00    -0.744 OA
ENDBRANCH  94  95
ENDBRANCH  62  87
ENDBRANCH  36  37
ENDBRANCH  28  31
ENDBRANCH  26  27
ENDBRANCH   1  26
TORSDOF 16
ENDMDL
MODEL 2
REMARK VINA RESULT:     -11.7      2.795      3.818
REMARK SMILES CC1(C)[C@@]2(CC[C@@H]2C(=O)NCc2ccco2)[C@]1(C)C(=O)NCCCNC(=O)c1ccc(-c2c3nc(c(-c4c(F)cc(S(=O)(=O)[O-])cc4F)c4ccc([nH]4)c(-c4c(F)cc(S(=O)(=O)[O-])cc4F)c4nc(c(-c5c(F)cc(S(=O)(=O)[O-])cc5F)c5ccc2[nH]5)C=C4)C=C3)cc1
REMARK SMILES IDX 23 1 22 2 21 3 19 4 20 5 17 7 1 8 2 9 3 10 4 11 18 12 5 13
REMARK SMILES IDX 7 14 6 15 8 16 9 17 10 18 11 20 12 21 13 22 16 23 14 24
REMARK SMILES IDX 15 25 24 26 25 27 26 28 27 30 28 31 29 32 93 33 30 34 92 35
REMARK SMILES IDX 31 36 32 37 33 38 86 39 34 40 91 41 85 42 87 43 35 44 90 45
REMARK SMILES IDX 84 46 83 47 36 49 70 50 49 51 69 52 50 53 53 54 68 55 88 56
REMARK SMILES IDX 51 57 52 58 67 60 89 61 54 62 37 63 38 64 47 65 39 66 40 67
REMARK SMILES IDX 46 68 48 69 41 70 42 71 43 72 44 73 45 74 71 75 72 76 81 77
REMARK SMILES IDX 73 78 74 79 80 80 82 81 75 82 76 83 77 84 78 85 79 86 55 87
REMARK SMILES IDX 56 88 65 89 57 90 58 91 64 92 66 93 59 94 60 95 61 96 62 97
REMARK SMILES IDX 63 98
REMARK H PARENT 21 6 10 19 25 29 87 48 53 59
REMARK Flexibility Score: inf
ROOT
ATOM      1  C   UNL A   1      32.843  27.679  26.787  1.00  0.00     0.042 C 
ENDROOT
BRANCH   1   2
ATOM      2  C   UNL A   1      31.804  27.094  25.829  1.00  0.00     0.117 C 
BRANCH   2   3
ATOM      3  N   UNL A   1      31.097  25.991  26.436  1.00  0.00    -0.356 N 
ATOM      4  C   UNL A   1      30.923  24.700  26.029  1.00  0.00     0.227 C 
ATOM      5  O   UNL A   1      30.334  23.930  26.776  1.00  0.00    -0.274 OA
ATOM      6  H   UNL A   1      30.666  26.207  27.294  1.00  0.00     0.163 HD
BRANCH   4   7
ATOM      7  C   UNL A   1      31.581  24.161  24.786  1.00  0.00     0.059 C 
ATOM      8  C   UNL A   1      31.706  21.616  25.460  1.00  0.00     0.013 C 
ATOM      9  C   UNL A   1      32.108  22.735  24.526  1.00  0.00    -0.013 C 
ATOM     10  C   UNL A   1      32.276  22.230  23.106  1.00  0.00     0.013 C 
ATOM     11  C   UNL A   1      33.080  23.774  25.005  1.00  0.00     0.003 C 
ATOM     12  C   UNL A   1      31.179  24.959  23.550  1.00  0.00     0.023 C 
ATOM     13  C   UNL A   1      34.136  24.587  24.343  1.00  0.00     0.010 C 
ATOM     14  C   UNL A   1      33.833  23.718  26.313  1.00  0.00     0.086 C 
ATOM     15  C   UNL A   1      34.749  24.792  25.730  1.00  0.00     0.015 C 
BRANCH  14  16
ATOM     16  C   UNL A   1      34.401  22.398  26.872  1.00  0.00     0.224 C 
ATOM     17  O   UNL A   1      33.875  21.844  27.853  1.00  0.00    -0.275 OA
ATOM     18  N   UNL A   1      35.497  21.736  26.384  1.00  0.00    -0.349 N 
ATOM     19  H   UNL A   1      35.722  20.921  26.890  1.00  0.00     0.163 HD
BRANCH  18  20
ATOM     20  C   UNL A   1      36.388  21.993  25.282  1.00  0.00     0.191 C 
BRANCH  20  21
ATOM     21  C   UNL A   1      37.714  22.424  25.793  1.00  0.00     0.122 A 
ATOM     22  C   UNL A   1      38.223  23.610  26.286  1.00  0.00     0.047 A 
ATOM     23  O   UNL A   1      38.691  21.468  25.809  1.00  0.00    -0.467 OA
ATOM     24  C   UNL A   1      39.578  23.365  26.615  1.00  0.00     0.042 A 
ATOM     25  C   UNL A   1      39.809  22.045  26.317  1.00  0.00     0.195 A 
ENDBRANCH  20  21
ENDBRANCH  18  20
ENDBRANCH  14  16
ENDBRANCH   4   7
ENDBRANCH   2   3
ENDBRANCH   1   2
BRANCH   1  26
ATOM     26  C   UNL A   1      33.878  28.588  26.123  1.00  0.00     0.118 C 
BRANCH  26  27
ATOM     27  N   UNL A   1      33.666  29.994  26.424  1.00  0.00    -0.352 N 
ATOM     28  C   UNL A   1      34.347  30.804  27.300  1.00  0.00     0.251 C 
ATOM     29  H   UNL A   1      32.931  30.426  25.932  1.00  0.00     0.163 HD
ATOM     30  O   UNL A   1      33.918  31.930  27.540  1.00  0.00    -0.269 OA
BRANCH  28  31
ATOM     31  C   UNL A   1      35.575  30.321  27.976  1.00  0.00     0.039 A 
ATOM     32  C   UNL A   1      36.802  30.466  27.320  1.00  0.00     0.014 A 
ATOM     33  C   UNL A   1      35.525  29.704  29.230  1.00  0.00     0.014 A 
ATOM     34  C   UNL A   1      37.981  30.050  27.944  1.00  0.00     0.010 A 
ATOM     35  C   UNL A   1      36.708  29.332  29.872  1.00  0.00     0.010 A 
ATOM     36  C   UNL A   1      37.948  29.506  29.238  1.00  0.00    -0.014 A 
BRANCH  36  37
ATOM     37  C   UNL A   1      39.202  29.140  29.947  1.00  0.00     0.031 A 
ATOM     38  C   UNL A   1      39.636  29.893  31.175  1.00  0.00     0.074 A 
ATOM     39  C   UNL A   1      39.983  28.162  29.447  1.00  0.00     0.049 A 
ATOM     40  N   UNL A   1      40.728  29.756  31.883  1.00  0.00    -0.248 NA
ATOM     41  C   UNL A   1      38.733  30.949  31.659  1.00  0.00     0.031 C 
ATOM     42  C   UNL A   1      39.695  27.384  28.240  1.00  0.00     0.029 A 
ATOM     43  N   UNL A   1      41.186  27.664  29.882  1.00  0.00    -0.354 N 
ATOM     44  C   UNL A   1      40.654  30.715  32.885  1.00  0.00     0.074 A 
ATOM     45  C   UNL A   1      39.424  31.451  32.674  1.00  0.00     0.031 C 
ATOM     46  C   UNL A   1      40.686  26.500  28.039  1.00  0.00     0.029 A 
ATOM     47  C   UNL A   1      41.694  26.668  29.082  1.00  0.00     0.049 A 
ATOM     48  H   UNL A   1      41.642  27.989  30.692  1.00  0.00     0.167 HD
ATOM     49  C   UNL A   1      41.524  30.952  33.898  1.00  0.00     0.037 A 
ATOM     50  C   UNL A   1      42.845  25.974  29.169  1.00  0.00     0.037 A 
ATOM     51  C   UNL A   1      42.734  30.204  34.122  1.00  0.00     0.049 A 
ATOM     52  C   UNL A   1      43.789  26.250  30.306  1.00  0.00     0.074 A 
ATOM     53  C   UNL A   1      43.646  30.332  35.155  1.00  0.00     0.029 A 
ATOM     54  N   UNL A   1      43.201  29.188  33.301  1.00  0.00    -0.354 N 
ATOM     55  N   UNL A   1      43.674  27.124  31.277  1.00  0.00    -0.248 NA
ATOM     56  C   UNL A   1      45.017  25.443  30.363  1.00  0.00     0.031 C 
ATOM     57  C   UNL A   1      44.681  29.415  34.943  1.00  0.00     0.029 A 
ATOM     58  C   UNL A   1      44.396  28.690  33.797  1.00  0.00     0.049 A 
ATOM     59  H   UNL A   1      42.750  28.867  32.488  1.00  0.00     0.167 HD
ATOM     60  C   UNL A   1      44.803  26.958  32.073  1.00  0.00     0.074 A 
ATOM     61  C   UNL A   1      45.582  25.893  31.475  1.00  0.00     0.031 C 
ATOM     62  C   UNL A   1      45.159  27.627  33.197  1.00  0.00     0.037 A 
BRANCH  49  63
ATOM     63  C   UNL A   1      41.196  32.069  34.849  1.00  0.00     0.058 A 
ATOM     64  C   UNL A   1      40.415  31.851  35.994  1.00  0.00     0.135 A 
ATOM     65  C   UNL A   1      41.705  33.361  34.639  1.00  0.00     0.135 A 
ATOM     66  F   UNL A   1      39.893  30.639  36.236  1.00  0.00    -0.206 F 
ATOM     67  C   UNL A   1      40.128  32.880  36.885  1.00  0.00     0.059 A 
ATOM     68  C   UNL A   1      41.449  34.400  35.529  1.00  0.00     0.059 A 
ATOM     69  F   UNL A   1      42.459  33.622  33.560  1.00  0.00    -0.206 F 
ATOM     70  C   UNL A   1      40.648  34.154  36.642  1.00  0.00     0.060 A 
BRANCH  70  71
ATOM     71  S   UNL A   1      40.273  35.478  37.810  1.00  0.00     0.124 S 
ATOM     72  O   UNL A   1      40.141  36.624  36.917  1.00  0.00    -0.237 OA
ATOM     73  O   UNL A   1      39.037  35.012  38.429  1.00  0.00    -0.237 OA
ATOM     74  O   UNL A   1      41.440  35.496  38.688  1.00  0.00    -0.744 OA
ENDBRANCH  70  71
ENDBRANCH  49  63
BRANCH  50  75
ATOM     75  C   UNL A   1      43.159  24.932  28.158  1.00  0.00     0.058 A 
ATOM     76  C   UNL A   1      43.775  25.272  26.945  1.00  0.00     0.135 A 
ATOM     77  C   UNL A   1      42.865  23.580  28.389  1.00  0.00     0.135 A 
ATOM     78  F   UNL A   1      44.069  26.553  26.678  1.00  0.00    -0.206 F 
ATOM     79  C   UNL A   1      44.079  24.308  25.988  1.00  0.00     0.059 A 
ATOM     80  C   UNL A   1      43.178  22.596  27.457  1.00  0.00     0.059 A 
ATOM     81  F   UNL A   1      42.290  23.204  29.542  1.00  0.00    -0.206 F 
ATOM     82  C   UNL A   1      43.776  22.972  26.255  1.00  0.00     0.060 A 
BRANCH  82  83
ATOM     83  S   UNL A   1      44.223  21.720  25.032  1.00  0.00     0.124 S 
ATOM     84  O   UNL A   1      44.076  22.462  23.785  1.00  0.00    -0.237 OA
ATOM     85  O   UNL A   1      45.590  21.384  25.417  1.00  0.00    -0.237 OA
ATOM     86  O   UNL A   1      43.240  20.665  25.260  1.00  0.00    -0.744 OA
ENDBRANCH  82  83
ENDBRANCH  50  75
BRANCH  62  87
ATOM     87  C   UNL A   1      46.433  27.208  33.873  1.00  0.00     0.058 A 
ATOM     88  C   UNL A   1      46.452  26.192  34.840  1.00  0.00     0.135 A 
ATOM     89  C   UNL A   1      47.656  27.800  33.516  1.00  0.00     0.135 A 
ATOM     90  F   UNL A   1      45.309  25.601  35.221  1.00  0.00    -0.206 F 
ATOM     91  C   UNL A   1      47.639  25.789  35.446  1.00  0.00     0.059 A 
ATOM     92  C   UNL A   1      48.856  27.398  34.093  1.00  0.00     0.059 A 
ATOM     93  F   UNL A   1      47.692  28.771  32.591  1.00  0.00    -0.206 F 
ATOM     94  C   UNL A   1      48.835  26.398  35.066  1.00  0.00     0.060 A 
BRANCH  94  95
ATOM     95  S   UNL A   1      50.375  25.845  35.833  1.00  0.00     0.124 S 
ATOM     96  O   UNL A   1      51.329  26.036  34.746  1.00  0.00    -0.237 OA
ATOM     97  O   UNL A   1      50.510  26.759  36.963  1.00  0.00    -0.237 OA
ATOM     98  O   UNL A   1      50.095  24.457  36.188  1.00  0.00    -0.744 OA
ENDBRANCH  94  95
ENDBRANCH  62  87
ENDBRANCH  36  37
ENDBRANCH  28  31
ENDBRANCH  26  27
ENDBRANCH   1  26
TORSDOF 16
ENDMDL
MODEL 3
REMARK VINA RESULT:     -11.7      4.765     10.368
REMARK SMILES CC1(C)[C@@]2(CC[C@@H]2C(=O)NCc2ccco2)[C@]1(C)C(=O)NCCCNC(=O)c1ccc(-c2c3nc(c(-c4c(F)cc(S(=O)(=O)[O-])cc4F)c4ccc([nH]4)c(-c4c(F)cc(S(=O)(=O)[O-])cc4F)c4nc(c(-c5c(F)cc(S(=O)(=O)[O-])cc5F)c5ccc2[nH]5)C=C4)C=C3)cc1
REMARK SMILES IDX 23 1 22 2 21 3 19 4 20 5 17 7 1 8 2 9 3 10 4 11 18 12 5 13
REMARK SMILES IDX 7 14 6 15 8 16 9 17 10 18 11 20 12 21 13 22 16 23 14 24
REMARK SMILES IDX 15 25 24 26 25 27 26 28 27 30 28 31 29 32 93 33 30 34 92 35
REMARK SMILES IDX 31 36 32 37 33 38 86 39 34 40 91 41 85 42 87 43 35 44 90 45
REMARK SMILES IDX 84 46 83 47 36 49 70 50 49 51 69 52 50 53 53 54 68 55 88 56
REMARK SMILES IDX 51 57 52 58 67 60 89 61 54 62 37 63 38 64 47 65 39 66 40 67
REMARK SMILES IDX 46 68 48 69 41 70 42 71 43 72 44 73 45 74 71 75 72 76 81 77
REMARK SMILES IDX 73 78 74 79 80 80 82 81 75 82 76 83 77 84 78 85 79 86 55 87
REMARK SMILES IDX 56 88 65 89 57 90 58 91 64 92 66 93 59 94 60 95 61 96 62 97
REMARK SMILES IDX 63 98
REMARK H PARENT 21 6 10 19 25 29 87 48 53 59
REMARK Flexibility Score: inf
ROOT
ATOM      1  C   UNL A   1      38.655  22.546  26.274  1.00  0.00     0.042 C 
ENDROOT
BRANCH   1   2
ATOM      2  C   UNL A   1      37.564  23.483  25.755  1.00  0.00     0.117 C 
BRANCH   2   3
ATOM      3  N   UNL A   1      37.390  23.340  24.328  1.00  0.00    -0.356 N 
ATOM      4  C   UNL A   1      36.324  22.913  23.590  1.00  0.00     0.227 C 
ATOM      5  O   UNL A   1      36.407  22.959  22.369  1.00  0.00    -0.274 OA
ATOM      6  H   UNL A   1      38.177  23.596  23.794  1.00  0.00     0.163 HD
BRANCH   4   7
ATOM      7  C   UNL A   1      35.004  22.563  24.225  1.00  0.00     0.059 C 
ATOM      8  C   UNL A   1      33.429  22.985  22.154  1.00  0.00     0.013 C 
ATOM      9  C   UNL A   1      33.588  22.722  23.634  1.00  0.00    -0.013 C 
ATOM     10  C   UNL A   1      32.440  21.889  24.170  1.00  0.00     0.013 C 
ATOM     11  C   UNL A   1      34.114  23.816  24.519  1.00  0.00     0.003 C 
ATOM     12  C   UNL A   1      35.165  21.483  25.290  1.00  0.00     0.023 C 
ATOM     13  C   UNL A   1      33.873  24.209  25.934  1.00  0.00     0.010 C 
ATOM     14  C   UNL A   1      34.360  25.240  24.082  1.00  0.00     0.086 C 
ATOM     15  C   UNL A   1      34.414  25.593  25.567  1.00  0.00     0.015 C 
BRANCH  14  16
ATOM     16  C   UNL A   1      33.405  25.974  23.119  1.00  0.00     0.224 C 
ATOM     17  O   UNL A   1      33.768  26.268  21.966  1.00  0.00    -0.275 OA
ATOM     18  N   UNL A   1      32.129  26.374  23.417  1.00  0.00    -0.349 N 
ATOM     19  H   UNL A   1      31.684  26.852  22.680  1.00  0.00     0.163 HD
BRANCH  18  20
ATOM     20  C   UNL A   1      31.309  26.238  24.593  1.00  0.00     0.191 C 
BRANCH  20  21
ATOM     21  C   UNL A   1      31.501  27.411  25.483  1.00  0.00     0.122 A 
ATOM     22  C   UNL A   1      31.578  27.586  26.851  1.00  0.00     0.047 A 
ATOM     23  O   UNL A   1      31.648  28.619  24.861  1.00  0.00    -0.467 OA
ATOM     24  C   UNL A   1      31.779  28.970  27.074  1.00  0.00     0.042 A 
ATOM     25  C   UNL A   1      31.826  29.552  25.830  1.00  0.00     0.195 A 
ENDBRANCH  20  21
ENDBRANCH  18  20
ENDBRANCH  14  16
ENDBRANCH   4   7
ENDBRANCH   2   3
ENDBRANCH   1   2
BRANCH   1  26
ATOM     26  C   UNL A   1      39.765  23.242  27.064  1.00  0.00     0.118 C 
BRANCH  26  27
ATOM     27  N   UNL A   1      40.912  23.582  26.238  1.00  0.00    -0.352 N 
ATOM     28  C   UNL A   1      41.670  24.729  26.239  1.00  0.00     0.251 C 
ATOM     29  H   UNL A   1      41.184  22.896  25.586  1.00  0.00     0.163 HD
ATOM     30  O   UNL A   1      42.504  24.902  25.353  1.00  0.00    -0.269 OA
BRANCH  28  31
ATOM     31  C   UNL A   1      41.469  25.765  27.279  1.00  0.00     0.039 A 
ATOM     32  C   UNL A   1      40.336  25.684  28.095  1.00  0.00     0.014 A 
ATOM     33  C   UNL A   1      42.367  26.825  27.437  1.00  0.00     0.014 A 
ATOM     34  C   UNL A   1      40.135  26.628  29.106  1.00  0.00     0.010 A 
ATOM     35  C   UNL A   1      42.190  27.740  28.478  1.00  0.00     0.010 A 
ATOM     36  C   UNL A   1      41.075  27.647  29.326  1.00  0.00    -0.014 A 
BRANCH  36  37
ATOM     37  C   UNL A   1      40.918  28.605  30.452  1.00  0.00     0.031 A 
ATOM     38  C   UNL A   1      41.774  28.488  31.683  1.00  0.00     0.074 A 
ATOM     39  C   UNL A   1      39.957  29.548  30.388  1.00  0.00     0.049 A 
ATOM     40  N   UNL A   1      41.733  29.191  32.786  1.00  0.00    -0.248 NA
ATOM     41  C   UNL A   1      42.798  27.431  31.680  1.00  0.00     0.031 C 
ATOM     42  C   UNL A   1      39.033  29.740  29.268  1.00  0.00     0.029 A 
ATOM     43  N   UNL A   1      39.587  30.514  31.291  1.00  0.00    -0.354 N 
ATOM     44  C   UNL A   1      42.710  28.655  33.615  1.00  0.00     0.074 A 
ATOM     45  C   UNL A   1      43.307  27.546  32.900  1.00  0.00     0.031 C 
ATOM     46  C   UNL A   1      38.213  30.767  29.545  1.00  0.00     0.029 A 
ATOM     47  C   UNL A   1      38.529  31.286  30.872  1.00  0.00     0.049 A 
ATOM     48  H   UNL A   1      40.037  30.642  32.157  1.00  0.00     0.167 HD
ATOM     49  C   UNL A   1      43.087  29.059  34.853  1.00  0.00     0.037 A 
ATOM     50  C   UNL A   1      37.879  32.292  31.488  1.00  0.00     0.037 A 
ATOM     51  C   UNL A   1      42.510  30.178  35.553  1.00  0.00     0.049 A 
ATOM     52  C   UNL A   1      38.321  32.727  32.858  1.00  0.00     0.074 A 
ATOM     53  C   UNL A   1      42.868  30.699  36.784  1.00  0.00     0.029 A 
ATOM     54  N   UNL A   1      41.456  30.949  35.084  1.00  0.00    -0.354 N 
ATOM     55  N   UNL A   1      39.286  32.244  33.603  1.00  0.00    -0.248 NA
ATOM     56  C   UNL A   1      37.591  33.847  33.469  1.00  0.00     0.031 C 
ATOM     57  C   UNL A   1      42.009  31.766  37.075  1.00  0.00     0.029 A 
ATOM     58  C   UNL A   1      41.141  31.932  36.009  1.00  0.00     0.049 A 
ATOM     59  H   UNL A   1      41.000  30.817  34.222  1.00  0.00     0.167 HD
ATOM     60  C   UNL A   1      39.293  33.014  34.762  1.00  0.00     0.074 A 
ATOM     61  C   UNL A   1      38.243  34.001  34.613  1.00  0.00     0.031 C 
ATOM     62  C   UNL A   1      40.098  32.912  35.847  1.00  0.00     0.037 A 
BRANCH  49  63
ATOM     63  C   UNL A   1      44.183  28.287  35.533  1.00  0.00     0.058 A 
ATOM     64  C   UNL A   1      43.902  27.192  36.364  1.00  0.00     0.135 A 
ATOM     65  C   UNL A   1      45.531  28.618  35.316  1.00  0.00     0.135 A 
ATOM     66  F   UNL A   1      42.631  26.842  36.614  1.00  0.00    -0.206 F 
ATOM     67  C   UNL A   1      44.918  26.465  36.977  1.00  0.00     0.059 A 
ATOM     68  C   UNL A   1      46.564  27.891  35.901  1.00  0.00     0.059 A 
ATOM     69  F   UNL A   1      45.854  29.655  34.529  1.00  0.00    -0.206 F 
ATOM     70  C   UNL A   1      46.247  26.824  36.741  1.00  0.00     0.060 A 
BRANCH  70  71
ATOM     71  S   UNL A   1      47.554  25.869  37.538  1.00  0.00     0.124 S 
ATOM     72  O   UNL A   1      47.033  25.736  38.894  1.00  0.00    -0.237 OA
ATOM     73  O   UNL A   1      47.577  24.643  36.746  1.00  0.00    -0.237 OA
ATOM     74  O   UNL A   1      48.732  26.722  37.397  1.00  0.00    -0.744 OA
ENDBRANCH  70  71
ENDBRANCH  49  63
BRANCH  50  75
ATOM     75  C   UNL A   1      36.751  32.973  30.804  1.00  0.00     0.058 A 
ATOM     76  C   UNL A   1      35.425  32.733  31.193  1.00  0.00     0.135 A 
ATOM     77  C   UNL A   1      36.974  33.884  29.761  1.00  0.00     0.135 A 
ATOM     78  F   UNL A   1      35.163  31.865  32.181  1.00  0.00    -0.206 F 
ATOM     79  C   UNL A   1      34.357  33.364  30.564  1.00  0.00     0.059 A 
ATOM     80  C   UNL A   1      35.924  34.543  29.130  1.00  0.00     0.059 A 
ATOM     81  F   UNL A   1      38.226  34.158  29.363  1.00  0.00    -0.206 F 
ATOM     82  C   UNL A   1      34.617  34.269  29.533  1.00  0.00     0.060 A 
BRANCH  82  83
ATOM     83  S   UNL A   1      33.228  35.126  28.759  1.00  0.00     0.124 S 
ATOM     84  O   UNL A   1      32.477  35.579  29.923  1.00  0.00    -0.237 OA
ATOM     85  O   UNL A   1      33.898  36.167  27.986  1.00  0.00    -0.237 OA
ATOM     86  O   UNL A   1      32.593  34.079  27.963  1.00  0.00    -0.744 OA
ENDBRANCH  82  83
ENDBRANCH  50  75
BRANCH  62  87
ATOM     87  C   UNL A   1      39.896  33.911  36.950  1.00  0.00     0.058 A 
ATOM     88  C   UNL A   1      40.430  35.206  36.876  1.00  0.00     0.135 A 
ATOM     89  C   UNL A   1      39.121  33.583  38.075  1.00  0.00     0.135 A 
ATOM     90  F   UNL A   1      41.184  35.566  35.826  1.00  0.00    -0.206 F 
ATOM     91  C   UNL A   1      40.219  36.138  37.888  1.00  0.00     0.059 A 
ATOM     92  C   UNL A   1      38.879  34.505  39.088  1.00  0.00     0.059 A 
ATOM     93  F   UNL A   1      38.582  32.360  38.191  1.00  0.00    -0.206 F 
ATOM     94  C   UNL A   1      39.443  35.777  38.990  1.00  0.00     0.060 A 
BRANCH  94  95
ATOM     95  S   UNL A   1      39.146  37.004  40.283  1.00  0.00     0.124 S 
ATOM     96  O   UNL A   1      38.221  36.291  41.157  1.00  0.00    -0.237 OA
ATOM     97  O   UNL A   1      40.485  37.225  40.822  1.00  0.00    -0.237 OA
ATOM     98  O   UNL A   1      38.578  38.133  39.554  1.00  0.00    -0.744 OA
ENDBRANCH  94  95
ENDBRANCH  62  87
ENDBRANCH  36  37
ENDBRANCH  28  31
ENDBRANCH  26  27
ENDBRANCH   1  26
TORSDOF 16
ENDMDL
