MODEL 1
REMARK VINA RESULT:     -11.7      0.000      0.000
REMARK SMILES C[NH+]1CCC([N@@H+](CC(=O)NCCCNC(=O)c2ccc(-c3c4nc(c(-c5c(F)cc(S(=O)(=O)[O-])cc5F)c5ccc([nH]5)c(-c5c(F)cc(S(=O)(=O)[O-])cc5F)c5nc(c(-c6c(F)cc(S(=O)(=O)[O-])cc6F)c6ccc3[nH]6)C=C5)C=C4)cc2)C(C)(C)C)CC1
REMARK SMILES IDX 12 1 11 2 10 3 8 4 9 5 7 7 6 8 5 10 1 11 2 12 3 13 88 14
REMARK SMILES IDX 4 16 87 17 83 18 84 19 85 20 86 21 13 22 14 23 15 24 16 26
REMARK SMILES IDX 17 27 18 28 82 29 19 30 81 31 20 32 21 33 22 34 75 35 23 36
REMARK SMILES IDX 80 37 74 38 76 39 24 40 79 41 73 42 72 43 25 45 59 46 38 47
REMARK SMILES IDX 58 48 39 49 42 50 57 51 77 52 40 53 41 54 56 56 78 57 43 58
REMARK SMILES IDX 26 59 27 60 36 61 28 62 29 63 35 64 37 65 30 66 31 67 32 68
REMARK SMILES IDX 33 69 34 70 60 71 61 72 70 73 62 74 63 75 69 76 71 77 64 78
REMARK SMILES IDX 65 79 66 80 67 81 68 82 44 83 45 84 54 85 46 86 47 87 53 88
REMARK SMILES IDX 55 89 48 90 49 91 50 92 51 93 52 94
REMARK H PARENT 10 6 6 9 2 15 14 25 76 44 42 55
REMARK Flexibility Score: inf
ROOT
ATOM      1  C   UNL A   1      33.993  30.969  27.450  1.00  0.00     0.042 C 
ENDROOT
BRANCH   1   2
ATOM      2  C   UNL A   1      34.020  29.470  27.136  1.00  0.00     0.118 C 
BRANCH   2   3
ATOM      3  N   UNL A   1      34.062  29.116  25.731  1.00  0.00    -0.351 N 
ATOM      4  C   UNL A   1      33.073  29.131  24.788  1.00  0.00     0.275 C 
ATOM      5  O   UNL A   1      33.430  29.264  23.614  1.00  0.00    -0.269 OA
ATOM      6  H   UNL A   1      34.941  28.818  25.404  1.00  0.00     0.163 HD
BRANCH   4   7
ATOM      7  C   UNL A   1      31.594  29.003  25.167  1.00  0.00     0.364 C 
BRANCH   7   8
ATOM      8  N   UNL A   1      30.745  28.399  24.110  1.00  0.00    -0.320 N 
ATOM      9  H   UNL A   1      31.355  28.105  23.347  1.00  0.00     0.349 HD
BRANCH   8  10
ATOM     10  C   UNL A   1      29.914  29.397  23.409  1.00  0.00     0.196 C 
ATOM     11  C   UNL A   1      28.051  32.707  21.454  1.00  0.00     0.332 C 
ATOM     12  N   UNL A   1      29.086  31.856  22.047  1.00  0.00    -0.337 N 
ATOM     13  C   UNL A   1      29.160  30.594  21.310  1.00  0.00     0.268 C 
ATOM     14  C   UNL A   1      28.828  31.663  23.478  1.00  0.00     0.268 C 
ATOM     15  H   UNL A   1      29.997  32.309  21.973  1.00  0.00     0.347 HD
ATOM     16  C   UNL A   1      30.158  29.603  21.911  1.00  0.00     0.126 C 
ATOM     17  C   UNL A   1      29.880  30.757  24.124  1.00  0.00     0.126 C 
ENDBRANCH   8  10
BRANCH   8  18
ATOM     18  C   UNL A   1      30.365  26.965  24.218  1.00  0.00     0.090 C 
ATOM     19  C   UNL A   1      28.888  26.646  23.891  1.00  0.00     0.078 C 
ATOM     20  C   UNL A   1      31.237  26.082  23.293  1.00  0.00     0.078 C 
ATOM     21  C   UNL A   1      30.640  26.430  25.649  1.00  0.00     0.078 C 
ENDBRANCH   8  18
ENDBRANCH   7   8
ENDBRANCH   4   7
ENDBRANCH   2   3
ENDBRANCH   1   2
BRANCH   1  22
ATOM     22  C   UNL A   1      35.219  31.526  28.187  1.00  0.00     0.118 C 
BRANCH  22  23
ATOM     23  N   UNL A   1      35.339  30.924  29.504  1.00  0.00    -0.352 N 
ATOM     24  C   UNL A   1      36.307  30.213  30.159  1.00  0.00     0.251 C 
ATOM     25  H   UNL A   1      34.535  31.060  30.055  1.00  0.00     0.163 HD
ATOM     26  O   UNL A   1      35.932  29.597  31.161  1.00  0.00    -0.269 OA
BRANCH  24  27
ATOM     27  C   UNL A   1      37.749  30.143  29.788  1.00  0.00     0.039 A 
ATOM     28  C   UNL A   1      38.033  29.884  28.436  1.00  0.00     0.014 A 
ATOM     29  C   UNL A   1      38.808  30.114  30.699  1.00  0.00     0.014 A 
ATOM     30  C   UNL A   1      39.328  29.564  28.009  1.00  0.00     0.010 A 
ATOM     31  C   UNL A   1      40.124  29.839  30.258  1.00  0.00     0.010 A 
ATOM     32  C   UNL A   1      40.397  29.525  28.914  1.00  0.00    -0.014 A 
BRANCH  32  33
ATOM     33  C   UNL A   1      41.757  29.104  28.440  1.00  0.00     0.031 A 
ATOM     34  C   UNL A   1      42.912  30.081  28.409  1.00  0.00     0.074 A 
ATOM     35  C   UNL A   1      41.994  27.824  28.085  1.00  0.00     0.049 A 
ATOM     36  N   UNL A   1      44.168  29.869  28.096  1.00  0.00    -0.248 NA
ATOM     37  C   UNL A   1      42.618  31.473  28.777  1.00  0.00     0.031 C 
ATOM     38  C   UNL A   1      40.999  26.754  28.080  1.00  0.00     0.029 A 
ATOM     39  N   UNL A   1      43.150  27.200  27.673  1.00  0.00    -0.354 N 
ATOM     40  C   UNL A   1      44.813  31.096  28.220  1.00  0.00     0.074 A 
ATOM     41  C   UNL A   1      43.796  32.056  28.601  1.00  0.00     0.031 C 
ATOM     42  C   UNL A   1      41.584  25.606  27.701  1.00  0.00     0.029 A 
ATOM     43  C   UNL A   1      42.995  25.856  27.417  1.00  0.00     0.049 A 
ATOM     44  H   UNL A   1      44.007  27.672  27.571  1.00  0.00     0.167 HD
ATOM     45  C   UNL A   1      46.126  31.401  28.053  1.00  0.00     0.037 A 
ATOM     46  C   UNL A   1      43.878  24.924  27.006  1.00  0.00     0.037 A 
ATOM     47  C   UNL A   1      47.154  30.455  27.694  1.00  0.00     0.049 A 
ATOM     48  C   UNL A   1      45.320  25.294  26.781  1.00  0.00     0.074 A 
ATOM     49  C   UNL A   1      48.515  30.677  27.559  1.00  0.00     0.029 A 
ATOM     50  N   UNL A   1      46.942  29.118  27.401  1.00  0.00    -0.354 N 
ATOM     51  N   UNL A   1      45.914  26.449  26.960  1.00  0.00    -0.248 NA
ATOM     52  C   UNL A   1      46.214  24.226  26.307  1.00  0.00     0.031 C 
ATOM     53  C   UNL A   1      49.119  29.486  27.138  1.00  0.00     0.029 A 
ATOM     54  C   UNL A   1      48.141  28.509  27.058  1.00  0.00     0.049 A 
ATOM     55  H   UNL A   1      46.069  28.665  27.433  1.00  0.00     0.167 HD
ATOM     56  C   UNL A   1      47.256  26.237  26.655  1.00  0.00     0.074 A 
ATOM     57  C   UNL A   1      47.387  24.845  26.283  1.00  0.00     0.031 C 
ATOM     58  C   UNL A   1      48.283  27.121  26.691  1.00  0.00     0.037 A 
BRANCH  45  59
ATOM     59  C   UNL A   1      46.533  32.839  28.245  1.00  0.00     0.058 A 
ATOM     60  C   UNL A   1      46.460  33.775  27.201  1.00  0.00     0.135 A 
ATOM     61  C   UNL A   1      46.974  33.293  29.499  1.00  0.00     0.135 A 
ATOM     62  F   UNL A   1      46.050  33.396  25.980  1.00  0.00    -0.206 F 
ATOM     63  C   UNL A   1      46.852  35.098  27.381  1.00  0.00     0.059 A 
ATOM     64  C   UNL A   1      47.344  34.618  29.710  1.00  0.00     0.059 A 
ATOM     65  F   UNL A   1      47.050  32.444  30.536  1.00  0.00    -0.206 F 
ATOM     66  C   UNL A   1      47.302  35.508  28.638  1.00  0.00     0.060 A 
BRANCH  66  67
ATOM     67  S   UNL A   1      47.839  37.219  28.850  1.00  0.00     0.124 S 
ATOM     68  O   UNL A   1      48.622  37.428  27.636  1.00  0.00    -0.237 OA
ATOM     69  O   UNL A   1      46.573  37.941  28.919  1.00  0.00    -0.237 OA
ATOM     70  O   UNL A   1      48.605  37.184  30.091  1.00  0.00    -0.744 OA
ENDBRANCH  66  67
ENDBRANCH  45  59
BRANCH  46  71
ATOM     71  C   UNL A   1      43.429  23.520  26.807  1.00  0.00     0.058 A 
ATOM     72  C   UNL A   1      43.245  22.998  25.518  1.00  0.00     0.135 A 
ATOM     73  C   UNL A   1      43.177  22.674  27.898  1.00  0.00     0.135 A 
ATOM     74  F   UNL A   1      43.461  23.773  24.445  1.00  0.00    -0.206 F 
ATOM     75  C   UNL A   1      42.821  21.689  25.316  1.00  0.00     0.059 A 
ATOM     76  C   UNL A   1      42.774  21.354  27.721  1.00  0.00     0.059 A 
ATOM     77  F   UNL A   1      43.346  23.124  29.151  1.00  0.00    -0.206 F 
ATOM     78  C   UNL A   1      42.591  20.873  26.425  1.00  0.00     0.060 A 
BRANCH  78  79
ATOM     79  S   UNL A   1      42.097  19.158  26.150  1.00  0.00     0.124 S 
ATOM     80  O   UNL A   1      40.679  19.306  25.846  1.00  0.00    -0.237 OA
ATOM     81  O   UNL A   1      42.952  18.767  25.034  1.00  0.00    -0.237 OA
ATOM     82  O   UNL A   1      42.407  18.511  27.422  1.00  0.00    -0.744 OA
ENDBRANCH  78  79
ENDBRANCH  46  71
BRANCH  58  83
ATOM     83  C   UNL A   1      49.659  26.607  26.357  1.00  0.00     0.058 A 
ATOM     84  C   UNL A   1      50.467  25.970  27.312  1.00  0.00     0.135 A 
ATOM     85  C   UNL A   1      50.165  26.725  25.051  1.00  0.00     0.135 A 
ATOM     86  F   UNL A   1      50.037  25.835  28.576  1.00  0.00    -0.206 F 
ATOM     87  C   UNL A   1      51.735  25.491  26.993  1.00  0.00     0.059 A 
ATOM     88  C   UNL A   1      51.420  26.232  24.704  1.00  0.00     0.059 A 
ATOM     89  F   UNL A   1      49.434  27.318  24.094  1.00  0.00    -0.206 F 
ATOM     90  C   UNL A   1      52.204  25.628  25.685  1.00  0.00     0.060 A 
BRANCH  90  91
ATOM     91  S   UNL A   1      53.842  24.983  25.276  1.00  0.00     0.124 S 
ATOM     92  O   UNL A   1      53.576  23.552  25.169  1.00  0.00    -0.237 OA
ATOM     93  O   UNL A   1      54.144  25.667  24.022  1.00  0.00    -0.237 OA
ATOM     94  O   UNL A   1      54.660  25.387  26.415  1.00  0.00    -0.744 OA
ENDBRANCH  90  91
ENDBRANCH  58  83
ENDBRANCH  32  33
ENDBRANCH  24  27
ENDBRANCH  22  23
ENDBRANCH   1  22
TORSDOF 16
ENDMDL
MODEL 2
REMARK VINA RESULT:     -11.4      6.968     12.427
REMARK SMILES C[NH+]1CCC([N@@H+](CC(=O)NCCCNC(=O)c2ccc(-c3c4nc(c(-c5c(F)cc(S(=O)(=O)[O-])cc5F)c5ccc([nH]5)c(-c5c(F)cc(S(=O)(=O)[O-])cc5F)c5nc(c(-c6c(F)cc(S(=O)(=O)[O-])cc6F)c6ccc3[nH]6)C=C5)C=C4)cc2)C(C)(C)C)CC1
REMARK SMILES IDX 12 1 11 2 10 3 8 4 9 5 7 7 6 8 5 10 1 11 2 12 3 13 88 14
REMARK SMILES IDX 4 16 87 17 83 18 84 19 85 20 86 21 13 22 14 23 15 24 16 26
REMARK SMILES IDX 17 27 18 28 82 29 19 30 81 31 20 32 21 33 22 34 75 35 23 36
REMARK SMILES IDX 80 37 74 38 76 39 24 40 79 41 73 42 72 43 25 45 59 46 38 47
REMARK SMILES IDX 58 48 39 49 42 50 57 51 77 52 40 53 41 54 56 56 78 57 43 58
REMARK SMILES IDX 26 59 27 60 36 61 28 62 29 63 35 64 37 65 30 66 31 67 32 68
REMARK SMILES IDX 33 69 34 70 60 71 61 72 70 73 62 74 63 75 69 76 71 77 64 78
REMARK SMILES IDX 65 79 66 80 67 81 68 82 44 83 45 84 54 85 46 86 47 87 53 88
REMARK SMILES IDX 55 89 48 90 49 91 50 92 51 93 52 94
REMARK H PARENT 10 6 6 9 2 15 14 25 76 44 42 55
REMARK Flexibility Score: inf
ROOT
ATOM      1  C   UNL A   1      39.270  21.956  26.167  1.00  0.00     0.042 C 
ENDROOT
BRANCH   1   2
ATOM      2  C   UNL A   1      38.104  22.873  25.784  1.00  0.00     0.118 C 
BRANCH   2   3
ATOM      3  N   UNL A   1      37.519  22.645  24.477  1.00  0.00    -0.351 N 
ATOM      4  C   UNL A   1      36.276  22.957  24.001  1.00  0.00     0.275 C 
ATOM      5  O   UNL A   1      36.175  23.114  22.781  1.00  0.00    -0.269 OA
ATOM      6  H   UNL A   1      38.109  22.195  23.830  1.00  0.00     0.163 HD
BRANCH   4   7
ATOM      7  C   UNL A   1      35.071  23.116  24.933  1.00  0.00     0.364 C 
BRANCH   7   8
ATOM      8  N   UNL A   1      33.800  23.436  24.235  1.00  0.00    -0.320 N 
ATOM      9  H   UNL A   1      33.958  23.337  23.233  1.00  0.00     0.349 HD
BRANCH   8  10
ATOM     10  C   UNL A   1      33.460  24.871  24.304  1.00  0.00     0.196 C 
ATOM     11  C   UNL A   1      33.152  29.121  24.600  1.00  0.00     0.332 C 
ATOM     12  N   UNL A   1      33.733  27.785  24.446  1.00  0.00    -0.337 N 
ATOM     13  C   UNL A   1      33.191  27.153  23.243  1.00  0.00     0.268 C 
ATOM     14  C   UNL A   1      33.506  26.989  25.657  1.00  0.00     0.268 C 
ATOM     15  H   UNL A   1      34.744  27.854  24.327  1.00  0.00     0.347 HD
ATOM     16  C   UNL A   1      33.677  25.716  23.046  1.00  0.00     0.126 C 
ATOM     17  C   UNL A   1      34.081  25.576  25.520  1.00  0.00     0.126 C 
ENDBRANCH   8  10
BRANCH   8  18
ATOM     18  C   UNL A   1      32.776  22.371  24.072  1.00  0.00     0.090 C 
ATOM     19  C   UNL A   1      33.148  20.997  24.675  1.00  0.00     0.078 C 
ATOM     20  C   UNL A   1      31.425  22.791  24.698  1.00  0.00     0.078 C 
ATOM     21  C   UNL A   1      32.460  22.137  22.570  1.00  0.00     0.078 C 
ENDBRANCH   8  18
ENDBRANCH   7   8
ENDBRANCH   4   7
ENDBRANCH   2   3
ENDBRANCH   1   2
BRANCH   1  22
ATOM     22  C   UNL A   1      40.292  22.542  27.150  1.00  0.00     0.118 C 
BRANCH  22  23
ATOM     23  N   UNL A   1      41.231  23.406  26.457  1.00  0.00    -0.352 N 
ATOM     24  C   UNL A   1      41.452  24.755  26.408  1.00  0.00     0.251 C 
ATOM     25  H   UNL A   1      41.856  22.902  25.886  1.00  0.00     0.163 HD
ATOM     26  O   UNL A   1      42.141  25.151  25.463  1.00  0.00    -0.269 OA
BRANCH  24  27
ATOM     27  C   UNL A   1      40.963  25.762  27.393  1.00  0.00     0.039 A 
ATOM     28  C   UNL A   1      41.760  26.907  27.560  1.00  0.00     0.014 A 
ATOM     29  C   UNL A   1      39.906  25.561  28.284  1.00  0.00     0.014 A 
ATOM     30  C   UNL A   1      41.538  27.805  28.612  1.00  0.00     0.010 A 
ATOM     31  C   UNL A   1      39.652  26.495  29.316  1.00  0.00     0.010 A 
ATOM     32  C   UNL A   1      40.485  27.611  29.517  1.00  0.00    -0.014 A 
BRANCH  32  33
ATOM     33  C   UNL A   1      40.320  28.547  30.677  1.00  0.00     0.031 A 
ATOM     34  C   UNL A   1      41.213  28.450  31.894  1.00  0.00     0.074 A 
ATOM     35  C   UNL A   1      39.405  29.539  30.633  1.00  0.00     0.049 A 
ATOM     36  N   UNL A   1      41.255  29.221  32.955  1.00  0.00    -0.248 NA
ATOM     37  C   UNL A   1      42.183  27.347  31.923  1.00  0.00     0.031 C 
ATOM     38  C   UNL A   1      38.483  29.786  29.527  1.00  0.00     0.029 A 
ATOM     39  N   UNL A   1      39.108  30.533  31.537  1.00  0.00    -0.354 N 
ATOM     40  C   UNL A   1      42.245  28.695  33.779  1.00  0.00     0.074 A 
ATOM     41  C   UNL A   1      42.752  27.514  33.110  1.00  0.00     0.031 C 
ATOM     42  C   UNL A   1      37.735  30.865  29.806  1.00  0.00     0.029 A 
ATOM     43  C   UNL A   1      38.108  31.383  31.120  1.00  0.00     0.049 A 
ATOM     44  H   UNL A   1      39.568  30.628  32.402  1.00  0.00     0.167 HD
ATOM     45  C   UNL A   1      42.707  29.154  34.972  1.00  0.00     0.037 A 
ATOM     46  C   UNL A   1      37.551  32.458  31.714  1.00  0.00     0.037 A 
ATOM     47  C   UNL A   1      42.229  30.338  35.642  1.00  0.00     0.049 A 
ATOM     48  C   UNL A   1      38.047  32.920  33.058  1.00  0.00     0.074 A 
ATOM     49  C   UNL A   1      42.684  30.897  36.827  1.00  0.00     0.029 A 
ATOM     50  N   UNL A   1      41.186  31.138  35.205  1.00  0.00    -0.354 N 
ATOM     51  N   UNL A   1      39.022  32.439  33.790  1.00  0.00    -0.248 NA
ATOM     52  C   UNL A   1      37.370  34.084  33.652  1.00  0.00     0.031 C 
ATOM     53  C   UNL A   1      41.885  32.006  37.128  1.00  0.00     0.029 A 
ATOM     54  C   UNL A   1      40.963  32.168  36.108  1.00  0.00     0.049 A 
ATOM     55  H   UNL A   1      40.677  30.997  34.374  1.00  0.00     0.167 HD
ATOM     56  C   UNL A   1      39.097  33.261  34.911  1.00  0.00     0.074 A 
ATOM     57  C   UNL A   1      38.073  34.271  34.761  1.00  0.00     0.031 C 
ATOM     58  C   UNL A   1      39.948  33.183  35.964  1.00  0.00     0.037 A 
BRANCH  45  59
ATOM     59  C   UNL A   1      43.790  28.355  35.648  1.00  0.00     0.058 A 
ATOM     60  C   UNL A   1      45.151  28.569  35.373  1.00  0.00     0.135 A 
ATOM     61  C   UNL A   1      43.464  27.382  36.607  1.00  0.00     0.135 A 
ATOM     62  F   UNL A   1      45.520  29.483  34.462  1.00  0.00    -0.206 F 
ATOM     63  C   UNL A   1      46.145  27.817  35.991  1.00  0.00     0.059 A 
ATOM     64  C   UNL A   1      44.443  26.638  37.259  1.00  0.00     0.059 A 
ATOM     65  F   UNL A   1      42.180  27.145  36.920  1.00  0.00    -0.206 F 
ATOM     66  C   UNL A   1      45.781  26.846  36.926  1.00  0.00     0.060 A 
BRANCH  66  67
ATOM     67  S   UNL A   1      47.079  25.855  37.696  1.00  0.00     0.124 S 
ATOM     68  O   UNL A   1      46.528  25.648  39.033  1.00  0.00    -0.237 OA
ATOM     69  O   UNL A   1      47.124  24.674  36.840  1.00  0.00    -0.237 OA
ATOM     70  O   UNL A   1      48.252  26.719  37.629  1.00  0.00    -0.744 OA
ENDBRANCH  66  67
ENDBRANCH  45  59
BRANCH  46  71
ATOM     71  C   UNL A   1      36.468  33.205  31.021  1.00  0.00     0.058 A 
ATOM     72  C   UNL A   1      36.750  34.024  29.918  1.00  0.00     0.135 A 
ATOM     73  C   UNL A   1      35.134  33.114  31.446  1.00  0.00     0.135 A 
ATOM     74  F   UNL A   1      38.012  34.152  29.484  1.00  0.00    -0.206 F 
ATOM     75  C   UNL A   1      35.749  34.733  29.263  1.00  0.00     0.059 A 
ATOM     76  C   UNL A   1      34.111  33.795  30.793  1.00  0.00     0.059 A 
ATOM     77  F   UNL A   1      34.812  32.338  32.492  1.00  0.00    -0.206 F 
ATOM     78  C   UNL A   1      34.431  34.609  29.706  1.00  0.00     0.060 A 
BRANCH  78  79
ATOM     79  S   UNL A   1      33.130  35.488  28.812  1.00  0.00     0.124 S 
ATOM     80  O   UNL A   1      32.350  36.051  29.908  1.00  0.00    -0.237 OA
ATOM     81  O   UNL A   1      33.896  36.442  28.016  1.00  0.00    -0.237 OA
ATOM     82  O   UNL A   1      32.476  34.431  28.047  1.00  0.00    -0.744 OA
ENDBRANCH  78  79
ENDBRANCH  46  71
BRANCH  58  83
ATOM     83  C   UNL A   1      39.843  34.244  37.028  1.00  0.00     0.058 A 
ATOM     84  C   UNL A   1      40.429  35.511  36.875  1.00  0.00     0.135 A 
ATOM     85  C   UNL A   1      39.115  34.001  38.205  1.00  0.00     0.135 A 
ATOM     86  F   UNL A   1      41.141  35.796  35.774  1.00  0.00    -0.206 F 
ATOM     87  C   UNL A   1      40.321  36.489  37.860  1.00  0.00     0.059 A 
ATOM     88  C   UNL A   1      38.973  34.973  39.193  1.00  0.00     0.059 A 
ATOM     89  F   UNL A   1      38.526  32.811  38.403  1.00  0.00    -0.206 F 
ATOM     90  C   UNL A   1      39.591  36.210  39.017  1.00  0.00     0.060 A 
BRANCH  90  91
ATOM     91  S   UNL A   1      39.436  37.494  40.280  1.00  0.00     0.124 S 
ATOM     92  O   UNL A   1      40.830  37.868  40.491  1.00  0.00    -0.237 OA
ATOM     93  O   UNL A   1      38.606  38.492  39.612  1.00  0.00    -0.237 OA
ATOM     94  O   UNL A   1      38.796  36.800  41.393  1.00  0.00    -0.744 OA
ENDBRANCH  90  91
ENDBRANCH  58  83
ENDBRANCH  32  33
ENDBRANCH  24  27
ENDBRANCH  22  23
ENDBRANCH   1  22
TORSDOF 16
ENDMDL
MODEL 3
REMARK VINA RESULT:     -11.4      3.166      5.286
REMARK SMILES C[NH+]1CCC([N@@H+](CC(=O)NCCCNC(=O)c2ccc(-c3c4nc(c(-c5c(F)cc(S(=O)(=O)[O-])cc5F)c5ccc([nH]5)c(-c5c(F)cc(S(=O)(=O)[O-])cc5F)c5nc(c(-c6c(F)cc(S(=O)(=O)[O-])cc6F)c6ccc3[nH]6)C=C5)C=C4)cc2)C(C)(C)C)CC1
REMARK SMILES IDX 12 1 11 2 10 3 8 4 9 5 7 7 6 8 5 10 1 11 2 12 3 13 88 14
REMARK SMILES IDX 4 16 87 17 83 18 84 19 85 20 86 21 13 22 14 23 15 24 16 26
REMARK SMILES IDX 17 27 18 28 82 29 19 30 81 31 20 32 21 33 22 34 75 35 23 36
REMARK SMILES IDX 80 37 74 38 76 39 24 40 79 41 73 42 72 43 25 45 59 46 38 47
REMARK SMILES IDX 58 48 39 49 42 50 57 51 77 52 40 53 41 54 56 56 78 57 43 58
REMARK SMILES IDX 26 59 27 60 36 61 28 62 29 63 35 64 37 65 30 66 31 67 32 68
REMARK SMILES IDX 33 69 34 70 60 71 61 72 70 73 62 74 63 75 69 76 71 77 64 78
REMARK SMILES IDX 65 79 66 80 67 81 68 82 44 83 45 84 54 85 46 86 47 87 53 88
REMARK SMILES IDX 55 89 48 90 49 91 50 92 51 93 52 94
REMARK H PARENT 10 6 6 9 2 15 14 25 76 44 42 55
REMARK Flexibility Score: inf
ROOT
ATOM      1  C   UNL A   1      34.325  32.536  28.023  1.00  0.00     0.042 C 
ENDROOT
BRANCH   1   2
ATOM      2  C   UNL A   1      34.959  33.929  27.968  1.00  0.00     0.118 C 
BRANCH   2   3
ATOM      3  N   UNL A   1      34.039  35.048  28.011  1.00  0.00    -0.351 N 
ATOM      4  C   UNL A   1      33.464  35.676  29.080  1.00  0.00     0.275 C 
ATOM      5  O   UNL A   1      33.130  36.853  28.916  1.00  0.00    -0.269 OA
ATOM      6  H   UNL A   1      33.790  35.415  27.132  1.00  0.00     0.163 HD
BRANCH   4   7
ATOM      7  C   UNL A   1      33.253  34.962  30.419  1.00  0.00     0.364 C 
BRANCH   7   8
ATOM      8  N   UNL A   1      34.002  35.560  31.552  1.00  0.00    -0.320 N 
ATOM      9  H   UNL A   1      34.591  36.306  31.181  1.00  0.00     0.349 HD
BRANCH   8  10
ATOM     10  C   UNL A   1      35.036  34.656  32.091  1.00  0.00     0.196 C 
ATOM     11  C   UNL A   1      37.643  31.530  33.388  1.00  0.00     0.332 C 
ATOM     12  N   UNL A   1      36.575  32.230  32.669  1.00  0.00    -0.337 N 
ATOM     13  C   UNL A   1      37.155  33.292  31.848  1.00  0.00     0.268 C 
ATOM     14  C   UNL A   1      35.568  32.727  33.613  1.00  0.00     0.268 C 
ATOM     15  H   UNL A   1      36.093  31.586  32.042  1.00  0.00     0.347 HD
ATOM     16  C   UNL A   1      36.104  34.137  31.125  1.00  0.00     0.126 C 
ATOM     17  C   UNL A   1      34.448  33.486  32.897  1.00  0.00     0.126 C 
ENDBRANCH   8  10
BRANCH   8  18
ATOM     18  C   UNL A   1      33.355  36.623  32.367  1.00  0.00     0.090 C 
ATOM     19  C   UNL A   1      33.515  38.062  31.825  1.00  0.00     0.078 C 
ATOM     20  C   UNL A   1      31.838  36.362  32.526  1.00  0.00     0.078 C 
ATOM     21  C   UNL A   1      33.911  36.619  33.817  1.00  0.00     0.078 C 
ENDBRANCH   8  18
ENDBRANCH   7   8
ENDBRANCH   4   7
ENDBRANCH   2   3
ENDBRANCH   1   2
BRANCH   1  22
ATOM     22  C   UNL A   1      35.300  31.350  28.006  1.00  0.00     0.118 C 
BRANCH  22  23
ATOM     23  N   UNL A   1      35.424  30.772  29.332  1.00  0.00    -0.352 N 
ATOM     24  C   UNL A   1      36.397  30.079  30.000  1.00  0.00     0.251 C 
ATOM     25  H   UNL A   1      34.619  30.911  29.881  1.00  0.00     0.163 HD
ATOM     26  O   UNL A   1      36.026  29.477  31.012  1.00  0.00    -0.269 OA
BRANCH  24  27
ATOM     27  C   UNL A   1      37.840  30.013  29.631  1.00  0.00     0.039 A 
ATOM     28  C   UNL A   1      38.126  29.727  28.286  1.00  0.00     0.014 A 
ATOM     29  C   UNL A   1      38.899  30.014  30.543  1.00  0.00     0.014 A 
ATOM     30  C   UNL A   1      39.425  29.409  27.866  1.00  0.00     0.010 A 
ATOM     31  C   UNL A   1      40.217  29.742  30.108  1.00  0.00     0.010 A 
ATOM     32  C   UNL A   1      40.494  29.400  28.772  1.00  0.00    -0.014 A 
BRANCH  32  33
ATOM     33  C   UNL A   1      41.857  28.981  28.308  1.00  0.00     0.031 A 
ATOM     34  C   UNL A   1      43.006  29.964  28.267  1.00  0.00     0.074 A 
ATOM     35  C   UNL A   1      42.103  27.697  27.971  1.00  0.00     0.049 A 
ATOM     36  N   UNL A   1      44.265  29.756  27.961  1.00  0.00    -0.248 NA
ATOM     37  C   UNL A   1      42.703  31.359  28.615  1.00  0.00     0.031 C 
ATOM     38  C   UNL A   1      41.114  26.621  27.978  1.00  0.00     0.029 A 
ATOM     39  N   UNL A   1      43.264  27.075  27.571  1.00  0.00    -0.354 N 
ATOM     40  C   UNL A   1      44.902  30.988  28.071  1.00  0.00     0.074 A 
ATOM     41  C   UNL A   1      43.879  31.947  28.435  1.00  0.00     0.031 C 
ATOM     42  C   UNL A   1      41.707  25.472  27.616  1.00  0.00     0.029 A 
ATOM     43  C   UNL A   1      43.118  25.727  27.333  1.00  0.00     0.049 A 
ATOM     44  H   UNL A   1      44.119  27.550  27.465  1.00  0.00     0.167 HD
ATOM     45  C   UNL A   1      46.213  31.298  27.903  1.00  0.00     0.037 A 
ATOM     46  C   UNL A   1      44.008  24.794  26.938  1.00  0.00     0.037 A 
ATOM     47  C   UNL A   1      47.248  30.354  27.561  1.00  0.00     0.049 A 
ATOM     48  C   UNL A   1      45.448  25.170  26.712  1.00  0.00     0.074 A 
ATOM     49  C   UNL A   1      48.609  30.582  27.427  1.00  0.00     0.029 A 
ATOM     50  N   UNL A   1      47.045  29.011  27.285  1.00  0.00    -0.354 N 
ATOM     51  N   UNL A   1      46.034  26.330  26.878  1.00  0.00    -0.248 NA
ATOM     52  C   UNL A   1      46.350  24.101  26.255  1.00  0.00     0.031 C 
ATOM     53  C   UNL A   1      49.221  29.389  27.024  1.00  0.00     0.029 A 
ATOM     54  C   UNL A   1      48.249  28.405  26.954  1.00  0.00     0.049 A 
ATOM     55  H   UNL A   1      46.175  28.554  27.320  1.00  0.00     0.167 HD
ATOM     56  C   UNL A   1      47.378  26.122  26.580  1.00  0.00     0.074 A 
ATOM     57  C   UNL A   1      47.520  24.727  26.227  1.00  0.00     0.031 C 
ATOM     58  C   UNL A   1      48.400  27.013  26.606  1.00  0.00     0.037 A 
BRANCH  45  59
ATOM     59  C   UNL A   1      46.611  32.741  28.076  1.00  0.00     0.058 A 
ATOM     60  C   UNL A   1      47.132  33.227  29.286  1.00  0.00     0.135 A 
ATOM     61  C   UNL A   1      46.497  33.644  27.006  1.00  0.00     0.135 A 
ATOM     62  F   UNL A   1      47.259  32.410  30.344  1.00  0.00    -0.206 F 
ATOM     63  C   UNL A   1      47.484  34.564  29.443  1.00  0.00     0.059 A 
ATOM     64  C   UNL A   1      46.869  34.979  27.131  1.00  0.00     0.059 A 
ATOM     65  F   UNL A   1      46.018  33.231  25.822  1.00  0.00    -0.206 F 
ATOM     66  C   UNL A   1      47.340  35.435  28.362  1.00  0.00     0.060 A 
BRANCH  66  67
ATOM     67  S   UNL A   1      47.768  37.175  28.588  1.00  0.00     0.124 S 
ATOM     68  O   UNL A   1      47.965  37.238  30.033  1.00  0.00    -0.237 OA
ATOM     69  O   UNL A   1      48.974  37.311  27.778  1.00  0.00    -0.237 OA
ATOM     70  O   UNL A   1      46.596  37.882  28.084  1.00  0.00    -0.744 OA
ENDBRANCH  66  67
ENDBRANCH  45  59
BRANCH  46  71
ATOM     71  C   UNL A   1      43.568  23.385  26.757  1.00  0.00     0.058 A 
ATOM     72  C   UNL A   1      43.424  22.834  25.474  1.00  0.00     0.135 A 
ATOM     73  C   UNL A   1      43.285  22.563  27.858  1.00  0.00     0.135 A 
ATOM     74  F   UNL A   1      43.671  23.586  24.391  1.00  0.00    -0.206 F 
ATOM     75  C   UNL A   1      43.008  21.520  25.289  1.00  0.00     0.059 A 
ATOM     76  C   UNL A   1      42.890  21.238  27.698  1.00  0.00     0.059 A 
ATOM     77  F   UNL A   1      43.415  23.041  29.105  1.00  0.00    -0.206 F 
ATOM     78  C   UNL A   1      42.747  20.728  26.408  1.00  0.00     0.060 A 
BRANCH  78  79
ATOM     79  S   UNL A   1      42.264  19.006  26.157  1.00  0.00     0.124 S 
ATOM     80  O   UNL A   1      42.524  18.434  27.472  1.00  0.00    -0.237 OA
ATOM     81  O   UNL A   1      40.860  19.132  25.781  1.00  0.00    -0.237 OA
ATOM     82  O   UNL A   1      43.153  18.561  25.086  1.00  0.00    -0.744 OA
ENDBRANCH  78  79
ENDBRANCH  46  71
BRANCH  58  83
ATOM     83  C   UNL A   1      49.781  26.503  26.283  1.00  0.00     0.058 A 
ATOM     84  C   UNL A   1      50.324  26.596  24.992  1.00  0.00     0.135 A 
ATOM     85  C   UNL A   1      50.586  25.943  27.290  1.00  0.00     0.135 A 
ATOM     86  F   UNL A   1      49.598  27.117  23.991  1.00  0.00    -0.206 F 
ATOM     87  C   UNL A   1      51.604  26.129  24.703  1.00  0.00     0.059 A 
ATOM     88  C   UNL A   1      51.877  25.492  27.029  1.00  0.00     0.059 A 
ATOM     89  F   UNL A   1      50.122  25.836  28.545  1.00  0.00    -0.206 F 
ATOM     90  C   UNL A   1      52.373  25.577  25.730  1.00  0.00     0.060 A 
BRANCH  90  91
ATOM     91  S   UNL A   1      54.042  24.994  25.350  1.00  0.00     0.124 S 
ATOM     92  O   UNL A   1      54.727  25.217  26.618  1.00  0.00    -0.237 OA
ATOM     93  O   UNL A   1      53.812  23.598  24.990  1.00  0.00    -0.237 OA
ATOM     94  O   UNL A   1      54.460  25.857  24.249  1.00  0.00    -0.744 OA
ENDBRANCH  90  91
ENDBRANCH  58  83
ENDBRANCH  32  33
ENDBRANCH  24  27
ENDBRANCH  22  23
ENDBRANCH   1  22
TORSDOF 16
ENDMDL
