MODEL 1
REMARK VINA RESULT:     -11.4      0.000      0.000
REMARK SMILES CC[C@@H]1CCC[C@@](Cc2cccc(O)c2)(C(=O)NCCCNC(=O)c2ccc(-c3c4nc(c(-c5c(F)cc(S(=O)(=O)[O-])cc5F)c5ccc([nH]5)c(-c5c(F)cc(S(=O)(=O)[O-])cc5F)c5nc(c(-c6c(F)cc(S(=O)(=O)[O-])cc6F)c6ccc3[nH]6)C=C5)C=C4)cc2)C1
REMARK SMILES IDX 20 1 19 2 18 3 16 4 17 5 7 7 3 8 4 9 91 10 5 11 6 12 2 13
REMARK SMILES IDX 1 14 8 15 9 16 10 17 15 18 11 19 13 20 12 21 14 22 21 24
REMARK SMILES IDX 22 25 23 26 24 28 25 29 26 30 90 31 27 32 89 33 28 34 29 35
REMARK SMILES IDX 30 36 83 37 31 38 88 39 82 40 84 41 32 42 87 43 81 44 80 45
REMARK SMILES IDX 33 47 67 48 46 49 66 50 47 51 50 52 65 53 85 54 48 55 49 56
REMARK SMILES IDX 64 58 86 59 51 60 34 61 35 62 44 63 36 64 37 65 43 66 45 67
REMARK SMILES IDX 38 68 39 69 40 70 41 71 42 72 68 73 69 74 78 75 70 76 71 77
REMARK SMILES IDX 77 78 79 79 72 80 73 81 74 82 75 83 76 84 52 85 53 86 62 87
REMARK SMILES IDX 54 88 55 89 61 90 63 91 56 92 57 93 58 94 59 95 60 96
REMARK H PARENT 18 6 14 23 22 27 84 46 50 57
REMARK Flexibility Score: inf
ROOT
ATOM      1  C   UNL A   1      32.017  28.025  27.312  1.00  0.00     0.042 C 
ENDROOT
BRANCH   1   2
ATOM      2  C   UNL A   1      31.814  26.986  26.240  1.00  0.00     0.117 C 
BRANCH   2   3
ATOM      3  N   UNL A   1      31.343  25.700  26.692  1.00  0.00    -0.356 N 
ATOM      4  C   UNL A   1      31.945  24.487  26.553  1.00  0.00     0.226 C 
ATOM      5  O   UNL A   1      31.673  23.653  27.424  1.00  0.00    -0.274 OA
ATOM      6  H   UNL A   1      30.476  25.699  27.159  1.00  0.00     0.163 HD
BRANCH   4   7
ATOM      7  C   UNL A   1      32.917  24.151  25.385  1.00  0.00     0.053 C 
ATOM      8  C   UNL A   1      31.832  21.785  25.048  1.00  0.00    -0.010 C 
ATOM      9  C   UNL A   1      31.161  22.283  23.760  1.00  0.00     0.003 C 
ATOM     10  C   UNL A   1      33.108  22.590  25.383  1.00  0.00     0.020 C 
ATOM     11  C   UNL A   1      31.024  23.797  23.705  1.00  0.00     0.001 C 
ATOM     12  C   UNL A   1      32.364  24.483  23.978  1.00  0.00     0.017 C 
BRANCH   8  13
ATOM     13  C   UNL A   1      32.111  20.273  24.910  1.00  0.00     0.000 C 
ATOM     14  C   UNL A   1      33.533  19.929  24.494  1.00  0.00     0.004 C 
ENDBRANCH   8  13
BRANCH   7  15
ATOM     15  C   UNL A   1      34.346  24.739  25.676  1.00  0.00     0.052 C 
BRANCH  15  16
ATOM     16  C   UNL A   1      35.572  23.970  25.238  1.00  0.00    -0.043 A 
ATOM     17  C   UNL A   1      35.631  23.375  23.965  1.00  0.00     0.004 A 
ATOM     18  C   UNL A   1      36.642  23.769  26.122  1.00  0.00     0.049 A 
ATOM     19  C   UNL A   1      36.683  22.513  23.630  1.00  0.00     0.004 A 
ATOM     20  C   UNL A   1      37.680  22.903  25.781  1.00  0.00     0.115 A 
ATOM     21  C   UNL A   1      37.699  22.256  24.550  1.00  0.00     0.046 A 
BRANCH  20  22
ATOM     22  O   UNL A   1      38.648  22.679  26.715  1.00  0.00    -0.508 OA
ATOM     23  H   UNL A   1      39.458  22.282  26.464  1.00  0.00     0.293 HD
ENDBRANCH  20  22
ENDBRANCH  15  16
ENDBRANCH   7  15
ENDBRANCH   4   7
ENDBRANCH   2   3
ENDBRANCH   1   2
BRANCH   1  24
ATOM     24  C   UNL A   1      33.418  28.604  27.295  1.00  0.00     0.118 C 
BRANCH  24  25
ATOM     25  N   UNL A   1      33.453  30.030  27.636  1.00  0.00    -0.352 N 
ATOM     26  C   UNL A   1      34.430  30.790  28.229  1.00  0.00     0.251 C 
ATOM     27  H   UNL A   1      32.636  30.526  27.400  1.00  0.00     0.163 HD
ATOM     28  O   UNL A   1      34.163  31.919  28.634  1.00  0.00    -0.269 OA
BRANCH  26  29
ATOM     29  C   UNL A   1      35.788  30.238  28.392  1.00  0.00     0.039 A 
ATOM     30  C   UNL A   1      36.670  30.228  27.310  1.00  0.00     0.014 A 
ATOM     31  C   UNL A   1      36.196  29.750  29.633  1.00  0.00     0.014 A 
ATOM     32  C   UNL A   1      37.987  29.814  27.506  1.00  0.00     0.010 A 
ATOM     33  C   UNL A   1      37.535  29.486  29.861  1.00  0.00     0.010 A 
ATOM     34  C   UNL A   1      38.444  29.491  28.795  1.00  0.00    -0.014 A 
BRANCH  34  35
ATOM     35  C   UNL A   1      39.855  29.126  29.062  1.00  0.00     0.031 A 
ATOM     36  C   UNL A   1      40.798  30.158  29.623  1.00  0.00     0.074 A 
ATOM     37  C   UNL A   1      40.302  27.902  28.718  1.00  0.00     0.049 A 
ATOM     38  N   UNL A   1      42.084  30.069  29.842  1.00  0.00    -0.248 NA
ATOM     39  C   UNL A   1      40.231  31.481  29.940  1.00  0.00     0.031 C 
ATOM     40  C   UNL A   1      39.497  26.848  28.094  1.00  0.00     0.029 A 
ATOM     41  N   UNL A   1      41.546  27.338  28.835  1.00  0.00    -0.354 N 
ATOM     42  C   UNL A   1      42.476  31.323  30.296  1.00  0.00     0.074 A 
ATOM     43  C   UNL A   1      41.313  32.178  30.248  1.00  0.00     0.031 C 
ATOM     44  C   UNL A   1      40.256  25.755  27.922  1.00  0.00     0.029 A 
ATOM     45  C   UNL A   1      41.611  26.043  28.379  1.00  0.00     0.049 A 
ATOM     46  H   UNL A   1      42.320  27.816  29.212  1.00  0.00     0.167 HD
ATOM     47  C   UNL A   1      43.689  31.716  30.750  1.00  0.00     0.037 A 
ATOM     48  C   UNL A   1      42.650  25.186  28.332  1.00  0.00     0.037 A 
ATOM     49  C   UNL A   1      44.828  30.843  30.832  1.00  0.00     0.049 A 
ATOM     50  C   UNL A   1      43.983  25.640  28.861  1.00  0.00     0.074 A 
ATOM     51  C   UNL A   1      46.085  31.113  31.342  1.00  0.00     0.029 A 
ATOM     52  N   UNL A   1      44.847  29.526  30.393  1.00  0.00    -0.354 N 
ATOM     53  N   UNL A   1      44.319  26.806  29.362  1.00  0.00    -0.248 NA
ATOM     54  C   UNL A   1      45.078  24.662  28.826  1.00  0.00     0.031 C 
ATOM     55  C   UNL A   1      46.878  29.975  31.165  1.00  0.00     0.029 A 
ATOM     56  C   UNL A   1      46.101  28.978  30.598  1.00  0.00     0.049 A 
ATOM     57  H   UNL A   1      44.082  29.053  29.994  1.00  0.00     0.167 HD
ATOM     58  C   UNL A   1      45.656  26.693  29.725  1.00  0.00     0.074 A 
ATOM     59  C   UNL A   1      46.061  25.340  29.403  1.00  0.00     0.031 C 
ATOM     60  C   UNL A   1      46.477  27.624  30.272  1.00  0.00     0.037 A 
BRANCH  47  61
ATOM     61  C   UNL A   1      43.836  33.144  31.205  1.00  0.00     0.058 A 
ATOM     62  C   UNL A   1      44.091  34.186  30.298  1.00  0.00     0.135 A 
ATOM     63  C   UNL A   1      43.697  33.480  32.561  1.00  0.00     0.135 A 
ATOM     64  F   UNL A   1      44.254  33.922  28.991  1.00  0.00    -0.206 F 
ATOM     65  C   UNL A   1      44.234  35.503  30.722  1.00  0.00     0.059 A 
ATOM     66  C   UNL A   1      43.803  34.796  33.004  1.00  0.00     0.059 A 
ATOM     67  F   UNL A   1      43.457  32.525  33.473  1.00  0.00    -0.206 F 
ATOM     68  C   UNL A   1      44.087  35.799  32.077  1.00  0.00     0.060 A 
BRANCH  68  69
ATOM     69  S   UNL A   1      44.263  37.514  32.607  1.00  0.00     0.124 S 
ATOM     70  O   UNL A   1      43.113  37.664  33.494  1.00  0.00    -0.237 OA
ATOM     71  O   UNL A   1      45.569  37.506  33.259  1.00  0.00    -0.237 OA
ATOM     72  O   UNL A   1      44.193  38.266  31.359  1.00  0.00    -0.744 OA
ENDBRANCH  68  69
ENDBRANCH  47  61
BRANCH  48  73
ATOM     73  C   UNL A   1      42.460  23.810  27.798  1.00  0.00     0.058 A 
ATOM     74  C   UNL A   1      42.401  23.575  26.417  1.00  0.00     0.135 A 
ATOM     75  C   UNL A   1      42.353  22.703  28.654  1.00  0.00     0.135 A 
ATOM     76  F   UNL A   1      42.496  24.601  25.557  1.00  0.00    -0.206 F 
ATOM     77  C   UNL A   1      42.220  22.296  25.901  1.00  0.00     0.059 A 
ATOM     78  C   UNL A   1      42.201  21.410  28.162  1.00  0.00     0.059 A 
ATOM     79  F   UNL A   1      42.425  22.870  29.983  1.00  0.00    -0.206 F 
ATOM     80  C   UNL A   1      42.124  21.218  26.783  1.00  0.00     0.060 A 
BRANCH  80  81
ATOM     81  S   UNL A   1      41.936  19.557  26.101  1.00  0.00     0.124 S 
ATOM     82  O   UNL A   1      42.797  19.622  24.926  1.00  0.00    -0.237 OA
ATOM     83  O   UNL A   1      42.414  18.720  27.198  1.00  0.00    -0.237 OA
ATOM     84  O   UNL A   1      40.505  19.464  25.831  1.00  0.00    -0.744 OA
ENDBRANCH  80  81
ENDBRANCH  48  73
BRANCH  60  85
ATOM     85  C   UNL A   1      47.886  27.200  30.585  1.00  0.00     0.058 A 
ATOM     86  C   UNL A   1      48.200  26.493  31.756  1.00  0.00     0.135 A 
ATOM     87  C   UNL A   1      48.925  27.466  29.679  1.00  0.00     0.135 A 
ATOM     88  F   UNL A   1      47.243  26.219  32.657  1.00  0.00    -0.206 F 
ATOM     89  C   UNL A   1      49.501  26.090  32.032  1.00  0.00     0.059 A 
ATOM     90  C   UNL A   1      50.228  27.043  29.919  1.00  0.00     0.059 A 
ATOM     91  F   UNL A   1      48.676  28.127  28.537  1.00  0.00    -0.206 F 
ATOM     92  C   UNL A   1      50.508  26.368  31.106  1.00  0.00     0.060 A 
BRANCH  92  93
ATOM     93  S   UNL A   1      52.188  25.817  31.465  1.00  0.00     0.124 S 
ATOM     94  O   UNL A   1      52.839  25.998  30.172  1.00  0.00    -0.237 OA
ATOM     95  O   UNL A   1      52.601  26.740  32.518  1.00  0.00    -0.237 OA
ATOM     96  O   UNL A   1      52.009  24.432  31.890  1.00  0.00    -0.744 OA
ENDBRANCH  92  93
ENDBRANCH  60  85
ENDBRANCH  34  35
ENDBRANCH  26  29
ENDBRANCH  24  25
ENDBRANCH   1  24
TORSDOF 17
ENDMDL
MODEL 2
REMARK VINA RESULT:     -11.3      1.384      2.766
REMARK SMILES CC[C@@H]1CCC[C@@](Cc2cccc(O)c2)(C(=O)NCCCNC(=O)c2ccc(-c3c4nc(c(-c5c(F)cc(S(=O)(=O)[O-])cc5F)c5ccc([nH]5)c(-c5c(F)cc(S(=O)(=O)[O-])cc5F)c5nc(c(-c6c(F)cc(S(=O)(=O)[O-])cc6F)c6ccc3[nH]6)C=C5)C=C4)cc2)C1
REMARK SMILES IDX 20 1 19 2 18 3 16 4 17 5 7 7 3 8 4 9 91 10 5 11 6 12 2 13
REMARK SMILES IDX 1 14 8 15 9 16 10 17 15 18 11 19 13 20 12 21 14 22 21 24
REMARK SMILES IDX 22 25 23 26 24 28 25 29 26 30 90 31 27 32 89 33 28 34 29 35
REMARK SMILES IDX 30 36 83 37 31 38 88 39 82 40 84 41 32 42 87 43 81 44 80 45
REMARK SMILES IDX 33 47 67 48 46 49 66 50 47 51 50 52 65 53 85 54 48 55 49 56
REMARK SMILES IDX 64 58 86 59 51 60 34 61 35 62 44 63 36 64 37 65 43 66 45 67
REMARK SMILES IDX 38 68 39 69 40 70 41 71 42 72 68 73 69 74 78 75 70 76 71 77
REMARK SMILES IDX 77 78 79 79 72 80 73 81 74 82 75 83 76 84 52 85 53 86 62 87
REMARK SMILES IDX 54 88 55 89 61 90 63 91 56 92 57 93 58 94 59 95 60 96
REMARK H PARENT 18 6 14 23 22 27 84 46 50 57
REMARK Flexibility Score: inf
ROOT
ATOM      1  C   UNL A   1      33.681  27.280  25.047  1.00  0.00     0.042 C 
ENDROOT
BRANCH   1   2
ATOM      2  C   UNL A   1      33.499  25.787  24.954  1.00  0.00     0.117 C 
BRANCH   2   3
ATOM      3  N   UNL A   1      34.281  25.121  23.942  1.00  0.00    -0.356 N 
ATOM      4  C   UNL A   1      34.363  23.787  23.684  1.00  0.00     0.226 C 
ATOM      5  O   UNL A   1      34.633  23.483  22.516  1.00  0.00    -0.274 OA
ATOM      6  H   UNL A   1      34.825  25.705  23.365  1.00  0.00     0.163 HD
BRANCH   4   7
ATOM      7  C   UNL A   1      34.134  22.697  24.771  1.00  0.00     0.053 C 
ATOM      8  C   UNL A   1      36.638  21.920  24.644  1.00  0.00    -0.010 C 
ATOM      9  C   UNL A   1      36.907  22.588  26.001  1.00  0.00     0.003 C 
ATOM     10  C   UNL A   1      35.152  21.534  24.476  1.00  0.00     0.020 C 
ATOM     11  C   UNL A   1      35.898  23.673  26.342  1.00  0.00     0.001 C 
ATOM     12  C   UNL A   1      34.464  23.153  26.213  1.00  0.00     0.017 C 
BRANCH   8  13
ATOM     13  C   UNL A   1      37.581  20.708  24.492  1.00  0.00     0.000 C 
ATOM     14  C   UNL A   1      36.964  19.375  24.891  1.00  0.00     0.004 C 
ENDBRANCH   8  13
BRANCH   7  15
ATOM     15  C   UNL A   1      32.711  22.049  24.606  1.00  0.00     0.052 C 
BRANCH  15  16
ATOM     16  C   UNL A   1      32.578  20.544  24.550  1.00  0.00    -0.043 A 
ATOM     17  C   UNL A   1      32.868  19.755  25.678  1.00  0.00     0.004 A 
ATOM     18  C   UNL A   1      32.239  19.900  23.352  1.00  0.00     0.049 A 
ATOM     19  C   UNL A   1      32.923  18.359  25.576  1.00  0.00     0.004 A 
ATOM     20  C   UNL A   1      32.305  18.511  23.258  1.00  0.00     0.115 A 
ATOM     21  C   UNL A   1      32.666  17.735  24.355  1.00  0.00     0.046 A 
BRANCH  20  22
ATOM     22  O   UNL A   1      32.049  17.947  22.044  1.00  0.00    -0.508 OA
ATOM     23  H   UNL A   1      31.272  17.439  21.918  1.00  0.00     0.293 HD
ENDBRANCH  20  22
ENDBRANCH  15  16
ENDBRANCH   7  15
ENDBRANCH   4   7
ENDBRANCH   2   3
ENDBRANCH   1   2
BRANCH   1  24
ATOM     24  C   UNL A   1      34.186  27.716  26.408  1.00  0.00     0.118 C 
BRANCH  24  25
ATOM     25  N   UNL A   1      33.737  29.060  26.783  1.00  0.00    -0.352 N 
ATOM     26  C   UNL A   1      34.320  30.014  27.579  1.00  0.00     0.251 C 
ATOM     27  H   UNL A   1      32.871  29.324  26.397  1.00  0.00     0.163 HD
ATOM     28  O   UNL A   1      33.663  30.985  27.948  1.00  0.00    -0.269 OA
BRANCH  26  29
ATOM     29  C   UNL A   1      35.723  29.856  28.003  1.00  0.00     0.039 A 
ATOM     30  C   UNL A   1      36.015  29.411  29.294  1.00  0.00     0.014 A 
ATOM     31  C   UNL A   1      36.756  30.126  27.105  1.00  0.00     0.014 A 
ATOM     32  C   UNL A   1      37.340  29.152  29.644  1.00  0.00     0.010 A 
ATOM     33  C   UNL A   1      38.047  29.726  27.402  1.00  0.00     0.010 A 
ATOM     34  C   UNL A   1      38.360  29.256  28.683  1.00  0.00    -0.014 A 
BRANCH  34  35
ATOM     35  C   UNL A   1      39.768  28.911  28.990  1.00  0.00     0.031 A 
ATOM     36  C   UNL A   1      40.675  29.949  29.600  1.00  0.00     0.074 A 
ATOM     37  C   UNL A   1      40.248  27.700  28.642  1.00  0.00     0.049 A 
ATOM     38  N   UNL A   1      41.953  29.878  29.859  1.00  0.00    -0.248 NA
ATOM     39  C   UNL A   1      40.074  31.257  29.919  1.00  0.00     0.031 C 
ATOM     40  C   UNL A   1      39.482  26.644  27.975  1.00  0.00     0.029 A 
ATOM     41  N   UNL A   1      41.496  27.156  28.791  1.00  0.00    -0.354 N 
ATOM     42  C   UNL A   1      42.309  31.130  30.347  1.00  0.00     0.074 A 
ATOM     43  C   UNL A   1      41.133  31.966  30.273  1.00  0.00     0.031 C 
ATOM     44  C   UNL A   1      40.265  25.567  27.811  1.00  0.00     0.029 A 
ATOM     45  C   UNL A   1      41.599  25.869  28.317  1.00  0.00     0.049 A 
ATOM     46  H   UNL A   1      42.249  27.640  29.201  1.00  0.00     0.167 HD
ATOM     47  C   UNL A   1      43.499  31.536  30.847  1.00  0.00     0.037 A 
ATOM     48  C   UNL A   1      42.653  25.031  28.291  1.00  0.00     0.037 A 
ATOM     49  C   UNL A   1      44.650  30.681  30.953  1.00  0.00     0.049 A 
ATOM     50  C   UNL A   1      43.960  25.498  28.870  1.00  0.00     0.074 A 
ATOM     51  C   UNL A   1      45.884  30.963  31.508  1.00  0.00     0.029 A 
ATOM     52  N   UNL A   1      44.706  29.372  30.493  1.00  0.00    -0.354 N 
ATOM     53  N   UNL A   1      44.259  26.661  29.401  1.00  0.00    -0.248 NA
ATOM     54  C   UNL A   1      45.072  24.539  28.856  1.00  0.00     0.031 C 
ATOM     55  C   UNL A   1      46.703  29.842  31.340  1.00  0.00     0.029 A 
ATOM     56  C   UNL A   1      45.961  28.841  30.731  1.00  0.00     0.049 A 
ATOM     57  H   UNL A   1      43.962  28.893  30.062  1.00  0.00     0.167 HD
ATOM     58  C   UNL A   1      45.586  26.564  29.807  1.00  0.00     0.074 A 
ATOM     59  C   UNL A   1      46.024  25.223  29.477  1.00  0.00     0.031 C 
ATOM     60  C   UNL A   1      46.372  27.500  30.396  1.00  0.00     0.037 A 
BRANCH  47  61
ATOM     61  C   UNL A   1      43.606  32.958  31.329  1.00  0.00     0.058 A 
ATOM     62  C   UNL A   1      43.392  33.302  32.675  1.00  0.00     0.135 A 
ATOM     63  C   UNL A   1      43.953  33.990  30.441  1.00  0.00     0.135 A 
ATOM     64  F   UNL A   1      43.039  32.361  33.565  1.00  0.00    -0.206 F 
ATOM     65  C   UNL A   1      43.485  34.618  33.115  1.00  0.00     0.059 A 
ATOM     66  C   UNL A   1      44.084  35.309  30.866  1.00  0.00     0.059 A 
ATOM     67  F   UNL A   1      44.164  33.721  29.143  1.00  0.00    -0.206 F 
ATOM     68  C   UNL A   1      43.833  35.615  32.203  1.00  0.00     0.060 A 
BRANCH  68  69
ATOM     69  S   UNL A   1      43.962  37.314  32.795  1.00  0.00     0.124 S 
ATOM     70  O   UNL A   1      45.285  37.308  33.411  1.00  0.00    -0.237 OA
ATOM     71  O   UNL A   1      43.841  38.084  31.561  1.00  0.00    -0.237 OA
ATOM     72  O   UNL A   1      42.841  37.439  33.721  1.00  0.00    -0.744 OA
ENDBRANCH  68  69
ENDBRANCH  47  61
BRANCH  48  73
ATOM     73  C   UNL A   1      42.505  23.661  27.729  1.00  0.00     0.058 A 
ATOM     74  C   UNL A   1      42.563  23.439  26.345  1.00  0.00     0.135 A 
ATOM     75  C   UNL A   1      42.322  22.546  28.561  1.00  0.00     0.135 A 
ATOM     76  F   UNL A   1      42.735  24.473  25.506  1.00  0.00    -0.206 F 
ATOM     77  C   UNL A   1      42.422  22.166  25.803  1.00  0.00     0.059 A 
ATOM     78  C   UNL A   1      42.207  21.258  28.045  1.00  0.00     0.059 A 
ATOM     79  F   UNL A   1      42.281  22.700  29.893  1.00  0.00    -0.206 F 
ATOM     80  C   UNL A   1      42.248  21.081  26.663  1.00  0.00     0.060 A 
BRANCH  80  81
ATOM     81  S   UNL A   1      42.113  19.427  25.950  1.00  0.00     0.124 S 
ATOM     82  O   UNL A   1      42.965  19.543  24.772  1.00  0.00    -0.237 OA
ATOM     83  O   UNL A   1      42.625  18.587  27.028  1.00  0.00    -0.237 OA
ATOM     84  O   UNL A   1      40.684  19.291  25.685  1.00  0.00    -0.744 OA
ENDBRANCH  80  81
ENDBRANCH  48  73
BRANCH  60  85
ATOM     85  C   UNL A   1      47.776  27.095  30.749  1.00  0.00     0.058 A 
ATOM     86  C   UNL A   1      48.072  26.431  31.950  1.00  0.00     0.135 A 
ATOM     87  C   UNL A   1      48.830  27.333  29.853  1.00  0.00     0.135 A 
ATOM     88  F   UNL A   1      47.101  26.184  32.843  1.00  0.00    -0.206 F 
ATOM     89  C   UNL A   1      49.371  26.044  32.263  1.00  0.00     0.059 A 
ATOM     90  C   UNL A   1      50.131  26.925  30.130  1.00  0.00     0.059 A 
ATOM     91  F   UNL A   1      48.599  27.952  28.683  1.00  0.00    -0.206 F 
ATOM     92  C   UNL A   1      50.392  26.294  31.345  1.00  0.00     0.060 A 
BRANCH  92  93
ATOM     93  S   UNL A   1      52.068  25.764  31.754  1.00  0.00     0.124 S 
ATOM     94  O   UNL A   1      52.407  26.675  32.842  1.00  0.00    -0.237 OA
ATOM     95  O   UNL A   1      51.870  24.369  32.134  1.00  0.00    -0.237 OA
ATOM     96  O   UNL A   1      52.803  25.970  30.510  1.00  0.00    -0.744 OA
ENDBRANCH  92  93
ENDBRANCH  60  85
ENDBRANCH  34  35
ENDBRANCH  26  29
ENDBRANCH  24  25
ENDBRANCH   1  24
TORSDOF 17
ENDMDL
MODEL 3
REMARK VINA RESULT:     -11.3      2.742      3.582
REMARK SMILES CC[C@@H]1CCC[C@@](Cc2cccc(O)c2)(C(=O)NCCCNC(=O)c2ccc(-c3c4nc(c(-c5c(F)cc(S(=O)(=O)[O-])cc5F)c5ccc([nH]5)c(-c5c(F)cc(S(=O)(=O)[O-])cc5F)c5nc(c(-c6c(F)cc(S(=O)(=O)[O-])cc6F)c6ccc3[nH]6)C=C5)C=C4)cc2)C1
REMARK SMILES IDX 20 1 19 2 18 3 16 4 17 5 7 7 3 8 4 9 91 10 5 11 6 12 2 13
REMARK SMILES IDX 1 14 8 15 9 16 10 17 15 18 11 19 13 20 12 21 14 22 21 24
REMARK SMILES IDX 22 25 23 26 24 28 25 29 26 30 90 31 27 32 89 33 28 34 29 35
REMARK SMILES IDX 30 36 83 37 31 38 88 39 82 40 84 41 32 42 87 43 81 44 80 45
REMARK SMILES IDX 33 47 67 48 46 49 66 50 47 51 50 52 65 53 85 54 48 55 49 56
REMARK SMILES IDX 64 58 86 59 51 60 34 61 35 62 44 63 36 64 37 65 43 66 45 67
REMARK SMILES IDX 38 68 39 69 40 70 41 71 42 72 68 73 69 74 78 75 70 76 71 77
REMARK SMILES IDX 77 78 79 79 72 80 73 81 74 82 75 83 76 84 52 85 53 86 62 87
REMARK SMILES IDX 54 88 55 89 61 90 63 91 56 92 57 93 58 94 59 95 60 96
REMARK H PARENT 18 6 14 23 22 27 84 46 50 57
REMARK Flexibility Score: inf
ROOT
ATOM      1  C   UNL A   1      33.389  26.740  25.854  1.00  0.00     0.042 C 
ENDROOT
BRANCH   1   2
ATOM      2  C   UNL A   1      33.901  25.465  25.235  1.00  0.00     0.117 C 
BRANCH   2   3
ATOM      3  N   UNL A   1      33.748  24.274  26.034  1.00  0.00    -0.356 N 
ATOM      4  C   UNL A   1      34.326  23.055  25.847  1.00  0.00     0.226 C 
ATOM      5  O   UNL A   1      34.493  22.380  26.870  1.00  0.00    -0.274 OA
ATOM      6  H   UNL A   1      33.151  24.352  26.812  1.00  0.00     0.163 HD
BRANCH   4   7
ATOM      7  C   UNL A   1      34.758  22.527  24.449  1.00  0.00     0.053 C 
ATOM      8  C   UNL A   1      33.533  20.239  24.839  1.00  0.00    -0.010 C 
ATOM      9  C   UNL A   1      32.438  20.664  23.850  1.00  0.00     0.003 C 
ATOM     10  C   UNL A   1      34.870  20.962  24.565  1.00  0.00     0.020 C 
ATOM     11  C   UNL A   1      32.351  22.171  23.667  1.00  0.00     0.001 C 
ATOM     12  C   UNL A   1      33.719  22.765  23.326  1.00  0.00     0.017 C 
BRANCH   8  13
ATOM     13  C   UNL A   1      33.676  18.703  24.792  1.00  0.00     0.000 C 
ATOM     14  C   UNL A   1      33.086  18.052  23.549  1.00  0.00     0.004 C 
ENDBRANCH   8  13
BRANCH   7  15
ATOM     15  C   UNL A   1      36.211  23.018  24.103  1.00  0.00     0.052 C 
BRANCH  15  16
ATOM     16  C   UNL A   1      37.293  22.952  25.157  1.00  0.00    -0.043 A 
ATOM     17  C   UNL A   1      37.570  24.063  25.973  1.00  0.00     0.004 A 
ATOM     18  C   UNL A   1      38.093  21.808  25.289  1.00  0.00     0.049 A 
ATOM     19  C   UNL A   1      38.687  24.065  26.819  1.00  0.00     0.004 A 
ATOM     20  C   UNL A   1      39.207  21.824  26.127  1.00  0.00     0.115 A 
ATOM     21  C   UNL A   1      39.524  22.951  26.877  1.00  0.00     0.046 A 
BRANCH  20  22
ATOM     22  O   UNL A   1      39.997  20.713  26.148  1.00  0.00    -0.508 OA
ATOM     23  H   UNL A   1      40.750  20.684  26.704  1.00  0.00     0.293 HD
ENDBRANCH  20  22
ENDBRANCH  15  16
ENDBRANCH   7  15
ENDBRANCH   4   7
ENDBRANCH   2   3
ENDBRANCH   1   2
BRANCH   1  24
ATOM     24  C   UNL A   1      34.484  27.773  26.035  1.00  0.00     0.118 C 
BRANCH  24  25
ATOM     25  N   UNL A   1      33.965  29.131  26.228  1.00  0.00    -0.352 N 
ATOM     26  C   UNL A   1      34.331  30.118  27.108  1.00  0.00     0.251 C 
ATOM     27  H   UNL A   1      33.229  29.376  25.622  1.00  0.00     0.163 HD
ATOM     28  O   UNL A   1      33.609  31.101  27.257  1.00  0.00    -0.269 OA
BRANCH  26  29
ATOM     29  C   UNL A   1      35.578  29.980  27.884  1.00  0.00     0.039 A 
ATOM     30  C   UNL A   1      35.524  29.592  29.224  1.00  0.00     0.014 A 
ATOM     31  C   UNL A   1      36.808  30.213  27.271  1.00  0.00     0.014 A 
ATOM     32  C   UNL A   1      36.712  29.351  29.913  1.00  0.00     0.010 A 
ATOM     33  C   UNL A   1      37.976  29.828  27.906  1.00  0.00     0.010 A 
ATOM     34  C   UNL A   1      37.946  29.415  29.243  1.00  0.00    -0.014 A 
BRANCH  34  35
ATOM     35  C   UNL A   1      39.225  29.086  29.915  1.00  0.00     0.031 A 
ATOM     36  C   UNL A   1      39.667  29.889  31.110  1.00  0.00     0.074 A 
ATOM     37  C   UNL A   1      40.020  28.128  29.399  1.00  0.00     0.049 A 
ATOM     38  N   UNL A   1      40.786  29.822  31.782  1.00  0.00    -0.248 NA
ATOM     39  C   UNL A   1      38.749  30.939  31.588  1.00  0.00     0.031 C 
ATOM     40  C   UNL A   1      39.730  27.339  28.199  1.00  0.00     0.029 A 
ATOM     41  N   UNL A   1      41.241  27.660  29.812  1.00  0.00    -0.354 N 
ATOM     42  C   UNL A   1      40.713  30.829  32.738  1.00  0.00     0.074 A 
ATOM     43  C   UNL A   1      39.479  31.543  32.511  1.00  0.00     0.031 C 
ATOM     44  C   UNL A   1      40.723  26.459  27.998  1.00  0.00     0.029 A 
ATOM     45  C   UNL A   1      41.742  26.651  29.024  1.00  0.00     0.049 A 
ATOM     46  H   UNL A   1      41.714  28.013  30.600  1.00  0.00     0.167 HD
ATOM     47  C   UNL A   1      41.579  31.108  33.740  1.00  0.00     0.037 A 
ATOM     48  C   UNL A   1      42.895  25.962  29.119  1.00  0.00     0.037 A 
ATOM     49  C   UNL A   1      42.785  30.362  33.979  1.00  0.00     0.049 A 
ATOM     50  C   UNL A   1      43.833  26.277  30.252  1.00  0.00     0.074 A 
ATOM     51  C   UNL A   1      43.698  30.509  35.006  1.00  0.00     0.029 A 
ATOM     52  N   UNL A   1      43.242  29.322  33.180  1.00  0.00    -0.354 N 
ATOM     53  N   UNL A   1      43.711  27.181  31.197  1.00  0.00    -0.248 NA
ATOM     54  C   UNL A   1      45.060  25.476  30.340  1.00  0.00     0.031 C 
ATOM     55  C   UNL A   1      44.735  29.593  34.800  1.00  0.00     0.029 A 
ATOM     56  C   UNL A   1      44.438  28.836  33.677  1.00  0.00     0.049 A 
ATOM     57  H   UNL A   1      42.783  28.983  32.378  1.00  0.00     0.167 HD
ATOM     58  C   UNL A   1      44.834  27.040  32.005  1.00  0.00     0.074 A 
ATOM     59  C   UNL A   1      45.612  25.951  31.448  1.00  0.00     0.031 C 
ATOM     60  C   UNL A   1      45.192  27.747  33.106  1.00  0.00     0.037 A 
BRANCH  47  61
ATOM     61  C   UNL A   1      41.244  32.256  34.654  1.00  0.00     0.058 A 
ATOM     62  C   UNL A   1      41.677  33.565  34.387  1.00  0.00     0.135 A 
ATOM     63  C   UNL A   1      40.459  32.050  35.800  1.00  0.00     0.135 A 
ATOM     64  F   UNL A   1      42.447  33.819  33.317  1.00  0.00    -0.206 F 
ATOM     65  C   UNL A   1      41.371  34.622  35.239  1.00  0.00     0.059 A 
ATOM     66  C   UNL A   1      40.113  33.099  36.650  1.00  0.00     0.059 A 
ATOM     67  F   UNL A   1      40.021  30.819  36.109  1.00  0.00    -0.206 F 
ATOM     68  C   UNL A   1      40.587  34.379  36.367  1.00  0.00     0.060 A 
BRANCH  68  69
ATOM     69  S   UNL A   1      40.191  35.765  37.453  1.00  0.00     0.124 S 
ATOM     70  O   UNL A   1      39.777  36.780  36.489  1.00  0.00    -0.237 OA
ATOM     71  O   UNL A   1      39.128  35.212  38.286  1.00  0.00    -0.237 OA
ATOM     72  O   UNL A   1      41.449  36.030  38.141  1.00  0.00    -0.744 OA
ENDBRANCH  68  69
ENDBRANCH  47  61
BRANCH  48  73
ATOM     73  C   UNL A   1      43.208  24.890  28.136  1.00  0.00     0.058 A 
ATOM     74  C   UNL A   1      42.844  23.557  28.381  1.00  0.00     0.135 A 
ATOM     75  C   UNL A   1      43.856  25.176  26.925  1.00  0.00     0.135 A 
ATOM     76  F   UNL A   1      42.223  23.232  29.526  1.00  0.00    -0.206 F 
ATOM     77  C   UNL A   1      43.132  22.543  27.475  1.00  0.00     0.059 A 
ATOM     78  C   UNL A   1      44.130  24.183  25.988  1.00  0.00     0.059 A 
ATOM     79  F   UNL A   1      44.206  26.437  26.630  1.00  0.00    -0.206 F 
ATOM     80  C   UNL A   1      43.773  22.867  26.278  1.00  0.00     0.060 A 
BRANCH  80  81
ATOM     81  S   UNL A   1      44.100  21.548  25.088  1.00  0.00     0.124 S 
ATOM     82  O   UNL A   1      45.423  21.097  25.504  1.00  0.00    -0.237 OA
ATOM     83  O   UNL A   1      43.000  20.624  25.345  1.00  0.00    -0.237 OA
ATOM     84  O   UNL A   1      44.043  22.235  23.801  1.00  0.00    -0.744 OA
ENDBRANCH  80  81
ENDBRANCH  48  73
BRANCH  60  85
ATOM     85  C   UNL A   1      46.465  27.345  33.798  1.00  0.00     0.058 A 
ATOM     86  C   UNL A   1      47.697  27.933  33.477  1.00  0.00     0.135 A 
ATOM     87  C   UNL A   1      46.440  26.391  34.828  1.00  0.00     0.135 A 
ATOM     88  F   UNL A   1      47.775  28.846  32.496  1.00  0.00    -0.206 F 
ATOM     89  C   UNL A   1      48.867  27.568  34.133  1.00  0.00     0.059 A 
ATOM     90  C   UNL A   1      47.593  26.035  35.520  1.00  0.00     0.059 A 
ATOM     91  F   UNL A   1      45.284  25.807  35.185  1.00  0.00    -0.206 F 
ATOM     92  C   UNL A   1      48.804  26.619  35.154  1.00  0.00     0.060 A 
BRANCH  92  93
ATOM     93  S   UNL A   1      50.327  26.173  36.014  1.00  0.00     0.124 S 
ATOM     94  O   UNL A   1      50.362  24.727  35.818  1.00  0.00    -0.237 OA
ATOM     95  O   UNL A   1      51.334  26.936  35.282  1.00  0.00    -0.237 OA
ATOM     96  O   UNL A   1      50.087  26.616  37.384  1.00  0.00    -0.744 OA
ENDBRANCH  92  93
ENDBRANCH  60  85
ENDBRANCH  34  35
ENDBRANCH  26  29
ENDBRANCH  24  25
ENDBRANCH   1  24
TORSDOF 17
ENDMDL
