MODEL 1
REMARK VINA RESULT:     -12.1      0.000      0.000
REMARK SMILES COc1nc(-c2ccccc2)nc(C)c1CC(=O)NCCCNC(=O)c1ccc(-c2c3nc(c(-c4c(F)cc(S(=O)(=O)[O-])cc4F)c4ccc([nH]4)c(-c4c(F)cc(S(=O)(=O)[O-])cc4F)c4nc(c(-c5c(F)cc(S(=O)(=O)[O-])cc5F)c5ccc2[nH]5)C=C4)C=C3)cc1
REMARK SMILES IDX 21 1 20 2 19 3 17 4 18 5 16 7 15 8 3 9 4 10 5 11 13 12 12 13
REMARK SMILES IDX 14 14 2 15 1 16 6 17 7 18 11 19 8 20 10 21 9 22 22 23 23 24
REMARK SMILES IDX 24 25 25 27 26 28 27 29 91 30 28 31 90 32 29 33 30 34 31 35
REMARK SMILES IDX 84 36 32 37 89 38 83 39 85 40 33 41 88 42 82 43 81 44 34 46
REMARK SMILES IDX 68 47 47 48 67 49 48 50 51 51 66 52 86 53 49 54 50 55 65 57
REMARK SMILES IDX 87 58 52 59 35 60 36 61 45 62 37 63 38 64 44 65 46 66 39 67
REMARK SMILES IDX 40 68 41 69 42 70 43 71 69 72 70 73 79 74 71 75 72 76 78 77
REMARK SMILES IDX 80 78 73 79 74 80 75 81 76 82 77 83 53 84 54 85 63 86 55 87
REMARK SMILES IDX 56 88 62 89 64 90 57 91 58 92 59 93 60 94 61 95
REMARK H PARENT 19 6 23 26 85 45 51 56
REMARK Flexibility Score: inf
ROOT
ATOM      1  C   UNL A   1      34.078  28.862  27.197  1.00  0.00     0.042 C 
ENDROOT
BRANCH   1   2
ATOM      2  C   UNL A   1      33.054  29.368  26.183  1.00  0.00     0.117 C 
BRANCH   2   3
ATOM      3  N   UNL A   1      33.596  29.502  24.843  1.00  0.00    -0.356 N 
ATOM      4  C   UNL A   1      33.340  28.790  23.710  1.00  0.00     0.224 C 
ATOM      5  O   UNL A   1      33.857  29.189  22.663  1.00  0.00    -0.275 OA
ATOM      6  H   UNL A   1      34.257  30.223  24.737  1.00  0.00     0.163 HD
BRANCH   4   7
ATOM      7  C   UNL A   1      32.395  27.596  23.710  1.00  0.00     0.143 C 
BRANCH   7   8
ATOM      8  C   UNL A   1      33.060  26.258  23.879  1.00  0.00     0.045 A 
ATOM      9  C   UNL A   1      33.773  25.687  22.832  1.00  0.00     0.220 A 
ATOM     10  N   UNL A   1      34.487  24.549  22.901  1.00  0.00    -0.193 NA
ATOM     11  C   UNL A   1      34.429  23.915  24.083  1.00  0.00     0.163 A 
ATOM     12  C   UNL A   1      33.045  25.508  25.043  1.00  0.00     0.049 A 
ATOM     13  N   UNL A   1      33.719  24.345  25.144  1.00  0.00    -0.233 NA
ATOM     14  C   UNL A   1      32.320  25.879  26.302  1.00  0.00     0.067 C 
BRANCH   9  15
ATOM     15  O   UNL A   1      33.609  26.239  21.581  1.00  0.00    -0.481 OA
ATOM     16  C   UNL A   1      32.628  25.544  20.820  1.00  0.00     0.280 C 
ENDBRANCH   9  15
BRANCH  11  17
ATOM     17  C   UNL A   1      35.185  22.673  24.285  1.00  0.00     0.019 A 
ATOM     18  C   UNL A   1      34.525  21.495  24.687  1.00  0.00     0.012 A 
ATOM     19  C   UNL A   1      36.584  22.630  24.168  1.00  0.00     0.012 A 
ATOM     20  C   UNL A   1      35.232  20.323  24.972  1.00  0.00     0.001 A 
ATOM     21  C   UNL A   1      37.296  21.463  24.469  1.00  0.00     0.001 A 
ATOM     22  C   UNL A   1      36.621  20.312  24.872  1.00  0.00     0.000 A 
ENDBRANCH  11  17
ENDBRANCH   7   8
ENDBRANCH   4   7
ENDBRANCH   2   3
ENDBRANCH   1   2
BRANCH   1  23
ATOM     23  C   UNL A   1      35.265  29.798  27.418  1.00  0.00     0.118 C 
BRANCH  23  24
ATOM     24  N   UNL A   1      35.302  30.349  28.767  1.00  0.00    -0.352 N 
ATOM     25  C   UNL A   1      36.285  30.311  29.725  1.00  0.00     0.251 C 
ATOM     26  H   UNL A   1      34.486  30.829  29.036  1.00  0.00     0.163 HD
ATOM     27  O   UNL A   1      36.011  30.671  30.867  1.00  0.00    -0.269 OA
BRANCH  25  28
ATOM     28  C   UNL A   1      37.651  29.840  29.406  1.00  0.00     0.039 A 
ATOM     29  C   UNL A   1      38.078  29.867  28.074  1.00  0.00     0.014 A 
ATOM     30  C   UNL A   1      38.494  29.324  30.393  1.00  0.00     0.014 A 
ATOM     31  C   UNL A   1      39.365  29.435  27.744  1.00  0.00     0.010 A 
ATOM     32  C   UNL A   1      39.802  28.962  30.074  1.00  0.00     0.010 A 
ATOM     33  C   UNL A   1      40.252  29.011  28.746  1.00  0.00    -0.014 A 
BRANCH  33  34
ATOM     34  C   UNL A   1      41.651  28.622  28.428  1.00  0.00     0.031 A 
ATOM     35  C   UNL A   1      42.746  29.654  28.423  1.00  0.00     0.074 A 
ATOM     36  C   UNL A   1      41.921  27.349  28.076  1.00  0.00     0.049 A 
ATOM     37  N   UNL A   1      44.008  29.517  28.105  1.00  0.00    -0.248 NA
ATOM     38  C   UNL A   1      42.367  31.025  28.798  1.00  0.00     0.031 C 
ATOM     39  C   UNL A   1      40.940  26.264  28.004  1.00  0.00     0.029 A 
ATOM     40  N   UNL A   1      43.100  26.752  27.704  1.00  0.00    -0.354 N 
ATOM     41  C   UNL A   1      44.568  30.785  28.219  1.00  0.00     0.074 A 
ATOM     42  C   UNL A   1      43.498  31.685  28.591  1.00  0.00     0.031 C 
ATOM     43  C   UNL A   1      41.561  25.131  27.643  1.00  0.00     0.029 A 
ATOM     44  C   UNL A   1      42.974  25.414  27.416  1.00  0.00     0.049 A 
ATOM     45  H   UNL A   1      43.955  27.237  27.648  1.00  0.00     0.167 HD
ATOM     46  C   UNL A   1      45.859  31.162  28.045  1.00  0.00     0.037 A 
ATOM     47  C   UNL A   1      43.893  24.515  27.010  1.00  0.00     0.037 A 
ATOM     48  C   UNL A   1      46.923  30.255  27.701  1.00  0.00     0.049 A 
ATOM     49  C   UNL A   1      45.318  24.959  26.817  1.00  0.00     0.074 A 
ATOM     50  C   UNL A   1      48.276  30.523  27.576  1.00  0.00     0.029 A 
ATOM     51  N   UNL A   1      46.757  28.906  27.421  1.00  0.00    -0.354 N 
ATOM     52  N   UNL A   1      45.843  26.147  26.996  1.00  0.00    -0.248 NA
ATOM     53  C   UNL A   1      46.275  23.938  26.370  1.00  0.00     0.031 C 
ATOM     54  C   UNL A   1      48.920  29.348  27.174  1.00  0.00     0.029 A 
ATOM     55  C   UNL A   1      47.978  28.334  27.097  1.00  0.00     0.049 A 
ATOM     56  H   UNL A   1      45.899  28.426  27.449  1.00  0.00     0.167 HD
ATOM     57  C   UNL A   1      47.198  26.010  26.714  1.00  0.00     0.074 A 
ATOM     58  C   UNL A   1      47.411  24.622  26.357  1.00  0.00     0.031 C 
ATOM     59  C   UNL A   1      48.176  26.949  26.749  1.00  0.00     0.037 A 
BRANCH  46  60
ATOM     60  C   UNL A   1      46.187  32.621  28.213  1.00  0.00     0.058 A 
ATOM     61  C   UNL A   1      46.094  33.530  27.145  1.00  0.00     0.135 A 
ATOM     62  C   UNL A   1      46.584  33.124  29.462  1.00  0.00     0.135 A 
ATOM     63  F   UNL A   1      45.731  33.104  25.924  1.00  0.00    -0.206 F 
ATOM     64  C   UNL A   1      46.425  34.873  27.299  1.00  0.00     0.059 A 
ATOM     65  C   UNL A   1      46.892  34.470  29.647  1.00  0.00     0.059 A 
ATOM     66  F   UNL A   1      46.686  32.303  30.519  1.00  0.00    -0.206 F 
ATOM     67  C   UNL A   1      46.829  35.331  28.554  1.00  0.00     0.060 A 
BRANCH  67  68
ATOM     68  S   UNL A   1      47.276  37.072  28.734  1.00  0.00     0.124 S 
ATOM     69  O   UNL A   1      46.154  37.729  28.070  1.00  0.00    -0.237 OA
ATOM     70  O   UNL A   1      47.335  37.231  30.184  1.00  0.00    -0.237 OA
ATOM     71  O   UNL A   1      48.558  37.166  28.042  1.00  0.00    -0.744 OA
ENDBRANCH  67  68
ENDBRANCH  46  60
BRANCH  47  72
ATOM     72  C   UNL A   1      43.500  23.097  26.797  1.00  0.00     0.058 A 
ATOM     73  C   UNL A   1      43.425  22.564  25.502  1.00  0.00     0.135 A 
ATOM     74  C   UNL A   1      43.218  22.242  27.874  1.00  0.00     0.135 A 
ATOM     75  F   UNL A   1      43.681  23.345  24.440  1.00  0.00    -0.206 F 
ATOM     76  C   UNL A   1      43.071  21.239  25.278  1.00  0.00     0.059 A 
ATOM     77  C   UNL A   1      42.886  20.905  27.676  1.00  0.00     0.059 A 
ATOM     78  F   UNL A   1      43.292  22.699  29.133  1.00  0.00    -0.206 F 
ATOM     79  C   UNL A   1      42.807  20.415  26.372  1.00  0.00     0.060 A 
BRANCH  79  80
ATOM     80  S   UNL A   1      42.401  18.681  26.072  1.00  0.00     0.124 S 
ATOM     81  O   UNL A   1      42.657  18.089  27.379  1.00  0.00    -0.237 OA
ATOM     82  O   UNL A   1      41.001  18.759  25.669  1.00  0.00    -0.237 OA
ATOM     83  O   UNL A   1      43.330  18.298  25.013  1.00  0.00    -0.744 OA
ENDBRANCH  79  80
ENDBRANCH  47  72
BRANCH  59  84
ATOM     84  C   UNL A   1      49.576  26.502  26.430  1.00  0.00     0.058 A 
ATOM     85  C   UNL A   1      50.146  26.703  25.164  1.00  0.00     0.135 A 
ATOM     86  C   UNL A   1      50.374  25.907  27.422  1.00  0.00     0.135 A 
ATOM     87  F   UNL A   1      49.425  27.259  24.179  1.00  0.00    -0.206 F 
ATOM     88  C   UNL A   1      51.452  26.311  24.884  1.00  0.00     0.059 A 
ATOM     89  C   UNL A   1      51.690  25.531  27.173  1.00  0.00     0.059 A 
ATOM     90  F   UNL A   1      49.880  25.699  28.652  1.00  0.00    -0.206 F 
ATOM     91  C   UNL A   1      52.217  25.727  25.897  1.00  0.00     0.060 A 
BRANCH  91  92
ATOM     92  S   UNL A   1      53.922  25.257  25.532  1.00  0.00     0.124 S 
ATOM     93  O   UNL A   1      54.664  26.100  26.464  1.00  0.00    -0.237 OA
ATOM     94  O   UNL A   1      53.923  23.828  25.830  1.00  0.00    -0.237 OA
ATOM     95  O   UNL A   1      54.074  25.597  24.121  1.00  0.00    -0.744 OA
ENDBRANCH  91  92
ENDBRANCH  59  84
ENDBRANCH  33  34
ENDBRANCH  25  28
ENDBRANCH  23  24
ENDBRANCH   1  23
TORSDOF 16
ENDMDL
MODEL 2
REMARK VINA RESULT:     -11.9      3.119      4.171
REMARK SMILES COc1nc(-c2ccccc2)nc(C)c1CC(=O)NCCCNC(=O)c1ccc(-c2c3nc(c(-c4c(F)cc(S(=O)(=O)[O-])cc4F)c4ccc([nH]4)c(-c4c(F)cc(S(=O)(=O)[O-])cc4F)c4nc(c(-c5c(F)cc(S(=O)(=O)[O-])cc5F)c5ccc2[nH]5)C=C4)C=C3)cc1
REMARK SMILES IDX 21 1 20 2 19 3 17 4 18 5 16 7 15 8 3 9 4 10 5 11 13 12 12 13
REMARK SMILES IDX 14 14 2 15 1 16 6 17 7 18 11 19 8 20 10 21 9 22 22 23 23 24
REMARK SMILES IDX 24 25 25 27 26 28 27 29 91 30 28 31 90 32 29 33 30 34 31 35
REMARK SMILES IDX 84 36 32 37 89 38 83 39 85 40 33 41 88 42 82 43 81 44 34 46
REMARK SMILES IDX 68 47 47 48 67 49 48 50 51 51 66 52 86 53 49 54 50 55 65 57
REMARK SMILES IDX 87 58 52 59 35 60 36 61 45 62 37 63 38 64 44 65 46 66 39 67
REMARK SMILES IDX 40 68 41 69 42 70 43 71 69 72 70 73 79 74 71 75 72 76 78 77
REMARK SMILES IDX 80 78 73 79 74 80 75 81 76 82 77 83 53 84 54 85 63 86 55 87
REMARK SMILES IDX 56 88 62 89 64 90 57 91 58 92 59 93 60 94 61 95
REMARK H PARENT 19 6 23 26 85 45 51 56
REMARK Flexibility Score: inf
ROOT
ATOM      1  C   UNL A   1      33.514  28.173  25.111  1.00  0.00     0.042 C 
ENDROOT
BRANCH   1   2
ATOM      2  C   UNL A   1      32.731  26.914  24.744  1.00  0.00     0.117 C 
BRANCH   2   3
ATOM      3  N   UNL A   1      33.375  26.124  23.711  1.00  0.00    -0.356 N 
ATOM      4  C   UNL A   1      34.042  24.939  23.790  1.00  0.00     0.224 C 
ATOM      5  O   UNL A   1      34.397  24.418  22.728  1.00  0.00    -0.275 OA
ATOM      6  H   UNL A   1      33.321  26.507  22.806  1.00  0.00     0.163 HD
BRANCH   4   7
ATOM      7  C   UNL A   1      34.279  24.239  25.121  1.00  0.00     0.143 C 
BRANCH   7   8
ATOM      8  C   UNL A   1      34.075  22.750  25.103  1.00  0.00     0.045 A 
ATOM      9  C   UNL A   1      32.806  22.214  24.921  1.00  0.00     0.220 A 
ATOM     10  N   UNL A   1      32.521  20.905  24.789  1.00  0.00    -0.193 NA
ATOM     11  C   UNL A   1      33.575  20.082  24.908  1.00  0.00     0.163 A 
ATOM     12  C   UNL A   1      35.083  21.810  25.240  1.00  0.00     0.049 A 
ATOM     13  N   UNL A   1      34.835  20.488  25.148  1.00  0.00    -0.233 NA
ATOM     14  C   UNL A   1      36.529  22.123  25.484  1.00  0.00     0.067 C 
BRANCH   9  15
ATOM     15  O   UNL A   1      31.735  23.071  25.045  1.00  0.00    -0.481 OA
ATOM     16  C   UNL A   1      31.012  22.844  26.248  1.00  0.00     0.280 C 
ENDBRANCH   9  15
BRANCH  11  17
ATOM     17  C   UNL A   1      33.390  18.633  24.761  1.00  0.00     0.019 A 
ATOM     18  C   UNL A   1      32.745  17.891  25.771  1.00  0.00     0.012 A 
ATOM     19  C   UNL A   1      33.913  17.927  23.666  1.00  0.00     0.012 A 
ATOM     20  C   UNL A   1      32.636  16.500  25.697  1.00  0.00     0.001 A 
ATOM     21  C   UNL A   1      33.820  16.532  23.598  1.00  0.00     0.001 A 
ATOM     22  C   UNL A   1      33.183  15.820  24.613  1.00  0.00     0.000 A 
ENDBRANCH  11  17
ENDBRANCH   7   8
ENDBRANCH   4   7
ENDBRANCH   2   3
ENDBRANCH   1   2
BRANCH   1  23
ATOM     23  C   UNL A   1      33.805  28.325  26.603  1.00  0.00     0.118 C 
BRANCH  23  24
ATOM     24  N   UNL A   1      33.660  29.697  27.068  1.00  0.00    -0.352 N 
ATOM     25  C   UNL A   1      34.484  30.474  27.845  1.00  0.00     0.251 C 
ATOM     26  H   UNL A   1      32.832  30.144  26.776  1.00  0.00     0.163 HD
ATOM     27  O   UNL A   1      34.055  31.540  28.279  1.00  0.00    -0.269 OA
BRANCH  25  28
ATOM     28  C   UNL A   1      35.863  30.046  28.169  1.00  0.00     0.039 A 
ATOM     29  C   UNL A   1      36.847  30.142  27.180  1.00  0.00     0.014 A 
ATOM     30  C   UNL A   1      36.183  29.500  29.415  1.00  0.00     0.014 A 
ATOM     31  C   UNL A   1      38.159  29.751  27.459  1.00  0.00     0.010 A 
ATOM     32  C   UNL A   1      37.506  29.179  29.715  1.00  0.00     0.010 A 
ATOM     33  C   UNL A   1      38.509  29.298  28.742  1.00  0.00    -0.014 A 
BRANCH  33  34
ATOM     34  C   UNL A   1      39.913  28.952  29.084  1.00  0.00     0.031 A 
ATOM     35  C   UNL A   1      40.802  29.959  29.762  1.00  0.00     0.074 A 
ATOM     36  C   UNL A   1      40.406  27.751  28.722  1.00  0.00     0.049 A 
ATOM     37  N   UNL A   1      42.069  29.863  30.076  1.00  0.00    -0.248 NA
ATOM     38  C   UNL A   1      40.196  31.254  30.106  1.00  0.00     0.031 C 
ATOM     39  C   UNL A   1      39.657  26.704  28.024  1.00  0.00     0.029 A 
ATOM     40  N   UNL A   1      41.658  27.211  28.880  1.00  0.00    -0.354 N 
ATOM     41  C   UNL A   1      42.417  31.089  30.633  1.00  0.00     0.074 A 
ATOM     42  C   UNL A   1      41.238  31.927  30.572  1.00  0.00     0.031 C 
ATOM     43  C   UNL A   1      40.453  25.639  27.844  1.00  0.00     0.029 A 
ATOM     44  C   UNL A   1      41.780  25.939  28.371  1.00  0.00     0.049 A 
ATOM     45  H   UNL A   1      42.400  27.690  29.316  1.00  0.00     0.167 HD
ATOM     46  C   UNL A   1      43.604  31.475  31.162  1.00  0.00     0.037 A 
ATOM     47  C   UNL A   1      42.841  25.110  28.331  1.00  0.00     0.037 A 
ATOM     48  C   UNL A   1      44.763  30.626  31.244  1.00  0.00     0.049 A 
ATOM     49  C   UNL A   1      44.150  25.564  28.918  1.00  0.00     0.074 A 
ATOM     50  C   UNL A   1      45.989  30.896  31.828  1.00  0.00     0.029 A 
ATOM     51  N   UNL A   1      44.846  29.343  30.721  1.00  0.00    -0.354 N 
ATOM     52  N   UNL A   1      44.442  26.701  29.503  1.00  0.00    -0.248 NA
ATOM     53  C   UNL A   1      45.274  24.620  28.842  1.00  0.00     0.031 C 
ATOM     54  C   UNL A   1      46.828  29.796  31.618  1.00  0.00     0.029 A 
ATOM     55  C   UNL A   1      46.110  28.819  30.945  1.00  0.00     0.049 A 
ATOM     56  H   UNL A   1      44.114  28.874  30.260  1.00  0.00     0.167 HD
ATOM     57  C   UNL A   1      45.773  26.598  29.892  1.00  0.00     0.074 A 
ATOM     58  C   UNL A   1      46.226  25.285  29.481  1.00  0.00     0.031 C 
ATOM     59  C   UNL A   1      46.546  27.507  30.535  1.00  0.00     0.037 A 
BRANCH  46  60
ATOM     60  C   UNL A   1      43.709  32.884  31.682  1.00  0.00     0.058 A 
ATOM     61  C   UNL A   1      43.494  33.192  33.037  1.00  0.00     0.135 A 
ATOM     62  C   UNL A   1      44.044  33.940  30.820  1.00  0.00     0.135 A 
ATOM     63  F   UNL A   1      43.159  32.224  33.905  1.00  0.00    -0.206 F 
ATOM     64  C   UNL A   1      43.565  34.499  33.507  1.00  0.00     0.059 A 
ATOM     65  C   UNL A   1      44.151  35.252  31.274  1.00  0.00     0.059 A 
ATOM     66  F   UNL A   1      44.265  33.704  29.517  1.00  0.00    -0.206 F 
ATOM     67  C   UNL A   1      43.889  35.523  32.615  1.00  0.00     0.060 A 
BRANCH  67  68
ATOM     68  S   UNL A   1      43.956  37.219  33.236  1.00  0.00     0.124 S 
ATOM     69  O   UNL A   1      42.703  37.304  33.980  1.00  0.00    -0.237 OA
ATOM     70  O   UNL A   1      45.172  37.208  34.044  1.00  0.00    -0.237 OA
ATOM     71  O   UNL A   1      44.021  38.023  32.020  1.00  0.00    -0.744 OA
ENDBRANCH  67  68
ENDBRANCH  46  60
BRANCH  47  72
ATOM     72  C   UNL A   1      42.698  23.751  27.746  1.00  0.00     0.058 A 
ATOM     73  C   UNL A   1      42.839  23.549  26.365  1.00  0.00     0.135 A 
ATOM     74  C   UNL A   1      42.445  22.627  28.549  1.00  0.00     0.135 A 
ATOM     75  F   UNL A   1      43.076  24.593  25.556  1.00  0.00    -0.206 F 
ATOM     76  C   UNL A   1      42.721  22.286  25.797  1.00  0.00     0.059 A 
ATOM     77  C   UNL A   1      42.348  21.349  28.007  1.00  0.00     0.059 A 
ATOM     78  F   UNL A   1      42.319  22.764  29.878  1.00  0.00    -0.206 F 
ATOM     79  C   UNL A   1      42.478  21.190  26.627  1.00  0.00     0.060 A 
BRANCH  79  80
ATOM     80  S   UNL A   1      42.381  19.547  25.885  1.00  0.00     0.124 S 
ATOM     81  O   UNL A   1      43.359  19.653  24.809  1.00  0.00    -0.237 OA
ATOM     82  O   UNL A   1      42.751  18.684  27.002  1.00  0.00    -0.237 OA
ATOM     83  O   UNL A   1      40.987  19.451  25.463  1.00  0.00    -0.744 OA
ENDBRANCH  79  80
ENDBRANCH  47  72
BRANCH  59  84
ATOM     84  C   UNL A   1      47.957  27.104  30.868  1.00  0.00     0.058 A 
ATOM     85  C   UNL A   1      48.278  26.467  32.076  1.00  0.00     0.135 A 
ATOM     86  C   UNL A   1      48.992  27.315  29.942  1.00  0.00     0.135 A 
ATOM     87  F   UNL A   1      47.327  26.249  32.999  1.00  0.00    -0.206 F 
ATOM     88  C   UNL A   1      49.581  26.071  32.365  1.00  0.00     0.059 A 
ATOM     89  C   UNL A   1      50.296  26.904  30.199  1.00  0.00     0.059 A 
ATOM     90  F   UNL A   1      48.738  27.913  28.768  1.00  0.00    -0.206 F 
ATOM     91  C   UNL A   1      50.583  26.294  31.419  1.00  0.00     0.060 A 
BRANCH  91  92
ATOM     92  S   UNL A   1      52.262  25.743  31.790  1.00  0.00     0.124 S 
ATOM     93  O   UNL A   1      52.601  26.588  32.931  1.00  0.00    -0.237 OA
ATOM     94  O   UNL A   1      52.070  24.327  32.086  1.00  0.00    -0.237 OA
ATOM     95  O   UNL A   1      52.993  26.027  30.559  1.00  0.00    -0.744 OA
ENDBRANCH  91  92
ENDBRANCH  59  84
ENDBRANCH  33  34
ENDBRANCH  25  28
ENDBRANCH  23  24
ENDBRANCH   1  23
TORSDOF 16
ENDMDL
MODEL 3
REMARK VINA RESULT:     -11.9      2.873      3.614
REMARK SMILES COc1nc(-c2ccccc2)nc(C)c1CC(=O)NCCCNC(=O)c1ccc(-c2c3nc(c(-c4c(F)cc(S(=O)(=O)[O-])cc4F)c4ccc([nH]4)c(-c4c(F)cc(S(=O)(=O)[O-])cc4F)c4nc(c(-c5c(F)cc(S(=O)(=O)[O-])cc5F)c5ccc2[nH]5)C=C4)C=C3)cc1
REMARK SMILES IDX 21 1 20 2 19 3 17 4 18 5 16 7 15 8 3 9 4 10 5 11 13 12 12 13
REMARK SMILES IDX 14 14 2 15 1 16 6 17 7 18 11 19 8 20 10 21 9 22 22 23 23 24
REMARK SMILES IDX 24 25 25 27 26 28 27 29 91 30 28 31 90 32 29 33 30 34 31 35
REMARK SMILES IDX 84 36 32 37 89 38 83 39 85 40 33 41 88 42 82 43 81 44 34 46
REMARK SMILES IDX 68 47 47 48 67 49 48 50 51 51 66 52 86 53 49 54 50 55 65 57
REMARK SMILES IDX 87 58 52 59 35 60 36 61 45 62 37 63 38 64 44 65 46 66 39 67
REMARK SMILES IDX 40 68 41 69 42 70 43 71 69 72 70 73 79 74 71 75 72 76 78 77
REMARK SMILES IDX 80 78 73 79 74 80 75 81 76 82 77 83 53 84 54 85 63 86 55 87
REMARK SMILES IDX 56 88 62 89 64 90 57 91 58 92 59 93 60 94 61 95
REMARK H PARENT 19 6 23 26 85 45 51 56
REMARK Flexibility Score: inf
ROOT
ATOM      1  C   UNL A   1      33.320  27.903  25.639  1.00  0.00     0.042 C 
ENDROOT
BRANCH   1   2
ATOM      2  C   UNL A   1      31.898  28.080  25.113  1.00  0.00     0.117 C 
BRANCH   2   3
ATOM      3  N   UNL A   1      30.910  27.347  25.883  1.00  0.00    -0.356 N 
ATOM      4  C   UNL A   1      30.433  26.079  25.733  1.00  0.00     0.224 C 
ATOM      5  O   UNL A   1      29.671  25.655  26.607  1.00  0.00    -0.275 OA
ATOM      6  H   UNL A   1      30.521  27.847  26.636  1.00  0.00     0.163 HD
BRANCH   4   7
ATOM      7  C   UNL A   1      30.875  25.188  24.581  1.00  0.00     0.143 C 
BRANCH   7   8
ATOM      8  C   UNL A   1      32.209  24.519  24.768  1.00  0.00     0.045 A 
ATOM      9  C   UNL A   1      33.303  24.901  24.000  1.00  0.00     0.220 A 
ATOM     10  N   UNL A   1      34.560  24.446  24.149  1.00  0.00    -0.193 NA
ATOM     11  C   UNL A   1      34.712  23.501  25.091  1.00  0.00     0.163 A 
ATOM     12  C   UNL A   1      32.472  23.521  25.690  1.00  0.00     0.049 A 
ATOM     13  N   UNL A   1      33.711  23.012  25.847  1.00  0.00    -0.233 NA
ATOM     14  C   UNL A   1      31.462  22.905  26.610  1.00  0.00     0.067 C 
BRANCH   9  15
ATOM     15  O   UNL A   1      33.057  25.688  22.896  1.00  0.00    -0.481 OA
ATOM     16  C   UNL A   1      32.966  24.915  21.706  1.00  0.00     0.280 C 
ENDBRANCH   9  15
BRANCH  11  17
ATOM     17  C   UNL A   1      36.043  22.943  25.358  1.00  0.00     0.019 A 
ATOM     18  C   UNL A   1      37.047  23.743  25.939  1.00  0.00     0.012 A 
ATOM     19  C   UNL A   1      36.388  21.636  24.979  1.00  0.00     0.012 A 
ATOM     20  C   UNL A   1      38.347  23.264  26.122  1.00  0.00     0.001 A 
ATOM     21  C   UNL A   1      37.694  21.159  25.145  1.00  0.00     0.001 A 
ATOM     22  C   UNL A   1      38.672  21.973  25.715  1.00  0.00     0.000 A 
ENDBRANCH  11  17
ENDBRANCH   7   8
ENDBRANCH   4   7
ENDBRANCH   2   3
ENDBRANCH   1   2
BRANCH   1  23
ATOM     23  C   UNL A   1      33.492  28.232  27.121  1.00  0.00     0.118 C 
BRANCH  23  24
ATOM     24  N   UNL A   1      33.399  29.660  27.395  1.00  0.00    -0.352 N 
ATOM     25  C   UNL A   1      34.288  30.518  27.994  1.00  0.00     0.251 C 
ATOM     26  H   UNL A   1      32.559  30.080  27.101  1.00  0.00     0.163 HD
ATOM     27  O   UNL A   1      33.906  31.645  28.301  1.00  0.00    -0.269 OA
BRANCH  25  28
ATOM     28  C   UNL A   1      35.681  30.107  28.278  1.00  0.00     0.039 A 
ATOM     29  C   UNL A   1      36.620  30.153  27.243  1.00  0.00     0.014 A 
ATOM     30  C   UNL A   1      36.058  29.627  29.535  1.00  0.00     0.014 A 
ATOM     31  C   UNL A   1      37.944  29.777  27.483  1.00  0.00     0.010 A 
ATOM     32  C   UNL A   1      37.393  29.322  29.793  1.00  0.00     0.010 A 
ATOM     33  C   UNL A   1      38.351  29.391  28.770  1.00  0.00    -0.014 A 
BRANCH  33  34
ATOM     34  C   UNL A   1      39.770  29.063  29.068  1.00  0.00     0.031 A 
ATOM     35  C   UNL A   1      40.679  30.094  29.681  1.00  0.00     0.074 A 
ATOM     36  C   UNL A   1      40.258  27.855  28.721  1.00  0.00     0.049 A 
ATOM     37  N   UNL A   1      41.957  30.015  29.948  1.00  0.00    -0.248 NA
ATOM     38  C   UNL A   1      40.077  31.396  30.011  1.00  0.00     0.031 C 
ATOM     39  C   UNL A   1      39.489  26.783  28.085  1.00  0.00     0.029 A 
ATOM     40  N   UNL A   1      41.519  27.327  28.846  1.00  0.00    -0.354 N 
ATOM     41  C   UNL A   1      42.318  31.259  30.454  1.00  0.00     0.074 A 
ATOM     42  C   UNL A   1      41.132  32.088  30.416  1.00  0.00     0.031 C 
ATOM     43  C   UNL A   1      40.285  25.718  27.904  1.00  0.00     0.029 A 
ATOM     44  C   UNL A   1      41.629  26.042  28.370  1.00  0.00     0.049 A 
ATOM     45  H   UNL A   1      42.274  27.822  29.239  1.00  0.00     0.167 HD
ATOM     46  C   UNL A   1      43.522  31.668  30.925  1.00  0.00     0.037 A 
ATOM     47  C   UNL A   1      42.694  25.218  28.312  1.00  0.00     0.037 A 
ATOM     48  C   UNL A   1      44.690  30.828  30.986  1.00  0.00     0.049 A 
ATOM     49  C   UNL A   1      44.021  25.696  28.834  1.00  0.00     0.074 A 
ATOM     50  C   UNL A   1      45.935  31.122  31.514  1.00  0.00     0.029 A 
ATOM     51  N   UNL A   1      44.761  29.530  30.498  1.00  0.00    -0.354 N 
ATOM     52  N   UNL A   1      44.328  26.852  29.374  1.00  0.00    -0.248 NA
ATOM     53  C   UNL A   1      45.148  24.757  28.741  1.00  0.00     0.031 C 
ATOM     54  C   UNL A   1      46.773  30.021  31.303  1.00  0.00     0.029 A 
ATOM     55  C   UNL A   1      46.036  29.021  30.688  1.00  0.00     0.049 A 
ATOM     56  H   UNL A   1      44.015  29.044  30.079  1.00  0.00     0.167 HD
ATOM     57  C   UNL A   1      45.673  26.768  29.714  1.00  0.00     0.074 A 
ATOM     58  C   UNL A   1      46.120  25.446  29.323  1.00  0.00     0.031 C 
ATOM     59  C   UNL A   1      46.465  27.700  30.299  1.00  0.00     0.037 A 
BRANCH  46  60
ATOM     60  C   UNL A   1      43.637  33.091  31.400  1.00  0.00     0.058 A 
ATOM     61  C   UNL A   1      44.074  34.123  30.551  1.00  0.00     0.135 A 
ATOM     62  C   UNL A   1      43.292  33.435  32.716  1.00  0.00     0.135 A 
ATOM     63  F   UNL A   1      44.428  33.852  29.285  1.00  0.00    -0.206 F 
ATOM     64  C   UNL A   1      44.205  35.432  31.003  1.00  0.00     0.059 A 
ATOM     65  C   UNL A   1      43.387  34.743  33.182  1.00  0.00     0.059 A 
ATOM     66  F   UNL A   1      42.864  32.491  33.571  1.00  0.00    -0.206 F 
ATOM     67  C   UNL A   1      43.864  35.731  32.323  1.00  0.00     0.060 A 
BRANCH  67  68
ATOM     68  S   UNL A   1      44.060  37.431  32.902  1.00  0.00     0.124 S 
ATOM     69  O   UNL A   1      43.022  37.509  33.926  1.00  0.00    -0.237 OA
ATOM     70  O   UNL A   1      45.434  37.437  33.393  1.00  0.00    -0.237 OA
ATOM     71  O   UNL A   1      43.820  38.227  31.703  1.00  0.00    -0.744 OA
ENDBRANCH  67  68
ENDBRANCH  46  60
BRANCH  47  72
ATOM     72  C   UNL A   1      42.538  23.841  27.773  1.00  0.00     0.058 A 
ATOM     73  C   UNL A   1      42.510  23.614  26.390  1.00  0.00     0.135 A 
ATOM     74  C   UNL A   1      42.438  22.726  28.621  1.00  0.00     0.135 A 
ATOM     75  F   UNL A   1      42.595  24.650  25.540  1.00  0.00    -0.206 F 
ATOM     76  C   UNL A   1      42.376  22.335  25.862  1.00  0.00     0.059 A 
ATOM     77  C   UNL A   1      42.329  21.433  28.117  1.00  0.00     0.059 A 
ATOM     78  F   UNL A   1      42.476  22.887  29.953  1.00  0.00    -0.206 F 
ATOM     79  C   UNL A   1      42.290  21.249  26.734  1.00  0.00     0.060 A 
BRANCH  79  80
ATOM     80  S   UNL A   1      42.172  19.588  26.038  1.00  0.00     0.124 S 
ATOM     81  O   UNL A   1      42.600  18.766  27.163  1.00  0.00    -0.237 OA
ATOM     82  O   UNL A   1      40.758  19.503  25.686  1.00  0.00    -0.237 OA
ATOM     83  O   UNL A   1      43.090  19.633  24.904  1.00  0.00    -0.744 OA
ENDBRANCH  79  80
ENDBRANCH  47  72
BRANCH  59  84
ATOM     84  C   UNL A   1      47.890  27.315  30.588  1.00  0.00     0.058 A 
ATOM     85  C   UNL A   1      48.245  26.608  31.747  1.00  0.00     0.135 A 
ATOM     86  C   UNL A   1      48.907  27.615  29.666  1.00  0.00     0.135 A 
ATOM     87  F   UNL A   1      47.313  26.303  32.664  1.00  0.00    -0.206 F 
ATOM     88  C   UNL A   1      49.561  26.231  31.995  1.00  0.00     0.059 A 
ATOM     89  C   UNL A   1      50.225  27.225  29.880  1.00  0.00     0.059 A 
ATOM     90  F   UNL A   1      48.621  28.282  28.537  1.00  0.00    -0.206 F 
ATOM     91  C   UNL A   1      50.544  26.543  31.053  1.00  0.00     0.060 A 
BRANCH  91  92
ATOM     92  S   UNL A   1      52.243  26.016  31.368  1.00  0.00     0.124 S 
ATOM     93  O   UNL A   1      52.037  24.686  31.932  1.00  0.00    -0.237 OA
ATOM     94  O   UNL A   1      52.835  26.054  30.035  1.00  0.00    -0.237 OA
ATOM     95  O   UNL A   1      52.744  27.022  32.299  1.00  0.00    -0.744 OA
ENDBRANCH  91  92
ENDBRANCH  59  84
ENDBRANCH  33  34
ENDBRANCH  25  28
ENDBRANCH  23  24
ENDBRANCH   1  23
TORSDOF 16
ENDMDL
