MODEL 1
REMARK VINA RESULT:     -15.0      0.000      0.000
REMARK SMILES Cc1ccccc1[C@@H]1[NH2+][C@@H](C(=O)NCCCNC(=O)c2ccc(-c3c4nc(c(-c5c(F)cc(S(=O)(=O)[O-])cc5F)c5ccc([nH]5)c(-c5c(F)cc(S(=O)(=O)[O-])cc5F)c5nc(c(-c6c(F)cc(S(=O)(=O)[O-])cc6F)c6ccc3[nH]6)C=C5)C=C4)cc2)CC2=c3ccccc3=N[C@H]21
REMARK SMILES IDX 16 1 15 2 14 3 13 4 11 5 12 6 10 8 8 9 9 10 95 11 87 14
REMARK SMILES IDX 94 15 86 16 88 17 93 18 89 19 92 20 90 21 91 22 7 23 1 24
REMARK SMILES IDX 2 25 3 26 4 27 6 28 5 29 17 30 18 31 19 33 20 34 21 35 85 36
REMARK SMILES IDX 22 37 84 38 23 39 24 40 25 41 78 42 26 43 83 44 77 45 79 46
REMARK SMILES IDX 27 47 82 48 76 49 75 50 28 52 62 53 41 54 61 55 42 56 45 57
REMARK SMILES IDX 60 58 80 59 43 60 44 61 59 63 81 64 46 65 29 66 30 67 39 68
REMARK SMILES IDX 31 69 32 70 38 71 40 72 33 73 34 74 35 75 36 76 37 77 63 78
REMARK SMILES IDX 64 79 73 80 65 81 66 82 72 83 74 84 67 85 68 86 69 87 70 88
REMARK SMILES IDX 71 89 47 90 48 91 57 92 49 93 50 94 56 95 58 96 51 97 52 98
REMARK SMILES IDX 53 99 54 100 55 101
REMARK H PARENT 13 7 9 12 9 13 17 32 79 51 45 62
REMARK Flexibility Score: inf
ROOT
ATOM      1  C   UNL A   1      35.135  31.005  28.490  1.00  0.00     0.118 C 
ENDROOT
BRANCH   1   2
ATOM      2  C   UNL A   1      34.003  31.790  27.868  1.00  0.00     0.042 C 
BRANCH   2   3
ATOM      3  C   UNL A   1      32.956  30.883  27.244  1.00  0.00     0.118 C 
BRANCH   3   4
ATOM      4  N   UNL A   1      33.319  29.475  27.211  1.00  0.00    -0.351 N 
ATOM      5  C   UNL A   1      33.659  28.638  26.189  1.00  0.00     0.278 C 
ATOM      6  O   UNL A   1      34.375  27.678  26.516  1.00  0.00    -0.268 OA
ATOM      7  H   UNL A   1      33.321  29.044  28.096  1.00  0.00     0.163 HD
BRANCH   5   8
ATOM      8  C   UNL A   1      33.102  28.731  24.721  1.00  0.00     0.277 C 
ATOM      9  C   UNL A   1      31.011  27.641  23.653  1.00  0.00     0.243 C 
ATOM     10  N   UNL A   1      31.625  28.453  24.737  1.00  0.00    -0.327 N 
ATOM     11  C   UNL A   1      31.912  26.967  22.569  1.00  0.00     0.196 C 
ATOM     12  H   UNL A   1      31.425  27.974  25.615  1.00  0.00     0.347 HD
ATOM     13  H   UNL A   1      31.211  29.376  24.603  1.00  0.00     0.347 HD
ATOM     14  C   UNL A   1      33.257  26.795  23.160  1.00  0.00    -0.024 C 
ATOM     15  N   UNL A   1      31.475  25.577  22.228  1.00  0.00    -0.270 NA
ATOM     16  C   UNL A   1      33.891  28.042  23.609  1.00  0.00     0.109 C 
ATOM     17  C   UNL A   1      33.604  25.524  23.280  1.00  0.00     0.002 A 
ATOM     18  C   UNL A   1      32.471  24.849  22.636  1.00  0.00     0.066 A 
ATOM     19  C   UNL A   1      34.672  24.810  23.891  1.00  0.00     0.010 A 
ATOM     20  C   UNL A   1      32.582  23.380  22.519  1.00  0.00     0.028 A 
ATOM     21  C   UNL A   1      34.661  23.471  23.829  1.00  0.00     0.001 A 
ATOM     22  C   UNL A   1      33.627  22.760  23.095  1.00  0.00     0.002 A 
BRANCH   9  23
ATOM     23  C   UNL A   1      29.838  28.362  22.979  1.00  0.00     0.015 A 
ATOM     24  C   UNL A   1      27.983  26.806  23.877  1.00  0.00     0.045 C 
ATOM     25  C   UNL A   1      28.473  28.045  23.179  1.00  0.00    -0.042 A 
ATOM     26  C   UNL A   1      27.490  28.963  22.762  1.00  0.00     0.004 A 
ATOM     27  C   UNL A   1      27.832  30.130  22.081  1.00  0.00     0.000 A 
ATOM     28  C   UNL A   1      30.151  29.503  22.209  1.00  0.00     0.010 A 
ATOM     29  C   UNL A   1      29.160  30.379  21.769  1.00  0.00     0.001 A 
ENDBRANCH   9  23
ENDBRANCH   5   8
ENDBRANCH   3   4
ENDBRANCH   2   3
ENDBRANCH   1   2
BRANCH   1  30
ATOM     30  N   UNL A   1      36.409  31.494  27.990  1.00  0.00    -0.352 N 
ATOM     31  C   UNL A   1      37.639  31.084  28.505  1.00  0.00     0.251 C 
ATOM     32  H   UNL A   1      36.404  32.145  27.252  1.00  0.00     0.163 HD
ATOM     33  O   UNL A   1      38.377  31.818  29.124  1.00  0.00    -0.269 OA
BRANCH  31  34
ATOM     34  C   UNL A   1      38.004  29.684  28.158  1.00  0.00     0.039 A 
ATOM     35  C   UNL A   1      37.795  28.763  29.193  1.00  0.00     0.014 A 
ATOM     36  C   UNL A   1      39.091  29.568  27.305  1.00  0.00     0.014 A 
ATOM     37  C   UNL A   1      38.846  27.977  29.618  1.00  0.00     0.010 A 
ATOM     38  C   UNL A   1      40.186  28.918  27.807  1.00  0.00     0.010 A 
ATOM     39  C   UNL A   1      40.062  28.186  28.996  1.00  0.00    -0.014 A 
BRANCH  39  40
ATOM     40  C   UNL A   1      41.292  27.571  29.421  1.00  0.00     0.031 A 
ATOM     41  C   UNL A   1      41.428  26.166  29.037  1.00  0.00     0.074 A 
ATOM     42  C   UNL A   1      42.251  28.403  29.873  1.00  0.00     0.049 A 
ATOM     43  N   UNL A   1      42.314  25.363  29.485  1.00  0.00    -0.248 NA
ATOM     44  C   UNL A   1      40.493  25.524  28.107  1.00  0.00     0.031 C 
ATOM     45  C   UNL A   1      43.687  28.208  30.013  1.00  0.00     0.029 A 
ATOM     46  N   UNL A   1      42.005  29.599  30.568  1.00  0.00    -0.354 N 
ATOM     47  C   UNL A   1      42.332  24.288  28.619  1.00  0.00     0.074 A 
ATOM     48  C   UNL A   1      41.083  24.347  27.911  1.00  0.00     0.031 C 
ATOM     49  C   UNL A   1      44.131  29.021  30.994  1.00  0.00     0.029 A 
ATOM     50  C   UNL A   1      42.948  29.602  31.616  1.00  0.00     0.049 A 
ATOM     51  H   UNL A   1      41.325  30.282  30.367  1.00  0.00     0.167 HD
ATOM     52  C   UNL A   1      43.514  23.627  28.466  1.00  0.00     0.037 A 
ATOM     53  C   UNL A   1      42.505  29.308  32.879  1.00  0.00     0.037 A 
ATOM     54  C   UNL A   1      44.491  24.168  29.420  1.00  0.00     0.049 A 
ATOM     55  C   UNL A   1      43.086  28.005  33.426  1.00  0.00     0.074 A 
ATOM     56  C   UNL A   1      45.534  25.077  29.340  1.00  0.00     0.029 A 
ATOM     57  N   UNL A   1      44.182  24.083  30.763  1.00  0.00    -0.354 N 
ATOM     58  N   UNL A   1      43.652  27.080  32.694  1.00  0.00    -0.248 NA
ATOM     59  C   UNL A   1      43.063  27.639  34.839  1.00  0.00     0.031 C 
ATOM     60  C   UNL A   1      45.825  25.538  30.665  1.00  0.00     0.029 A 
ATOM     61  C   UNL A   1      44.960  24.909  31.541  1.00  0.00     0.049 A 
ATOM     62  H   UNL A   1      43.480  23.495  31.124  1.00  0.00     0.167 HD
ATOM     63  C   UNL A   1      44.061  26.030  33.480  1.00  0.00     0.074 A 
ATOM     64  C   UNL A   1      43.634  26.420  34.815  1.00  0.00     0.031 C 
ATOM     65  C   UNL A   1      44.698  24.924  32.975  1.00  0.00     0.037 A 
BRANCH  52  66
ATOM     66  C   UNL A   1      43.865  22.714  27.311  1.00  0.00     0.058 A 
ATOM     67  C   UNL A   1      43.119  21.533  27.108  1.00  0.00     0.135 A 
ATOM     68  C   UNL A   1      44.919  22.899  26.390  1.00  0.00     0.135 A 
ATOM     69  F   UNL A   1      42.046  21.244  27.857  1.00  0.00    -0.206 F 
ATOM     70  C   UNL A   1      43.431  20.590  26.128  1.00  0.00     0.059 A 
ATOM     71  C   UNL A   1      45.277  21.951  25.426  1.00  0.00     0.059 A 
ATOM     72  F   UNL A   1      45.625  24.032  26.331  1.00  0.00    -0.206 F 
ATOM     73  C   UNL A   1      44.525  20.797  25.302  1.00  0.00     0.060 A 
BRANCH  73  74
ATOM     74  S   UNL A   1      44.907  19.568  24.045  1.00  0.00     0.124 S 
ATOM     75  O   UNL A   1      46.340  19.374  24.233  1.00  0.00    -0.237 OA
ATOM     76  O   UNL A   1      44.056  18.452  24.444  1.00  0.00    -0.237 OA
ATOM     77  O   UNL A   1      44.528  20.226  22.797  1.00  0.00    -0.744 OA
ENDBRANCH  73  74
ENDBRANCH  52  66
BRANCH  53  78
ATOM     78  C   UNL A   1      41.121  29.847  33.143  1.00  0.00     0.058 A 
ATOM     79  C   UNL A   1      40.963  31.240  33.348  1.00  0.00     0.135 A 
ATOM     80  C   UNL A   1      39.950  29.124  32.883  1.00  0.00     0.135 A 
ATOM     81  F   UNL A   1      42.037  32.007  33.610  1.00  0.00    -0.206 F 
ATOM     82  C   UNL A   1      39.741  31.894  33.194  1.00  0.00     0.059 A 
ATOM     83  C   UNL A   1      38.702  29.758  32.752  1.00  0.00     0.059 A 
ATOM     84  F   UNL A   1      40.006  27.802  32.672  1.00  0.00    -0.206 F 
ATOM     85  C   UNL A   1      38.613  31.148  32.875  1.00  0.00     0.060 A 
BRANCH  85  86
ATOM     86  S   UNL A   1      37.016  31.983  32.654  1.00  0.00     0.124 S 
ATOM     87  O   UNL A   1      36.236  31.010  31.891  1.00  0.00    -0.237 OA
ATOM     88  O   UNL A   1      36.572  32.189  34.022  1.00  0.00    -0.237 OA
ATOM     89  O   UNL A   1      37.400  33.187  31.928  1.00  0.00    -0.744 OA
ENDBRANCH  85  86
ENDBRANCH  53  78
BRANCH  65  90
ATOM     90  C   UNL A   1      45.076  23.694  33.780  1.00  0.00     0.058 A 
ATOM     91  C   UNL A   1      44.142  22.757  34.244  1.00  0.00     0.135 A 
ATOM     92  C   UNL A   1      46.417  23.454  34.185  1.00  0.00     0.135 A 
ATOM     93  F   UNL A   1      42.826  22.946  34.064  1.00  0.00    -0.206 F 
ATOM     94  C   UNL A   1      44.526  21.606  34.940  1.00  0.00     0.059 A 
ATOM     95  C   UNL A   1      46.812  22.350  34.925  1.00  0.00     0.059 A 
ATOM     96  F   UNL A   1      47.431  24.262  33.858  1.00  0.00    -0.206 F 
ATOM     97  C   UNL A   1      45.867  21.405  35.262  1.00  0.00     0.060 A 
BRANCH  97  98
ATOM     98  S   UNL A   1      46.374  19.917  36.135  1.00  0.00     0.124 S 
ATOM     99  O   UNL A   1      45.924  18.862  35.233  1.00  0.00    -0.237 OA
ATOM    100  O   UNL A   1      47.817  20.109  36.220  1.00  0.00    -0.237 OA
ATOM    101  O   UNL A   1      45.654  19.999  37.402  1.00  0.00    -0.744 OA
ENDBRANCH  97  98
ENDBRANCH  65  90
ENDBRANCH  39  40
ENDBRANCH  31  34
ENDBRANCH   1  30
TORSDOF 14
ENDMDL
MODEL 2
REMARK VINA RESULT:     -14.5      4.868     11.624
REMARK SMILES Cc1ccccc1[C@@H]1[NH2+][C@@H](C(=O)NCCCNC(=O)c2ccc(-c3c4nc(c(-c5c(F)cc(S(=O)(=O)[O-])cc5F)c5ccc([nH]5)c(-c5c(F)cc(S(=O)(=O)[O-])cc5F)c5nc(c(-c6c(F)cc(S(=O)(=O)[O-])cc6F)c6ccc3[nH]6)C=C5)C=C4)cc2)CC2=c3ccccc3=N[C@H]21
REMARK SMILES IDX 16 1 15 2 14 3 13 4 11 5 12 6 10 8 8 9 9 10 95 11 87 14
REMARK SMILES IDX 94 15 86 16 88 17 93 18 89 19 92 20 90 21 91 22 7 23 1 24
REMARK SMILES IDX 2 25 3 26 4 27 6 28 5 29 17 30 18 31 19 33 20 34 21 35 85 36
REMARK SMILES IDX 22 37 84 38 23 39 24 40 25 41 78 42 26 43 83 44 77 45 79 46
REMARK SMILES IDX 27 47 82 48 76 49 75 50 28 52 62 53 41 54 61 55 42 56 45 57
REMARK SMILES IDX 60 58 80 59 43 60 44 61 59 63 81 64 46 65 29 66 30 67 39 68
REMARK SMILES IDX 31 69 32 70 38 71 40 72 33 73 34 74 35 75 36 76 37 77 63 78
REMARK SMILES IDX 64 79 73 80 65 81 66 82 72 83 74 84 67 85 68 86 69 87 70 88
REMARK SMILES IDX 71 89 47 90 48 91 57 92 49 93 50 94 56 95 58 96 51 97 52 98
REMARK SMILES IDX 53 99 54 100 55 101
REMARK H PARENT 13 7 9 12 9 13 17 32 79 51 45 62
REMARK Flexibility Score: inf
ROOT
ATOM      1  C   UNL A   1      39.948  23.207  26.464  1.00  0.00     0.118 C 
ENDROOT
BRANCH   1   2
ATOM      2  C   UNL A   1      39.542  21.763  26.274  1.00  0.00     0.042 C 
BRANCH   2   3
ATOM      3  C   UNL A   1      38.289  21.630  25.427  1.00  0.00     0.118 C 
BRANCH   3   4
ATOM      4  N   UNL A   1      37.572  22.877  25.210  1.00  0.00    -0.351 N 
ATOM      5  C   UNL A   1      36.393  23.356  25.700  1.00  0.00     0.278 C 
ATOM      6  O   UNL A   1      36.303  24.594  25.729  1.00  0.00    -0.268 OA
ATOM      7  H   UNL A   1      38.026  23.494  24.590  1.00  0.00     0.163 HD
BRANCH   5   8
ATOM      8  C   UNL A   1      35.145  22.475  26.073  1.00  0.00     0.277 C 
ATOM      9  C   UNL A   1      33.144  21.708  24.621  1.00  0.00     0.243 C 
ATOM     10  N   UNL A   1      34.612  21.824  24.828  1.00  0.00    -0.327 N 
ATOM     11  C   UNL A   1      32.152  22.373  25.629  1.00  0.00     0.196 C 
ATOM     12  H   UNL A   1      34.981  22.353  24.038  1.00  0.00     0.347 HD
ATOM     13  H   UNL A   1      34.913  20.854  24.922  1.00  0.00     0.347 HD
ATOM     14  C   UNL A   1      32.876  23.482  26.289  1.00  0.00    -0.024 C 
ATOM     15  N   UNL A   1      30.991  23.036  24.955  1.00  0.00    -0.270 NA
ATOM     16  C   UNL A   1      34.093  23.077  27.004  1.00  0.00     0.109 C 
ATOM     17  C   UNL A   1      32.350  24.666  26.021  1.00  0.00     0.002 A 
ATOM     18  C   UNL A   1      31.168  24.292  25.237  1.00  0.00     0.066 A 
ATOM     19  C   UNL A   1      32.713  26.021  26.257  1.00  0.00     0.010 A 
ATOM     20  C   UNL A   1      30.283  25.406  24.838  1.00  0.00     0.028 A 
ATOM     21  C   UNL A   1      31.912  26.987  25.784  1.00  0.00     0.001 A 
ATOM     22  C   UNL A   1      30.665  26.667  25.109  1.00  0.00     0.002 A 
BRANCH   9  23
ATOM     23  C   UNL A   1      32.708  20.265  24.340  1.00  0.00     0.015 A 
ATOM     24  C   UNL A   1      31.934  20.661  21.909  1.00  0.00     0.045 C 
ATOM     25  C   UNL A   1      32.272  19.784  23.082  1.00  0.00    -0.042 A 
ATOM     26  C   UNL A   1      32.202  18.393  22.870  1.00  0.00     0.004 A 
ATOM     27  C   UNL A   1      32.467  17.490  23.897  1.00  0.00     0.000 A 
ATOM     28  C   UNL A   1      32.883  19.333  25.386  1.00  0.00     0.010 A 
ATOM     29  C   UNL A   1      32.767  17.962  25.166  1.00  0.00     0.001 A 
ENDBRANCH   9  23
ENDBRANCH   5   8
ENDBRANCH   3   4
ENDBRANCH   2   3
ENDBRANCH   1   2
BRANCH   1  30
ATOM     30  N   UNL A   1      40.224  23.462  27.868  1.00  0.00    -0.352 N 
ATOM     31  C   UNL A   1      40.741  24.669  28.337  1.00  0.00     0.251 C 
ATOM     32  H   UNL A   1      40.037  22.748  28.520  1.00  0.00     0.163 HD
ATOM     33  O   UNL A   1      41.853  24.778  28.803  1.00  0.00    -0.269 OA
BRANCH  31  34
ATOM     34  C   UNL A   1      39.775  25.800  28.289  1.00  0.00     0.039 A 
ATOM     35  C   UNL A   1      40.003  26.706  27.244  1.00  0.00     0.014 A 
ATOM     36  C   UNL A   1      39.338  26.236  29.530  1.00  0.00     0.014 A 
ATOM     37  C   UNL A   1      40.171  28.043  27.535  1.00  0.00     0.010 A 
ATOM     38  C   UNL A   1      39.654  27.525  29.864  1.00  0.00     0.010 A 
ATOM     39  C   UNL A   1      40.132  28.392  28.872  1.00  0.00    -0.014 A 
BRANCH  39  40
ATOM     40  C   UNL A   1      40.444  29.708  29.364  1.00  0.00     0.031 A 
ATOM     41  C   UNL A   1      39.377  30.690  29.179  1.00  0.00     0.074 A 
ATOM     42  C   UNL A   1      41.539  29.809  30.144  1.00  0.00     0.049 A 
ATOM     43  N   UNL A   1      39.503  31.952  29.329  1.00  0.00    -0.248 NA
ATOM     44  C   UNL A   1      38.032  30.299  28.742  1.00  0.00     0.031 C 
ATOM     45  C   UNL A   1      41.932  30.839  31.095  1.00  0.00     0.029 A 
ATOM     46  N   UNL A   1      42.694  29.024  30.002  1.00  0.00    -0.354 N 
ATOM     47  C   UNL A   1      38.222  32.457  29.432  1.00  0.00     0.074 A 
ATOM     48  C   UNL A   1      37.366  31.442  28.882  1.00  0.00     0.031 C 
ATOM     49  C   UNL A   1      43.278  30.835  31.190  1.00  0.00     0.029 A 
ATOM     50  C   UNL A   1      43.763  29.931  30.156  1.00  0.00     0.049 A 
ATOM     51  H   UNL A   1      42.745  28.055  29.833  1.00  0.00     0.167 HD
ATOM     52  C   UNL A   1      38.052  33.581  30.183  1.00  0.00     0.037 A 
ATOM     53  C   UNL A   1      44.439  30.321  29.031  1.00  0.00     0.037 A 
ATOM     54  C   UNL A   1      39.368  34.080  30.603  1.00  0.00     0.049 A 
ATOM     55  C   UNL A   1      44.269  31.807  28.718  1.00  0.00     0.074 A 
ATOM     56  C   UNL A   1      40.120  33.991  31.764  1.00  0.00     0.029 A 
ATOM     57  N   UNL A   1      40.264  34.422  29.610  1.00  0.00    -0.354 N 
ATOM     58  N   UNL A   1      43.330  32.568  29.219  1.00  0.00    -0.248 NA
ATOM     59  C   UNL A   1      45.136  32.547  27.806  1.00  0.00     0.031 C 
ATOM     60  C   UNL A   1      41.485  34.276  31.431  1.00  0.00     0.029 A 
ATOM     61  C   UNL A   1      41.555  34.534  30.075  1.00  0.00     0.049 A 
ATOM     62  H   UNL A   1      40.007  34.569  28.672  1.00  0.00     0.167 HD
ATOM     63  C   UNL A   1      43.441  33.848  28.735  1.00  0.00     0.074 A 
ATOM     64  C   UNL A   1      44.573  33.770  27.824  1.00  0.00     0.031 C 
ATOM     65  C   UNL A   1      42.592  34.861  29.103  1.00  0.00     0.037 A 
BRANCH  52  66
ATOM     66  C   UNL A   1      36.735  34.062  30.754  1.00  0.00     0.058 A 
ATOM     67  C   UNL A   1      35.676  34.387  29.878  1.00  0.00     0.135 A 
ATOM     68  C   UNL A   1      36.440  34.264  32.120  1.00  0.00     0.135 A 
ATOM     69  F   UNL A   1      35.774  34.192  28.556  1.00  0.00    -0.206 F 
ATOM     70  C   UNL A   1      34.464  34.926  30.311  1.00  0.00     0.059 A 
ATOM     71  C   UNL A   1      35.249  34.839  32.576  1.00  0.00     0.059 A 
ATOM     72  F   UNL A   1      37.260  33.862  33.095  1.00  0.00    -0.206 F 
ATOM     73  C   UNL A   1      34.264  35.167  31.662  1.00  0.00     0.060 A 
BRANCH  73  74
ATOM     74  S   UNL A   1      32.692  35.860  32.196  1.00  0.00     0.124 S 
ATOM     75  O   UNL A   1      31.989  34.679  32.684  1.00  0.00    -0.237 OA
ATOM     76  O   UNL A   1      33.114  36.816  33.215  1.00  0.00    -0.237 OA
ATOM     77  O   UNL A   1      32.146  36.448  30.976  1.00  0.00    -0.744 OA
ENDBRANCH  73  74
ENDBRANCH  52  66
BRANCH  53  78
ATOM     78  C   UNL A   1      44.570  29.207  28.022  1.00  0.00     0.058 A 
ATOM     79  C   UNL A   1      45.410  28.108  28.329  1.00  0.00     0.135 A 
ATOM     80  C   UNL A   1      43.679  29.025  26.956  1.00  0.00     0.135 A 
ATOM     81  F   UNL A   1      46.299  28.201  29.334  1.00  0.00    -0.206 F 
ATOM     82  C   UNL A   1      45.299  26.871  27.696  1.00  0.00     0.059 A 
ATOM     83  C   UNL A   1      43.570  27.795  26.283  1.00  0.00     0.059 A 
ATOM     84  F   UNL A   1      42.843  30.010  26.599  1.00  0.00    -0.206 F 
ATOM     85  C   UNL A   1      44.359  26.713  26.683  1.00  0.00     0.060 A 
BRANCH  85  86
ATOM     86  S   UNL A   1      44.189  25.105  25.858  1.00  0.00     0.124 S 
ATOM     87  O   UNL A   1      42.790  25.096  25.434  1.00  0.00    -0.237 OA
ATOM     88  O   UNL A   1      45.157  25.196  24.778  1.00  0.00    -0.237 OA
ATOM     89  O   UNL A   1      44.526  24.176  26.930  1.00  0.00    -0.744 OA
ENDBRANCH  85  86
ENDBRANCH  53  78
BRANCH  65  90
ATOM     90  C   UNL A   1      42.605  36.263  28.522  1.00  0.00     0.058 A 
ATOM     91  C   UNL A   1      42.179  36.565  27.221  1.00  0.00     0.135 A 
ATOM     92  C   UNL A   1      43.131  37.365  29.249  1.00  0.00     0.135 A 
ATOM     93  F   UNL A   1      41.803  35.593  26.376  1.00  0.00    -0.206 F 
ATOM     94  C   UNL A   1      42.155  37.874  26.730  1.00  0.00     0.059 A 
ATOM     95  C   UNL A   1      43.171  38.662  28.761  1.00  0.00     0.059 A 
ATOM     96  F   UNL A   1      43.610  37.254  30.493  1.00  0.00    -0.206 F 
ATOM     97  C   UNL A   1      42.639  38.918  27.515  1.00  0.00     0.060 A 
BRANCH  97  98
ATOM     98  S   UNL A   1      42.590  40.608  26.903  1.00  0.00     0.124 S 
ATOM     99  O   UNL A   1      41.156  40.852  26.786  1.00  0.00    -0.237 OA
ATOM    100  O   UNL A   1      43.272  41.324  27.975  1.00  0.00    -0.237 OA
ATOM    101  O   UNL A   1      43.313  40.537  25.638  1.00  0.00    -0.744 OA
ENDBRANCH  97  98
ENDBRANCH  65  90
ENDBRANCH  39  40
ENDBRANCH  31  34
ENDBRANCH   1  30
TORSDOF 14
ENDMDL
MODEL 3
REMARK VINA RESULT:     -13.2      4.122     10.727
REMARK SMILES Cc1ccccc1[C@@H]1[NH2+][C@@H](C(=O)NCCCNC(=O)c2ccc(-c3c4nc(c(-c5c(F)cc(S(=O)(=O)[O-])cc5F)c5ccc([nH]5)c(-c5c(F)cc(S(=O)(=O)[O-])cc5F)c5nc(c(-c6c(F)cc(S(=O)(=O)[O-])cc6F)c6ccc3[nH]6)C=C5)C=C4)cc2)CC2=c3ccccc3=N[C@H]21
REMARK SMILES IDX 16 1 15 2 14 3 13 4 11 5 12 6 10 8 8 9 9 10 95 11 87 14
REMARK SMILES IDX 94 15 86 16 88 17 93 18 89 19 92 20 90 21 91 22 7 23 1 24
REMARK SMILES IDX 2 25 3 26 4 27 6 28 5 29 17 30 18 31 19 33 20 34 21 35 85 36
REMARK SMILES IDX 22 37 84 38 23 39 24 40 25 41 78 42 26 43 83 44 77 45 79 46
REMARK SMILES IDX 27 47 82 48 76 49 75 50 28 52 62 53 41 54 61 55 42 56 45 57
REMARK SMILES IDX 60 58 80 59 43 60 44 61 59 63 81 64 46 65 29 66 30 67 39 68
REMARK SMILES IDX 31 69 32 70 38 71 40 72 33 73 34 74 35 75 36 76 37 77 63 78
REMARK SMILES IDX 64 79 73 80 65 81 66 82 72 83 74 84 67 85 68 86 69 87 70 88
REMARK SMILES IDX 71 89 47 90 48 91 57 92 49 93 50 94 56 95 58 96 51 97 52 98
REMARK SMILES IDX 53 99 54 100 55 101
REMARK H PARENT 13 7 9 12 9 13 17 32 79 51 45 62
REMARK Flexibility Score: inf
ROOT
ATOM      1  C   UNL A   1      39.360  21.284  25.489  1.00  0.00     0.118 C 
ENDROOT
BRANCH   1   2
ATOM      2  C   UNL A   1      37.860  21.293  25.302  1.00  0.00     0.042 C 
BRANCH   2   3
ATOM      3  C   UNL A   1      37.421  22.310  24.264  1.00  0.00     0.118 C 
BRANCH   3   4
ATOM      4  N   UNL A   1      36.886  23.545  24.816  1.00  0.00    -0.351 N 
ATOM      5  C   UNL A   1      35.931  23.791  25.758  1.00  0.00     0.278 C 
ATOM      6  O   UNL A   1      36.051  24.874  26.354  1.00  0.00    -0.268 OA
ATOM      7  H   UNL A   1      37.292  24.359  24.439  1.00  0.00     0.163 HD
BRANCH   5   8
ATOM      8  C   UNL A   1      34.663  22.896  26.017  1.00  0.00     0.277 C 
ATOM      9  C   UNL A   1      32.908  21.963  24.359  1.00  0.00     0.243 C 
ATOM     10  N   UNL A   1      34.329  22.143  24.761  1.00  0.00    -0.327 N 
ATOM     11  C   UNL A   1      31.768  22.662  25.167  1.00  0.00     0.196 C 
ATOM     12  H   UNL A   1      34.793  22.628  23.993  1.00  0.00     0.347 HD
ATOM     13  H   UNL A   1      34.637  21.192  24.967  1.00  0.00     0.347 HD
ATOM     14  C   UNL A   1      32.363  23.838  25.839  1.00  0.00    -0.024 C 
ATOM     15  N   UNL A   1      30.699  23.236  24.290  1.00  0.00    -0.270 NA
ATOM     16  C   UNL A   1      33.476  23.525  26.744  1.00  0.00     0.109 C 
ATOM     17  C   UNL A   1      31.853  24.982  25.413  1.00  0.00     0.002 A 
ATOM     18  C   UNL A   1      30.803  24.514  24.501  1.00  0.00     0.066 A 
ATOM     19  C   UNL A   1      32.146  26.362  25.598  1.00  0.00     0.010 A 
ATOM     20  C   UNL A   1      29.958  25.567  23.902  1.00  0.00     0.028 A 
ATOM     21  C   UNL A   1      31.397  27.265  24.947  1.00  0.00     0.001 A 
ATOM     22  C   UNL A   1      30.266  26.856  24.131  1.00  0.00     0.002 A 
BRANCH   9  23
ATOM     23  C   UNL A   1      32.551  20.489  24.126  1.00  0.00     0.015 A 
ATOM     24  C   UNL A   1      31.829  20.749  21.661  1.00  0.00     0.045 C 
ATOM     25  C   UNL A   1      32.176  19.938  22.878  1.00  0.00    -0.042 A 
ATOM     26  C   UNL A   1      32.180  18.538  22.722  1.00  0.00     0.004 A 
ATOM     27  C   UNL A   1      32.460  17.691  23.792  1.00  0.00     0.000 A 
ATOM     28  C   UNL A   1      32.742  19.610  25.214  1.00  0.00     0.010 A 
ATOM     29  C   UNL A   1      32.699  18.227  25.048  1.00  0.00     0.001 A 
ENDBRANCH   9  23
ENDBRANCH   5   8
ENDBRANCH   3   4
ENDBRANCH   2   3
ENDBRANCH   1   2
BRANCH   1  30
ATOM     30  N   UNL A   1      39.687  21.573  26.876  1.00  0.00    -0.352 N 
ATOM     31  C   UNL A   1      40.491  22.646  27.262  1.00  0.00     0.251 C 
ATOM     32  H   UNL A   1      39.324  20.984  27.576  1.00  0.00     0.163 HD
ATOM     33  O   UNL A   1      41.593  22.509  27.744  1.00  0.00    -0.269 OA
BRANCH  31  34
ATOM     34  C   UNL A   1      39.841  23.975  27.105  1.00  0.00     0.039 A 
ATOM     35  C   UNL A   1      40.518  24.847  26.241  1.00  0.00     0.014 A 
ATOM     36  C   UNL A   1      39.213  24.447  28.248  1.00  0.00     0.014 A 
ATOM     37  C   UNL A   1      40.897  26.091  26.698  1.00  0.00     0.010 A 
ATOM     38  C   UNL A   1      39.710  25.607  28.776  1.00  0.00     0.010 A 
ATOM     39  C   UNL A   1      40.601  26.379  28.018  1.00  0.00    -0.014 A 
BRANCH  39  40
ATOM     40  C   UNL A   1      41.062  27.558  28.700  1.00  0.00     0.031 A 
ATOM     41  C   UNL A   1      40.150  28.699  28.616  1.00  0.00     0.074 A 
ATOM     42  C   UNL A   1      42.114  27.397  29.528  1.00  0.00     0.049 A 
ATOM     43  N   UNL A   1      40.439  29.898  28.947  1.00  0.00    -0.248 NA
ATOM     44  C   UNL A   1      38.792  28.566  28.080  1.00  0.00     0.031 C 
ATOM     45  C   UNL A   1      42.590  28.224  30.628  1.00  0.00     0.029 A 
ATOM     46  N   UNL A   1      43.158  26.481  29.319  1.00  0.00    -0.354 N 
ATOM     47  C   UNL A   1      39.235  30.563  29.073  1.00  0.00     0.074 A 
ATOM     48  C   UNL A   1      38.280  29.763  28.354  1.00  0.00     0.031 C 
ATOM     49  C   UNL A   1      43.915  28.015  30.771  1.00  0.00     0.029 A 
ATOM     50  C   UNL A   1      44.330  27.197  29.639  1.00  0.00     0.049 A 
ATOM     51  H   UNL A   1      43.086  25.546  29.018  1.00  0.00     0.167 HD
ATOM     52  C   UNL A   1      39.177  31.589  29.967  1.00  0.00     0.037 A 
ATOM     53  C   UNL A   1      45.116  27.634  28.605  1.00  0.00     0.037 A 
ATOM     54  C   UNL A   1      40.523  31.833  30.502  1.00  0.00     0.049 A 
ATOM     55  C   UNL A   1      45.167  29.157  28.498  1.00  0.00     0.074 A 
ATOM     56  C   UNL A   1      41.190  31.484  31.665  1.00  0.00     0.029 A 
ATOM     57  N   UNL A   1      41.512  32.174  29.601  1.00  0.00    -0.354 N 
ATOM     58  N   UNL A   1      44.314  29.970  29.066  1.00  0.00    -0.248 NA
ATOM     59  C   UNL A   1      46.177  29.881  27.732  1.00  0.00     0.031 C 
ATOM     60  C   UNL A   1      42.597  31.612  31.427  1.00  0.00     0.029 A 
ATOM     61  C   UNL A   1      42.778  32.038  30.124  1.00  0.00     0.049 A 
ATOM     62  H   UNL A   1      41.331  32.481  28.683  1.00  0.00     0.167 HD
ATOM     63  C   UNL A   1      44.626  31.275  28.772  1.00  0.00     0.074 A 
ATOM     64  C   UNL A   1      45.786  31.159  27.901  1.00  0.00     0.031 C 
ATOM     65  C   UNL A   1      43.903  32.340  29.247  1.00  0.00     0.037 A 
BRANCH  52  66
ATOM     66  C   UNL A   1      37.908  32.172  30.551  1.00  0.00     0.058 A 
ATOM     67  C   UNL A   1      37.140  33.072  29.781  1.00  0.00     0.135 A 
ATOM     68  C   UNL A   1      37.397  31.935  31.846  1.00  0.00     0.135 A 
ATOM     69  F   UNL A   1      37.454  33.353  28.509  1.00  0.00    -0.206 F 
ATOM     70  C   UNL A   1      36.011  33.728  30.272  1.00  0.00     0.059 A 
ATOM     71  C   UNL A   1      36.292  32.609  32.375  1.00  0.00     0.059 A 
ATOM     72  F   UNL A   1      37.902  30.996  32.651  1.00  0.00    -0.206 F 
ATOM     73  C   UNL A   1      35.603  33.505  31.579  1.00  0.00     0.060 A 
BRANCH  73  74
ATOM     74  S   UNL A   1      34.143  34.361  32.190  1.00  0.00     0.124 S 
ATOM     75  O   UNL A   1      33.547  33.359  33.067  1.00  0.00    -0.237 OA
ATOM     76  O   UNL A   1      34.728  35.522  32.853  1.00  0.00    -0.237 OA
ATOM     77  O   UNL A   1      33.385  34.652  30.976  1.00  0.00    -0.744 OA
ENDBRANCH  73  74
ENDBRANCH  52  66
BRANCH  53  78
ATOM     78  C   UNL A   1      45.150  26.658  27.455  1.00  0.00     0.058 A 
ATOM     79  C   UNL A   1      45.880  25.454  27.609  1.00  0.00     0.135 A 
ATOM     80  C   UNL A   1      44.255  26.706  26.378  1.00  0.00     0.135 A 
ATOM     81  F   UNL A   1      46.765  25.327  28.614  1.00  0.00    -0.206 F 
ATOM     82  C   UNL A   1      45.658  24.328  26.815  1.00  0.00     0.059 A 
ATOM     83  C   UNL A   1      44.037  25.594  25.546  1.00  0.00     0.059 A 
ATOM     84  F   UNL A   1      43.519  27.805  26.159  1.00  0.00    -0.206 F 
ATOM     85  C   UNL A   1      44.717  24.397  25.794  1.00  0.00     0.060 A 
BRANCH  85  86
ATOM     86  S   UNL A   1      44.403  22.938  24.761  1.00  0.00     0.124 S 
ATOM     87  O   UNL A   1      44.660  21.825  25.673  1.00  0.00    -0.237 OA
ATOM     88  O   UNL A   1      43.011  23.111  24.380  1.00  0.00    -0.237 OA
ATOM     89  O   UNL A   1      45.376  23.109  23.689  1.00  0.00    -0.744 OA
ENDBRANCH  85  86
ENDBRANCH  53  78
BRANCH  65  90
ATOM     90  C   UNL A   1      44.140  33.791  28.869  1.00  0.00     0.058 A 
ATOM     91  C   UNL A   1      44.460  34.790  29.800  1.00  0.00     0.135 A 
ATOM     92  C   UNL A   1      43.974  34.249  27.534  1.00  0.00     0.135 A 
ATOM     93  F   UNL A   1      44.496  34.523  31.114  1.00  0.00    -0.206 F 
ATOM     94  C   UNL A   1      44.723  36.109  29.415  1.00  0.00     0.059 A 
ATOM     95  C   UNL A   1      44.172  35.563  27.140  1.00  0.00     0.059 A 
ATOM     96  F   UNL A   1      43.639  33.439  26.524  1.00  0.00    -0.206 F 
ATOM     97  C   UNL A   1      44.591  36.481  28.079  1.00  0.00     0.060 A 
BRANCH  97  98
ATOM     98  S   UNL A   1      44.950  38.168  27.570  1.00  0.00     0.124 S 
ATOM     99  O   UNL A   1      45.280  38.809  28.839  1.00  0.00    -0.237 OA
ATOM    100  O   UNL A   1      46.064  37.962  26.652  1.00  0.00    -0.237 OA
ATOM    101  O   UNL A   1      43.704  38.614  26.955  1.00  0.00    -0.744 OA
ENDBRANCH  97  98
ENDBRANCH  65  90
ENDBRANCH  39  40
ENDBRANCH  31  34
ENDBRANCH   1  30
TORSDOF 14
ENDMDL
