MODEL 1
REMARK VINA RESULT:      -9.3      0.000      0.000
REMARK SMILES C[NH2+][C@@H](C)c1ccc(SCc2ccc(C(=O)NCCCNC(=O)c3ccc(-c4c5nc(c(-c6c(F)cc(S(=O)(=O)[O-])cc6F)c6ccc([nH]6)c(-c6c(F)cc(S(=O)(=O)[O-])cc6F)c6nc(c(-c7c(F)cc(S(=O)(=O)[O-])cc7F)c7ccc4[nH]7)C=C6)C=C5)cc3)cc2)cc1
REMARK SMILES IDX 18 1 17 2 15 3 16 4 14 6 11 7 12 8 91 9 13 10 90 11 10 12
REMARK SMILES IDX 9 13 8 14 5 15 6 16 93 17 7 18 92 19 3 20 4 21 2 22 1 23
REMARK SMILES IDX 19 26 20 27 21 28 22 29 23 31 24 32 25 33 89 34 26 35 88 36
REMARK SMILES IDX 27 37 28 38 29 39 82 40 30 41 87 42 81 43 83 44 31 45 86 46
REMARK SMILES IDX 80 47 79 48 32 50 66 51 45 52 65 53 46 54 49 55 64 56 84 57
REMARK SMILES IDX 47 58 48 59 63 61 85 62 50 63 33 64 34 65 43 66 35 67 36 68
REMARK SMILES IDX 42 69 44 70 37 71 38 72 39 73 40 74 41 75 67 76 68 77 77 78
REMARK SMILES IDX 69 79 70 80 76 81 78 82 71 83 72 84 73 85 74 86 75 87 51 88
REMARK SMILES IDX 52 89 61 90 53 91 54 92 60 93 62 94 55 95 56 96 57 97 58 98
REMARK SMILES IDX 59 99
REMARK H PARENT 17 5 2 24 2 25 21 30 83 49 49 60
REMARK Flexibility Score: inf
ROOT
ATOM      1  C   UNL A   1      42.602  20.518  25.996  1.00  0.00     0.118 C 
ENDROOT
BRANCH   1   2
ATOM      2  N   UNL A   1      42.800  21.806  25.359  1.00  0.00    -0.352 N 
ATOM      3  C   UNL A   1      43.274  23.003  25.834  1.00  0.00     0.251 C 
ATOM      4  O   UNL A   1      43.429  23.914  25.018  1.00  0.00    -0.269 OA
ATOM      5  H   UNL A   1      42.546  21.826  24.408  1.00  0.00     0.163 HD
BRANCH   3   6
ATOM      6  C   UNL A   1      43.643  23.240  27.257  1.00  0.00     0.039 A 
ATOM      7  C   UNL A   1      44.186  23.544  30.027  1.00  0.00    -0.038 A 
ATOM      8  C   UNL A   1      42.872  23.377  29.564  1.00  0.00     0.005 A 
ATOM      9  C   UNL A   1      45.210  23.615  29.078  1.00  0.00     0.005 A 
ATOM     10  C   UNL A   1      42.605  23.232  28.199  1.00  0.00     0.014 A 
ATOM     11  C   UNL A   1      44.947  23.407  27.722  1.00  0.00     0.014 A 
BRANCH   7  12
ATOM     12  C   UNL A   1      44.422  23.614  31.520  1.00  0.00     0.110 C 
BRANCH  12  13
ATOM     13  S   UNL A   1      45.297  25.064  32.202  1.00  0.00    -0.121 SA
BRANCH  13  14
ATOM     14  C   UNL A   1      44.009  26.270  32.512  1.00  0.00     0.008 A 
ATOM     15  C   UNL A   1      42.007  28.256  32.817  1.00  0.00     0.009 A 
ATOM     16  C   UNL A   1      42.601  28.021  31.569  1.00  0.00     0.011 A 
ATOM     17  C   UNL A   1      42.447  27.498  33.912  1.00  0.00     0.011 A 
ATOM     18  C   UNL A   1      43.584  27.036  31.420  1.00  0.00     0.015 A 
ATOM     19  C   UNL A   1      43.422  26.503  33.757  1.00  0.00     0.015 A 
BRANCH  15  20
ATOM     20  C   UNL A   1      40.894  29.284  32.997  1.00  0.00     0.210 C 
ATOM     21  C   UNL A   1      41.392  30.471  33.837  1.00  0.00     0.081 C 
BRANCH  20  22
ATOM     22  N   UNL A   1      39.695  28.641  33.551  1.00  0.00    -0.343 N 
ATOM     23  C   UNL A   1      38.814  28.098  32.523  1.00  0.00     0.331 C 
ATOM     24  H   UNL A   1      39.989  27.879  34.163  1.00  0.00     0.346 HD
ATOM     25  H   UNL A   1      39.172  29.355  34.058  1.00  0.00     0.346 HD
ENDBRANCH  20  22
ENDBRANCH  15  20
ENDBRANCH  13  14
ENDBRANCH  12  13
ENDBRANCH   7  12
ENDBRANCH   3   6
ENDBRANCH   1   2
BRANCH   1  26
ATOM     26  C   UNL A   1      41.116  20.199  26.168  1.00  0.00     0.042 C 
BRANCH  26  27
ATOM     27  C   UNL A   1      40.349  21.277  26.929  1.00  0.00     0.118 C 
BRANCH  27  28
ATOM     28  N   UNL A   1      39.125  21.653  26.239  1.00  0.00    -0.352 N 
ATOM     29  C   UNL A   1      38.466  22.855  26.200  1.00  0.00     0.251 C 
ATOM     30  H   UNL A   1      38.703  20.932  25.719  1.00  0.00     0.163 HD
ATOM     31  O   UNL A   1      37.324  22.894  25.751  1.00  0.00    -0.269 OA
BRANCH  29  32
ATOM     32  C   UNL A   1      39.110  24.093  26.693  1.00  0.00     0.039 A 
ATOM     33  C   UNL A   1      39.867  24.855  25.796  1.00  0.00     0.014 A 
ATOM     34  C   UNL A   1      39.035  24.471  28.037  1.00  0.00     0.014 A 
ATOM     35  C   UNL A   1      40.517  26.010  26.238  1.00  0.00     0.010 A 
ATOM     36  C   UNL A   1      39.631  25.657  28.462  1.00  0.00     0.010 A 
ATOM     37  C   UNL A   1      40.388  26.431  27.571  1.00  0.00    -0.014 A 
BRANCH  37  38
ATOM     38  C   UNL A   1      41.052  27.669  28.049  1.00  0.00     0.031 A 
ATOM     39  C   UNL A   1      42.551  27.796  27.989  1.00  0.00     0.074 A 
ATOM     40  C   UNL A   1      40.309  28.656  28.586  1.00  0.00     0.049 A 
ATOM     41  N   UNL A   1      43.315  28.769  28.412  1.00  0.00    -0.248 NA
ATOM     42  C   UNL A   1      43.289  26.669  27.397  1.00  0.00     0.031 C 
ATOM     43  C   UNL A   1      38.853  28.628  28.739  1.00  0.00     0.029 A 
ATOM     44  N   UNL A   1      40.674  29.869  29.111  1.00  0.00    -0.354 N 
ATOM     45  C   UNL A   1      44.620  28.367  28.155  1.00  0.00     0.074 A 
ATOM     46  C   UNL A   1      44.548  27.042  27.579  1.00  0.00     0.031 C 
ATOM     47  C   UNL A   1      38.448  29.777  29.303  1.00  0.00     0.029 A 
ATOM     48  C   UNL A   1      39.616  30.609  29.580  1.00  0.00     0.049 A 
ATOM     49  H   UNL A   1      41.608  30.181  29.147  1.00  0.00     0.167 HD
ATOM     50  C   UNL A   1      45.773  29.049  28.362  1.00  0.00     0.037 A 
ATOM     51  C   UNL A   1      39.589  31.818  30.173  1.00  0.00     0.037 A 
ATOM     52  C   UNL A   1      45.835  30.379  28.910  1.00  0.00     0.049 A 
ATOM     53  C   UNL A   1      40.880  32.563  30.374  1.00  0.00     0.074 A 
ATOM     54  C   UNL A   1      46.948  31.177  29.109  1.00  0.00     0.029 A 
ATOM     55  N   UNL A   1      44.738  31.108  29.344  1.00  0.00    -0.354 N 
ATOM     56  N   UNL A   1      42.101  32.190  30.075  1.00  0.00    -0.248 NA
ATOM     57  C   UNL A   1      40.788  33.897  30.983  1.00  0.00     0.031 C 
ATOM     58  C   UNL A   1      46.526  32.377  29.694  1.00  0.00     0.029 A 
ATOM     59  C   UNL A   1      45.147  32.342  29.821  1.00  0.00     0.049 A 
ATOM     60  H   UNL A   1      43.805  30.795  29.317  1.00  0.00     0.167 HD
ATOM     61  C   UNL A   1      42.922  33.253  30.438  1.00  0.00     0.074 A 
ATOM     62  C   UNL A   1      42.056  34.286  30.967  1.00  0.00     0.031 C 
ATOM     63  C   UNL A   1      44.270  33.362  30.341  1.00  0.00     0.037 A 
BRANCH  50  64
ATOM     64  C   UNL A   1      47.062  28.367  27.990  1.00  0.00     0.058 A 
ATOM     65  C   UNL A   1      47.610  28.483  26.702  1.00  0.00     0.135 A 
ATOM     66  C   UNL A   1      47.771  27.612  28.937  1.00  0.00     0.135 A 
ATOM     67  F   UNL A   1      46.966  29.181  25.754  1.00  0.00    -0.206 F 
ATOM     68  C   UNL A   1      48.801  27.850  26.359  1.00  0.00     0.059 A 
ATOM     69  C   UNL A   1      48.978  26.991  28.623  1.00  0.00     0.059 A 
ATOM     70  F   UNL A   1      47.293  27.468  30.183  1.00  0.00    -0.206 F 
ATOM     71  C   UNL A   1      49.476  27.103  27.325  1.00  0.00     0.060 A 
BRANCH  71  72
ATOM     72  S   UNL A   1      51.019  26.287  26.863  1.00  0.00     0.124 S 
ATOM     73  O   UNL A   1      50.675  24.883  27.062  1.00  0.00    -0.237 OA
ATOM     74  O   UNL A   1      51.193  26.706  25.477  1.00  0.00    -0.237 OA
ATOM     75  O   UNL A   1      51.988  26.835  27.806  1.00  0.00    -0.744 OA
ENDBRANCH  71  72
ENDBRANCH  50  64
BRANCH  51  76
ATOM     76  C   UNL A   1      38.291  32.407  30.593  1.00  0.00     0.058 A 
ATOM     77  C   UNL A   1      37.793  32.206  31.888  1.00  0.00     0.135 A 
ATOM     78  C   UNL A   1      37.535  33.201  29.717  1.00  0.00     0.135 A 
ATOM     79  F   UNL A   1      38.479  31.450  32.760  1.00  0.00    -0.206 F 
ATOM     80  C   UNL A   1      36.585  32.759  32.299  1.00  0.00     0.059 A 
ATOM     81  C   UNL A   1      36.335  33.783  30.112  1.00  0.00     0.059 A 
ATOM     82  F   UNL A   1      37.977  33.440  28.472  1.00  0.00    -0.206 F 
ATOM     83  C   UNL A   1      35.864  33.550  31.402  1.00  0.00     0.060 A 
BRANCH  83  84
ATOM     84  S   UNL A   1      34.324  34.311  31.961  1.00  0.00     0.124 S 
ATOM     85  O   UNL A   1      33.642  34.555  30.696  1.00  0.00    -0.237 OA
ATOM     86  O   UNL A   1      33.753  33.269  32.806  1.00  0.00    -0.237 OA
ATOM     87  O   UNL A   1      34.782  35.502  32.672  1.00  0.00    -0.744 OA
ENDBRANCH  83  84
ENDBRANCH  51  76
BRANCH  63  88
ATOM     88  C   UNL A   1      44.888  34.656  30.787  1.00  0.00     0.058 A 
ATOM     89  C   UNL A   1      44.985  35.760  29.927  1.00  0.00     0.135 A 
ATOM     90  C   UNL A   1      45.352  34.805  32.104  1.00  0.00     0.135 A 
ATOM     91  F   UNL A   1      44.563  35.667  28.657  1.00  0.00    -0.206 F 
ATOM     92  C   UNL A   1      45.545  36.962  30.351  1.00  0.00     0.059 A 
ATOM     93  C   UNL A   1      45.891  36.004  32.556  1.00  0.00     0.059 A 
ATOM     94  F   UNL A   1      45.272  33.781  32.969  1.00  0.00    -0.206 F 
ATOM     95  C   UNL A   1      45.995  37.074  31.668  1.00  0.00     0.060 A 
BRANCH  95  96
ATOM     96  S   UNL A   1      46.695  38.646  32.214  1.00  0.00     0.124 S 
ATOM     97  O   UNL A   1      48.073  38.267  32.509  1.00  0.00    -0.237 OA
ATOM     98  O   UNL A   1      46.509  39.497  31.042  1.00  0.00    -0.237 OA
ATOM     99  O   UNL A   1      45.877  38.997  33.371  1.00  0.00    -0.744 OA
ENDBRANCH  95  96
ENDBRANCH  63  88
ENDBRANCH  37  38
ENDBRANCH  29  32
ENDBRANCH  27  28
ENDBRANCH  26  27
ENDBRANCH   1  26
TORSDOF 18
ENDMDL
MODEL 2
REMARK VINA RESULT:      -9.0      3.075     10.203
REMARK SMILES C[NH2+][C@@H](C)c1ccc(SCc2ccc(C(=O)NCCCNC(=O)c3ccc(-c4c5nc(c(-c6c(F)cc(S(=O)(=O)[O-])cc6F)c6ccc([nH]6)c(-c6c(F)cc(S(=O)(=O)[O-])cc6F)c6nc(c(-c7c(F)cc(S(=O)(=O)[O-])cc7F)c7ccc4[nH]7)C=C6)C=C5)cc3)cc2)cc1
REMARK SMILES IDX 18 1 17 2 15 3 16 4 14 6 11 7 12 8 91 9 13 10 90 11 10 12
REMARK SMILES IDX 9 13 8 14 5 15 6 16 93 17 7 18 92 19 3 20 4 21 2 22 1 23
REMARK SMILES IDX 19 26 20 27 21 28 22 29 23 31 24 32 25 33 89 34 26 35 88 36
REMARK SMILES IDX 27 37 28 38 29 39 82 40 30 41 87 42 81 43 83 44 31 45 86 46
REMARK SMILES IDX 80 47 79 48 32 50 66 51 45 52 65 53 46 54 49 55 64 56 84 57
REMARK SMILES IDX 47 58 48 59 63 61 85 62 50 63 33 64 34 65 43 66 35 67 36 68
REMARK SMILES IDX 42 69 44 70 37 71 38 72 39 73 40 74 41 75 67 76 68 77 77 78
REMARK SMILES IDX 69 79 70 80 76 81 78 82 71 83 72 84 73 85 74 86 75 87 51 88
REMARK SMILES IDX 52 89 61 90 53 91 54 92 60 93 62 94 55 95 56 96 57 97 58 98
REMARK SMILES IDX 59 99
REMARK H PARENT 17 5 2 24 2 25 21 30 83 49 49 60
REMARK Flexibility Score: inf
ROOT
ATOM      1  C   UNL A   1      35.839  33.916  29.366  1.00  0.00     0.118 C 
ENDROOT
BRANCH   1   2
ATOM      2  N   UNL A   1      37.123  34.520  29.065  1.00  0.00    -0.352 N 
ATOM      3  C   UNL A   1      38.345  34.439  29.684  1.00  0.00     0.251 C 
ATOM      4  O   UNL A   1      39.298  34.990  29.130  1.00  0.00    -0.269 OA
ATOM      5  H   UNL A   1      37.118  35.095  28.266  1.00  0.00     0.163 HD
BRANCH   3   6
ATOM      6  C   UNL A   1      38.581  33.696  30.954  1.00  0.00     0.039 A 
ATOM      7  C   UNL A   1      39.241  32.363  33.371  1.00  0.00    -0.038 A 
ATOM      8  C   UNL A   1      40.176  32.475  32.331  1.00  0.00     0.005 A 
ATOM      9  C   UNL A   1      37.959  32.875  33.156  1.00  0.00     0.005 A 
ATOM     10  C   UNL A   1      39.848  33.128  31.139  1.00  0.00     0.014 A 
ATOM     11  C   UNL A   1      37.654  33.582  31.990  1.00  0.00     0.014 A 
BRANCH   7  12
ATOM     12  C   UNL A   1      39.678  31.716  34.668  1.00  0.00     0.110 C 
BRANCH  12  13
ATOM     13  S   UNL A   1      41.441  31.797  35.137  1.00  0.00    -0.121 SA
BRANCH  13  14
ATOM     14  C   UNL A   1      42.242  30.565  34.113  1.00  0.00     0.008 A 
ATOM     15  C   UNL A   1      43.412  28.470  32.600  1.00  0.00     0.009 A 
ATOM     16  C   UNL A   1      42.356  28.213  33.486  1.00  0.00     0.011 A 
ATOM     17  C   UNL A   1      43.887  29.786  32.502  1.00  0.00     0.011 A 
ATOM     18  C   UNL A   1      41.777  29.249  34.227  1.00  0.00     0.015 A 
ATOM     19  C   UNL A   1      43.295  30.824  33.235  1.00  0.00     0.015 A 
BRANCH  15  20
ATOM     20  C   UNL A   1      44.027  27.370  31.740  1.00  0.00     0.210 C 
ATOM     21  C   UNL A   1      44.474  26.190  32.617  1.00  0.00     0.081 C 
BRANCH  20  22
ATOM     22  N   UNL A   1      45.106  27.920  30.910  1.00  0.00    -0.343 N 
ATOM     23  C   UNL A   1      46.138  26.939  30.592  1.00  0.00     0.331 C 
ATOM     24  H   UNL A   1      44.702  28.261  30.037  1.00  0.00     0.346 HD
ATOM     25  H   UNL A   1      45.549  28.669  31.442  1.00  0.00     0.346 HD
ENDBRANCH  20  22
ENDBRANCH  15  20
ENDBRANCH  13  14
ENDBRANCH  12  13
ENDBRANCH   7  12
ENDBRANCH   3   6
ENDBRANCH   1   2
BRANCH   1  26
ATOM     26  C   UNL A   1      35.388  32.971  28.252  1.00  0.00     0.042 C 
BRANCH  26  27
ATOM     27  C   UNL A   1      35.695  31.504  28.542  1.00  0.00     0.118 C 
BRANCH  27  28
ATOM     28  N   UNL A   1      35.604  31.208  29.964  1.00  0.00    -0.352 N 
ATOM     29  C   UNL A   1      36.438  30.475  30.769  1.00  0.00     0.251 C 
ATOM     30  H   UNL A   1      34.821  31.593  30.419  1.00  0.00     0.163 HD
ATOM     31  O   UNL A   1      36.053  30.152  31.889  1.00  0.00    -0.269 OA
BRANCH  29  32
ATOM     32  C   UNL A   1      37.784  30.072  30.304  1.00  0.00     0.039 A 
ATOM     33  C   UNL A   1      38.656  29.475  31.221  1.00  0.00     0.014 A 
ATOM     34  C   UNL A   1      38.218  30.336  29.001  1.00  0.00     0.014 A 
ATOM     35  C   UNL A   1      39.946  29.114  30.823  1.00  0.00     0.010 A 
ATOM     36  C   UNL A   1      39.481  29.918  28.588  1.00  0.00     0.010 A 
ATOM     37  C   UNL A   1      40.362  29.315  29.498  1.00  0.00    -0.014 A 
BRANCH  37  38
ATOM     38  C   UNL A   1      41.720  28.915  29.054  1.00  0.00     0.031 A 
ATOM     39  C   UNL A   1      42.834  29.926  29.017  1.00  0.00     0.074 A 
ATOM     40  C   UNL A   1      41.936  27.652  28.635  1.00  0.00     0.049 A 
ATOM     41  N   UNL A   1      44.067  29.783  28.604  1.00  0.00    -0.248 NA
ATOM     42  C   UNL A   1      42.512  31.285  29.482  1.00  0.00     0.031 C 
ATOM     43  C   UNL A   1      40.924  26.595  28.583  1.00  0.00     0.029 A 
ATOM     44  N   UNL A   1      43.073  27.046  28.165  1.00  0.00    -0.354 N 
ATOM     45  C   UNL A   1      44.662  31.031  28.742  1.00  0.00     0.074 A 
ATOM     46  C   UNL A   1      43.642  31.932  29.236  1.00  0.00     0.031 C 
ATOM     47  C   UNL A   1      41.489  25.467  28.124  1.00  0.00     0.029 A 
ATOM     48  C   UNL A   1      42.893  25.728  27.819  1.00  0.00     0.049 A 
ATOM     49  H   UNL A   1      43.937  27.512  28.083  1.00  0.00     0.167 HD
ATOM     50  C   UNL A   1      45.946  31.390  28.498  1.00  0.00     0.037 A 
ATOM     51  C   UNL A   1      43.759  24.833  27.308  1.00  0.00     0.037 A 
ATOM     52  C   UNL A   1      46.962  30.481  28.034  1.00  0.00     0.049 A 
ATOM     53  C   UNL A   1      45.184  25.248  27.066  1.00  0.00     0.074 A 
ATOM     54  C   UNL A   1      48.303  30.732  27.809  1.00  0.00     0.029 A 
ATOM     55  N   UNL A   1      46.747  29.145  27.726  1.00  0.00    -0.354 N 
ATOM     56  N   UNL A   1      45.743  26.420  27.253  1.00  0.00    -0.248 NA
ATOM     57  C   UNL A   1      46.098  24.220  26.551  1.00  0.00     0.031 C 
ATOM     58  C   UNL A   1      48.894  29.555  27.333  1.00  0.00     0.029 A 
ATOM     59  C   UNL A   1      47.929  28.561  27.301  1.00  0.00     0.049 A 
ATOM     60  H   UNL A   1      45.882  28.680  27.798  1.00  0.00     0.167 HD
ATOM     61  C   UNL A   1      47.079  26.263  26.903  1.00  0.00     0.074 A 
ATOM     62  C   UNL A   1      47.246  24.881  26.503  1.00  0.00     0.031 C 
ATOM     63  C   UNL A   1      48.078  27.181  26.911  1.00  0.00     0.037 A 
BRANCH  50  64
ATOM     64  C   UNL A   1      46.324  32.827  28.735  1.00  0.00     0.058 A 
ATOM     65  C   UNL A   1      46.774  33.272  29.988  1.00  0.00     0.135 A 
ATOM     66  C   UNL A   1      46.265  33.763  27.691  1.00  0.00     0.135 A 
ATOM     67  F   UNL A   1      46.835  32.422  31.026  1.00  0.00    -0.206 F 
ATOM     68  C   UNL A   1      47.121  34.602  30.206  1.00  0.00     0.059 A 
ATOM     69  C   UNL A   1      46.633  35.093  27.879  1.00  0.00     0.059 A 
ATOM     70  F   UNL A   1      45.844  33.391  26.472  1.00  0.00    -0.206 F 
ATOM     71  C   UNL A   1      47.045  35.506  29.146  1.00  0.00     0.060 A 
BRANCH  71  72
ATOM     72  S   UNL A   1      47.498  37.228  29.444  1.00  0.00     0.124 S 
ATOM     73  O   UNL A   1      48.285  37.112  30.668  1.00  0.00    -0.237 OA
ATOM     74  O   UNL A   1      48.247  37.569  28.240  1.00  0.00    -0.237 OA
ATOM     75  O   UNL A   1      46.210  37.898  29.588  1.00  0.00    -0.744 OA
ENDBRANCH  71  72
ENDBRANCH  50  64
BRANCH  51  76
ATOM     76  C   UNL A   1      43.306  23.447  27.020  1.00  0.00     0.058 A 
ATOM     77  C   UNL A   1      43.080  23.022  25.703  1.00  0.00     0.135 A 
ATOM     78  C   UNL A   1      43.114  22.514  28.051  1.00  0.00     0.135 A 
ATOM     79  F   UNL A   1      43.246  23.880  24.684  1.00  0.00    -0.206 F 
ATOM     80  C   UNL A   1      42.665  21.726  25.416  1.00  0.00     0.059 A 
ATOM     81  C   UNL A   1      42.721  21.206  27.787  1.00  0.00     0.059 A 
ATOM     82  F   UNL A   1      43.337  22.866  29.327  1.00  0.00    -0.206 F 
ATOM     83  C   UNL A   1      42.491  20.824  26.467  1.00  0.00     0.060 A 
BRANCH  83  84
ATOM     84  S   UNL A   1      42.008  19.126  26.083  1.00  0.00     0.124 S 
ATOM     85  O   UNL A   1      42.849  18.836  24.929  1.00  0.00    -0.237 OA
ATOM     86  O   UNL A   1      42.347  18.423  27.316  1.00  0.00    -0.237 OA
ATOM     87  O   UNL A   1      40.578  19.241  25.811  1.00  0.00    -0.744 OA
ENDBRANCH  83  84
ENDBRANCH  51  76
BRANCH  63  88
ATOM     88  C   UNL A   1      49.446  26.712  26.506  1.00  0.00     0.058 A 
ATOM     89  C   UNL A   1      50.348  26.180  27.440  1.00  0.00     0.135 A 
ATOM     90  C   UNL A   1      49.843  26.757  25.160  1.00  0.00     0.135 A 
ATOM     91  F   UNL A   1      50.019  26.121  28.740  1.00  0.00    -0.206 F 
ATOM     92  C   UNL A   1      51.609  25.732  27.057  1.00  0.00     0.059 A 
ATOM     93  C   UNL A   1      51.088  26.292  24.751  1.00  0.00     0.059 A 
ATOM     94  F   UNL A   1      49.013  27.248  24.227  1.00  0.00    -0.206 F 
ATOM     95  C   UNL A   1      51.969  25.792  25.710  1.00  0.00     0.060 A 
BRANCH  95  96
ATOM     96  S   UNL A   1      53.597  25.184  25.220  1.00  0.00     0.124 S 
ATOM     97  O   UNL A   1      53.403  23.739  25.287  1.00  0.00    -0.237 OA
ATOM     98  O   UNL A   1      53.751  25.740  23.879  1.00  0.00    -0.237 OA
ATOM     99  O   UNL A   1      54.487  25.746  26.231  1.00  0.00    -0.744 OA
ENDBRANCH  95  96
ENDBRANCH  63  88
ENDBRANCH  37  38
ENDBRANCH  29  32
ENDBRANCH  27  28
ENDBRANCH  26  27
ENDBRANCH   1  26
TORSDOF 18
ENDMDL
MODEL 3
REMARK VINA RESULT:      -8.9      2.439      3.939
REMARK SMILES C[NH2+][C@@H](C)c1ccc(SCc2ccc(C(=O)NCCCNC(=O)c3ccc(-c4c5nc(c(-c6c(F)cc(S(=O)(=O)[O-])cc6F)c6ccc([nH]6)c(-c6c(F)cc(S(=O)(=O)[O-])cc6F)c6nc(c(-c7c(F)cc(S(=O)(=O)[O-])cc7F)c7ccc4[nH]7)C=C6)C=C5)cc3)cc2)cc1
REMARK SMILES IDX 18 1 17 2 15 3 16 4 14 6 11 7 12 8 91 9 13 10 90 11 10 12
REMARK SMILES IDX 9 13 8 14 5 15 6 16 93 17 7 18 92 19 3 20 4 21 2 22 1 23
REMARK SMILES IDX 19 26 20 27 21 28 22 29 23 31 24 32 25 33 89 34 26 35 88 36
REMARK SMILES IDX 27 37 28 38 29 39 82 40 30 41 87 42 81 43 83 44 31 45 86 46
REMARK SMILES IDX 80 47 79 48 32 50 66 51 45 52 65 53 46 54 49 55 64 56 84 57
REMARK SMILES IDX 47 58 48 59 63 61 85 62 50 63 33 64 34 65 43 66 35 67 36 68
REMARK SMILES IDX 42 69 44 70 37 71 38 72 39 73 40 74 41 75 67 76 68 77 77 78
REMARK SMILES IDX 69 79 70 80 76 81 78 82 71 83 72 84 73 85 74 86 75 87 51 88
REMARK SMILES IDX 52 89 61 90 53 91 54 92 60 93 62 94 55 95 56 96 57 97 58 98
REMARK SMILES IDX 59 99
REMARK H PARENT 17 5 2 24 2 25 21 30 83 49 49 60
REMARK Flexibility Score: inf
ROOT
ATOM      1  C   UNL A   1      42.349  19.883  26.931  1.00  0.00     0.118 C 
ENDROOT
BRANCH   1   2
ATOM      2  N   UNL A   1      43.187  19.611  25.778  1.00  0.00    -0.352 N 
ATOM      3  C   UNL A   1      44.042  20.404  25.056  1.00  0.00     0.251 C 
ATOM      4  O   UNL A   1      44.710  19.860  24.174  1.00  0.00    -0.269 OA
ATOM      5  H   UNL A   1      43.133  18.683  25.453  1.00  0.00     0.163 HD
BRANCH   3   6
ATOM      6  C   UNL A   1      44.228  21.861  25.306  1.00  0.00     0.039 A 
ATOM      7  C   UNL A   1      44.359  24.655  25.791  1.00  0.00    -0.038 A 
ATOM      8  C   UNL A   1      43.354  24.111  24.976  1.00  0.00     0.005 A 
ATOM      9  C   UNL A   1      45.325  23.786  26.305  1.00  0.00     0.005 A 
ATOM     10  C   UNL A   1      43.293  22.735  24.734  1.00  0.00     0.014 A 
ATOM     11  C   UNL A   1      45.225  22.406  26.114  1.00  0.00     0.014 A 
BRANCH   7  12
ATOM     12  C   UNL A   1      44.326  26.139  26.082  1.00  0.00     0.110 C 
BRANCH  12  13
ATOM     13  S   UNL A   1      45.741  27.167  25.557  1.00  0.00    -0.121 SA
BRANCH  13  14
ATOM     14  C   UNL A   1      45.434  28.773  26.290  1.00  0.00     0.008 A 
ATOM     15  C   UNL A   1      45.147  31.361  27.415  1.00  0.00     0.009 A 
ATOM     16  C   UNL A   1      46.301  31.013  26.698  1.00  0.00     0.011 A 
ATOM     17  C   UNL A   1      44.153  30.386  27.579  1.00  0.00     0.011 A 
ATOM     18  C   UNL A   1      46.438  29.738  26.139  1.00  0.00     0.015 A 
ATOM     19  C   UNL A   1      44.286  29.114  27.006  1.00  0.00     0.015 A 
BRANCH  15  20
ATOM     20  C   UNL A   1      44.947  32.760  27.989  1.00  0.00     0.210 C 
ATOM     21  C   UNL A   1      43.621  32.838  28.762  1.00  0.00     0.081 C 
BRANCH  20  22
ATOM     22  N   UNL A   1      45.059  33.765  26.924  1.00  0.00    -0.343 N 
ATOM     23  C   UNL A   1      43.778  34.365  26.569  1.00  0.00     0.331 C 
ATOM     24  H   UNL A   1      45.688  34.503  27.240  1.00  0.00     0.346 HD
ATOM     25  H   UNL A   1      45.416  33.291  26.094  1.00  0.00     0.346 HD
ENDBRANCH  20  22
ENDBRANCH  15  20
ENDBRANCH  13  14
ENDBRANCH  12  13
ENDBRANCH   7  12
ENDBRANCH   3   6
ENDBRANCH   1   2
BRANCH   1  26
ATOM     26  C   UNL A   1      40.912  20.204  26.516  1.00  0.00     0.042 C 
BRANCH  26  27
ATOM     27  C   UNL A   1      40.512  21.651  26.788  1.00  0.00     0.118 C 
BRANCH  27  28
ATOM     28  N   UNL A   1      39.381  22.058  25.967  1.00  0.00    -0.352 N 
ATOM     29  C   UNL A   1      38.641  23.212  25.992  1.00  0.00     0.251 C 
ATOM     30  H   UNL A   1      39.102  21.401  25.288  1.00  0.00     0.163 HD
ATOM     31  O   UNL A   1      37.582  23.254  25.372  1.00  0.00    -0.269 OA
BRANCH  29  32
ATOM     32  C   UNL A   1      39.101  24.395  26.753  1.00  0.00     0.039 A 
ATOM     33  C   UNL A   1      39.964  25.300  26.125  1.00  0.00     0.014 A 
ATOM     34  C   UNL A   1      38.749  24.584  28.094  1.00  0.00     0.014 A 
ATOM     35  C   UNL A   1      40.443  26.408  26.827  1.00  0.00     0.010 A 
ATOM     36  C   UNL A   1      39.177  25.723  28.773  1.00  0.00     0.010 A 
ATOM     37  C   UNL A   1      40.039  26.639  28.151  1.00  0.00    -0.014 A 
BRANCH  37  38
ATOM     38  C   UNL A   1      40.521  27.825  28.902  1.00  0.00     0.031 A 
ATOM     39  C   UNL A   1      41.891  27.821  29.524  1.00  0.00     0.074 A 
ATOM     40  C   UNL A   1      39.703  28.883  29.068  1.00  0.00     0.049 A 
ATOM     41  N   UNL A   1      42.464  28.734  30.266  1.00  0.00    -0.248 NA
ATOM     42  C   UNL A   1      42.717  26.623  29.304  1.00  0.00     0.031 C 
ATOM     43  C   UNL A   1      38.337  28.983  28.551  1.00  0.00     0.029 A 
ATOM     44  N   UNL A   1      39.896  30.070  29.726  1.00  0.00    -0.354 N 
ATOM     45  C   UNL A   1      43.706  28.216  30.614  1.00  0.00     0.074 A 
ATOM     46  C   UNL A   1      43.787  26.891  30.039  1.00  0.00     0.031 C 
ATOM     47  C   UNL A   1      37.822  30.174  28.897  1.00  0.00     0.029 A 
ATOM     48  C   UNL A   1      38.807  30.907  29.686  1.00  0.00     0.049 A 
ATOM     49  H   UNL A   1      40.737  30.301  30.185  1.00  0.00     0.167 HD
ATOM     50  C   UNL A   1      44.697  28.800  31.331  1.00  0.00     0.037 A 
ATOM     51  C   UNL A   1      38.621  32.126  30.228  1.00  0.00     0.037 A 
ATOM     52  C   UNL A   1      44.620  30.131  31.875  1.00  0.00     0.049 A 
ATOM     53  C   UNL A   1      39.743  32.762  31.002  1.00  0.00     0.074 A 
ATOM     54  C   UNL A   1      45.589  30.835  32.569  1.00  0.00     0.029 A 
ATOM     55  N   UNL A   1      43.512  30.960  31.785  1.00  0.00    -0.354 N 
ATOM     56  N   UNL A   1      40.931  32.279  31.276  1.00  0.00    -0.248 NA
ATOM     57  C   UNL A   1      39.502  34.110  31.533  1.00  0.00     0.031 C 
ATOM     58  C   UNL A   1      45.054  32.078  32.927  1.00  0.00     0.029 A 
ATOM     59  C   UNL A   1      43.768  32.164  32.421  1.00  0.00     0.049 A 
ATOM     60  H   UNL A   1      42.667  30.728  31.336  1.00  0.00     0.167 HD
ATOM     61  C   UNL A   1      41.589  33.275  31.990  1.00  0.00     0.074 A 
ATOM     62  C   UNL A   1      40.670  34.389  32.096  1.00  0.00     0.031 C 
ATOM     63  C   UNL A   1      42.841  33.265  32.512  1.00  0.00     0.037 A 
BRANCH  50  64
ATOM     64  C   UNL A   1      45.952  28.003  31.563  1.00  0.00     0.058 A 
ATOM     65  C   UNL A   1      47.024  28.040  30.657  1.00  0.00     0.135 A 
ATOM     66  C   UNL A   1      46.097  27.216  32.716  1.00  0.00     0.135 A 
ATOM     67  F   UNL A   1      46.934  28.764  29.530  1.00  0.00    -0.206 F 
ATOM     68  C   UNL A   1      48.184  27.300  30.872  1.00  0.00     0.059 A 
ATOM     69  C   UNL A   1      47.258  26.488  32.964  1.00  0.00     0.059 A 
ATOM     70  F   UNL A   1      45.103  27.145  33.615  1.00  0.00    -0.206 F 
ATOM     71  C   UNL A   1      48.289  26.524  32.027  1.00  0.00     0.060 A 
BRANCH  71  72
ATOM     72  S   UNL A   1      49.799  25.569  32.291  1.00  0.00     0.124 S 
ATOM     73  O   UNL A   1      50.129  25.167  30.928  1.00  0.00    -0.237 OA
ATOM     74  O   UNL A   1      50.691  26.553  32.895  1.00  0.00    -0.237 OA
ATOM     75  O   UNL A   1      49.369  24.492  33.176  1.00  0.00    -0.744 OA
ENDBRANCH  71  72
ENDBRANCH  50  64
BRANCH  51  76
ATOM     76  C   UNL A   1      37.328  32.833  30.032  1.00  0.00     0.058 A 
ATOM     77  C   UNL A   1      37.141  33.705  28.951  1.00  0.00     0.135 A 
ATOM     78  C   UNL A   1      36.249  32.631  30.906  1.00  0.00     0.135 A 
ATOM     79  F   UNL A   1      38.146  33.933  28.091  1.00  0.00    -0.206 F 
ATOM     80  C   UNL A   1      35.934  34.366  28.748  1.00  0.00     0.059 A 
ATOM     81  C   UNL A   1      35.025  33.263  30.711  1.00  0.00     0.059 A 
ATOM     82  F   UNL A   1      36.371  31.790  31.945  1.00  0.00    -0.206 F 
ATOM     83  C   UNL A   1      34.880  34.135  29.634  1.00  0.00     0.060 A 
BRANCH  83  84
ATOM     84  S   UNL A   1      33.298  34.953  29.332  1.00  0.00     0.124 S 
ATOM     85  O   UNL A   1      32.694  34.067  28.345  1.00  0.00    -0.237 OA
ATOM     86  O   UNL A   1      32.689  34.944  30.658  1.00  0.00    -0.237 OA
ATOM     87  O   UNL A   1      33.693  36.271  28.843  1.00  0.00    -0.744 OA
ENDBRANCH  83  84
ENDBRANCH  51  76
BRANCH  63  88
ATOM     88  C   UNL A   1      43.302  34.511  33.214  1.00  0.00     0.058 A 
ATOM     89  C   UNL A   1      44.061  35.489  32.556  1.00  0.00     0.135 A 
ATOM     90  C   UNL A   1      42.943  34.745  34.552  1.00  0.00     0.135 A 
ATOM     91  F   UNL A   1      44.436  35.310  31.280  1.00  0.00    -0.206 F 
ATOM     92  C   UNL A   1      44.472  36.649  33.207  1.00  0.00     0.059 A 
ATOM     93  C   UNL A   1      43.321  35.908  35.215  1.00  0.00     0.059 A 
ATOM     94  F   UNL A   1      42.209  33.844  35.223  1.00  0.00    -0.206 F 
ATOM     95  C   UNL A   1      44.096  36.849  34.538  1.00  0.00     0.060 A 
BRANCH  95  96
ATOM     96  S   UNL A   1      44.612  38.368  35.365  1.00  0.00     0.124 S 
ATOM     97  O   UNL A   1      46.020  38.444  34.988  1.00  0.00    -0.237 OA
ATOM     98  O   UNL A   1      43.739  39.369  34.758  1.00  0.00    -0.237 OA
ATOM     99  O   UNL A   1      44.352  38.091  36.774  1.00  0.00    -0.744 OA
ENDBRANCH  95  96
ENDBRANCH  63  88
ENDBRANCH  37  38
ENDBRANCH  29  32
ENDBRANCH  27  28
ENDBRANCH  26  27
ENDBRANCH   1  26
TORSDOF 18
ENDMDL
