MODEL 1
REMARK VINA RESULT:     -11.1      0.000      0.000
REMARK SMILES CCN1C(=O)N(CC)[C@H]2NC(=O)N(CCCC(=O)NCCCNC(=O)c3ccc(-c4c5nc(c(-c6c(F)cc(S(=O)(=O)[O-])cc6F)c6ccc([nH]6)c(-c6c(F)cc(S(=O)(=O)[O-])cc6F)c6nc(c(-c7c(F)cc(S(=O)(=O)[O-])cc7F)c7ccc4[nH]7)C=C6)C=C5)cc3)[C@@H]21
REMARK SMILES IDX 20 1 19 2 17 3 18 4 16 6 15 7 14 8 13 9 3 10 4 11 92 12 5 13
REMARK SMILES IDX 6 14 9 15 10 16 11 17 12 19 2 20 1 21 7 22 8 23 21 24 22 25
REMARK SMILES IDX 23 26 24 27 25 29 26 30 27 31 91 32 28 33 90 34 29 35 30 36
REMARK SMILES IDX 31 37 84 38 32 39 89 40 83 41 85 42 33 43 88 44 82 45 81 46
REMARK SMILES IDX 34 48 68 49 47 50 67 51 48 52 51 53 66 54 86 55 49 56 50 57
REMARK SMILES IDX 65 59 87 60 52 61 35 62 36 63 45 64 37 65 38 66 44 67 46 68
REMARK SMILES IDX 39 69 40 70 41 71 42 72 43 73 69 74 70 75 79 76 71 77 72 78
REMARK SMILES IDX 78 79 80 80 73 81 74 82 75 83 76 84 77 85 53 86 54 87 63 88
REMARK SMILES IDX 55 89 56 90 62 91 64 92 57 93 58 94 59 95 60 96 61 97
REMARK H PARENT 19 5 10 18 23 28 85 47 51 58
REMARK Flexibility Score: inf
ROOT
ATOM      1  C   UNL A   1      31.573  28.964  25.690  1.00  0.00     0.117 C 
ENDROOT
BRANCH   1   2
ATOM      2  N   UNL A   1      31.196  29.492  24.403  1.00  0.00    -0.356 N 
ATOM      3  C   UNL A   1      30.548  28.982  23.339  1.00  0.00     0.220 C 
ATOM      4  O   UNL A   1      30.286  29.818  22.458  1.00  0.00    -0.275 OA
ATOM      5  H   UNL A   1      31.474  30.427  24.274  1.00  0.00     0.163 HD
BRANCH   3   6
ATOM      6  C   UNL A   1      29.981  27.577  23.160  1.00  0.00     0.102 C 
BRANCH   6   7
ATOM      7  C   UNL A   1      29.202  26.655  24.108  1.00  0.00     0.031 C 
BRANCH   7   8
ATOM      8  C   UNL A   1      29.784  25.924  25.303  1.00  0.00     0.124 C 
BRANCH   8   9
ATOM      9  N   UNL A   1      30.683  24.765  25.208  1.00  0.00    -0.300 N 
ATOM     10  N   UNL A   1      32.252  24.397  22.992  1.00  0.00    -0.300 N 
ATOM     11  C   UNL A   1      33.091  23.232  22.811  1.00  0.00     0.323 C 
ATOM     12  C   UNL A   1      31.839  24.387  24.393  1.00  0.00     0.231 C 
ATOM     13  O   UNL A   1      33.910  23.067  21.919  1.00  0.00    -0.248 OA
ATOM     14  N   UNL A   1      32.864  22.371  23.890  1.00  0.00    -0.300 N 
ATOM     15  C   UNL A   1      31.723  22.860  24.555  1.00  0.00     0.228 C 
ATOM     16  N   UNL A   1      31.424  22.695  25.911  1.00  0.00    -0.314 N 
ATOM     17  C   UNL A   1      30.584  23.761  26.235  1.00  0.00     0.320 C 
ATOM     18  H   UNL A   1      31.740  21.981  26.510  1.00  0.00     0.167 HD
ATOM     19  O   UNL A   1      29.859  23.769  27.221  1.00  0.00    -0.249 OA
BRANCH  10  20
ATOM     20  C   UNL A   1      32.563  25.541  22.151  1.00  0.00     0.120 C 
ATOM     21  C   UNL A   1      33.511  26.521  22.787  1.00  0.00     0.027 C 
ENDBRANCH  10  20
BRANCH  14  22
ATOM     22  C   UNL A   1      33.681  21.254  24.312  1.00  0.00     0.120 C 
ATOM     23  C   UNL A   1      32.979  19.907  24.241  1.00  0.00     0.027 C 
ENDBRANCH  14  22
ENDBRANCH   8   9
ENDBRANCH   7   8
ENDBRANCH   6   7
ENDBRANCH   3   6
ENDBRANCH   1   2
BRANCH   1  24
ATOM     24  C   UNL A   1      33.045  28.602  25.774  1.00  0.00     0.042 C 
BRANCH  24  25
ATOM     25  C   UNL A   1      33.588  28.696  27.178  1.00  0.00     0.118 C 
BRANCH  25  26
ATOM     26  N   UNL A   1      33.579  30.066  27.683  1.00  0.00    -0.352 N 
ATOM     27  C   UNL A   1      34.586  30.751  28.327  1.00  0.00     0.251 C 
ATOM     28  H   UNL A   1      32.743  30.566  27.544  1.00  0.00     0.163 HD
ATOM     29  O   UNL A   1      34.360  31.848  28.826  1.00  0.00    -0.269 OA
BRANCH  27  30
ATOM     30  C   UNL A   1      35.921  30.123  28.453  1.00  0.00     0.039 A 
ATOM     31  C   UNL A   1      36.817  30.200  27.386  1.00  0.00     0.014 A 
ATOM     32  C   UNL A   1      36.314  29.534  29.657  1.00  0.00     0.014 A 
ATOM     33  C   UNL A   1      38.136  29.771  27.564  1.00  0.00     0.010 A 
ATOM     34  C   UNL A   1      37.652  29.240  29.873  1.00  0.00     0.010 A 
ATOM     35  C   UNL A   1      38.578  29.342  28.826  1.00  0.00    -0.014 A 
BRANCH  35  36
ATOM     36  C   UNL A   1      39.998  28.984  29.080  1.00  0.00     0.031 A 
ATOM     37  C   UNL A   1      40.944  30.021  29.630  1.00  0.00     0.074 A 
ATOM     38  C   UNL A   1      40.454  27.761  28.736  1.00  0.00     0.049 A 
ATOM     39  N   UNL A   1      42.233  29.937  29.833  1.00  0.00    -0.248 NA
ATOM     40  C   UNL A   1      40.375  31.341  29.955  1.00  0.00     0.031 C 
ATOM     41  C   UNL A   1      39.653  26.699  28.119  1.00  0.00     0.029 A 
ATOM     42  N   UNL A   1      41.705  27.207  28.841  1.00  0.00    -0.354 N 
ATOM     43  C   UNL A   1      42.628  31.193  30.280  1.00  0.00     0.074 A 
ATOM     44  C   UNL A   1      41.458  32.041  30.255  1.00  0.00     0.031 C 
ATOM     45  C   UNL A   1      40.424  25.616  27.933  1.00  0.00     0.029 A 
ATOM     46  C   UNL A   1      41.782  25.916  28.372  1.00  0.00     0.049 A 
ATOM     47  H   UNL A   1      42.476  27.690  29.220  1.00  0.00     0.167 HD
ATOM     48  C   UNL A   1      43.849  31.596  30.702  1.00  0.00     0.037 A 
ATOM     49  C   UNL A   1      42.831  25.074  28.293  1.00  0.00     0.037 A 
ATOM     50  C   UNL A   1      44.995  30.729  30.771  1.00  0.00     0.049 A 
ATOM     51  C   UNL A   1      44.172  25.535  28.802  1.00  0.00     0.074 A 
ATOM     52  C   UNL A   1      46.254  31.010  31.270  1.00  0.00     0.029 A 
ATOM     53  N   UNL A   1      45.021  29.415  30.330  1.00  0.00    -0.354 N 
ATOM     54  N   UNL A   1      44.505  26.700  29.306  1.00  0.00    -0.248 NA
ATOM     55  C   UNL A   1      45.276  24.568  28.740  1.00  0.00     0.031 C 
ATOM     56  C   UNL A   1      47.058  29.883  31.081  1.00  0.00     0.029 A 
ATOM     57  C   UNL A   1      46.283  28.880  30.520  1.00  0.00     0.049 A 
ATOM     58  H   UNL A   1      44.256  28.934  29.940  1.00  0.00     0.167 HD
ATOM     59  C   UNL A   1      45.851  26.598  29.642  1.00  0.00     0.074 A 
ATOM     60  C   UNL A   1      46.263  25.252  29.303  1.00  0.00     0.031 C 
ATOM     61  C   UNL A   1      46.672  27.533  30.181  1.00  0.00     0.037 A 
BRANCH  48  62
ATOM     62  C   UNL A   1      44.007  33.028  31.135  1.00  0.00     0.058 A 
ATOM     63  C   UNL A   1      44.448  34.027  30.251  1.00  0.00     0.135 A 
ATOM     64  C   UNL A   1      43.667  33.417  32.442  1.00  0.00     0.135 A 
ATOM     65  F   UNL A   1      44.805  33.710  28.996  1.00  0.00    -0.206 F 
ATOM     66  C   UNL A   1      44.567  35.354  30.652  1.00  0.00     0.059 A 
ATOM     67  C   UNL A   1      43.748  34.743  32.855  1.00  0.00     0.059 A 
ATOM     68  F   UNL A   1      43.245  32.504  33.330  1.00  0.00    -0.206 F 
ATOM     69  C   UNL A   1      44.210  35.703  31.955  1.00  0.00     0.060 A 
BRANCH  69  70
ATOM     70  S   UNL A   1      44.343  37.434  32.448  1.00  0.00     0.124 S 
ATOM     71  O   UNL A   1      43.420  37.487  33.578  1.00  0.00    -0.237 OA
ATOM     72  O   UNL A   1      45.759  37.553  32.782  1.00  0.00    -0.237 OA
ATOM     73  O   UNL A   1      43.919  38.162  31.257  1.00  0.00    -0.744 OA
ENDBRANCH  69  70
ENDBRANCH  48  62
BRANCH  49  74
ATOM     74  C   UNL A   1      42.655  23.709  27.727  1.00  0.00     0.058 A 
ATOM     75  C   UNL A   1      42.480  22.593  28.561  1.00  0.00     0.135 A 
ATOM     76  C   UNL A   1      42.659  23.489  26.340  1.00  0.00     0.135 A 
ATOM     77  F   UNL A   1      42.473  22.748  29.893  1.00  0.00    -0.206 F 
ATOM     78  C   UNL A   1      42.338  21.308  28.044  1.00  0.00     0.059 A 
ATOM     79  C   UNL A   1      42.489  22.218  25.798  1.00  0.00     0.059 A 
ATOM     80  F   UNL A   1      42.804  24.522  25.496  1.00  0.00    -0.206 F 
ATOM     81  C   UNL A   1      42.344  21.131  26.659  1.00  0.00     0.060 A 
BRANCH  81  82
ATOM     82  S   UNL A   1      42.126  19.465  25.999  1.00  0.00     0.124 S 
ATOM     83  O   UNL A   1      40.691  19.437  25.740  1.00  0.00    -0.237 OA
ATOM     84  O   UNL A   1      42.987  19.488  24.820  1.00  0.00    -0.237 OA
ATOM     85  O   UNL A   1      42.589  18.609  27.087  1.00  0.00    -0.744 OA
ENDBRANCH  81  82
ENDBRANCH  49  74
BRANCH  61  86
ATOM     86  C   UNL A   1      48.090  27.127  30.468  1.00  0.00     0.058 A 
ATOM     87  C   UNL A   1      49.116  27.313  29.527  1.00  0.00     0.135 A 
ATOM     88  C   UNL A   1      48.438  26.601  31.723  1.00  0.00     0.135 A 
ATOM     89  F   UNL A   1      48.837  27.807  28.311  1.00  0.00    -0.206 F 
ATOM     90  C   UNL A   1      50.432  26.967  29.812  1.00  0.00     0.059 A 
ATOM     91  C   UNL A   1      49.753  26.279  32.041  1.00  0.00     0.059 A 
ATOM     92  F   UNL A   1      47.497  26.416  32.664  1.00  0.00    -0.206 F 
ATOM     93  C   UNL A   1      50.742  26.454  31.074  1.00  0.00     0.060 A 
BRANCH  93  94
ATOM     94  S   UNL A   1      52.459  26.042  31.442  1.00  0.00     0.124 S 
ATOM     95  O   UNL A   1      52.812  27.083  32.402  1.00  0.00    -0.237 OA
ATOM     96  O   UNL A   1      52.348  24.691  31.981  1.00  0.00    -0.237 OA
ATOM     97  O   UNL A   1      53.118  26.140  30.142  1.00  0.00    -0.744 OA
ENDBRANCH  93  94
ENDBRANCH  61  86
ENDBRANCH  35  36
ENDBRANCH  27  30
ENDBRANCH  25  26
ENDBRANCH  24  25
ENDBRANCH   1  24
TORSDOF 18
ENDMDL
MODEL 2
REMARK VINA RESULT:     -10.9      4.922     10.537
REMARK SMILES CCN1C(=O)N(CC)[C@H]2NC(=O)N(CCCC(=O)NCCCNC(=O)c3ccc(-c4c5nc(c(-c6c(F)cc(S(=O)(=O)[O-])cc6F)c6ccc([nH]6)c(-c6c(F)cc(S(=O)(=O)[O-])cc6F)c6nc(c(-c7c(F)cc(S(=O)(=O)[O-])cc7F)c7ccc4[nH]7)C=C6)C=C5)cc3)[C@@H]21
REMARK SMILES IDX 20 1 19 2 17 3 18 4 16 6 15 7 14 8 13 9 3 10 4 11 92 12 5 13
REMARK SMILES IDX 6 14 9 15 10 16 11 17 12 19 2 20 1 21 7 22 8 23 21 24 22 25
REMARK SMILES IDX 23 26 24 27 25 29 26 30 27 31 91 32 28 33 90 34 29 35 30 36
REMARK SMILES IDX 31 37 84 38 32 39 89 40 83 41 85 42 33 43 88 44 82 45 81 46
REMARK SMILES IDX 34 48 68 49 47 50 67 51 48 52 51 53 66 54 86 55 49 56 50 57
REMARK SMILES IDX 65 59 87 60 52 61 35 62 36 63 45 64 37 65 38 66 44 67 46 68
REMARK SMILES IDX 39 69 40 70 41 71 42 72 43 73 69 74 70 75 79 76 71 77 72 78
REMARK SMILES IDX 78 79 80 80 73 81 74 82 75 83 76 84 77 85 53 86 54 87 63 88
REMARK SMILES IDX 55 89 56 90 62 91 64 92 57 93 58 94 59 95 60 96 61 97
REMARK H PARENT 19 5 10 18 23 28 85 47 51 58
REMARK Flexibility Score: inf
ROOT
ATOM      1  C   UNL A   1      38.731  21.693  25.786  1.00  0.00     0.117 C 
ENDROOT
BRANCH   1   2
ATOM      2  N   UNL A   1      37.739  22.683  26.120  1.00  0.00    -0.356 N 
ATOM      3  C   UNL A   1      36.626  23.133  25.511  1.00  0.00     0.220 C 
ATOM      4  O   UNL A   1      35.947  23.908  26.204  1.00  0.00    -0.275 OA
ATOM      5  H   UNL A   1      37.914  23.128  26.981  1.00  0.00     0.163 HD
BRANCH   3   6
ATOM      6  C   UNL A   1      36.041  22.700  24.170  1.00  0.00     0.102 C 
BRANCH   6   7
ATOM      7  C   UNL A   1      34.599  22.639  23.649  1.00  0.00     0.031 C 
BRANCH   7   8
ATOM      8  C   UNL A   1      34.037  23.469  22.511  1.00  0.00     0.124 C 
BRANCH   8   9
ATOM      9  N   UNL A   1      33.113  24.599  22.687  1.00  0.00    -0.300 N 
ATOM     10  N   UNL A   1      31.931  25.067  25.114  1.00  0.00    -0.300 N 
ATOM     11  C   UNL A   1      30.952  26.112  25.319  1.00  0.00     0.323 C 
ATOM     12  C   UNL A   1      32.548  25.337  23.818  1.00  0.00     0.231 C 
ATOM     13  O   UNL A   1      30.487  26.461  26.395  1.00  0.00    -0.248 OA
ATOM     14  N   UNL A   1      30.703  26.714  24.082  1.00  0.00    -0.300 N 
ATOM     15  C   UNL A   1      31.293  25.882  23.110  1.00  0.00     0.228 C 
ATOM     16  N   UNL A   1      31.770  26.283  21.859  1.00  0.00    -0.314 N 
ATOM     17  C   UNL A   1      32.733  25.336  21.511  1.00  0.00     0.320 C 
ATOM     18  H   UNL A   1      31.488  27.068  21.336  1.00  0.00     0.167 HD
ATOM     19  O   UNL A   1      33.121  25.164  20.363  1.00  0.00    -0.249 OA
BRANCH  10  20
ATOM     20  C   UNL A   1      32.551  24.532  26.315  1.00  0.00     0.120 C 
ATOM     21  C   UNL A   1      31.871  23.303  26.854  1.00  0.00     0.027 C 
ENDBRANCH  10  20
BRANCH  14  22
ATOM     22  C   UNL A   1      30.055  27.983  23.833  1.00  0.00     0.120 C 
ATOM     23  C   UNL A   1      30.911  29.195  24.162  1.00  0.00     0.027 C 
ENDBRANCH  14  22
ENDBRANCH   8   9
ENDBRANCH   7   8
ENDBRANCH   6   7
ENDBRANCH   3   6
ENDBRANCH   1   2
BRANCH   1  24
ATOM     24  C   UNL A   1      39.943  21.737  26.699  1.00  0.00     0.042 C 
BRANCH  24  25
ATOM     25  C   UNL A   1      40.300  23.139  27.125  1.00  0.00     0.118 C 
BRANCH  25  26
ATOM     26  N   UNL A   1      40.904  23.908  26.041  1.00  0.00    -0.352 N 
ATOM     27  C   UNL A   1      41.327  25.219  26.049  1.00  0.00     0.251 C 
ATOM     28  H   UNL A   1      41.025  23.425  25.192  1.00  0.00     0.163 HD
ATOM     29  O   UNL A   1      41.670  25.760  25.003  1.00  0.00    -0.269 OA
BRANCH  27  30
ATOM     30  C   UNL A   1      41.310  25.975  27.321  1.00  0.00     0.039 A 
ATOM     31  C   UNL A   1      42.369  26.836  27.621  1.00  0.00     0.014 A 
ATOM     32  C   UNL A   1      40.209  25.897  28.176  1.00  0.00     0.014 A 
ATOM     33  C   UNL A   1      42.272  27.684  28.727  1.00  0.00     0.010 A 
ATOM     34  C   UNL A   1      40.055  26.834  29.187  1.00  0.00     0.010 A 
ATOM     35  C   UNL A   1      41.090  27.732  29.485  1.00  0.00    -0.014 A 
BRANCH  35  36
ATOM     36  C   UNL A   1      40.910  28.699  30.598  1.00  0.00     0.031 A 
ATOM     37  C   UNL A   1      41.744  28.566  31.846  1.00  0.00     0.074 A 
ATOM     38  C   UNL A   1      39.942  29.637  30.523  1.00  0.00     0.049 A 
ATOM     39  N   UNL A   1      41.677  29.247  32.961  1.00  0.00    -0.248 NA
ATOM     40  C   UNL A   1      42.761  27.499  31.861  1.00  0.00     0.031 C 
ATOM     41  C   UNL A   1      39.015  29.813  29.401  1.00  0.00     0.029 A 
ATOM     42  N   UNL A   1      39.565  30.611  31.414  1.00  0.00    -0.354 N 
ATOM     43  C   UNL A   1      42.617  28.674  33.811  1.00  0.00     0.074 A 
ATOM     44  C   UNL A   1      43.194  27.550  33.111  1.00  0.00     0.031 C 
ATOM     45  C   UNL A   1      38.202  30.850  29.657  1.00  0.00     0.029 A 
ATOM     46  C   UNL A   1      38.515  31.386  30.978  1.00  0.00     0.049 A 
ATOM     47  H   UNL A   1      40.007  30.743  32.284  1.00  0.00     0.167 HD
ATOM     48  C   UNL A   1      42.987  29.068  35.052  1.00  0.00     0.037 A 
ATOM     49  C   UNL A   1      37.870  32.405  31.579  1.00  0.00     0.037 A 
ATOM     50  C   UNL A   1      42.442  30.221  35.718  1.00  0.00     0.049 A 
ATOM     51  C   UNL A   1      38.325  32.847  32.945  1.00  0.00     0.074 A 
ATOM     52  C   UNL A   1      42.811  30.762  36.936  1.00  0.00     0.029 A 
ATOM     53  N   UNL A   1      41.412  31.008  35.224  1.00  0.00    -0.354 N 
ATOM     54  N   UNL A   1      39.278  32.349  33.697  1.00  0.00    -0.248 NA
ATOM     55  C   UNL A   1      37.624  33.992  33.542  1.00  0.00     0.031 C 
ATOM     56  C   UNL A   1      41.970  31.845  37.204  1.00  0.00     0.029 A 
ATOM     57  C   UNL A   1      41.115  32.015  36.126  1.00  0.00     0.049 A 
ATOM     58  H   UNL A   1      40.960  30.871  34.360  1.00  0.00     0.167 HD
ATOM     59  C   UNL A   1      39.307  33.134  34.844  1.00  0.00     0.074 A 
ATOM     60  C   UNL A   1      38.289  34.151  34.678  1.00  0.00     0.031 C 
ATOM     61  C   UNL A   1      40.101  33.023  35.938  1.00  0.00     0.037 A 
BRANCH  48  62
ATOM     62  C   UNL A   1      44.039  28.262  35.763  1.00  0.00     0.058 A 
ATOM     63  C   UNL A   1      45.409  28.524  35.603  1.00  0.00     0.135 A 
ATOM     64  C   UNL A   1      43.670  27.241  36.655  1.00  0.00     0.135 A 
ATOM     65  F   UNL A   1      45.821  29.475  34.748  1.00  0.00    -0.206 F 
ATOM     66  C   UNL A   1      46.376  27.791  36.284  1.00  0.00     0.059 A 
ATOM     67  C   UNL A   1      44.619  26.517  37.371  1.00  0.00     0.059 A 
ATOM     68  F   UNL A   1      42.375  26.944  36.844  1.00  0.00    -0.206 F 
ATOM     69  C   UNL A   1      45.970  26.793  37.170  1.00  0.00     0.060 A 
BRANCH  69  70
ATOM     70  S   UNL A   1      47.238  25.872  38.066  1.00  0.00     0.124 S 
ATOM     71  O   UNL A   1      46.554  25.586  39.324  1.00  0.00    -0.237 OA
ATOM     72  O   UNL A   1      47.463  24.725  37.194  1.00  0.00    -0.237 OA
ATOM     73  O   UNL A   1      48.346  26.817  38.156  1.00  0.00    -0.744 OA
ENDBRANCH  69  70
ENDBRANCH  48  62
BRANCH  49  74
ATOM     74  C   UNL A   1      36.740  33.087  30.890  1.00  0.00     0.058 A 
ATOM     75  C   UNL A   1      36.969  34.007  29.855  1.00  0.00     0.135 A 
ATOM     76  C   UNL A   1      35.407  32.833  31.251  1.00  0.00     0.135 A 
ATOM     77  F   UNL A   1      38.224  34.288  29.474  1.00  0.00    -0.206 F 
ATOM     78  C   UNL A   1      35.921  34.668  29.220  1.00  0.00     0.059 A 
ATOM     79  C   UNL A   1      34.341  33.459  30.610  1.00  0.00     0.059 A 
ATOM     80  F   UNL A   1      35.130  31.948  32.222  1.00  0.00    -0.206 F 
ATOM     81  C   UNL A   1      34.610  34.387  29.605  1.00  0.00     0.060 A 
BRANCH  81  82
ATOM     82  S   UNL A   1      33.258  35.226  28.752  1.00  0.00     0.124 S 
ATOM     83  O   UNL A   1      32.518  35.802  29.870  1.00  0.00    -0.237 OA
ATOM     84  O   UNL A   1      33.973  36.174  27.903  1.00  0.00    -0.237 OA
ATOM     85  O   UNL A   1      32.585  34.143  28.042  1.00  0.00    -0.744 OA
ENDBRANCH  81  82
ENDBRANCH  49  74
BRANCH  61  86
ATOM     86  C   UNL A   1      39.927  34.043  37.027  1.00  0.00     0.058 A 
ATOM     87  C   UNL A   1      40.586  35.282  36.991  1.00  0.00     0.135 A 
ATOM     88  C   UNL A   1      39.041  33.802  38.090  1.00  0.00     0.135 A 
ATOM     89  F   UNL A   1      41.447  35.562  35.999  1.00  0.00    -0.206 F 
ATOM     90  C   UNL A   1      40.393  36.236  37.985  1.00  0.00     0.059 A 
ATOM     91  C   UNL A   1      38.808  34.753  39.077  1.00  0.00     0.059 A 
ATOM     92  F   UNL A   1      38.375  32.638  38.165  1.00  0.00    -0.206 F 
ATOM     93  C   UNL A   1      39.499  35.963  39.023  1.00  0.00     0.060 A 
BRANCH  93  94
ATOM     94  S   UNL A   1      39.232  37.223  40.286  1.00  0.00     0.124 S 
ATOM     95  O   UNL A   1      38.450  38.213  39.554  1.00  0.00    -0.237 OA
ATOM     96  O   UNL A   1      38.514  36.483  41.318  1.00  0.00    -0.237 OA
ATOM     97  O   UNL A   1      40.586  37.635  40.646  1.00  0.00    -0.744 OA
ENDBRANCH  93  94
ENDBRANCH  61  86
ENDBRANCH  35  36
ENDBRANCH  27  30
ENDBRANCH  25  26
ENDBRANCH  24  25
ENDBRANCH   1  24
TORSDOF 18
ENDMDL
MODEL 3
REMARK VINA RESULT:     -10.9      4.739      6.592
REMARK SMILES CCN1C(=O)N(CC)[C@H]2NC(=O)N(CCCC(=O)NCCCNC(=O)c3ccc(-c4c5nc(c(-c6c(F)cc(S(=O)(=O)[O-])cc6F)c6ccc([nH]6)c(-c6c(F)cc(S(=O)(=O)[O-])cc6F)c6nc(c(-c7c(F)cc(S(=O)(=O)[O-])cc7F)c7ccc4[nH]7)C=C6)C=C5)cc3)[C@@H]21
REMARK SMILES IDX 20 1 19 2 17 3 18 4 16 6 15 7 14 8 13 9 3 10 4 11 92 12 5 13
REMARK SMILES IDX 6 14 9 15 10 16 11 17 12 19 2 20 1 21 7 22 8 23 21 24 22 25
REMARK SMILES IDX 23 26 24 27 25 29 26 30 27 31 91 32 28 33 90 34 29 35 30 36
REMARK SMILES IDX 31 37 84 38 32 39 89 40 83 41 85 42 33 43 88 44 82 45 81 46
REMARK SMILES IDX 34 48 68 49 47 50 67 51 48 52 51 53 66 54 86 55 49 56 50 57
REMARK SMILES IDX 65 59 87 60 52 61 35 62 36 63 45 64 37 65 38 66 44 67 46 68
REMARK SMILES IDX 39 69 40 70 41 71 42 72 43 73 69 74 70 75 79 76 71 77 72 78
REMARK SMILES IDX 78 79 80 80 73 81 74 82 75 83 76 84 77 85 53 86 54 87 63 88
REMARK SMILES IDX 55 89 56 90 62 91 64 92 57 93 58 94 59 95 60 96 61 97
REMARK H PARENT 19 5 10 18 23 28 85 47 51 58
REMARK Flexibility Score: inf
ROOT
ATOM      1  C   UNL A   1      32.631  30.246  26.246  1.00  0.00     0.117 C 
ENDROOT
BRANCH   1   2
ATOM      2  N   UNL A   1      31.953  29.105  26.806  1.00  0.00    -0.356 N 
ATOM      3  C   UNL A   1      32.213  27.785  26.834  1.00  0.00     0.220 C 
ATOM      4  O   UNL A   1      31.443  27.132  27.558  1.00  0.00    -0.275 OA
ATOM      5  H   UNL A   1      31.117  29.344  27.268  1.00  0.00     0.163 HD
BRANCH   3   6
ATOM      6  C   UNL A   1      33.396  27.041  26.221  1.00  0.00     0.102 C 
BRANCH   6   7
ATOM      7  C   UNL A   1      33.505  26.107  25.008  1.00  0.00     0.031 C 
BRANCH   7   8
ATOM      8  C   UNL A   1      32.805  26.305  23.677  1.00  0.00     0.124 C 
BRANCH   8   9
ATOM      9  N   UNL A   1      32.009  27.490  23.327  1.00  0.00    -0.300 N 
ATOM     10  N   UNL A   1      29.271  27.385  23.352  1.00  0.00    -0.300 N 
ATOM     11  C   UNL A   1      28.441  28.495  22.937  1.00  0.00     0.323 C 
ATOM     12  C   UNL A   1      30.621  27.922  23.505  1.00  0.00     0.231 C 
ATOM     13  O   UNL A   1      27.226  28.565  23.047  1.00  0.00    -0.248 OA
ATOM     14  N   UNL A   1      29.285  29.510  22.474  1.00  0.00    -0.300 N 
ATOM     15  C   UNL A   1      30.564  28.934  22.345  1.00  0.00     0.228 C 
ATOM     16  N   UNL A   1      31.785  29.608  22.437  1.00  0.00    -0.314 N 
ATOM     17  C   UNL A   1      32.713  28.638  22.820  1.00  0.00     0.320 C 
ATOM     18  H   UNL A   1      31.955  30.563  22.269  1.00  0.00     0.167 HD
ATOM     19  O   UNL A   1      33.921  28.771  22.676  1.00  0.00    -0.249 OA
BRANCH  10  20
ATOM     20  C   UNL A   1      28.612  26.361  24.146  1.00  0.00     0.120 C 
ATOM     21  C   UNL A   1      29.493  25.756  25.206  1.00  0.00     0.027 C 
ENDBRANCH  10  20
BRANCH  14  22
ATOM     22  C   UNL A   1      28.953  30.901  22.256  1.00  0.00     0.120 C 
ATOM     23  C   UNL A   1      28.253  31.175  20.935  1.00  0.00     0.027 C 
ENDBRANCH  14  22
ENDBRANCH   8   9
ENDBRANCH   7   8
ENDBRANCH   6   7
ENDBRANCH   3   6
ENDBRANCH   1   2
BRANCH   1  24
ATOM     24  C   UNL A   1      32.130  31.566  26.804  1.00  0.00     0.042 C 
BRANCH  24  25
ATOM     25  C   UNL A   1      33.223  32.371  27.464  1.00  0.00     0.118 C 
BRANCH  25  26
ATOM     26  N   UNL A   1      32.826  33.757  27.691  1.00  0.00    -0.352 N 
ATOM     27  C   UNL A   1      33.271  34.631  28.659  1.00  0.00     0.251 C 
ATOM     28  H   UNL A   1      32.153  34.116  27.069  1.00  0.00     0.163 HD
ATOM     29  O   UNL A   1      32.717  35.715  28.808  1.00  0.00    -0.269 OA
BRANCH  27  30
ATOM     30  C   UNL A   1      34.381  34.220  29.547  1.00  0.00     0.039 A 
ATOM     31  C   UNL A   1      34.096  33.523  30.723  1.00  0.00     0.014 A 
ATOM     32  C   UNL A   1      35.707  34.451  29.174  1.00  0.00     0.014 A 
ATOM     33  C   UNL A   1      35.144  32.977  31.469  1.00  0.00     0.010 A 
ATOM     34  C   UNL A   1      36.732  33.792  29.838  1.00  0.00     0.010 A 
ATOM     35  C   UNL A   1      36.466  33.057  31.000  1.00  0.00    -0.014 A 
BRANCH  35  36
ATOM     36  C   UNL A   1      37.591  32.393  31.709  1.00  0.00     0.031 A 
ATOM     37  C   UNL A   1      38.035  32.908  33.055  1.00  0.00     0.074 A 
ATOM     38  C   UNL A   1      38.265  31.390  31.108  1.00  0.00     0.049 A 
ATOM     39  N   UNL A   1      39.048  32.530  33.790  1.00  0.00    -0.248 NA
ATOM     40  C   UNL A   1      37.264  34.024  33.632  1.00  0.00     0.031 C 
ATOM     41  C   UNL A   1      37.982  30.858  29.772  1.00  0.00     0.029 A 
ATOM     42  N   UNL A   1      39.337  30.647  31.535  1.00  0.00    -0.354 N 
ATOM     43  C   UNL A   1      39.050  33.376  34.894  1.00  0.00     0.074 A 
ATOM     44  C   UNL A   1      37.982  34.329  34.702  1.00  0.00     0.031 C 
ATOM     45  C   UNL A   1      38.835  29.856  29.504  1.00  0.00     0.029 A 
ATOM     46  C   UNL A   1      39.755  29.702  30.626  1.00  0.00     0.049 A 
ATOM     47  H   UNL A   1      39.766  30.778  32.412  1.00  0.00     0.167 HD
ATOM     48  C   UNL A   1      39.852  33.343  35.984  1.00  0.00     0.037 A 
ATOM     49  C   UNL A   1      40.771  28.820  30.686  1.00  0.00     0.037 A 
ATOM     50  C   UNL A   1      40.879  32.356  36.188  1.00  0.00     0.049 A 
ATOM     51  C   UNL A   1      41.627  28.779  31.925  1.00  0.00     0.074 A 
ATOM     52  C   UNL A   1      41.686  32.175  37.297  1.00  0.00     0.029 A 
ATOM     53  N   UNL A   1      41.241  31.387  35.265  1.00  0.00    -0.354 N 
ATOM     54  N   UNL A   1      41.556  29.529  32.999  1.00  0.00    -0.248 NA
ATOM     55  C   UNL A   1      42.693  27.769  31.965  1.00  0.00     0.031 C 
ATOM     56  C   UNL A   1      42.572  31.130  37.024  1.00  0.00     0.029 A 
ATOM     57  C   UNL A   1      42.278  30.621  35.769  1.00  0.00     0.049 A 
ATOM     58  H   UNL A   1      40.823  31.262  34.383  1.00  0.00     0.167 HD
ATOM     59  C   UNL A   1      42.552  29.067  33.852  1.00  0.00     0.074 A 
ATOM     60  C   UNL A   1      43.197  27.960  33.176  1.00  0.00     0.031 C 
ATOM     61  C   UNL A   1      42.903  29.518  35.082  1.00  0.00     0.037 A 
BRANCH  48  62
ATOM     62  C   UNL A   1      39.642  34.388  37.045  1.00  0.00     0.058 A 
ATOM     63  C   UNL A   1      38.974  34.101  38.247  1.00  0.00     0.135 A 
ATOM     64  C   UNL A   1      40.158  35.684  36.879  1.00  0.00     0.135 A 
ATOM     65  F   UNL A   1      38.444  32.885  38.453  1.00  0.00    -0.206 F 
ATOM     66  C   UNL A   1      38.807  35.066  39.235  1.00  0.00     0.059 A 
ATOM     67  C   UNL A   1      40.030  36.655  37.867  1.00  0.00     0.059 A 
ATOM     68  F   UNL A   1      40.801  36.015  35.747  1.00  0.00    -0.206 F 
ATOM     69  C   UNL A   1      39.343  36.339  39.038  1.00  0.00     0.060 A 
BRANCH  69  70
ATOM     70  S   UNL A   1      39.141  37.568  40.344  1.00  0.00     0.124 S 
ATOM     71  O   UNL A   1      38.077  38.404  39.794  1.00  0.00    -0.237 OA
ATOM     72  O   UNL A   1      38.771  36.745  41.490  1.00  0.00    -0.237 OA
ATOM     73  O   UNL A   1      40.454  38.199  40.425  1.00  0.00    -0.744 OA
ENDBRANCH  69  70
ENDBRANCH  48  62
BRANCH  49  74
ATOM     74  C   UNL A   1      41.027  27.894  29.548  1.00  0.00     0.058 A 
ATOM     75  C   UNL A   1      42.143  28.058  28.714  1.00  0.00     0.135 A 
ATOM     76  C   UNL A   1      40.160  26.824  29.271  1.00  0.00     0.135 A 
ATOM     77  F   UNL A   1      43.000  29.066  28.933  1.00  0.00    -0.206 F 
ATOM     78  C   UNL A   1      42.380  27.212  27.633  1.00  0.00     0.059 A 
ATOM     79  C   UNL A   1      40.391  25.947  28.214  1.00  0.00     0.059 A 
ATOM     80  F   UNL A   1      39.087  26.609  30.048  1.00  0.00    -0.206 F 
ATOM     81  C   UNL A   1      41.496  26.159  27.392  1.00  0.00     0.060 A 
BRANCH  81  82
ATOM     82  S   UNL A   1      41.830  25.049  26.007  1.00  0.00     0.124 S 
ATOM     83  O   UNL A   1      43.289  25.045  25.979  1.00  0.00    -0.237 OA
ATOM     84  O   UNL A   1      41.197  23.810  26.449  1.00  0.00    -0.237 OA
ATOM     85  O   UNL A   1      41.179  25.711  24.881  1.00  0.00    -0.744 OA
ENDBRANCH  81  82
ENDBRANCH  49  74
BRANCH  61  86
ATOM     86  C   UNL A   1      44.014  28.797  35.793  1.00  0.00     0.058 A 
ATOM     87  C   UNL A   1      45.352  29.205  35.674  1.00  0.00     0.135 A 
ATOM     88  C   UNL A   1      43.729  27.723  36.651  1.00  0.00     0.135 A 
ATOM     89  F   UNL A   1      45.680  30.223  34.863  1.00  0.00    -0.206 F 
ATOM     90  C   UNL A   1      46.371  28.556  36.363  1.00  0.00     0.059 A 
ATOM     91  C   UNL A   1      44.727  27.080  37.374  1.00  0.00     0.059 A 
ATOM     92  F   UNL A   1      42.462  27.303  36.811  1.00  0.00    -0.206 F 
ATOM     93  C   UNL A   1      46.048  27.495  37.213  1.00  0.00     0.060 A 
BRANCH  93  94
ATOM     94  S   UNL A   1      47.376  26.685  38.126  1.00  0.00     0.124 S 
ATOM     95  O   UNL A   1      46.800  26.591  39.463  1.00  0.00    -0.237 OA
ATOM     96  O   UNL A   1      47.524  25.423  37.408  1.00  0.00    -0.237 OA
ATOM     97  O   UNL A   1      48.497  27.611  37.990  1.00  0.00    -0.744 OA
ENDBRANCH  93  94
ENDBRANCH  61  86
ENDBRANCH  35  36
ENDBRANCH  27  30
ENDBRANCH  25  26
ENDBRANCH  24  25
ENDBRANCH   1  24
TORSDOF 18
ENDMDL
