MODEL 1
REMARK VINA RESULT:     -12.5      0.000      0.000
REMARK SMILES N#Cc1ccc(C(=O)NCCCNC(=O)c2ccc(-c3c4nc(c(-c5c(F)cc(S(=O)(=O)[O-])cc5F)c5ccc([nH]5)c(-c5c(F)cc(S(=O)(=O)[O-])cc5F)c5nc(c(-c6c(F)cc(S(=O)(=O)[O-])cc6F)c6ccc3[nH]6)C=C5)C=C4)cc2)nc1/C=C/c1ccc(O)c(Cl)c1
REMARK SMILES IDX 11 1 10 2 9 3 7 4 8 5 6 7 3 8 4 9 83 10 5 11 82 12 2 13 1 14
REMARK SMILES IDX 84 15 85 16 86 17 87 18 93 19 88 20 91 21 89 22 92 23 90 24
REMARK SMILES IDX 12 26 13 27 14 28 15 30 16 31 17 32 81 33 18 34 80 35 19 36
REMARK SMILES IDX 20 37 21 38 74 39 22 40 79 41 73 42 75 43 23 44 78 45 72 46
REMARK SMILES IDX 71 47 24 49 58 50 37 51 57 52 38 53 41 54 56 55 76 56 39 57
REMARK SMILES IDX 40 58 55 60 77 61 42 62 25 63 26 64 35 65 27 66 28 67 34 68
REMARK SMILES IDX 36 69 29 70 30 71 31 72 32 73 33 74 59 75 60 76 69 77 61 78
REMARK SMILES IDX 62 79 68 80 70 81 63 82 64 83 65 84 66 85 67 86 43 87 44 88
REMARK SMILES IDX 53 89 45 90 46 91 52 92 54 93 47 94 48 95 49 96 50 97 51 98
REMARK H PARENT 9 6 90 25 13 29 75 48 41 59
REMARK Flexibility Score: inf
ROOT
ATOM      1  C   UNL A   1      38.297  23.545  26.327  1.00  0.00     0.042 C 
ENDROOT
BRANCH   1   2
ATOM      2  C   UNL A   1      37.895  22.243  25.642  1.00  0.00     0.118 C 
BRANCH   2   3
ATOM      3  N   UNL A   1      37.426  22.469  24.288  1.00  0.00    -0.351 N 
ATOM      4  C   UNL A   1      36.227  22.798  23.704  1.00  0.00     0.269 C 
ATOM      5  O   UNL A   1      36.275  22.954  22.479  1.00  0.00    -0.268 OA
ATOM      6  H   UNL A   1      38.145  22.359  23.623  1.00  0.00     0.163 HD
BRANCH   4   7
ATOM      7  C   UNL A   1      34.908  22.983  24.418  1.00  0.00     0.128 A 
ATOM      8  C   UNL A   1      32.564  23.620  25.757  1.00  0.00     0.078 A 
ATOM      9  C   UNL A   1      32.765  22.327  25.281  1.00  0.00     0.024 A 
ATOM     10  C   UNL A   1      33.575  24.557  25.554  1.00  0.00     0.082 A 
ATOM     11  C   UNL A   1      33.938  22.011  24.595  1.00  0.00     0.035 A 
ATOM     12  N   UNL A   1      34.724  24.246  24.902  1.00  0.00    -0.242 NA
BRANCH   8  13
ATOM     13  C   UNL A   1      31.348  23.923  26.442  1.00  0.00     0.101 C 
ATOM     14  N   UNL A   1      30.361  24.164  27.008  1.00  0.00    -0.192 NA
ENDBRANCH   8  13
BRANCH  10  15
ATOM     15  C   UNL A   1      33.484  25.926  26.097  1.00  0.00     0.030 C 
ATOM     16  C   UNL A   1      33.503  27.061  25.378  1.00  0.00     0.010 C 
BRANCH  16  17
ATOM     17  C   UNL A   1      33.548  28.367  26.048  1.00  0.00    -0.024 A 
ATOM     18  C   UNL A   1      34.632  28.710  26.863  1.00  0.00     0.012 A 
ATOM     19  C   UNL A   1      32.486  29.276  25.903  1.00  0.00     0.032 A 
ATOM     20  C   UNL A   1      34.679  29.960  27.491  1.00  0.00     0.048 A 
ATOM     21  C   UNL A   1      32.536  30.521  26.525  1.00  0.00     0.083 A 
ATOM     22  C   UNL A   1      33.634  30.862  27.312  1.00  0.00     0.134 A 
ATOM     23  Cl  UNL A   1      31.233  31.630  26.308  1.00  0.00    -0.080 Cl
BRANCH  22  24
ATOM     24  O   UNL A   1      33.729  32.077  27.932  1.00  0.00    -0.506 OA
ATOM     25  H   UNL A   1      33.978  32.126  28.834  1.00  0.00     0.293 HD
ENDBRANCH  22  24
ENDBRANCH  16  17
ENDBRANCH  10  15
ENDBRANCH   4   7
ENDBRANCH   2   3
ENDBRANCH   1   2
BRANCH   1  26
ATOM     26  C   UNL A   1      39.670  23.450  26.993  1.00  0.00     0.118 C 
BRANCH  26  27
ATOM     27  N   UNL A   1      40.724  23.996  26.140  1.00  0.00    -0.352 N 
ATOM     28  C   UNL A   1      41.225  25.269  26.043  1.00  0.00     0.251 C 
ATOM     29  H   UNL A   1      41.146  23.342  25.536  1.00  0.00     0.163 HD
ATOM     30  O   UNL A   1      41.889  25.584  25.059  1.00  0.00    -0.269 OA
BRANCH  28  31
ATOM     31  C   UNL A   1      40.964  26.251  27.112  1.00  0.00     0.039 A 
ATOM     32  C   UNL A   1      40.157  25.890  28.193  1.00  0.00     0.014 A 
ATOM     33  C   UNL A   1      41.505  27.536  27.035  1.00  0.00     0.014 A 
ATOM     34  C   UNL A   1      39.961  26.796  29.236  1.00  0.00     0.010 A 
ATOM     35  C   UNL A   1      41.396  28.396  28.120  1.00  0.00     0.010 A 
ATOM     36  C   UNL A   1      40.620  28.037  29.230  1.00  0.00    -0.014 A 
BRANCH  36  37
ATOM     37  C   UNL A   1      40.523  28.971  30.379  1.00  0.00     0.031 A 
ATOM     38  C   UNL A   1      41.408  28.785  31.581  1.00  0.00     0.074 A 
ATOM     39  C   UNL A   1      39.584  29.938  30.365  1.00  0.00     0.049 A 
ATOM     40  N   UNL A   1      41.418  29.449  32.707  1.00  0.00    -0.248 NA
ATOM     41  C   UNL A   1      42.394  27.694  31.521  1.00  0.00     0.031 C 
ATOM     42  C   UNL A   1      38.637  30.182  29.275  1.00  0.00     0.029 A 
ATOM     43  N   UNL A   1      39.263  30.891  31.299  1.00  0.00    -0.354 N 
ATOM     44  C   UNL A   1      42.398  28.852  33.490  1.00  0.00     0.074 A 
ATOM     45  C   UNL A   1      42.917  27.732  32.737  1.00  0.00     0.031 C 
ATOM     46  C   UNL A   1      37.863  31.233  29.588  1.00  0.00     0.029 A 
ATOM     47  C   UNL A   1      38.220  31.704  30.923  1.00  0.00     0.049 A 
ATOM     48  H   UNL A   1      39.735  30.984  32.157  1.00  0.00     0.167 HD
ATOM     49  C   UNL A   1      42.842  29.219  34.715  1.00  0.00     0.037 A 
ATOM     50  C   UNL A   1      37.607  32.705  31.584  1.00  0.00     0.037 A 
ATOM     51  C   UNL A   1      42.320  30.342  35.451  1.00  0.00     0.049 A 
ATOM     52  C   UNL A   1      38.096  33.073  32.958  1.00  0.00     0.074 A 
ATOM     53  C   UNL A   1      42.734  30.832  36.677  1.00  0.00     0.029 A 
ATOM     54  N   UNL A   1      41.265  31.143  35.036  1.00  0.00    -0.354 N 
ATOM     55  N   UNL A   1      39.075  32.543  33.655  1.00  0.00    -0.248 NA
ATOM     56  C   UNL A   1      37.402  34.174  33.637  1.00  0.00     0.031 C 
ATOM     57  C   UNL A   1      41.885  31.883  37.036  1.00  0.00     0.029 A 
ATOM     58  C   UNL A   1      40.990  32.100  36.000  1.00  0.00     0.049 A 
ATOM     59  H   UNL A   1      40.783  31.046  34.184  1.00  0.00     0.167 HD
ATOM     60  C   UNL A   1      39.132  33.268  34.840  1.00  0.00     0.074 A 
ATOM     61  C   UNL A   1      38.103  34.283  34.758  1.00  0.00     0.031 C 
ATOM     62  C   UNL A   1      39.963  33.108  35.901  1.00  0.00     0.037 A 
BRANCH  49  63
ATOM     63  C   UNL A   1      43.938  28.399  35.341  1.00  0.00     0.058 A 
ATOM     64  C   UNL A   1      45.296  28.672  35.105  1.00  0.00     0.135 A 
ATOM     65  C   UNL A   1      43.628  27.350  36.223  1.00  0.00     0.135 A 
ATOM     66  F   UNL A   1      45.653  29.651  34.259  1.00  0.00    -0.206 F 
ATOM     67  C   UNL A   1      46.304  27.917  35.696  1.00  0.00     0.059 A 
ATOM     68  C   UNL A   1      44.621  26.605  36.854  1.00  0.00     0.059 A 
ATOM     69  F   UNL A   1      42.348  27.042  36.483  1.00  0.00    -0.206 F 
ATOM     70  C   UNL A   1      45.957  26.889  36.572  1.00  0.00     0.060 A 
BRANCH  70  71
ATOM     71  S   UNL A   1      47.280  25.931  37.341  1.00  0.00     0.124 S 
ATOM     72  O   UNL A   1      48.459  26.484  36.680  1.00  0.00    -0.237 OA
ATOM     73  O   UNL A   1      47.127  26.272  38.752  1.00  0.00    -0.237 OA
ATOM     74  O   UNL A   1      46.952  24.554  36.991  1.00  0.00    -0.744 OA
ENDBRANCH  70  71
ENDBRANCH  49  63
BRANCH  50  75
ATOM     75  C   UNL A   1      36.472  33.432  30.952  1.00  0.00     0.058 A 
ATOM     76  C   UNL A   1      35.165  33.305  31.448  1.00  0.00     0.135 A 
ATOM     77  C   UNL A   1      36.670  34.273  29.846  1.00  0.00     0.135 A 
ATOM     78  F   UNL A   1      34.921  32.508  32.499  1.00  0.00    -0.206 F 
ATOM     79  C   UNL A   1      34.093  33.968  30.857  1.00  0.00     0.059 A 
ATOM     80  C   UNL A   1      35.620  34.973  29.260  1.00  0.00     0.059 A 
ATOM     81  F   UNL A   1      37.902  34.445  29.342  1.00  0.00    -0.206 F 
ATOM     82  C   UNL A   1      34.333  34.805  29.767  1.00  0.00     0.060 A 
BRANCH  82  83
ATOM     83  S   UNL A   1      32.942  35.697  29.041  1.00  0.00     0.124 S 
ATOM     84  O   UNL A   1      32.365  34.683  28.166  1.00  0.00    -0.237 OA
ATOM     85  O   UNL A   1      32.158  36.047  30.221  1.00  0.00    -0.237 OA
ATOM     86  O   UNL A   1      33.581  36.823  28.366  1.00  0.00    -0.744 OA
ENDBRANCH  82  83
ENDBRANCH  50  75
BRANCH  62  87
ATOM     87  C   UNL A   1      39.819  34.074  37.048  1.00  0.00     0.058 A 
ATOM     88  C   UNL A   1      40.392  35.354  37.018  1.00  0.00     0.135 A 
ATOM     89  C   UNL A   1      39.048  33.729  38.172  1.00  0.00     0.135 A 
ATOM     90  F   UNL A   1      41.145  35.735  35.973  1.00  0.00    -0.206 F 
ATOM     91  C   UNL A   1      40.229  36.249  38.070  1.00  0.00     0.059 A 
ATOM     92  C   UNL A   1      38.839  34.621  39.217  1.00  0.00     0.059 A 
ATOM     93  F   UNL A   1      38.468  32.521  38.249  1.00  0.00    -0.206 F 
ATOM     94  C   UNL A   1      39.444  35.875  39.163  1.00  0.00     0.060 A 
BRANCH  94  95
ATOM     95  S   UNL A   1      39.209  37.063  40.503  1.00  0.00     0.124 S 
ATOM     96  O   UNL A   1      38.473  38.126  39.826  1.00  0.00    -0.237 OA
ATOM     97  O   UNL A   1      38.448  36.285  41.475  1.00  0.00    -0.237 OA
ATOM     98  O   UNL A   1      40.571  37.399  40.903  1.00  0.00    -0.744 OA
ENDBRANCH  94  95
ENDBRANCH  62  87
ENDBRANCH  36  37
ENDBRANCH  28  31
ENDBRANCH  26  27
ENDBRANCH   1  26
TORSDOF 17
ENDMDL
MODEL 2
REMARK VINA RESULT:     -12.2      6.552     12.255
REMARK SMILES N#Cc1ccc(C(=O)NCCCNC(=O)c2ccc(-c3c4nc(c(-c5c(F)cc(S(=O)(=O)[O-])cc5F)c5ccc([nH]5)c(-c5c(F)cc(S(=O)(=O)[O-])cc5F)c5nc(c(-c6c(F)cc(S(=O)(=O)[O-])cc6F)c6ccc3[nH]6)C=C5)C=C4)cc2)nc1/C=C/c1ccc(O)c(Cl)c1
REMARK SMILES IDX 11 1 10 2 9 3 7 4 8 5 6 7 3 8 4 9 83 10 5 11 82 12 2 13 1 14
REMARK SMILES IDX 84 15 85 16 86 17 87 18 93 19 88 20 91 21 89 22 92 23 90 24
REMARK SMILES IDX 12 26 13 27 14 28 15 30 16 31 17 32 81 33 18 34 80 35 19 36
REMARK SMILES IDX 20 37 21 38 74 39 22 40 79 41 73 42 75 43 23 44 78 45 72 46
REMARK SMILES IDX 71 47 24 49 58 50 37 51 57 52 38 53 41 54 56 55 76 56 39 57
REMARK SMILES IDX 40 58 55 60 77 61 42 62 25 63 26 64 35 65 27 66 28 67 34 68
REMARK SMILES IDX 36 69 29 70 30 71 31 72 32 73 33 74 59 75 60 76 69 77 61 78
REMARK SMILES IDX 62 79 68 80 70 81 63 82 64 83 65 84 66 85 67 86 43 87 44 88
REMARK SMILES IDX 53 89 45 90 46 91 52 92 54 93 47 94 48 95 49 96 50 97 51 98
REMARK H PARENT 9 6 90 25 13 29 75 48 41 59
REMARK Flexibility Score: inf
ROOT
ATOM      1  C   UNL A   1      34.254  31.791  28.276  1.00  0.00     0.042 C 
ENDROOT
BRANCH   1   2
ATOM      2  C   UNL A   1      33.849  30.822  27.169  1.00  0.00     0.118 C 
BRANCH   2   3
ATOM      3  N   UNL A   1      32.844  29.878  27.621  1.00  0.00    -0.351 N 
ATOM      4  C   UNL A   1      32.213  28.782  27.084  1.00  0.00     0.269 C 
ATOM      5  O   UNL A   1      31.434  28.208  27.853  1.00  0.00    -0.268 OA
ATOM      6  H   UNL A   1      32.539  30.070  28.537  1.00  0.00     0.163 HD
BRANCH   4   7
ATOM      7  C   UNL A   1      32.395  28.244  25.684  1.00  0.00     0.128 A 
ATOM      8  C   UNL A   1      32.861  27.009  23.244  1.00  0.00     0.078 A 
ATOM      9  C   UNL A   1      32.179  28.221  23.293  1.00  0.00     0.024 A 
ATOM     10  C   UNL A   1      33.307  26.461  24.445  1.00  0.00     0.082 A 
ATOM     11  C   UNL A   1      31.932  28.835  24.520  1.00  0.00     0.035 A 
ATOM     12  N   UNL A   1      33.084  27.066  25.640  1.00  0.00    -0.242 NA
BRANCH   8  13
ATOM     13  C   UNL A   1      33.088  26.393  21.976  1.00  0.00     0.101 C 
ATOM     14  N   UNL A   1      33.278  25.898  20.941  1.00  0.00    -0.192 NA
ENDBRANCH   8  13
BRANCH  10  15
ATOM     15  C   UNL A   1      34.111  25.224  24.482  1.00  0.00     0.030 C 
ATOM     16  C   UNL A   1      34.792  24.760  25.543  1.00  0.00     0.010 C 
BRANCH  16  17
ATOM     17  C   UNL A   1      35.670  23.590  25.412  1.00  0.00    -0.024 A 
ATOM     18  C   UNL A   1      35.221  22.436  24.760  1.00  0.00     0.012 A 
ATOM     19  C   UNL A   1      36.962  23.605  25.965  1.00  0.00     0.032 A 
ATOM     20  C   UNL A   1      36.064  21.326  24.625  1.00  0.00     0.048 A 
ATOM     21  C   UNL A   1      37.800  22.502  25.826  1.00  0.00     0.083 A 
ATOM     22  C   UNL A   1      37.351  21.368  25.151  1.00  0.00     0.134 A 
ATOM     23  Cl  UNL A   1      39.390  22.557  26.491  1.00  0.00    -0.080 Cl
BRANCH  22  24
ATOM     24  O   UNL A   1      38.145  20.268  24.982  1.00  0.00    -0.506 OA
ATOM     25  H   UNL A   1      38.592  19.894  25.717  1.00  0.00     0.293 HD
ENDBRANCH  22  24
ENDBRANCH  16  17
ENDBRANCH  10  15
ENDBRANCH   4   7
ENDBRANCH   2   3
ENDBRANCH   1   2
BRANCH   1  26
ATOM     26  C   UNL A   1      35.660  31.508  28.806  1.00  0.00     0.118 C 
BRANCH  26  27
ATOM     27  N   UNL A   1      35.657  31.266  30.248  1.00  0.00    -0.352 N 
ATOM     28  C   UNL A   1      36.453  30.459  31.020  1.00  0.00     0.251 C 
ATOM     29  H   UNL A   1      34.970  31.764  30.748  1.00  0.00     0.163 HD
ATOM     30  O   UNL A   1      36.093  30.163  32.156  1.00  0.00    -0.269 OA
BRANCH  28  31
ATOM     31  C   UNL A   1      37.731  29.950  30.486  1.00  0.00     0.039 A 
ATOM     32  C   UNL A   1      37.978  30.022  29.114  1.00  0.00     0.014 A 
ATOM     33  C   UNL A   1      38.677  29.386  31.344  1.00  0.00     0.014 A 
ATOM     34  C   UNL A   1      39.211  29.600  28.616  1.00  0.00     0.010 A 
ATOM     35  C   UNL A   1      39.939  29.065  30.863  1.00  0.00     0.010 A 
ATOM     36  C   UNL A   1      40.218  29.165  29.493  1.00  0.00    -0.014 A 
BRANCH  36  37
ATOM     37  C   UNL A   1      41.576  28.820  29.003  1.00  0.00     0.031 A 
ATOM     38  C   UNL A   1      42.631  29.887  28.889  1.00  0.00     0.074 A 
ATOM     39  C   UNL A   1      41.830  27.562  28.593  1.00  0.00     0.049 A 
ATOM     40  N   UNL A   1      43.845  29.796  28.414  1.00  0.00    -0.248 NA
ATOM     41  C   UNL A   1      42.265  31.239  29.343  1.00  0.00     0.031 C 
ATOM     42  C   UNL A   1      40.869  26.456  28.611  1.00  0.00     0.029 A 
ATOM     43  N   UNL A   1      42.968  27.000  28.071  1.00  0.00    -0.354 N 
ATOM     44  C   UNL A   1      44.383  31.074  28.502  1.00  0.00     0.074 A 
ATOM     45  C   UNL A   1      43.342  31.937  29.015  1.00  0.00     0.031 C 
ATOM     46  C   UNL A   1      41.465  25.345  28.152  1.00  0.00     0.029 A 
ATOM     47  C   UNL A   1      42.832  25.669  27.755  1.00  0.00     0.049 A 
ATOM     48  H   UNL A   1      43.803  27.503  27.935  1.00  0.00     0.167 HD
ATOM     49  C   UNL A   1      45.638  31.487  28.205  1.00  0.00     0.037 A 
ATOM     50  C   UNL A   1      43.703  24.809  27.193  1.00  0.00     0.037 A 
ATOM     51  C   UNL A   1      46.668  30.615  27.702  1.00  0.00     0.049 A 
ATOM     52  C   UNL A   1      45.081  25.299  26.840  1.00  0.00     0.074 A 
ATOM     53  C   UNL A   1      47.987  30.919  27.417  1.00  0.00     0.029 A 
ATOM     54  N   UNL A   1      46.493  29.271  27.396  1.00  0.00    -0.354 N 
ATOM     55  N   UNL A   1      45.597  26.496  26.998  1.00  0.00    -0.248 NA
ATOM     56  C   UNL A   1      45.998  24.324  26.236  1.00  0.00     0.031 C 
ATOM     57  C   UNL A   1      48.590  29.780  26.874  1.00  0.00     0.029 A 
ATOM     58  C   UNL A   1      47.671  28.744  26.892  1.00  0.00     0.049 A 
ATOM     59  H   UNL A   1      45.656  28.768  27.519  1.00  0.00     0.167 HD
ATOM     60  C   UNL A   1      46.907  26.408  26.541  1.00  0.00     0.074 A 
ATOM     61  C   UNL A   1      47.110  25.038  26.118  1.00  0.00     0.031 C 
ATOM     62  C   UNL A   1      47.857  27.374  26.478  1.00  0.00     0.037 A 
BRANCH  49  63
ATOM     63  C   UNL A   1      45.967  32.941  28.409  1.00  0.00     0.058 A 
ATOM     64  C   UNL A   1      45.702  33.908  27.425  1.00  0.00     0.135 A 
ATOM     65  C   UNL A   1      46.516  33.382  29.625  1.00  0.00     0.135 A 
ATOM     66  F   UNL A   1      45.192  33.544  26.238  1.00  0.00    -0.206 F 
ATOM     67  C   UNL A   1      45.998  35.252  27.626  1.00  0.00     0.059 A 
ATOM     68  C   UNL A   1      46.787  34.728  29.862  1.00  0.00     0.059 A 
ATOM     69  F   UNL A   1      46.794  32.504  30.600  1.00  0.00    -0.206 F 
ATOM     70  C   UNL A   1      46.536  35.653  28.849  1.00  0.00     0.060 A 
BRANCH  70  71
ATOM     71  S   UNL A   1      46.898  37.404  29.096  1.00  0.00     0.124 S 
ATOM     72  O   UNL A   1      48.327  37.450  28.797  1.00  0.00    -0.237 OA
ATOM     73  O   UNL A   1      46.025  38.041  28.116  1.00  0.00    -0.237 OA
ATOM     74  O   UNL A   1      46.543  37.633  30.492  1.00  0.00    -0.744 OA
ENDBRANCH  70  71
ENDBRANCH  49  63
BRANCH  50  75
ATOM     75  C   UNL A   1      43.300  23.399  26.936  1.00  0.00     0.058 A 
ATOM     76  C   UNL A   1      43.053  22.942  25.633  1.00  0.00     0.135 A 
ATOM     77  C   UNL A   1      43.161  22.478  27.987  1.00  0.00     0.135 A 
ATOM     78  F   UNL A   1      43.166  23.784  24.594  1.00  0.00    -0.206 F 
ATOM     79  C   UNL A   1      42.661  21.631  25.381  1.00  0.00     0.059 A 
ATOM     80  C   UNL A   1      42.804  21.153  27.757  1.00  0.00     0.059 A 
ATOM     81  F   UNL A   1      43.402  22.857  29.251  1.00  0.00    -0.206 F 
ATOM     82  C   UNL A   1      42.546  20.742  26.451  1.00  0.00     0.060 A 
BRANCH  82  83
ATOM     83  S   UNL A   1      42.085  19.031  26.106  1.00  0.00     0.124 S 
ATOM     84  O   UNL A   1      42.369  18.386  27.383  1.00  0.00    -0.237 OA
ATOM     85  O   UNL A   1      40.675  19.162  25.754  1.00  0.00    -0.237 OA
ATOM     86  O   UNL A   1      42.967  18.662  25.003  1.00  0.00    -0.744 OA
ENDBRANCH  82  83
ENDBRANCH  50  75
BRANCH  62  87
ATOM     87  C   UNL A   1      49.217  26.979  25.964  1.00  0.00     0.058 A 
ATOM     88  C   UNL A   1      49.554  27.071  24.605  1.00  0.00     0.135 A 
ATOM     89  C   UNL A   1      50.216  26.555  26.858  1.00  0.00     0.135 A 
ATOM     90  F   UNL A   1      48.637  27.463  23.706  1.00  0.00    -0.206 F 
ATOM     91  C   UNL A   1      50.822  26.731  24.146  1.00  0.00     0.059 A 
ATOM     92  C   UNL A   1      51.501  26.247  26.426  1.00  0.00     0.059 A 
ATOM     93  F   UNL A   1      49.952  26.458  28.171  1.00  0.00    -0.206 F 
ATOM     94  C   UNL A   1      51.791  26.327  25.066  1.00  0.00     0.060 A 
BRANCH  94  95
ATOM     95  S   UNL A   1      53.444  25.928  24.458  1.00  0.00     0.124 S 
ATOM     96  O   UNL A   1      53.506  24.490  24.697  1.00  0.00    -0.237 OA
ATOM     97  O   UNL A   1      53.366  26.336  23.059  1.00  0.00    -0.237 OA
ATOM     98  O   UNL A   1      54.320  26.742  25.295  1.00  0.00    -0.744 OA
ENDBRANCH  94  95
ENDBRANCH  62  87
ENDBRANCH  36  37
ENDBRANCH  28  31
ENDBRANCH  26  27
ENDBRANCH   1  26
TORSDOF 17
ENDMDL
MODEL 3
REMARK VINA RESULT:     -12.1      6.769     11.845
REMARK SMILES N#Cc1ccc(C(=O)NCCCNC(=O)c2ccc(-c3c4nc(c(-c5c(F)cc(S(=O)(=O)[O-])cc5F)c5ccc([nH]5)c(-c5c(F)cc(S(=O)(=O)[O-])cc5F)c5nc(c(-c6c(F)cc(S(=O)(=O)[O-])cc6F)c6ccc3[nH]6)C=C5)C=C4)cc2)nc1/C=C/c1ccc(O)c(Cl)c1
REMARK SMILES IDX 11 1 10 2 9 3 7 4 8 5 6 7 3 8 4 9 83 10 5 11 82 12 2 13 1 14
REMARK SMILES IDX 84 15 85 16 86 17 87 18 93 19 88 20 91 21 89 22 92 23 90 24
REMARK SMILES IDX 12 26 13 27 14 28 15 30 16 31 17 32 81 33 18 34 80 35 19 36
REMARK SMILES IDX 20 37 21 38 74 39 22 40 79 41 73 42 75 43 23 44 78 45 72 46
REMARK SMILES IDX 71 47 24 49 58 50 37 51 57 52 38 53 41 54 56 55 76 56 39 57
REMARK SMILES IDX 40 58 55 60 77 61 42 62 25 63 26 64 35 65 27 66 28 67 34 68
REMARK SMILES IDX 36 69 29 70 30 71 31 72 32 73 33 74 59 75 60 76 69 77 61 78
REMARK SMILES IDX 62 79 68 80 70 81 63 82 64 83 65 84 66 85 67 86 43 87 44 88
REMARK SMILES IDX 53 89 45 90 46 91 52 92 54 93 47 94 48 95 49 96 50 97 51 98
REMARK H PARENT 9 6 90 25 13 29 75 48 41 59
REMARK Flexibility Score: inf
ROOT
ATOM      1  C   UNL A   1      34.862  30.161  27.530  1.00  0.00     0.042 C 
ENDROOT
BRANCH   1   2
ATOM      2  C   UNL A   1      33.459  30.688  27.245  1.00  0.00     0.118 C 
BRANCH   2   3
ATOM      3  N   UNL A   1      32.437  29.733  27.626  1.00  0.00    -0.351 N 
ATOM      4  C   UNL A   1      31.844  28.640  27.040  1.00  0.00     0.269 C 
ATOM      5  O   UNL A   1      31.026  28.051  27.756  1.00  0.00    -0.268 OA
ATOM      6  H   UNL A   1      32.079  29.911  28.527  1.00  0.00     0.163 HD
BRANCH   4   7
ATOM      7  C   UNL A   1      32.109  28.122  25.646  1.00  0.00     0.128 A 
ATOM      8  C   UNL A   1      32.726  26.925  23.221  1.00  0.00     0.078 A 
ATOM      9  C   UNL A   1      32.012  28.120  23.247  1.00  0.00     0.024 A 
ATOM     10  C   UNL A   1      33.126  26.375  24.437  1.00  0.00     0.082 A 
ATOM     11  C   UNL A   1      31.689  28.714  24.467  1.00  0.00     0.035 A 
ATOM     12  N   UNL A   1      32.828  26.962  25.625  1.00  0.00    -0.242 NA
BRANCH   8  13
ATOM     13  C   UNL A   1      33.030  26.328  21.960  1.00  0.00     0.101 C 
ATOM     14  N   UNL A   1      33.278  25.851  20.929  1.00  0.00    -0.192 NA
ENDBRANCH   8  13
BRANCH  10  15
ATOM     15  C   UNL A   1      33.957  25.159  24.502  1.00  0.00     0.030 C 
ATOM     16  C   UNL A   1      34.792  24.829  25.502  1.00  0.00     0.010 C 
BRANCH  16  17
ATOM     17  C   UNL A   1      35.672  23.658  25.383  1.00  0.00    -0.024 A 
ATOM     18  C   UNL A   1      35.222  22.494  24.749  1.00  0.00     0.012 A 
ATOM     19  C   UNL A   1      36.965  23.684  25.932  1.00  0.00     0.032 A 
ATOM     20  C   UNL A   1      36.067  21.385  24.626  1.00  0.00     0.048 A 
ATOM     21  C   UNL A   1      37.805  22.581  25.805  1.00  0.00     0.083 A 
ATOM     22  C   UNL A   1      37.357  21.437  25.147  1.00  0.00     0.134 A 
ATOM     23  Cl  UNL A   1      39.398  22.648  26.463  1.00  0.00    -0.080 Cl
BRANCH  22  24
ATOM     24  O   UNL A   1      38.152  20.336  24.991  1.00  0.00    -0.506 OA
ATOM     25  H   UNL A   1      38.639  20.001  25.718  1.00  0.00     0.293 HD
ENDBRANCH  22  24
ENDBRANCH  16  17
ENDBRANCH  10  15
ENDBRANCH   4   7
ENDBRANCH   2   3
ENDBRANCH   1   2
BRANCH   1  26
ATOM     26  C   UNL A   1      35.671  31.114  28.410  1.00  0.00     0.118 C 
BRANCH  26  27
ATOM     27  N   UNL A   1      35.669  30.691  29.810  1.00  0.00    -0.352 N 
ATOM     28  C   UNL A   1      36.603  29.996  30.535  1.00  0.00     0.251 C 
ATOM     29  H   UNL A   1      34.864  30.949  30.317  1.00  0.00     0.163 HD
ATOM     30  O   UNL A   1      36.278  29.480  31.602  1.00  0.00    -0.269 OA
BRANCH  28  31
ATOM     31  C   UNL A   1      37.984  29.868  30.034  1.00  0.00     0.039 A 
ATOM     32  C   UNL A   1      39.032  29.707  30.943  1.00  0.00     0.014 A 
ATOM     33  C   UNL A   1      38.243  29.927  28.663  1.00  0.00     0.014 A 
ATOM     34  C   UNL A   1      40.331  29.523  30.467  1.00  0.00     0.010 A 
ATOM     35  C   UNL A   1      39.516  29.640  28.190  1.00  0.00     0.010 A 
ATOM     36  C   UNL A   1      40.574  29.439  29.086  1.00  0.00    -0.014 A 
BRANCH  36  37
ATOM     37  C   UNL A   1      41.925  29.129  28.556  1.00  0.00     0.031 A 
ATOM     38  C   UNL A   1      42.265  27.727  28.129  1.00  0.00     0.074 A 
ATOM     39  C   UNL A   1      42.863  30.096  28.533  1.00  0.00     0.049 A 
ATOM     40  N   UNL A   1      43.408  27.247  27.713  1.00  0.00    -0.248 NA
ATOM     41  C   UNL A   1      41.188  26.726  28.203  1.00  0.00     0.031 C 
ATOM     42  C   UNL A   1      42.661  31.480  28.968  1.00  0.00     0.029 A 
ATOM     43  N   UNL A   1      44.176  30.065  28.134  1.00  0.00    -0.354 N 
ATOM     44  C   UNL A   1      43.191  25.894  27.488  1.00  0.00     0.074 A 
ATOM     45  C   UNL A   1      41.826  25.614  27.873  1.00  0.00     0.031 C 
ATOM     46  C   UNL A   1      43.797  32.171  28.786  1.00  0.00     0.029 A 
ATOM     47  C   UNL A   1      44.824  31.269  28.273  1.00  0.00     0.049 A 
ATOM     48  H   UNL A   1      44.612  29.256  27.782  1.00  0.00     0.167 HD
ATOM     49  C   UNL A   1      44.045  24.973  26.981  1.00  0.00     0.037 A 
ATOM     50  C   UNL A   1      46.106  31.607  28.032  1.00  0.00     0.037 A 
ATOM     51  C   UNL A   1      45.400  25.268  26.593  1.00  0.00     0.049 A 
ATOM     52  C   UNL A   1      47.045  30.558  27.502  1.00  0.00     0.074 A 
ATOM     53  C   UNL A   1      46.333  24.421  26.022  1.00  0.00     0.029 A 
ATOM     54  N   UNL A   1      46.021  26.500  26.747  1.00  0.00    -0.354 N 
ATOM     55  N   UNL A   1      46.803  29.298  27.225  1.00  0.00    -0.248 NA
ATOM     56  C   UNL A   1      48.430  30.973  27.248  1.00  0.00     0.031 C 
ATOM     57  C   UNL A   1      47.538  25.120  25.895  1.00  0.00     0.029 A 
ATOM     58  C   UNL A   1      47.336  26.425  26.316  1.00  0.00     0.049 A 
ATOM     59  H   UNL A   1      45.592  27.308  27.110  1.00  0.00     0.167 HD
ATOM     60  C   UNL A   1      47.997  28.780  26.736  1.00  0.00     0.074 A 
ATOM     61  C   UNL A   1      48.954  29.867  26.738  1.00  0.00     0.031 C 
ATOM     62  C   UNL A   1      48.276  27.519  26.321  1.00  0.00     0.037 A 
BRANCH  49  63
ATOM     63  C   UNL A   1      43.544  23.562  26.823  1.00  0.00     0.058 A 
ATOM     64  C   UNL A   1      43.340  22.719  27.927  1.00  0.00     0.135 A 
ATOM     65  C   UNL A   1      43.224  23.059  25.550  1.00  0.00     0.135 A 
ATOM     66  F   UNL A   1      43.643  23.138  29.165  1.00  0.00    -0.206 F 
ATOM     67  C   UNL A   1      42.866  21.419  27.773  1.00  0.00     0.059 A 
ATOM     68  C   UNL A   1      42.714  21.775  25.376  1.00  0.00     0.059 A 
ATOM     69  F   UNL A   1      43.403  23.819  24.458  1.00  0.00    -0.206 F 
ATOM     70  C   UNL A   1      42.551  20.959  26.494  1.00  0.00     0.060 A 
BRANCH  70  71
ATOM     71  S   UNL A   1      41.922  19.276  26.318  1.00  0.00     0.124 S 
ATOM     72  O   UNL A   1      40.497  19.519  26.116  1.00  0.00    -0.237 OA
ATOM     73  O   UNL A   1      42.654  18.794  25.151  1.00  0.00    -0.237 OA
ATOM     74  O   UNL A   1      42.277  18.645  27.584  1.00  0.00    -0.744 OA
ENDBRANCH  70  71
ENDBRANCH  49  63
BRANCH  50  75
ATOM     75  C   UNL A   1      46.571  32.998  28.284  1.00  0.00     0.058 A 
ATOM     76  C   UNL A   1      46.518  33.973  27.276  1.00  0.00     0.135 A 
ATOM     77  C   UNL A   1      47.072  33.384  29.537  1.00  0.00     0.135 A 
ATOM     78  F   UNL A   1      46.054  33.654  26.058  1.00  0.00    -0.206 F 
ATOM     79  C   UNL A   1      46.963  35.273  27.494  1.00  0.00     0.059 A 
ATOM     80  C   UNL A   1      47.492  34.686  29.790  1.00  0.00     0.059 A 
ATOM     81  F   UNL A   1      47.129  32.496  30.542  1.00  0.00    -0.206 F 
ATOM     82  C   UNL A   1      47.443  35.621  28.757  1.00  0.00     0.060 A 
BRANCH  82  83
ATOM     83  S   UNL A   1      47.972  37.324  29.042  1.00  0.00     0.124 S 
ATOM     84  O   UNL A   1      46.770  37.914  29.617  1.00  0.00    -0.237 OA
ATOM     85  O   UNL A   1      49.097  37.143  29.953  1.00  0.00    -0.237 OA
ATOM     86  O   UNL A   1      48.329  37.791  27.705  1.00  0.00    -0.744 OA
ENDBRANCH  82  83
ENDBRANCH  50  75
BRANCH  62  87
ATOM     87  C   UNL A   1      49.664  27.250  25.800  1.00  0.00     0.058 A 
ATOM     88  C   UNL A   1      50.696  26.795  26.635  1.00  0.00     0.135 A 
ATOM     89  C   UNL A   1      49.948  27.398  24.431  1.00  0.00     0.135 A 
ATOM     90  F   UNL A   1      50.483  26.643  27.953  1.00  0.00    -0.206 F 
ATOM     91  C   UNL A   1      51.966  26.521  26.139  1.00  0.00     0.059 A 
ATOM     92  C   UNL A   1      51.198  27.093  23.907  1.00  0.00     0.059 A 
ATOM     93  F   UNL A   1      48.995  27.820  23.585  1.00  0.00    -0.206 F 
ATOM     94  C   UNL A   1      52.205  26.667  24.771  1.00  0.00     0.060 A 
BRANCH  94  95
ATOM     95  S   UNL A   1      53.848  26.269  24.135  1.00  0.00     0.124 S 
ATOM     96  O   UNL A   1      53.568  26.036  22.723  1.00  0.00    -0.237 OA
ATOM     97  O   UNL A   1      54.600  27.482  24.441  1.00  0.00    -0.237 OA
ATOM     98  O   UNL A   1      54.233  25.089  24.902  1.00  0.00    -0.744 OA
ENDBRANCH  94  95
ENDBRANCH  62  87
ENDBRANCH  36  37
ENDBRANCH  28  31
ENDBRANCH  26  27
ENDBRANCH   1  26
TORSDOF 17
ENDMDL
