MODEL 1
REMARK VINA RESULT:     -13.3      0.000      0.000
REMARK SMILES Cc1cc2n(n1)[C@H](C(F)(F)F)CCN2C(=O)c1cnn([C@@H](C)C(=O)NCCCNC(=O)c2ccc(-c3c4nc(c(-c5c(F)cc(S(=O)(=O)[O-])cc5F)c5ccc([nH]5)c(-c5c(F)cc(S(=O)(=O)[O-])cc5F)c5nc(c(-c6c(F)cc(S(=O)(=O)[O-])cc6F)c6ccc3[nH]6)C=C5)C=C4)cc2)c1
REMARK SMILES IDX 26 1 25 2 23 3 24 4 21 6 22 7 20 8 17 9 18 10 98 11 19 12
REMARK SMILES IDX 15 13 16 14 14 15 1 16 2 17 3 18 6 19 4 20 5 21 7 22 13 23
REMARK SMILES IDX 12 24 8 25 9 26 10 27 11 28 27 29 28 30 29 31 30 32 31 34
REMARK SMILES IDX 32 35 33 36 97 37 34 38 96 39 35 40 36 41 37 42 90 43 38 44
REMARK SMILES IDX 95 45 89 46 91 47 39 48 94 49 88 50 87 51 40 53 74 54 53 55
REMARK SMILES IDX 73 56 54 57 57 58 72 59 92 60 55 61 56 62 71 64 93 65 58 66
REMARK SMILES IDX 41 67 42 68 51 69 43 70 44 71 50 72 52 73 45 74 46 75 47 76
REMARK SMILES IDX 48 77 49 78 75 79 76 80 85 81 77 82 78 83 84 84 86 85 79 86
REMARK SMILES IDX 80 87 81 88 82 89 83 90 59 91 60 92 69 93 61 94 62 95 68 96
REMARK SMILES IDX 70 97 63 98 64 99 65 100 66 101 67 102
REMARK H PARENT 25 5 29 33 91 52 57 63
REMARK Flexibility Score: inf
ROOT
ATOM      1  C   UNL A   1      36.391  23.240  25.979  1.00  0.00     0.117 C 
ENDROOT
BRANCH   1   2
ATOM      2  N   UNL A   1      35.893  21.889  25.749  1.00  0.00    -0.354 N 
ATOM      3  C   UNL A   1      34.845  21.415  25.017  1.00  0.00     0.244 C 
ATOM      4  O   UNL A   1      34.680  20.189  25.021  1.00  0.00    -0.273 OA
ATOM      5  H   UNL A   1      36.411  21.188  26.208  1.00  0.00     0.163 HD
BRANCH   3   6
ATOM      6  C   UNL A   1      33.901  22.283  24.186  1.00  0.00     0.193 C 
ATOM      7  C   UNL A   1      34.578  23.119  23.105  1.00  0.00     0.044 C 
BRANCH   6   8
ATOM      8  N   UNL A   1      32.966  23.030  25.017  1.00  0.00    -0.260 N 
ATOM      9  C   UNL A   1      31.409  24.404  25.758  1.00  0.00     0.078 A 
ATOM     10  C   UNL A   1      31.782  23.443  26.708  1.00  0.00     0.149 A 
ATOM     11  C   UNL A   1      32.150  24.065  24.638  1.00  0.00     0.123 A 
ATOM     12  N   UNL A   1      32.878  22.790  26.336  1.00  0.00    -0.180 NA
BRANCH   9  13
ATOM     13  C   UNL A   1      30.434  25.457  25.875  1.00  0.00     0.262 C 
ATOM     14  O   UNL A   1      29.485  25.428  26.637  1.00  0.00    -0.269 OA
BRANCH  13  15
ATOM     15  N   UNL A   1      30.634  26.541  24.907  1.00  0.00    -0.293 N 
ATOM     16  C   UNL A   1      33.099  30.213  27.289  1.00  0.00     0.069 C 
ATOM     17  C   UNL A   1      32.405  29.357  26.298  1.00  0.00     0.062 A 
ATOM     18  C   UNL A   1      31.954  28.023  26.476  1.00  0.00     0.072 A 
ATOM     19  N   UNL A   1      32.124  29.814  25.073  1.00  0.00    -0.176 NA
ATOM     20  C   UNL A   1      31.312  27.700  25.304  1.00  0.00     0.134 A 
ATOM     21  N   UNL A   1      31.440  28.810  24.513  1.00  0.00    -0.237 N 
ATOM     22  C   UNL A   1      30.895  28.930  23.179  1.00  0.00     0.216 C 
ATOM     23  C   UNL A   1      29.925  26.587  23.599  1.00  0.00     0.130 C 
ATOM     24  C   UNL A   1      30.593  27.541  22.608  1.00  0.00     0.059 C 
BRANCH  22  25
ATOM     25  C   UNL A   1      29.672  29.819  23.193  1.00  0.00     0.410 C 
ATOM     26  F   UNL A   1      28.555  29.059  23.326  1.00  0.00    -0.169 F 
ATOM     27  F   UNL A   1      29.686  30.671  24.242  1.00  0.00    -0.169 F 
ATOM     28  F   UNL A   1      29.522  30.535  22.063  1.00  0.00    -0.169 F 
ENDBRANCH  22  25
ENDBRANCH  13  15
ENDBRANCH   9  13
ENDBRANCH   6   8
ENDBRANCH   3   6
ENDBRANCH   1   2
BRANCH   1  29
ATOM     29  C   UNL A   1      37.846  23.453  25.540  1.00  0.00     0.042 C 
BRANCH  29  30
ATOM     30  C   UNL A   1      38.837  23.374  26.676  1.00  0.00     0.118 C 
BRANCH  30  31
ATOM     31  N   UNL A   1      40.049  22.620  26.351  1.00  0.00    -0.352 N 
ATOM     32  C   UNL A   1      41.317  23.133  26.123  1.00  0.00     0.251 C 
ATOM     33  H   UNL A   1      39.953  21.641  26.286  1.00  0.00     0.163 HD
ATOM     34  O   UNL A   1      42.174  22.468  25.554  1.00  0.00    -0.269 OA
BRANCH  32  35
ATOM     35  C   UNL A   1      41.584  24.513  26.565  1.00  0.00     0.039 A 
ATOM     36  C   UNL A   1      41.277  25.625  25.776  1.00  0.00     0.014 A 
ATOM     37  C   UNL A   1      42.009  24.668  27.875  1.00  0.00     0.014 A 
ATOM     38  C   UNL A   1      41.298  26.890  26.366  1.00  0.00     0.010 A 
ATOM     39  C   UNL A   1      41.780  25.863  28.501  1.00  0.00     0.010 A 
ATOM     40  C   UNL A   1      41.521  27.002  27.746  1.00  0.00    -0.014 A 
BRANCH  40  41
ATOM     41  C   UNL A   1      41.459  28.285  28.446  1.00  0.00     0.031 A 
ATOM     42  C   UNL A   1      42.562  29.253  28.181  1.00  0.00     0.074 A 
ATOM     43  C   UNL A   1      40.350  28.685  29.108  1.00  0.00     0.049 A 
ATOM     44  N   UNL A   1      43.453  29.699  29.005  1.00  0.00    -0.248 NA
ATOM     45  C   UNL A   1      42.749  29.723  26.799  1.00  0.00     0.031 C 
ATOM     46  C   UNL A   1      39.048  28.006  29.220  1.00  0.00     0.029 A 
ATOM     47  N   UNL A   1      40.115  29.867  29.735  1.00  0.00    -0.354 N 
ATOM     48  C   UNL A   1      44.177  30.668  28.312  1.00  0.00     0.074 A 
ATOM     49  C   UNL A   1      43.820  30.511  26.925  1.00  0.00     0.031 C 
ATOM     50  C   UNL A   1      38.111  28.879  29.638  1.00  0.00     0.029 A 
ATOM     51  C   UNL A   1      38.780  30.098  30.033  1.00  0.00     0.049 A 
ATOM     52  H   UNL A   1      40.831  30.505  29.958  1.00  0.00     0.167 HD
ATOM     53  C   UNL A   1      44.842  31.670  28.956  1.00  0.00     0.037 A 
ATOM     54  C   UNL A   1      38.244  31.213  30.579  1.00  0.00     0.037 A 
ATOM     55  C   UNL A   1      44.994  31.380  30.360  1.00  0.00     0.049 A 
ATOM     56  C   UNL A   1      39.345  31.914  31.283  1.00  0.00     0.074 A 
ATOM     57  C   UNL A   1      45.593  30.373  31.091  1.00  0.00     0.029 A 
ATOM     58  N   UNL A   1      44.157  32.024  31.240  1.00  0.00    -0.354 N 
ATOM     59  N   UNL A   1      39.979  31.419  32.313  1.00  0.00    -0.248 NA
ATOM     60  C   UNL A   1      40.041  32.978  30.580  1.00  0.00     0.031 C 
ATOM     61  C   UNL A   1      44.727  30.158  32.205  1.00  0.00     0.029 A 
ATOM     62  C   UNL A   1      43.682  31.079  32.116  1.00  0.00     0.049 A 
ATOM     63  H   UNL A   1      43.939  32.983  31.243  1.00  0.00     0.167 HD
ATOM     64  C   UNL A   1      41.299  31.809  32.146  1.00  0.00     0.074 A 
ATOM     65  C   UNL A   1      41.252  32.858  31.129  1.00  0.00     0.031 C 
ATOM     66  C   UNL A   1      42.331  31.063  32.643  1.00  0.00     0.037 A 
BRANCH  53  67
ATOM     67  C   UNL A   1      45.050  33.067  28.404  1.00  0.00     0.058 A 
ATOM     68  C   UNL A   1      46.362  33.567  28.248  1.00  0.00     0.135 A 
ATOM     69  C   UNL A   1      44.022  34.029  28.291  1.00  0.00     0.135 A 
ATOM     70  F   UNL A   1      47.421  32.746  28.335  1.00  0.00    -0.206 F 
ATOM     71  C   UNL A   1      46.634  34.927  28.082  1.00  0.00     0.059 A 
ATOM     72  C   UNL A   1      44.268  35.380  28.068  1.00  0.00     0.059 A 
ATOM     73  F   UNL A   1      42.734  33.728  28.491  1.00  0.00    -0.206 F 
ATOM     74  C   UNL A   1      45.577  35.828  28.016  1.00  0.00     0.060 A 
BRANCH  74  75
ATOM     75  S   UNL A   1      45.915  37.597  27.950  1.00  0.00     0.124 S 
ATOM     76  O   UNL A   1      47.346  37.605  27.671  1.00  0.00    -0.237 OA
ATOM     77  O   UNL A   1      45.046  38.033  26.861  1.00  0.00    -0.237 OA
ATOM     78  O   UNL A   1      45.526  38.060  29.278  1.00  0.00    -0.744 OA
ENDBRANCH  74  75
ENDBRANCH  53  67
BRANCH  54  79
ATOM     79  C   UNL A   1      36.935  31.822  30.246  1.00  0.00     0.058 A 
ATOM     80  C   UNL A   1      36.127  32.406  31.233  1.00  0.00     0.135 A 
ATOM     81  C   UNL A   1      36.566  32.070  28.906  1.00  0.00     0.135 A 
ATOM     82  F   UNL A   1      36.421  32.235  32.531  1.00  0.00    -0.206 F 
ATOM     83  C   UNL A   1      35.040  33.226  30.912  1.00  0.00     0.059 A 
ATOM     84  C   UNL A   1      35.482  32.874  28.562  1.00  0.00     0.059 A 
ATOM     85  F   UNL A   1      37.307  31.608  27.886  1.00  0.00    -0.206 F 
ATOM     86  C   UNL A   1      34.738  33.470  29.572  1.00  0.00     0.060 A 
BRANCH  86  87
ATOM     87  S   UNL A   1      33.447  34.665  29.155  1.00  0.00     0.124 S 
ATOM     88  O   UNL A   1      34.226  35.769  28.606  1.00  0.00    -0.237 OA
ATOM     89  O   UNL A   1      32.635  33.919  28.200  1.00  0.00    -0.237 OA
ATOM     90  O   UNL A   1      32.803  34.932  30.439  1.00  0.00    -0.744 OA
ENDBRANCH  86  87
ENDBRANCH  54  79
BRANCH  66  91
ATOM     91  C   UNL A   1      42.008  29.961  33.626  1.00  0.00     0.058 A 
ATOM     92  C   UNL A   1      41.754  28.628  33.256  1.00  0.00     0.135 A 
ATOM     93  C   UNL A   1      42.134  30.223  34.998  1.00  0.00     0.135 A 
ATOM     94  F   UNL A   1      41.720  28.267  31.968  1.00  0.00    -0.206 F 
ATOM     95  C   UNL A   1      41.602  27.612  34.200  1.00  0.00     0.059 A 
ATOM     96  C   UNL A   1      42.016  29.218  35.959  1.00  0.00     0.059 A 
ATOM     97  F   UNL A   1      42.441  31.462  35.418  1.00  0.00    -0.206 F 
ATOM     98  C   UNL A   1      41.742  27.915  35.552  1.00  0.00     0.060 A 
BRANCH  98  99
ATOM     99  S   UNL A   1      41.656  26.575  36.760  1.00  0.00     0.124 S 
ATOM    100  O   UNL A   1      42.896  26.755  37.508  1.00  0.00    -0.237 OA
ATOM    101  O   UNL A   1      40.427  26.881  37.489  1.00  0.00    -0.237 OA
ATOM    102  O   UNL A   1      41.595  25.373  35.932  1.00  0.00    -0.744 OA
ENDBRANCH  98  99
ENDBRANCH  66  91
ENDBRANCH  40  41
ENDBRANCH  32  35
ENDBRANCH  30  31
ENDBRANCH  29  30
ENDBRANCH   1  29
TORSDOF 17
ENDMDL
MODEL 2
REMARK VINA RESULT:     -13.1      3.497      9.519
REMARK SMILES Cc1cc2n(n1)[C@H](C(F)(F)F)CCN2C(=O)c1cnn([C@@H](C)C(=O)NCCCNC(=O)c2ccc(-c3c4nc(c(-c5c(F)cc(S(=O)(=O)[O-])cc5F)c5ccc([nH]5)c(-c5c(F)cc(S(=O)(=O)[O-])cc5F)c5nc(c(-c6c(F)cc(S(=O)(=O)[O-])cc6F)c6ccc3[nH]6)C=C5)C=C4)cc2)c1
REMARK SMILES IDX 26 1 25 2 23 3 24 4 21 6 22 7 20 8 17 9 18 10 98 11 19 12
REMARK SMILES IDX 15 13 16 14 14 15 1 16 2 17 3 18 6 19 4 20 5 21 7 22 13 23
REMARK SMILES IDX 12 24 8 25 9 26 10 27 11 28 27 29 28 30 29 31 30 32 31 34
REMARK SMILES IDX 32 35 33 36 97 37 34 38 96 39 35 40 36 41 37 42 90 43 38 44
REMARK SMILES IDX 95 45 89 46 91 47 39 48 94 49 88 50 87 51 40 53 74 54 53 55
REMARK SMILES IDX 73 56 54 57 57 58 72 59 92 60 55 61 56 62 71 64 93 65 58 66
REMARK SMILES IDX 41 67 42 68 51 69 43 70 44 71 50 72 52 73 45 74 46 75 47 76
REMARK SMILES IDX 48 77 49 78 75 79 76 80 85 81 77 82 78 83 84 84 86 85 79 86
REMARK SMILES IDX 80 87 81 88 82 89 83 90 59 91 60 92 69 93 61 94 62 95 68 96
REMARK SMILES IDX 70 97 63 98 64 99 65 100 66 101 67 102
REMARK H PARENT 25 5 29 33 91 52 57 63
REMARK Flexibility Score: inf
ROOT
ATOM      1  C   UNL A   1      32.452  28.567  27.062  1.00  0.00     0.117 C 
ENDROOT
BRANCH   1   2
ATOM      2  N   UNL A   1      31.504  27.459  27.097  1.00  0.00    -0.354 N 
ATOM      3  C   UNL A   1      30.800  26.830  26.113  1.00  0.00     0.244 C 
ATOM      4  O   UNL A   1      30.063  25.903  26.470  1.00  0.00    -0.273 OA
ATOM      5  H   UNL A   1      31.343  27.098  27.999  1.00  0.00     0.163 HD
BRANCH   3   6
ATOM      6  C   UNL A   1      30.887  27.172  24.626  1.00  0.00     0.193 C 
ATOM      7  C   UNL A   1      29.547  27.236  23.900  1.00  0.00     0.044 C 
BRANCH   6   8
ATOM      8  N   UNL A   1      31.900  26.382  23.938  1.00  0.00    -0.260 N 
ATOM      9  C   UNL A   1      33.017  24.769  22.932  1.00  0.00     0.078 A 
ATOM     10  C   UNL A   1      33.617  26.027  22.773  1.00  0.00     0.149 A 
ATOM     11  C   UNL A   1      31.858  25.044  23.638  1.00  0.00     0.123 A 
ATOM     12  N   UNL A   1      33.072  26.931  23.580  1.00  0.00    -0.180 NA
BRANCH   9  13
ATOM     13  C   UNL A   1      33.449  23.493  22.424  1.00  0.00     0.262 C 
ATOM     14  O   UNL A   1      33.747  23.286  21.263  1.00  0.00    -0.269 OA
BRANCH  13  15
ATOM     15  N   UNL A   1      33.401  22.424  23.429  1.00  0.00    -0.293 N 
ATOM     16  C   UNL A   1      38.002  22.054  25.412  1.00  0.00     0.069 C 
ATOM     17  C   UNL A   1      36.567  21.901  25.073  1.00  0.00     0.062 A 
ATOM     18  C   UNL A   1      35.801  22.697  24.183  1.00  0.00     0.072 A 
ATOM     19  N   UNL A   1      35.834  20.922  25.615  1.00  0.00    -0.176 NA
ATOM     20  C   UNL A   1      34.558  22.111  24.153  1.00  0.00     0.134 A 
ATOM     21  N   UNL A   1      34.644  21.054  25.019  1.00  0.00    -0.237 N 
ATOM     22  C   UNL A   1      33.564  20.132  25.295  1.00  0.00     0.216 C 
ATOM     23  C   UNL A   1      32.258  21.477  23.535  1.00  0.00     0.130 C 
ATOM     24  C   UNL A   1      32.226  20.753  24.882  1.00  0.00     0.059 C 
BRANCH  22  25
ATOM     25  C   UNL A   1      33.818  18.812  24.603  1.00  0.00     0.410 C 
ATOM     26  F   UNL A   1      33.438  17.790  25.412  1.00  0.00    -0.169 F 
ATOM     27  F   UNL A   1      33.094  18.695  23.468  1.00  0.00    -0.169 F 
ATOM     28  F   UNL A   1      35.115  18.608  24.304  1.00  0.00    -0.169 F 
ENDBRANCH  22  25
ENDBRANCH  13  15
ENDBRANCH   9  13
ENDBRANCH   6   8
ENDBRANCH   3   6
ENDBRANCH   1   2
BRANCH   1  29
ATOM     29  C   UNL A   1      33.908  28.137  26.845  1.00  0.00     0.042 C 
BRANCH  29  30
ATOM     30  C   UNL A   1      34.841  29.287  26.550  1.00  0.00     0.118 C 
BRANCH  30  31
ATOM     31  N   UNL A   1      34.367  30.576  27.057  1.00  0.00    -0.352 N 
ATOM     32  C   UNL A   1      34.765  31.214  28.222  1.00  0.00     0.251 C 
ATOM     33  H   UNL A   1      33.690  31.040  26.512  1.00  0.00     0.163 HD
ATOM     34  O   UNL A   1      34.092  32.112  28.711  1.00  0.00    -0.269 OA
BRANCH  32  35
ATOM     35  C   UNL A   1      36.012  30.754  28.860  1.00  0.00     0.039 A 
ATOM     36  C   UNL A   1      36.088  29.559  29.579  1.00  0.00     0.014 A 
ATOM     37  C   UNL A   1      37.154  31.486  28.576  1.00  0.00     0.014 A 
ATOM     38  C   UNL A   1      37.347  29.056  29.911  1.00  0.00     0.010 A 
ATOM     39  C   UNL A   1      38.370  30.867  28.677  1.00  0.00     0.010 A 
ATOM     40  C   UNL A   1      38.494  29.702  29.427  1.00  0.00    -0.014 A 
BRANCH  40  41
ATOM     41  C   UNL A   1      39.840  29.176  29.653  1.00  0.00     0.031 A 
ATOM     42  C   UNL A   1      40.250  28.952  31.070  1.00  0.00     0.074 A 
ATOM     43  C   UNL A   1      40.594  28.684  28.643  1.00  0.00     0.049 A 
ATOM     44  N   UNL A   1      41.183  29.548  31.738  1.00  0.00    -0.248 NA
ATOM     45  C   UNL A   1      39.465  28.002  31.872  1.00  0.00     0.031 C 
ATOM     46  C   UNL A   1      40.242  28.529  27.222  1.00  0.00     0.029 A 
ATOM     47  N   UNL A   1      41.818  28.098  28.705  1.00  0.00    -0.354 N 
ATOM     48  C   UNL A   1      41.254  28.902  32.972  1.00  0.00     0.074 A 
ATOM     49  C   UNL A   1      40.067  28.090  33.060  1.00  0.00     0.031 C 
ATOM     50  C   UNL A   1      41.102  27.679  26.628  1.00  0.00     0.029 A 
ATOM     51  C   UNL A   1      42.180  27.412  27.555  1.00  0.00     0.049 A 
ATOM     52  H   UNL A   1      42.399  28.156  29.498  1.00  0.00     0.167 HD
ATOM     53  C   UNL A   1      42.390  28.911  33.726  1.00  0.00     0.037 A 
ATOM     54  C   UNL A   1      43.295  26.673  27.359  1.00  0.00     0.037 A 
ATOM     55  C   UNL A   1      43.309  29.928  33.279  1.00  0.00     0.049 A 
ATOM     56  C   UNL A   1      44.296  27.141  28.348  1.00  0.00     0.074 A 
ATOM     57  C   UNL A   1      43.259  31.302  33.151  1.00  0.00     0.029 A 
ATOM     58  N   UNL A   1      44.388  29.528  32.527  1.00  0.00    -0.354 N 
ATOM     59  N   UNL A   1      44.800  28.347  28.355  1.00  0.00    -0.248 NA
ATOM     60  C   UNL A   1      44.417  26.412  29.598  1.00  0.00     0.031 C 
ATOM     61  C   UNL A   1      43.987  31.589  31.956  1.00  0.00     0.029 A 
ATOM     62  C   UNL A   1      44.478  30.382  31.456  1.00  0.00     0.049 A 
ATOM     63  H   UNL A   1      44.985  28.771  32.720  1.00  0.00     0.167 HD
ATOM     64  C   UNL A   1      44.929  28.677  29.695  1.00  0.00     0.074 A 
ATOM     65  C   UNL A   1      44.786  27.408  30.407  1.00  0.00     0.031 C 
ATOM     66  C   UNL A   1      44.864  29.975  30.119  1.00  0.00     0.037 A 
BRANCH  53  67
ATOM     67  C   UNL A   1      42.831  27.786  34.642  1.00  0.00     0.058 A 
ATOM     68  C   UNL A   1      42.987  28.031  36.024  1.00  0.00     0.135 A 
ATOM     69  C   UNL A   1      43.377  26.566  34.182  1.00  0.00     0.135 A 
ATOM     70  F   UNL A   1      42.508  29.158  36.576  1.00  0.00    -0.206 F 
ATOM     71  C   UNL A   1      43.704  27.175  36.865  1.00  0.00     0.059 A 
ATOM     72  C   UNL A   1      44.045  25.672  35.012  1.00  0.00     0.059 A 
ATOM     73  F   UNL A   1      43.380  26.226  32.888  1.00  0.00    -0.206 F 
ATOM     74  C   UNL A   1      44.248  26.008  36.340  1.00  0.00     0.060 A 
BRANCH  74  75
ATOM     75  S   UNL A   1      45.297  24.970  37.375  1.00  0.00     0.124 S 
ATOM     76  O   UNL A   1      46.606  25.572  37.151  1.00  0.00    -0.237 OA
ATOM     77  O   UNL A   1      44.715  25.172  38.698  1.00  0.00    -0.237 OA
ATOM     78  O   UNL A   1      45.108  23.638  36.810  1.00  0.00    -0.744 OA
ENDBRANCH  74  75
ENDBRANCH  53  67
BRANCH  54  79
ATOM     79  C   UNL A   1      43.399  25.411  26.589  1.00  0.00     0.058 A 
ATOM     80  C   UNL A   1      44.247  25.299  25.478  1.00  0.00     0.135 A 
ATOM     81  C   UNL A   1      42.855  24.207  27.087  1.00  0.00     0.135 A 
ATOM     82  F   UNL A   1      44.820  26.394  24.956  1.00  0.00    -0.206 F 
ATOM     83  C   UNL A   1      44.575  24.060  24.917  1.00  0.00     0.059 A 
ATOM     84  C   UNL A   1      43.157  22.963  26.539  1.00  0.00     0.059 A 
ATOM     85  F   UNL A   1      42.080  24.197  28.183  1.00  0.00    -0.206 F 
ATOM     86  C   UNL A   1      44.039  22.895  25.468  1.00  0.00     0.060 A 
BRANCH  86  87
ATOM     87  S   UNL A   1      44.595  21.286  24.859  1.00  0.00     0.124 S 
ATOM     88  O   UNL A   1      43.546  20.400  25.350  1.00  0.00    -0.237 OA
ATOM     89  O   UNL A   1      44.630  21.499  23.416  1.00  0.00    -0.237 OA
ATOM     90  O   UNL A   1      45.901  21.117  25.492  1.00  0.00    -0.744 OA
ENDBRANCH  86  87
ENDBRANCH  54  79
BRANCH  66  91
ATOM     91  C   UNL A   1      44.942  31.071  29.081  1.00  0.00     0.058 A 
ATOM     92  C   UNL A   1      46.143  31.518  28.500  1.00  0.00     0.135 A 
ATOM     93  C   UNL A   1      43.751  31.560  28.526  1.00  0.00     0.135 A 
ATOM     94  F   UNL A   1      47.323  31.026  28.895  1.00  0.00    -0.206 F 
ATOM     95  C   UNL A   1      46.162  32.428  27.442  1.00  0.00     0.059 A 
ATOM     96  C   UNL A   1      43.744  32.448  27.450  1.00  0.00     0.059 A 
ATOM     97  F   UNL A   1      42.568  31.125  28.990  1.00  0.00    -0.206 F 
ATOM     98  C   UNL A   1      44.955  32.883  26.918  1.00  0.00     0.060 A 
BRANCH  98  99
ATOM     99  S   UNL A   1      44.985  33.973  25.477  1.00  0.00     0.124 S 
ATOM    100  O   UNL A   1      44.396  33.130  24.441  1.00  0.00    -0.237 OA
ATOM    101  O   UNL A   1      44.168  35.102  25.914  1.00  0.00    -0.237 OA
ATOM    102  O   UNL A   1      46.405  34.273  25.307  1.00  0.00    -0.744 OA
ENDBRANCH  98  99
ENDBRANCH  66  91
ENDBRANCH  40  41
ENDBRANCH  32  35
ENDBRANCH  30  31
ENDBRANCH  29  30
ENDBRANCH   1  29
TORSDOF 17
ENDMDL
MODEL 3
REMARK VINA RESULT:     -13.0      3.536      9.585
REMARK SMILES Cc1cc2n(n1)[C@H](C(F)(F)F)CCN2C(=O)c1cnn([C@@H](C)C(=O)NCCCNC(=O)c2ccc(-c3c4nc(c(-c5c(F)cc(S(=O)(=O)[O-])cc5F)c5ccc([nH]5)c(-c5c(F)cc(S(=O)(=O)[O-])cc5F)c5nc(c(-c6c(F)cc(S(=O)(=O)[O-])cc6F)c6ccc3[nH]6)C=C5)C=C4)cc2)c1
REMARK SMILES IDX 26 1 25 2 23 3 24 4 21 6 22 7 20 8 17 9 18 10 98 11 19 12
REMARK SMILES IDX 15 13 16 14 14 15 1 16 2 17 3 18 6 19 4 20 5 21 7 22 13 23
REMARK SMILES IDX 12 24 8 25 9 26 10 27 11 28 27 29 28 30 29 31 30 32 31 34
REMARK SMILES IDX 32 35 33 36 97 37 34 38 96 39 35 40 36 41 37 42 90 43 38 44
REMARK SMILES IDX 95 45 89 46 91 47 39 48 94 49 88 50 87 51 40 53 74 54 53 55
REMARK SMILES IDX 73 56 54 57 57 58 72 59 92 60 55 61 56 62 71 64 93 65 58 66
REMARK SMILES IDX 41 67 42 68 51 69 43 70 44 71 50 72 52 73 45 74 46 75 47 76
REMARK SMILES IDX 48 77 49 78 75 79 76 80 85 81 77 82 78 83 84 84 86 85 79 86
REMARK SMILES IDX 80 87 81 88 82 89 83 90 59 91 60 92 69 93 61 94 62 95 68 96
REMARK SMILES IDX 70 97 63 98 64 99 65 100 66 101 67 102
REMARK H PARENT 25 5 29 33 91 52 57 63
REMARK Flexibility Score: inf
ROOT
ATOM      1  C   UNL A   1      33.290  30.510  27.265  1.00  0.00     0.117 C 
ENDROOT
BRANCH   1   2
ATOM      2  N   UNL A   1      32.384  29.408  27.570  1.00  0.00    -0.354 N 
ATOM      3  C   UNL A   1      31.812  28.454  26.782  1.00  0.00     0.244 C 
ATOM      4  O   UNL A   1      31.075  27.639  27.352  1.00  0.00    -0.273 OA
ATOM      5  H   UNL A   1      32.142  29.341  28.522  1.00  0.00     0.163 HD
BRANCH   3   6
ATOM      6  C   UNL A   1      32.042  28.314  25.278  1.00  0.00     0.193 C 
ATOM      7  C   UNL A   1      30.823  28.603  24.410  1.00  0.00     0.044 C 
BRANCH   6   8
ATOM      8  N   UNL A   1      32.733  27.075  24.941  1.00  0.00    -0.260 N 
ATOM      9  C   UNL A   1      33.402  25.209  23.977  1.00  0.00     0.078 A 
ATOM     10  C   UNL A   1      34.290  25.659  24.965  1.00  0.00     0.149 A 
ATOM     11  C   UNL A   1      32.430  26.194  23.935  1.00  0.00     0.123 A 
ATOM     12  N   UNL A   1      33.755  26.634  25.693  1.00  0.00    -0.180 NA
BRANCH   9  13
ATOM     13  C   UNL A   1      33.500  24.042  23.141  1.00  0.00     0.262 C 
ATOM     14  O   UNL A   1      33.665  24.076  21.936  1.00  0.00    -0.269 OA
BRANCH  13  15
ATOM     15  N   UNL A   1      33.280  22.787  23.870  1.00  0.00    -0.293 N 
ATOM     16  C   UNL A   1      37.805  20.861  24.895  1.00  0.00     0.069 C 
ATOM     17  C   UNL A   1      36.353  21.137  24.783  1.00  0.00     0.062 A 
ATOM     18  C   UNL A   1      35.734  22.293  24.242  1.00  0.00     0.072 A 
ATOM     19  N   UNL A   1      35.450  20.246  25.207  1.00  0.00    -0.176 NA
ATOM     20  C   UNL A   1      34.384  22.038  24.295  1.00  0.00     0.134 A 
ATOM     21  N   UNL A   1      34.280  20.800  24.871  1.00  0.00    -0.237 N 
ATOM     22  C   UNL A   1      33.031  20.112  25.112  1.00  0.00     0.216 C 
ATOM     23  C   UNL A   1      31.945  22.134  23.955  1.00  0.00     0.130 C 
ATOM     24  C   UNL A   1      31.869  21.110  25.087  1.00  0.00     0.059 C 
BRANCH  22  25
ATOM     25  C   UNL A   1      32.847  18.998  24.107  1.00  0.00     0.410 C 
ATOM     26  F   UNL A   1      34.024  18.346  23.924  1.00  0.00    -0.169 F 
ATOM     27  F   UNL A   1      31.958  18.077  24.539  1.00  0.00    -0.169 F 
ATOM     28  F   UNL A   1      32.454  19.435  22.895  1.00  0.00    -0.169 F 
ENDBRANCH  22  25
ENDBRANCH  13  15
ENDBRANCH   9  13
ENDBRANCH   6   8
ENDBRANCH   3   6
ENDBRANCH   1   2
BRANCH   1  29
ATOM     29  C   UNL A   1      34.755  30.232  27.625  1.00  0.00     0.042 C 
BRANCH  29  30
ATOM     30  C   UNL A   1      35.526  31.470  28.018  1.00  0.00     0.118 C 
BRANCH  30  31
ATOM     31  N   UNL A   1      34.994  32.145  29.203  1.00  0.00    -0.352 N 
ATOM     32  C   UNL A   1      35.315  31.887  30.527  1.00  0.00     0.251 C 
ATOM     33  H   UNL A   1      34.336  32.860  29.042  1.00  0.00     0.163 HD
ATOM     34  O   UNL A   1      34.594  32.275  31.438  1.00  0.00    -0.269 OA
BRANCH  32  35
ATOM     35  C   UNL A   1      36.537  31.107  30.793  1.00  0.00     0.039 A 
ATOM     36  C   UNL A   1      36.534  29.712  30.866  1.00  0.00     0.014 A 
ATOM     37  C   UNL A   1      37.728  31.816  30.810  1.00  0.00     0.014 A 
ATOM     38  C   UNL A   1      37.756  29.038  30.842  1.00  0.00     0.010 A 
ATOM     39  C   UNL A   1      38.890  31.150  30.531  1.00  0.00     0.010 A 
ATOM     40  C   UNL A   1      38.938  29.765  30.641  1.00  0.00    -0.014 A 
BRANCH  40  41
ATOM     41  C   UNL A   1      40.242  29.115  30.507  1.00  0.00     0.031 A 
ATOM     42  C   UNL A   1      41.067  28.993  31.743  1.00  0.00     0.074 A 
ATOM     43  C   UNL A   1      40.591  28.439  29.389  1.00  0.00     0.049 A 
ATOM     44  N   UNL A   1      42.208  29.544  32.003  1.00  0.00    -0.248 NA
ATOM     45  C   UNL A   1      40.512  28.226  32.869  1.00  0.00     0.031 C 
ATOM     46  C   UNL A   1      39.791  28.179  28.181  1.00  0.00     0.029 A 
ATOM     47  N   UNL A   1      41.722  27.727  29.146  1.00  0.00    -0.354 N 
ATOM     48  C   UNL A   1      42.622  29.025  33.229  1.00  0.00     0.074 A 
ATOM     49  C   UNL A   1      41.470  28.367  33.789  1.00  0.00     0.031 C 
ATOM     50  C   UNL A   1      40.347  27.180  27.469  1.00  0.00     0.029 A 
ATOM     51  C   UNL A   1      41.642  26.889  28.043  1.00  0.00     0.049 A 
ATOM     52  H   UNL A   1      42.530  27.799  29.704  1.00  0.00     0.167 HD
ATOM     53  C   UNL A   1      43.938  28.982  33.586  1.00  0.00     0.037 A 
ATOM     54  C   UNL A   1      42.576  26.011  27.612  1.00  0.00     0.037 A 
ATOM     55  C   UNL A   1      44.739  29.835  32.744  1.00  0.00     0.049 A 
ATOM     56  C   UNL A   1      43.874  26.461  28.170  1.00  0.00     0.074 A 
ATOM     57  C   UNL A   1      44.754  31.186  32.454  1.00  0.00     0.029 A 
ATOM     58  N   UNL A   1      45.485  29.240  31.755  1.00  0.00    -0.354 N 
ATOM     59  N   UNL A   1      44.443  27.596  27.859  1.00  0.00    -0.248 NA
ATOM     60  C   UNL A   1      44.336  25.855  29.407  1.00  0.00     0.031 C 
ATOM     61  C   UNL A   1      45.078  31.264  31.066  1.00  0.00     0.029 A 
ATOM     62  C   UNL A   1      45.290  29.963  30.605  1.00  0.00     0.049 A 
ATOM     63  H   UNL A   1      46.054  28.443  31.853  1.00  0.00     0.167 HD
ATOM     64  C   UNL A   1      45.020  28.046  29.036  1.00  0.00     0.074 A 
ATOM     65  C   UNL A   1      45.019  26.882  29.920  1.00  0.00     0.031 C 
ATOM     66  C   UNL A   1      45.194  29.379  29.281  1.00  0.00     0.037 A 
BRANCH  53  67
ATOM     67  C   UNL A   1      44.564  27.914  34.462  1.00  0.00     0.058 A 
ATOM     68  C   UNL A   1      44.464  26.556  34.085  1.00  0.00     0.135 A 
ATOM     69  C   UNL A   1      45.005  28.140  35.785  1.00  0.00     0.135 A 
ATOM     70  F   UNL A   1      44.056  26.217  32.852  1.00  0.00    -0.206 F 
ATOM     71  C   UNL A   1      44.698  25.508  34.979  1.00  0.00     0.059 A 
ATOM     72  C   UNL A   1      45.299  27.112  36.674  1.00  0.00     0.059 A 
ATOM     73  F   UNL A   1      45.076  29.366  36.316  1.00  0.00    -0.206 F 
ATOM     74  C   UNL A   1      45.094  25.801  36.280  1.00  0.00     0.060 A 
BRANCH  74  75
ATOM     75  S   UNL A   1      45.257  24.469  37.483  1.00  0.00     0.124 S 
ATOM     76  O   UNL A   1      44.309  24.889  38.507  1.00  0.00    -0.237 OA
ATOM     77  O   UNL A   1      44.878  23.299  36.696  1.00  0.00    -0.237 OA
ATOM     78  O   UNL A   1      46.666  24.532  37.861  1.00  0.00    -0.744 OA
ENDBRANCH  74  75
ENDBRANCH  53  67
BRANCH  54  79
ATOM     79  C   UNL A   1      42.331  24.673  27.024  1.00  0.00     0.058 A 
ATOM     80  C   UNL A   1      43.119  24.179  25.975  1.00  0.00     0.135 A 
ATOM     81  C   UNL A   1      41.475  23.745  27.657  1.00  0.00     0.135 A 
ATOM     82  F   UNL A   1      43.973  24.992  25.334  1.00  0.00    -0.206 F 
ATOM     83  C   UNL A   1      43.095  22.831  25.600  1.00  0.00     0.059 A 
ATOM     84  C   UNL A   1      41.426  22.401  27.295  1.00  0.00     0.059 A 
ATOM     85  F   UNL A   1      40.724  24.101  28.711  1.00  0.00    -0.206 F 
ATOM     86  C   UNL A   1      42.258  21.946  26.280  1.00  0.00     0.060 A 
BRANCH  86  87
ATOM     87  S   UNL A   1      42.353  20.177  25.917  1.00  0.00     0.124 S 
ATOM     88  O   UNL A   1      43.446  20.125  24.954  1.00  0.00    -0.237 OA
ATOM     89  O   UNL A   1      42.631  19.609  27.232  1.00  0.00    -0.237 OA
ATOM     90  O   UNL A   1      41.030  19.870  25.378  1.00  0.00    -0.744 OA
ENDBRANCH  86  87
ENDBRANCH  54  79
BRANCH  66  91
ATOM     91  C   UNL A   1      45.016  30.346  28.133  1.00  0.00     0.058 A 
ATOM     92  C   UNL A   1      43.779  30.900  27.757  1.00  0.00     0.135 A 
ATOM     93  C   UNL A   1      46.158  30.865  27.506  1.00  0.00     0.135 A 
ATOM     94  F   UNL A   1      42.649  30.540  28.376  1.00  0.00    -0.206 F 
ATOM     95  C   UNL A   1      43.677  31.897  26.787  1.00  0.00     0.059 A 
ATOM     96  C   UNL A   1      46.083  31.882  26.554  1.00  0.00     0.059 A 
ATOM     97  F   UNL A   1      47.377  30.427  27.864  1.00  0.00    -0.206 F 
ATOM     98  C   UNL A   1      44.837  32.389  26.194  1.00  0.00     0.060 A 
BRANCH  98  99
ATOM     99  S   UNL A   1      44.706  33.757  25.021  1.00  0.00     0.124 S 
ATOM    100  O   UNL A   1      43.712  34.614  25.659  1.00  0.00    -0.237 OA
ATOM    101  O   UNL A   1      46.069  34.282  24.991  1.00  0.00    -0.237 OA
ATOM    102  O   UNL A   1      44.272  33.107  23.788  1.00  0.00    -0.744 OA
ENDBRANCH  98  99
ENDBRANCH  66  91
ENDBRANCH  40  41
ENDBRANCH  32  35
ENDBRANCH  30  31
ENDBRANCH  29  30
ENDBRANCH   1  29
TORSDOF 17
ENDMDL
