MODEL 1
REMARK VINA RESULT:     -13.3      0.000      0.000
REMARK SMILES O=C(NCCCNC(=O)c1cc2c(c(S(=O)(=O)Nc3cc(C(F)(F)F)ccc3-n3cccn3)c1)CCC2)c1ccc(-c2c3nc(c(-c4c(F)cc(S(=O)(=O)[O-])cc4F)c4ccc([nH]4)c(-c4c(F)cc(S(=O)(=O)[O-])cc4F)c4nc(c(-c5c(F)cc(S(=O)(=O)[O-])cc5F)c5ccc2[nH]5)C=C4)C=C3)cc1
REMARK SMILES IDX 5 1 4 2 3 3 1 4 2 5 38 7 39 8 103 9 40 10 102 11 41 12 42 13
REMARK SMILES IDX 43 14 96 15 44 16 101 17 95 18 97 19 45 20 100 21 94 22
REMARK SMILES IDX 93 23 46 25 80 26 59 27 79 28 60 29 63 30 78 31 98 32 61 33
REMARK SMILES IDX 62 34 77 36 99 37 64 38 47 39 48 40 57 41 49 42 50 43 56 44
REMARK SMILES IDX 58 45 51 46 52 47 53 48 54 49 55 50 81 51 82 52 91 53 83 54
REMARK SMILES IDX 84 55 90 56 92 57 85 58 86 59 87 60 88 61 89 62 65 63 66 64
REMARK SMILES IDX 75 65 67 66 68 67 74 68 76 69 69 70 70 71 71 72 72 73 73 74
REMARK SMILES IDX 6 75 7 76 8 77 9 79 10 80 11 81 34 82 12 83 14 84 13 85
REMARK SMILES IDX 37 86 35 87 36 88 15 89 16 90 17 91 18 92 19 94 20 95 28 96
REMARK SMILES IDX 21 97 27 98 26 99 29 100 30 101 33 102 31 103 32 104 22 105
REMARK SMILES IDX 23 106 24 107 25 108
REMARK H PARENT 3 6 97 24 63 35 7 78 18 93
REMARK Flexibility Score: inf
ROOT
ATOM      1  C   UNL A   1      32.889  29.437  25.623  1.00  0.00     0.042 C 
ENDROOT
BRANCH   1   2
ATOM      2  C   UNL A   1      32.836  29.732  27.117  1.00  0.00     0.118 C 
BRANCH   2   3
ATOM      3  N   UNL A   1      33.068  31.118  27.483  1.00  0.00    -0.352 N 
ATOM      4  O   UNL A   1      33.964  33.063  28.005  1.00  0.00    -0.269 OA
ATOM      5  C   UNL A   1      34.148  31.846  27.903  1.00  0.00     0.251 C 
ATOM      6  H   UNL A   1      32.252  31.664  27.412  1.00  0.00     0.163 HD
BRANCH   5   7
ATOM      7  C   UNL A   1      35.478  31.289  28.279  1.00  0.00     0.039 A 
ATOM      8  C   UNL A   1      35.872  29.958  28.137  1.00  0.00     0.014 A 
ATOM      9  C   UNL A   1      36.409  32.206  28.806  1.00  0.00     0.014 A 
ATOM     10  C   UNL A   1      37.133  29.540  28.562  1.00  0.00     0.010 A 
ATOM     11  C   UNL A   1      37.681  31.799  29.207  1.00  0.00     0.010 A 
ATOM     12  C   UNL A   1      38.040  30.457  29.098  1.00  0.00    -0.014 A 
BRANCH  12  13
ATOM     13  C   UNL A   1      39.413  30.006  29.346  1.00  0.00     0.031 A 
ATOM     14  C   UNL A   1      39.799  29.888  30.785  1.00  0.00     0.074 A 
ATOM     15  C   UNL A   1      40.238  29.520  28.396  1.00  0.00     0.049 A 
ATOM     16  N   UNL A   1      40.801  30.426  31.404  1.00  0.00    -0.248 NA
ATOM     17  C   UNL A   1      38.905  29.109  31.659  1.00  0.00     0.031 C 
ATOM     18  C   UNL A   1      39.905  29.251  26.998  1.00  0.00     0.029 A 
ATOM     19  N   UNL A   1      41.514  29.037  28.516  1.00  0.00    -0.354 N 
ATOM     20  C   UNL A   1      40.790  29.881  32.689  1.00  0.00     0.074 A 
ATOM     21  C   UNL A   1      39.530  29.199  32.832  1.00  0.00     0.031 C 
ATOM     22  C   UNL A   1      40.861  28.461  26.462  1.00  0.00     0.029 A 
ATOM     23  C   UNL A   1      41.919  28.255  27.440  1.00  0.00     0.049 A 
ATOM     24  H   UNL A   1      42.091  29.226  29.291  1.00  0.00     0.167 HD
ATOM     25  C   UNL A   1      41.908  29.826  33.463  1.00  0.00     0.037 A 
ATOM     26  C   UNL A   1      42.994  27.430  27.379  1.00  0.00     0.037 A 
ATOM     27  C   UNL A   1      42.909  30.770  33.038  1.00  0.00     0.049 A 
ATOM     28  C   UNL A   1      43.952  27.838  28.435  1.00  0.00     0.074 A 
ATOM     29  C   UNL A   1      42.949  32.137  32.841  1.00  0.00     0.029 A 
ATOM     30  N   UNL A   1      44.056  30.282  32.464  1.00  0.00    -0.354 N 
ATOM     31  N   UNL A   1      44.646  28.941  28.424  1.00  0.00    -0.248 NA
ATOM     32  C   UNL A   1      43.923  27.136  29.711  1.00  0.00     0.031 C 
ATOM     33  C   UNL A   1      43.870  32.339  31.771  1.00  0.00     0.029 A 
ATOM     34  C   UNL A   1      44.349  31.085  31.395  1.00  0.00     0.049 A 
ATOM     35  H   UNL A   1      44.572  29.500  32.767  1.00  0.00     0.167 HD
ATOM     36  C   UNL A   1      44.788  29.285  29.759  1.00  0.00     0.074 A 
ATOM     37  C   UNL A   1      44.453  28.075  30.498  1.00  0.00     0.031 C 
ATOM     38  C   UNL A   1      44.881  30.591  30.145  1.00  0.00     0.037 A 
BRANCH  25  39
ATOM     39  C   UNL A   1      42.244  28.655  34.367  1.00  0.00     0.058 A 
ATOM     40  C   UNL A   1      42.545  28.892  35.727  1.00  0.00     0.135 A 
ATOM     41  C   UNL A   1      42.595  27.373  33.884  1.00  0.00     0.135 A 
ATOM     42  F   UNL A   1      42.252  30.073  36.294  1.00  0.00    -0.206 F 
ATOM     43  C   UNL A   1      43.239  27.970  36.511  1.00  0.00     0.059 A 
ATOM     44  C   UNL A   1      43.235  26.418  34.666  1.00  0.00     0.059 A 
ATOM     45  F   UNL A   1      42.431  27.021  32.604  1.00  0.00    -0.206 F 
ATOM     46  C   UNL A   1      43.605  26.747  35.959  1.00  0.00     0.060 A 
BRANCH  46  47
ATOM     47  S   UNL A   1      44.648  25.621  36.902  1.00  0.00     0.124 S 
ATOM     48  O   UNL A   1      45.865  25.625  36.100  1.00  0.00    -0.237 OA
ATOM     49  O   UNL A   1      44.732  26.290  38.196  1.00  0.00    -0.237 OA
ATOM     50  O   UNL A   1      43.885  24.376  36.895  1.00  0.00    -0.744 OA
ENDBRANCH  46  47
ENDBRANCH  25  39
BRANCH  26  51
ATOM     51  C   UNL A   1      43.145  26.156  26.625  1.00  0.00     0.058 A 
ATOM     52  C   UNL A   1      44.015  26.059  25.523  1.00  0.00     0.135 A 
ATOM     53  C   UNL A   1      42.638  24.938  27.120  1.00  0.00     0.135 A 
ATOM     54  F   UNL A   1      44.569  27.163  24.999  1.00  0.00    -0.206 F 
ATOM     55  C   UNL A   1      44.395  24.829  24.976  1.00  0.00     0.059 A 
ATOM     56  C   UNL A   1      42.983  23.702  26.577  1.00  0.00     0.059 A 
ATOM     57  F   UNL A   1      41.861  24.898  28.212  1.00  0.00    -0.206 F 
ATOM     58  C   UNL A   1      43.884  23.652  25.522  1.00  0.00     0.060 A 
BRANCH  58  59
ATOM     59  S   UNL A   1      44.498  22.056  24.936  1.00  0.00     0.124 S 
ATOM     60  O   UNL A   1      43.426  21.154  25.345  1.00  0.00    -0.237 OA
ATOM     61  O   UNL A   1      44.630  22.284  23.501  1.00  0.00    -0.237 OA
ATOM     62  O   UNL A   1      45.758  21.892  25.656  1.00  0.00    -0.744 OA
ENDBRANCH  58  59
ENDBRANCH  26  51
BRANCH  38  63
ATOM     63  C   UNL A   1      45.294  31.612  29.122  1.00  0.00     0.058 A 
ATOM     64  C   UNL A   1      46.625  31.947  28.819  1.00  0.00     0.135 A 
ATOM     65  C   UNL A   1      44.289  32.194  28.332  1.00  0.00     0.135 A 
ATOM     66  F   UNL A   1      47.649  31.349  29.446  1.00  0.00    -0.206 F 
ATOM     67  C   UNL A   1      46.937  32.865  27.816  1.00  0.00     0.059 A 
ATOM     68  C   UNL A   1      44.580  33.084  27.303  1.00  0.00     0.059 A 
ATOM     69  F   UNL A   1      43.001  31.864  28.529  1.00  0.00    -0.206 F 
ATOM     70  C   UNL A   1      45.907  33.429  27.062  1.00  0.00     0.060 A 
BRANCH  70  71
ATOM     71  S   UNL A   1      46.322  34.558  25.715  1.00  0.00     0.124 S 
ATOM     72  O   UNL A   1      46.044  35.860  26.310  1.00  0.00    -0.237 OA
ATOM     73  O   UNL A   1      47.729  34.258  25.470  1.00  0.00    -0.237 OA
ATOM     74  O   UNL A   1      45.414  34.155  24.642  1.00  0.00    -0.744 OA
ENDBRANCH  70  71
ENDBRANCH  38  63
ENDBRANCH  12  13
ENDBRANCH   5   7
ENDBRANCH   2   3
ENDBRANCH   1   2
BRANCH   1  75
ATOM     75  C   UNL A   1      34.026  28.520  25.183  1.00  0.00     0.118 C 
BRANCH  75  76
ATOM     76  N   UNL A   1      34.422  28.681  23.783  1.00  0.00    -0.352 N 
ATOM     77  C   UNL A   1      33.852  28.172  22.630  1.00  0.00     0.251 C 
ATOM     78  H   UNL A   1      35.220  29.239  23.640  1.00  0.00     0.163 HD
ATOM     79  O   UNL A   1      34.376  28.372  21.538  1.00  0.00    -0.269 OA
BRANCH  77  80
ATOM     80  C   UNL A   1      32.625  27.346  22.720  1.00  0.00     0.041 A 
ATOM     81  C   UNL A   1      31.383  27.966  22.600  1.00  0.00     0.018 A 
ATOM     82  C   UNL A   1      32.727  25.985  23.083  1.00  0.00     0.036 A 
ATOM     83  C   UNL A   1      30.296  27.305  23.129  1.00  0.00    -0.043 A 
ATOM     84  C   UNL A   1      31.593  25.287  23.546  1.00  0.00     0.092 A 
ATOM     85  C   UNL A   1      30.416  26.015  23.680  1.00  0.00    -0.024 A 
ATOM     86  C   UNL A   1      28.948  27.905  23.398  1.00  0.00     0.036 C 
ATOM     87  C   UNL A   1      29.209  25.772  24.534  1.00  0.00     0.037 C 
ATOM     88  C   UNL A   1      28.174  26.669  23.853  1.00  0.00     0.010 C 
BRANCH  84  89
ATOM     89  S   UNL A   1      31.803  23.647  24.211  1.00  0.00     0.262 S 
ATOM     90  O   UNL A   1      32.038  23.783  25.629  1.00  0.00    -0.201 OA
ATOM     91  O   UNL A   1      30.699  22.828  23.739  1.00  0.00    -0.201 OA
BRANCH  89  92
ATOM     92  N   UNL A   1      33.239  22.914  23.631  1.00  0.00    -0.277 N 
ATOM     93  H   UNL A   1      33.786  23.388  22.965  1.00  0.00     0.180 HD
BRANCH  92  94
ATOM     94  C   UNL A   1      33.662  21.624  24.098  1.00  0.00     0.075 A 
ATOM     95  C   UNL A   1      32.878  20.499  23.790  1.00  0.00     0.042 A 
ATOM     96  C   UNL A   1      34.902  21.445  24.735  1.00  0.00     0.089 A 
ATOM     97  C   UNL A   1      33.344  19.195  24.059  1.00  0.00     0.058 A 
ATOM     98  C   UNL A   1      35.360  20.150  25.023  1.00  0.00     0.031 A 
ATOM     99  C   UNL A   1      34.584  19.036  24.694  1.00  0.00     0.015 A 
BRANCH  96 100
ATOM    100  N   UNL A   1      35.738  22.545  25.053  1.00  0.00    -0.239 N 
ATOM    101  C   UNL A   1      36.884  22.962  24.411  1.00  0.00     0.115 A 
ATOM    102  N   UNL A   1      35.490  23.311  26.148  1.00  0.00    -0.177 NA
ATOM    103  C   UNL A   1      37.505  23.859  25.241  1.00  0.00     0.042 A 
ATOM    104  C   UNL A   1      36.617  24.008  26.315  1.00  0.00     0.135 A 
ENDBRANCH  96 100
BRANCH  97 105
ATOM    105  C   UNL A   1      32.549  17.989  23.607  1.00  0.00     0.416 C 
ATOM    106  F   UNL A   1      31.643  17.593  24.542  1.00  0.00    -0.166 F 
ATOM    107  F   UNL A   1      31.847  18.228  22.470  1.00  0.00    -0.166 F 
ATOM    108  F   UNL A   1      33.326  16.900  23.352  1.00  0.00    -0.166 F 
ENDBRANCH  97 105
ENDBRANCH  92  94
ENDBRANCH  89  92
ENDBRANCH  84  89
ENDBRANCH  77  80
ENDBRANCH  75  76
ENDBRANCH   1  75
TORSDOF 18
ENDMDL
MODEL 2
REMARK VINA RESULT:     -13.2      3.387      9.419
REMARK SMILES O=C(NCCCNC(=O)c1cc2c(c(S(=O)(=O)Nc3cc(C(F)(F)F)ccc3-n3cccn3)c1)CCC2)c1ccc(-c2c3nc(c(-c4c(F)cc(S(=O)(=O)[O-])cc4F)c4ccc([nH]4)c(-c4c(F)cc(S(=O)(=O)[O-])cc4F)c4nc(c(-c5c(F)cc(S(=O)(=O)[O-])cc5F)c5ccc2[nH]5)C=C4)C=C3)cc1
REMARK SMILES IDX 5 1 4 2 3 3 1 4 2 5 38 7 39 8 103 9 40 10 102 11 41 12 42 13
REMARK SMILES IDX 43 14 96 15 44 16 101 17 95 18 97 19 45 20 100 21 94 22
REMARK SMILES IDX 93 23 46 25 80 26 59 27 79 28 60 29 63 30 78 31 98 32 61 33
REMARK SMILES IDX 62 34 77 36 99 37 64 38 47 39 48 40 57 41 49 42 50 43 56 44
REMARK SMILES IDX 58 45 51 46 52 47 53 48 54 49 55 50 81 51 82 52 91 53 83 54
REMARK SMILES IDX 84 55 90 56 92 57 85 58 86 59 87 60 88 61 89 62 65 63 66 64
REMARK SMILES IDX 75 65 67 66 68 67 74 68 76 69 69 70 70 71 71 72 72 73 73 74
REMARK SMILES IDX 6 75 7 76 8 77 9 79 10 80 11 81 34 82 12 83 14 84 13 85
REMARK SMILES IDX 37 86 35 87 36 88 15 89 16 90 17 91 18 92 19 94 20 95 28 96
REMARK SMILES IDX 21 97 27 98 26 99 29 100 30 101 33 102 31 103 32 104 22 105
REMARK SMILES IDX 23 106 24 107 25 108
REMARK H PARENT 3 6 97 24 63 35 7 78 18 93
REMARK Flexibility Score: inf
ROOT
ATOM      1  C   UNL A   1      35.746  21.519  25.967  1.00  0.00     0.042 C 
ENDROOT
BRANCH   1   2
ATOM      2  C   UNL A   1      36.934  22.428  25.675  1.00  0.00     0.118 C 
BRANCH   2   3
ATOM      3  N   UNL A   1      38.232  21.780  25.708  1.00  0.00    -0.352 N 
ATOM      4  O   UNL A   1      40.313  21.198  26.145  1.00  0.00    -0.269 OA
ATOM      5  C   UNL A   1      39.460  22.088  26.228  1.00  0.00     0.251 C 
ATOM      6  H   UNL A   1      38.228  20.911  25.246  1.00  0.00     0.163 HD
BRANCH   5   7
ATOM      7  C   UNL A   1      39.847  23.396  26.827  1.00  0.00     0.039 A 
ATOM      8  C   UNL A   1      39.177  24.606  26.640  1.00  0.00     0.014 A 
ATOM      9  C   UNL A   1      40.980  23.385  27.665  1.00  0.00     0.014 A 
ATOM     10  C   UNL A   1      39.655  25.781  27.221  1.00  0.00     0.010 A 
ATOM     11  C   UNL A   1      41.445  24.551  28.271  1.00  0.00     0.010 A 
ATOM     12  C   UNL A   1      40.789  25.758  28.037  1.00  0.00    -0.014 A 
BRANCH  12  13
ATOM     13  C   UNL A   1      41.132  26.976  28.777  1.00  0.00     0.031 A 
ATOM     14  C   UNL A   1      42.276  27.763  28.221  1.00  0.00     0.074 A 
ATOM     15  C   UNL A   1      40.379  27.507  29.761  1.00  0.00     0.049 A 
ATOM     16  N   UNL A   1      43.358  28.152  28.815  1.00  0.00    -0.248 NA
ATOM     17  C   UNL A   1      42.223  28.106  26.790  1.00  0.00     0.031 C 
ATOM     18  C   UNL A   1      39.060  27.052  30.200  1.00  0.00     0.029 A 
ATOM     19  N   UNL A   1      40.577  28.650  30.489  1.00  0.00    -0.354 N 
ATOM     20  C   UNL A   1      44.018  28.973  27.899  1.00  0.00     0.074 A 
ATOM     21  C   UNL A   1      43.355  28.790  26.635  1.00  0.00     0.031 C 
ATOM     22  C   UNL A   1      38.487  28.021  30.947  1.00  0.00     0.029 A 
ATOM     23  C   UNL A   1      39.432  29.113  31.126  1.00  0.00     0.049 A 
ATOM     24  H   UNL A   1      41.449  29.102  30.555  1.00  0.00     0.167 HD
ATOM     25  C   UNL A   1      44.913  29.922  28.289  1.00  0.00     0.037 A 
ATOM     26  C   UNL A   1      39.235  30.333  31.685  1.00  0.00     0.037 A 
ATOM     27  C   UNL A   1      45.434  29.666  29.608  1.00  0.00     0.049 A 
ATOM     28  C   UNL A   1      40.562  30.938  31.957  1.00  0.00     0.074 A 
ATOM     29  C   UNL A   1      46.082  28.611  30.220  1.00  0.00     0.029 A 
ATOM     30  N   UNL A   1      45.063  30.511  30.624  1.00  0.00    -0.354 N 
ATOM     31  N   UNL A   1      41.397  30.522  32.867  1.00  0.00    -0.248 NA
ATOM     32  C   UNL A   1      41.120  31.861  30.979  1.00  0.00     0.031 C 
ATOM     33  C   UNL A   1      45.662  28.648  31.582  1.00  0.00     0.029 A 
ATOM     34  C   UNL A   1      44.800  29.735  31.721  1.00  0.00     0.049 A 
ATOM     35  H   UNL A   1      45.000  31.492  30.574  1.00  0.00     0.167 HD
ATOM     36  C   UNL A   1      42.652  30.789  32.345  1.00  0.00     0.074 A 
ATOM     37  C   UNL A   1      42.419  31.733  31.261  1.00  0.00     0.031 C 
ATOM     38  C   UNL A   1      43.725  30.001  32.651  1.00  0.00     0.037 A 
BRANCH  25  39
ATOM     39  C   UNL A   1      45.029  31.284  27.632  1.00  0.00     0.058 A 
ATOM     40  C   UNL A   1      46.273  31.697  27.106  1.00  0.00     0.135 A 
ATOM     41  C   UNL A   1      44.068  32.309  27.788  1.00  0.00     0.135 A 
ATOM     42  F   UNL A   1      47.260  30.807  26.911  1.00  0.00    -0.206 F 
ATOM     43  C   UNL A   1      46.575  33.037  26.861  1.00  0.00     0.059 A 
ATOM     44  C   UNL A   1      44.328  33.643  27.495  1.00  0.00     0.059 A 
ATOM     45  F   UNL A   1      42.866  32.086  28.332  1.00  0.00    -0.206 F 
ATOM     46  C   UNL A   1      45.602  34.005  27.088  1.00  0.00     0.060 A 
BRANCH  46  47
ATOM     47  S   UNL A   1      46.029  35.749  26.942  1.00  0.00     0.124 S 
ATOM     48  O   UNL A   1      44.706  36.362  26.907  1.00  0.00    -0.237 OA
ATOM     49  O   UNL A   1      46.808  35.977  28.153  1.00  0.00    -0.237 OA
ATOM     50  O   UNL A   1      46.787  35.802  25.696  1.00  0.00    -0.744 OA
ENDBRANCH  46  47
ENDBRANCH  25  39
BRANCH  26  51
ATOM     51  C   UNL A   1      37.975  31.119  31.780  1.00  0.00     0.058 A 
ATOM     52  C   UNL A   1      37.400  31.427  33.027  1.00  0.00     0.135 A 
ATOM     53  C   UNL A   1      37.443  31.804  30.670  1.00  0.00     0.135 A 
ATOM     54  F   UNL A   1      37.858  30.846  34.146  1.00  0.00    -0.206 F 
ATOM     55  C   UNL A   1      36.393  32.388  33.169  1.00  0.00     0.059 A 
ATOM     56  C   UNL A   1      36.424  32.748  30.783  1.00  0.00     0.059 A 
ATOM     57  F   UNL A   1      37.960  31.650  29.442  1.00  0.00    -0.206 F 
ATOM     58  C   UNL A   1      35.922  33.056  32.040  1.00  0.00     0.060 A 
BRANCH  58  59
ATOM     59  S   UNL A   1      34.747  34.416  32.232  1.00  0.00     0.124 S 
ATOM     60  O   UNL A   1      34.485  34.785  30.845  1.00  0.00    -0.237 OA
ATOM     61  O   UNL A   1      33.645  33.774  32.941  1.00  0.00    -0.237 OA
ATOM     62  O   UNL A   1      35.493  35.402  33.009  1.00  0.00    -0.744 OA
ENDBRANCH  58  59
ENDBRANCH  26  51
BRANCH  38  63
ATOM     63  C   UNL A   1      43.659  29.149  33.887  1.00  0.00     0.058 A 
ATOM     64  C   UNL A   1      43.058  27.880  33.952  1.00  0.00     0.135 A 
ATOM     65  C   UNL A   1      44.340  29.597  35.030  1.00  0.00     0.135 A 
ATOM     66  F   UNL A   1      42.489  27.327  32.871  1.00  0.00    -0.206 F 
ATOM     67  C   UNL A   1      43.084  27.119  35.121  1.00  0.00     0.059 A 
ATOM     68  C   UNL A   1      44.409  28.839  36.195  1.00  0.00     0.059 A 
ATOM     69  F   UNL A   1      44.991  30.773  35.010  1.00  0.00    -0.206 F 
ATOM     70  C   UNL A   1      43.761  27.607  36.239  1.00  0.00     0.060 A 
BRANCH  70  71
ATOM     71  S   UNL A   1      43.856  26.585  37.725  1.00  0.00     0.124 S 
ATOM     72  O   UNL A   1      44.712  25.488  37.288  1.00  0.00    -0.237 OA
ATOM     73  O   UNL A   1      44.442  27.497  38.702  1.00  0.00    -0.237 OA
ATOM     74  O   UNL A   1      42.462  26.226  37.981  1.00  0.00    -0.744 OA
ENDBRANCH  70  71
ENDBRANCH  38  63
ENDBRANCH  12  13
ENDBRANCH   5   7
ENDBRANCH   2   3
ENDBRANCH   1   2
BRANCH   1  75
ATOM     75  C   UNL A   1      35.518  20.405  24.949  1.00  0.00     0.118 C 
BRANCH  75  76
ATOM     76  N   UNL A   1      34.264  19.671  25.131  1.00  0.00    -0.352 N 
ATOM     77  C   UNL A   1      32.959  20.059  24.888  1.00  0.00     0.251 C 
ATOM     78  H   UNL A   1      34.367  18.757  25.482  1.00  0.00     0.163 HD
ATOM     79  O   UNL A   1      32.026  19.312  25.168  1.00  0.00    -0.269 OA
BRANCH  77  80
ATOM     80  C   UNL A   1      32.685  21.402  24.325  1.00  0.00     0.041 A 
ATOM     81  C   UNL A   1      32.511  21.534  22.949  1.00  0.00     0.018 A 
ATOM     82  C   UNL A   1      32.764  22.537  25.161  1.00  0.00     0.036 A 
ATOM     83  C   UNL A   1      32.716  22.784  22.406  1.00  0.00    -0.043 A 
ATOM     84  C   UNL A   1      32.891  23.825  24.601  1.00  0.00     0.092 A 
ATOM     85  C   UNL A   1      32.995  23.902  23.216  1.00  0.00    -0.024 A 
ATOM     86  C   UNL A   1      32.898  23.091  20.949  1.00  0.00     0.036 C 
ATOM     87  C   UNL A   1      33.584  24.964  22.338  1.00  0.00     0.037 C 
ATOM     88  C   UNL A   1      32.958  24.616  20.986  1.00  0.00     0.010 C 
BRANCH  84  89
ATOM     89  S   UNL A   1      33.219  25.205  25.679  1.00  0.00     0.262 S 
ATOM     90  O   UNL A   1      32.095  25.327  26.577  1.00  0.00    -0.201 OA
ATOM     91  O   UNL A   1      34.558  25.043  26.219  1.00  0.00    -0.201 OA
BRANCH  89  92
ATOM     92  N   UNL A   1      33.213  26.687  24.820  1.00  0.00    -0.277 N 
ATOM     93  H   UNL A   1      33.300  26.676  23.839  1.00  0.00     0.180 HD
BRANCH  92  94
ATOM     94  C   UNL A   1      33.083  27.945  25.499  1.00  0.00     0.075 A 
ATOM     95  C   UNL A   1      34.120  28.371  26.347  1.00  0.00     0.042 A 
ATOM     96  C   UNL A   1      32.012  28.815  25.231  1.00  0.00     0.089 A 
ATOM     97  C   UNL A   1      34.128  29.675  26.884  1.00  0.00     0.058 A 
ATOM     98  C   UNL A   1      32.006  30.107  25.781  1.00  0.00     0.031 A 
ATOM     99  C   UNL A   1      33.052  30.529  26.605  1.00  0.00     0.015 A 
BRANCH  96 100
ATOM    100  N   UNL A   1      30.949  28.441  24.371  1.00  0.00    -0.239 N 
ATOM    101  C   UNL A   1      30.311  29.205  23.419  1.00  0.00     0.115 A 
ATOM    102  N   UNL A   1      30.383  27.209  24.464  1.00  0.00    -0.177 NA
ATOM    103  C   UNL A   1      29.170  28.531  23.063  1.00  0.00     0.042 A 
ATOM    104  C   UNL A   1      29.249  27.322  23.767  1.00  0.00     0.135 A 
ENDBRANCH  96 100
BRANCH  97 105
ATOM    105  C   UNL A   1      35.312  30.165  27.690  1.00  0.00     0.416 C 
ATOM    106  F   UNL A   1      35.396  31.523  27.701  1.00  0.00    -0.166 F 
ATOM    107  F   UNL A   1      35.252  29.774  28.989  1.00  0.00    -0.166 F 
ATOM    108  F   UNL A   1      36.507  29.718  27.213  1.00  0.00    -0.166 F 
ENDBRANCH  97 105
ENDBRANCH  92  94
ENDBRANCH  89  92
ENDBRANCH  84  89
ENDBRANCH  77  80
ENDBRANCH  75  76
ENDBRANCH   1  75
TORSDOF 18
ENDMDL
MODEL 3
REMARK VINA RESULT:     -13.0      2.045      2.991
REMARK SMILES O=C(NCCCNC(=O)c1cc2c(c(S(=O)(=O)Nc3cc(C(F)(F)F)ccc3-n3cccn3)c1)CCC2)c1ccc(-c2c3nc(c(-c4c(F)cc(S(=O)(=O)[O-])cc4F)c4ccc([nH]4)c(-c4c(F)cc(S(=O)(=O)[O-])cc4F)c4nc(c(-c5c(F)cc(S(=O)(=O)[O-])cc5F)c5ccc2[nH]5)C=C4)C=C3)cc1
REMARK SMILES IDX 5 1 4 2 3 3 1 4 2 5 38 7 39 8 103 9 40 10 102 11 41 12 42 13
REMARK SMILES IDX 43 14 96 15 44 16 101 17 95 18 97 19 45 20 100 21 94 22
REMARK SMILES IDX 93 23 46 25 80 26 59 27 79 28 60 29 63 30 78 31 98 32 61 33
REMARK SMILES IDX 62 34 77 36 99 37 64 38 47 39 48 40 57 41 49 42 50 43 56 44
REMARK SMILES IDX 58 45 51 46 52 47 53 48 54 49 55 50 81 51 82 52 91 53 83 54
REMARK SMILES IDX 84 55 90 56 92 57 85 58 86 59 87 60 88 61 89 62 65 63 66 64
REMARK SMILES IDX 75 65 67 66 68 67 74 68 76 69 69 70 70 71 71 72 72 73 73 74
REMARK SMILES IDX 6 75 7 76 8 77 9 79 10 80 11 81 34 82 12 83 14 84 13 85
REMARK SMILES IDX 37 86 35 87 36 88 15 89 16 90 17 91 18 92 19 94 20 95 28 96
REMARK SMILES IDX 21 97 27 98 26 99 29 100 30 101 33 102 31 103 32 104 22 105
REMARK SMILES IDX 23 106 24 107 25 108
REMARK H PARENT 3 6 97 24 63 35 7 78 18 93
REMARK Flexibility Score: inf
ROOT
ATOM      1  C   UNL A   1      33.644  28.629  27.219  1.00  0.00     0.042 C 
ENDROOT
BRANCH   1   2
ATOM      2  C   UNL A   1      33.661  30.041  26.643  1.00  0.00     0.118 C 
BRANCH   2   3
ATOM      3  N   UNL A   1      33.633  31.110  27.626  1.00  0.00    -0.352 N 
ATOM      4  O   UNL A   1      34.154  32.656  29.108  1.00  0.00    -0.269 OA
ATOM      5  C   UNL A   1      34.535  31.648  28.504  1.00  0.00     0.251 C 
ATOM      6  H   UNL A   1      32.756  31.554  27.670  1.00  0.00     0.163 HD
BRANCH   5   7
ATOM      7  C   UNL A   1      35.885  31.097  28.810  1.00  0.00     0.039 A 
ATOM      8  C   UNL A   1      36.193  29.746  28.978  1.00  0.00     0.014 A 
ATOM      9  C   UNL A   1      36.929  32.036  28.919  1.00  0.00     0.014 A 
ATOM     10  C   UNL A   1      37.490  29.347  29.304  1.00  0.00     0.010 A 
ATOM     11  C   UNL A   1      38.233  31.641  29.216  1.00  0.00     0.010 A 
ATOM     12  C   UNL A   1      38.512  30.291  29.424  1.00  0.00    -0.014 A 
BRANCH  12  13
ATOM     13  C   UNL A   1      39.888  29.805  29.573  1.00  0.00     0.031 A 
ATOM     14  C   UNL A   1      40.378  29.690  30.980  1.00  0.00     0.074 A 
ATOM     15  C   UNL A   1      40.624  29.287  28.569  1.00  0.00     0.049 A 
ATOM     16  N   UNL A   1      41.438  30.205  31.516  1.00  0.00    -0.248 NA
ATOM     17  C   UNL A   1      39.532  28.943  31.927  1.00  0.00     0.031 C 
ATOM     18  C   UNL A   1      40.179  29.014  27.203  1.00  0.00     0.029 A 
ATOM     19  N   UNL A   1      41.892  28.769  28.597  1.00  0.00    -0.354 N 
ATOM     20  C   UNL A   1      41.509  29.672  32.804  1.00  0.00     0.074 A 
ATOM     21  C   UNL A   1      40.246  29.027  33.049  1.00  0.00     0.031 C 
ATOM     22  C   UNL A   1      41.070  28.193  26.605  1.00  0.00     0.029 A 
ATOM     23  C   UNL A   1      42.193  27.967  27.504  1.00  0.00     0.049 A 
ATOM     24  H   UNL A   1      42.531  28.949  29.325  1.00  0.00     0.167 HD
ATOM     25  C   UNL A   1      42.681  29.593  33.492  1.00  0.00     0.037 A 
ATOM     26  C   UNL A   1      43.238  27.112  27.371  1.00  0.00     0.037 A 
ATOM     27  C   UNL A   1      43.672  30.506  32.981  1.00  0.00     0.049 A 
ATOM     28  C   UNL A   1      44.284  27.503  28.347  1.00  0.00     0.074 A 
ATOM     29  C   UNL A   1      43.734  31.869  32.767  1.00  0.00     0.029 A 
ATOM     30  N   UNL A   1      44.759  29.980  32.329  1.00  0.00    -0.354 N 
ATOM     31  N   UNL A   1      45.005  28.586  28.271  1.00  0.00    -0.248 NA
ATOM     32  C   UNL A   1      44.333  26.814  29.629  1.00  0.00     0.031 C 
ATOM     33  C   UNL A   1      44.576  32.035  31.628  1.00  0.00     0.029 A 
ATOM     34  C   UNL A   1      44.992  30.765  31.231  1.00  0.00     0.049 A 
ATOM     35  H   UNL A   1      45.275  29.187  32.601  1.00  0.00     0.167 HD
ATOM     36  C   UNL A   1      45.256  28.938  29.587  1.00  0.00     0.074 A 
ATOM     37  C   UNL A   1      44.946  27.745  30.363  1.00  0.00     0.031 C 
ATOM     38  C   UNL A   1      45.414  30.245  29.950  1.00  0.00     0.037 A 
BRANCH  25  39
ATOM     39  C   UNL A   1      43.053  28.422  34.381  1.00  0.00     0.058 A 
ATOM     40  C   UNL A   1      43.495  28.665  35.700  1.00  0.00     0.135 A 
ATOM     41  C   UNL A   1      43.298  27.118  33.891  1.00  0.00     0.135 A 
ATOM     42  F   UNL A   1      43.312  29.867  36.270  1.00  0.00    -0.206 F 
ATOM     43  C   UNL A   1      44.223  27.725  36.431  1.00  0.00     0.059 A 
ATOM     44  C   UNL A   1      43.970  26.147  34.625  1.00  0.00     0.059 A 
ATOM     45  F   UNL A   1      42.994  26.755  32.640  1.00  0.00    -0.206 F 
ATOM     46  C   UNL A   1      44.479  26.478  35.870  1.00  0.00     0.060 A 
BRANCH  46  47
ATOM     47  S   UNL A   1      45.559  25.320  36.728  1.00  0.00     0.124 S 
ATOM     48  O   UNL A   1      46.129  24.582  35.607  1.00  0.00    -0.237 OA
ATOM     49  O   UNL A   1      46.470  26.215  37.434  1.00  0.00    -0.237 OA
ATOM     50  O   UNL A   1      44.638  24.574  37.579  1.00  0.00    -0.744 OA
ENDBRANCH  46  47
ENDBRANCH  25  39
BRANCH  26  51
ATOM     51  C   UNL A   1      43.297  25.827  26.622  1.00  0.00     0.058 A 
ATOM     52  C   UNL A   1      44.115  25.682  25.486  1.00  0.00     0.135 A 
ATOM     53  C   UNL A   1      42.753  24.638  27.147  1.00  0.00     0.135 A 
ATOM     54  F   UNL A   1      44.700  26.753  24.931  1.00  0.00    -0.206 F 
ATOM     55  C   UNL A   1      44.413  24.430  24.935  1.00  0.00     0.059 A 
ATOM     56  C   UNL A   1      43.016  23.383  26.602  1.00  0.00     0.059 A 
ATOM     57  F   UNL A   1      42.021  24.642  28.270  1.00  0.00    -0.206 F 
ATOM     58  C   UNL A   1      43.870  23.284  25.511  1.00  0.00     0.060 A 
BRANCH  58  59
ATOM     59  S   UNL A   1      44.382  21.656  24.915  1.00  0.00     0.124 S 
ATOM     60  O   UNL A   1      45.614  21.434  25.664  1.00  0.00    -0.237 OA
ATOM     61  O   UNL A   1      43.247  20.819  25.288  1.00  0.00    -0.237 OA
ATOM     62  O   UNL A   1      44.555  21.860  23.479  1.00  0.00    -0.744 OA
ENDBRANCH  58  59
ENDBRANCH  26  51
BRANCH  38  63
ATOM     63  C   UNL A   1      45.776  31.244  28.888  1.00  0.00     0.058 A 
ATOM     64  C   UNL A   1      44.860  31.837  28.002  1.00  0.00     0.135 A 
ATOM     65  C   UNL A   1      47.102  31.707  28.846  1.00  0.00     0.135 A 
ATOM     66  F   UNL A   1      43.554  31.539  28.056  1.00  0.00    -0.206 F 
ATOM     67  C   UNL A   1      45.258  32.802  27.077  1.00  0.00     0.059 A 
ATOM     68  C   UNL A   1      47.513  32.694  27.956  1.00  0.00     0.059 A 
ATOM     69  F   UNL A   1      48.011  31.227  29.712  1.00  0.00    -0.206 F 
ATOM     70  C   UNL A   1      46.588  33.224  27.060  1.00  0.00     0.060 A 
BRANCH  70  71
ATOM     71  S   UNL A   1      47.082  34.528  25.912  1.00  0.00     0.124 S 
ATOM     72  O   UNL A   1      47.184  35.687  26.791  1.00  0.00    -0.237 OA
ATOM     73  O   UNL A   1      48.343  34.021  25.379  1.00  0.00    -0.237 OA
ATOM     74  O   UNL A   1      45.982  34.568  24.950  1.00  0.00    -0.744 OA
ENDBRANCH  70  71
ENDBRANCH  38  63
ENDBRANCH  12  13
ENDBRANCH   5   7
ENDBRANCH   2   3
ENDBRANCH   1   2
BRANCH   1  75
ATOM     75  C   UNL A   1      32.258  28.006  27.363  1.00  0.00     0.118 C 
BRANCH  75  76
ATOM     76  N   UNL A   1      31.348  28.302  26.256  1.00  0.00    -0.352 N 
ATOM     77  C   UNL A   1      31.109  27.606  25.084  1.00  0.00     0.251 C 
ATOM     78  H   UNL A   1      30.822  29.128  26.361  1.00  0.00     0.163 HD
ATOM     79  O   UNL A   1      30.343  28.056  24.239  1.00  0.00    -0.269 OA
BRANCH  77  80
ATOM     80  C   UNL A   1      31.818  26.328  24.833  1.00  0.00     0.041 A 
ATOM     81  C   UNL A   1      32.533  26.175  23.647  1.00  0.00     0.018 A 
ATOM     82  C   UNL A   1      31.627  25.241  25.713  1.00  0.00     0.036 A 
ATOM     83  C   UNL A   1      32.784  24.887  23.225  1.00  0.00    -0.043 A 
ATOM     84  C   UNL A   1      31.962  23.932  25.308  1.00  0.00     0.092 A 
ATOM     85  C   UNL A   1      32.419  23.774  24.005  1.00  0.00    -0.024 A 
ATOM     86  C   UNL A   1      33.241  24.485  21.854  1.00  0.00     0.036 C 
ATOM     87  C   UNL A   1      32.419  22.572  23.109  1.00  0.00     0.037 C 
ATOM     88  C   UNL A   1      33.447  22.985  22.053  1.00  0.00     0.010 C 
BRANCH  84  89
ATOM     89  S   UNL A   1      31.496  22.563  26.349  1.00  0.00     0.262 S 
ATOM     90  O   UNL A   1      30.927  23.113  27.557  1.00  0.00    -0.201 OA
ATOM     91  O   UNL A   1      30.719  21.634  25.545  1.00  0.00    -0.201 OA
BRANCH  89  92
ATOM     92  N   UNL A   1      32.868  21.701  26.904  1.00  0.00    -0.277 N 
ATOM     93  H   UNL A   1      32.834  21.254  27.781  1.00  0.00     0.180 HD
BRANCH  92  94
ATOM     94  C   UNL A   1      34.066  21.615  26.119  1.00  0.00     0.075 A 
ATOM     95  C   UNL A   1      35.052  22.606  26.272  1.00  0.00     0.042 A 
ATOM     96  C   UNL A   1      34.333  20.500  25.306  1.00  0.00     0.089 A 
ATOM     97  C   UNL A   1      36.320  22.467  25.669  1.00  0.00     0.058 A 
ATOM     98  C   UNL A   1      35.586  20.368  24.688  1.00  0.00     0.031 A 
ATOM     99  C   UNL A   1      36.567  21.346  24.863  1.00  0.00     0.015 A 
BRANCH  96 100
ATOM    100  N   UNL A   1      33.379  19.466  25.131  1.00  0.00    -0.239 N 
ATOM    101  C   UNL A   1      32.969  18.518  26.044  1.00  0.00     0.115 A 
ATOM    102  N   UNL A   1      32.782  19.269  23.927  1.00  0.00    -0.177 NA
ATOM    103  C   UNL A   1      32.278  17.561  25.345  1.00  0.00     0.042 A 
ATOM    104  C   UNL A   1      32.226  18.059  24.037  1.00  0.00     0.135 A 
ENDBRANCH  96 100
BRANCH  97 105
ATOM    105  C   UNL A   1      37.415  23.474  25.945  1.00  0.00     0.416 C 
ATOM    106  F   UNL A   1      38.538  22.887  26.439  1.00  0.00    -0.166 F 
ATOM    107  F   UNL A   1      37.794  24.147  24.827  1.00  0.00    -0.166 F 
ATOM    108  F   UNL A   1      37.055  24.422  26.855  1.00  0.00    -0.166 F 
ENDBRANCH  97 105
ENDBRANCH  92  94
ENDBRANCH  89  92
ENDBRANCH  84  89
ENDBRANCH  77  80
ENDBRANCH  75  76
ENDBRANCH   1  75
TORSDOF 18
ENDMDL
