MODEL 1
REMARK VINA RESULT:     -11.2      0.000      0.000
REMARK SMILES CC[NH2+][C@]1(C(=O)NCCCNC(=O)c2ccc(-c3c4nc(c(-c5c(F)cc(S(=O)(=O)[O-])cc5F)c5ccc([nH]5)c(-c5c(F)cc(S(=O)(=O)[O-])cc5F)c5nc(c(-c6c(F)cc(S(=O)(=O)[O-])cc6F)c6ccc3[nH]6)C=C5)C=C4)cc2)CC[C@@H](Sc2ccccc2C)C1
REMARK SMILES IDX 9 1 8 2 7 3 5 4 6 5 4 7 80 8 91 9 81 10 82 11 3 12 2 15 1 16
REMARK SMILES IDX 83 17 84 18 85 19 89 20 86 21 88 22 90 23 87 24 10 25 11 26
REMARK SMILES IDX 12 27 13 29 14 30 15 31 79 32 16 33 78 34 17 35 18 36 19 37
REMARK SMILES IDX 72 38 20 39 77 40 71 41 73 42 21 43 76 44 70 45 69 46 22 48
REMARK SMILES IDX 56 49 35 50 55 51 36 52 39 53 54 54 74 55 37 56 38 57 53 59
REMARK SMILES IDX 75 60 40 61 23 62 24 63 33 64 25 65 26 66 32 67 34 68 27 69
REMARK SMILES IDX 28 70 29 71 30 72 31 73 57 74 58 75 67 76 59 77 60 78 66 79
REMARK SMILES IDX 68 80 61 81 62 82 63 83 64 84 65 85 41 86 42 87 51 88 43 89
REMARK SMILES IDX 44 90 50 91 52 92 45 93 46 94 47 95 48 96 49 97
REMARK H PARENT 7 6 3 13 3 14 11 28 73 47 39 58
REMARK Flexibility Score: inf
ROOT
ATOM      1  C   UNL A   1      32.997  27.677  26.720  1.00  0.00     0.042 C 
ENDROOT
BRANCH   1   2
ATOM      2  C   UNL A   1      32.835  26.338  26.023  1.00  0.00     0.118 C 
BRANCH   2   3
ATOM      3  N   UNL A   1      31.803  25.517  26.631  1.00  0.00    -0.351 N 
ATOM      4  C   UNL A   1      31.585  24.168  26.626  1.00  0.00     0.281 C 
ATOM      5  O   UNL A   1      30.567  23.805  27.227  1.00  0.00    -0.268 OA
ATOM      6  H   UNL A   1      31.135  26.028  27.143  1.00  0.00     0.163 HD
BRANCH   4   7
ATOM      7  C   UNL A   1      32.585  23.165  25.944  1.00  0.00     0.176 C 
ATOM      8  C   UNL A   1      32.753  23.490  24.441  1.00  0.00     0.080 C 
ATOM      9  C   UNL A   1      34.004  23.293  26.527  1.00  0.00     0.094 C 
ATOM     10  C   UNL A   1      34.230  23.290  24.087  1.00  0.00     0.022 C 
ATOM     11  C   UNL A   1      34.949  22.941  25.389  1.00  0.00     0.058 C 
BRANCH   7  12
ATOM     12  N   UNL A   1      32.072  21.769  26.005  1.00  0.00    -0.334 N 
ATOM     13  H   UNL A   1      32.669  21.245  26.645  1.00  0.00     0.347 HD
ATOM     14  H   UNL A   1      31.101  21.847  26.307  1.00  0.00     0.347 HD
BRANCH  12  15
ATOM     15  C   UNL A   1      32.031  21.043  24.738  1.00  0.00     0.257 C 
ATOM     16  C   UNL A   1      32.609  19.651  24.940  1.00  0.00     0.071 C 
ENDBRANCH  12  15
ENDBRANCH   7  12
BRANCH  11  17
ATOM     17  S   UNL A   1      36.663  23.588  25.576  1.00  0.00    -0.122 SA
BRANCH  17  18
ATOM     18  C   UNL A   1      37.716  22.132  25.519  1.00  0.00     0.010 A 
ATOM     19  C   UNL A   1      37.176  20.979  24.923  1.00  0.00     0.015 A 
ATOM     20  C   UNL A   1      38.980  22.044  26.140  1.00  0.00    -0.038 A 
ATOM     21  C   UNL A   1      37.892  19.778  24.884  1.00  0.00     0.001 A 
ATOM     22  C   UNL A   1      39.698  20.831  26.069  1.00  0.00     0.004 A 
ATOM     23  C   UNL A   1      39.654  23.178  26.866  1.00  0.00     0.045 C 
ATOM     24  C   UNL A   1      39.161  19.708  25.444  1.00  0.00     0.000 A 
ENDBRANCH  17  18
ENDBRANCH  11  17
ENDBRANCH   4   7
ENDBRANCH   2   3
ENDBRANCH   1   2
BRANCH   1  25
ATOM     25  C   UNL A   1      33.938  28.617  25.985  1.00  0.00     0.118 C 
BRANCH  25  26
ATOM     26  N   UNL A   1      33.740  30.010  26.367  1.00  0.00    -0.352 N 
ATOM     27  C   UNL A   1      34.411  30.762  27.304  1.00  0.00     0.251 C 
ATOM     28  H   UNL A   1      33.023  30.481  25.884  1.00  0.00     0.163 HD
ATOM     29  O   UNL A   1      33.976  31.855  27.633  1.00  0.00    -0.269 OA
BRANCH  27  30
ATOM     30  C   UNL A   1      35.641  30.219  27.925  1.00  0.00     0.039 A 
ATOM     31  C   UNL A   1      36.854  30.325  27.241  1.00  0.00     0.014 A 
ATOM     32  C   UNL A   1      35.597  29.629  29.190  1.00  0.00     0.014 A 
ATOM     33  C   UNL A   1      38.034  29.906  27.860  1.00  0.00     0.010 A 
ATOM     34  C   UNL A   1      36.781  29.305  29.842  1.00  0.00     0.010 A 
ATOM     35  C   UNL A   1      38.011  29.431  29.180  1.00  0.00    -0.014 A 
BRANCH  35  36
ATOM     36  C   UNL A   1      39.251  29.033  29.894  1.00  0.00     0.031 A 
ATOM     37  C   UNL A   1      39.681  29.797  31.118  1.00  0.00     0.074 A 
ATOM     38  C   UNL A   1      40.030  28.052  29.395  1.00  0.00     0.049 A 
ATOM     39  N   UNL A   1      40.789  29.700  31.808  1.00  0.00    -0.248 NA
ATOM     40  C   UNL A   1      38.760  30.834  31.609  1.00  0.00     0.031 C 
ATOM     41  C   UNL A   1      39.744  27.272  28.190  1.00  0.00     0.029 A 
ATOM     42  N   UNL A   1      41.233  27.556  29.832  1.00  0.00    -0.354 N 
ATOM     43  C   UNL A   1      40.706  30.676  32.793  1.00  0.00     0.074 A 
ATOM     44  C   UNL A   1      39.469  31.392  32.579  1.00  0.00     0.031 C 
ATOM     45  C   UNL A   1      40.733  26.384  27.995  1.00  0.00     0.029 A 
ATOM     46  C   UNL A   1      41.743  26.559  29.032  1.00  0.00     0.049 A 
ATOM     47  H   UNL A   1      41.688  27.883  30.641  1.00  0.00     0.167 HD
ATOM     48  C   UNL A   1      41.571  30.936  33.802  1.00  0.00     0.037 A 
ATOM     49  C   UNL A   1      42.900  25.875  29.120  1.00  0.00     0.037 A 
ATOM     50  C   UNL A   1      42.783  30.194  34.030  1.00  0.00     0.049 A 
ATOM     51  C   UNL A   1      43.842  26.175  30.255  1.00  0.00     0.074 A 
ATOM     52  C   UNL A   1      43.699  30.337  35.056  1.00  0.00     0.029 A 
ATOM     53  N   UNL A   1      43.245  29.167  33.220  1.00  0.00    -0.354 N 
ATOM     54  N   UNL A   1      43.724  27.066  31.212  1.00  0.00    -0.248 NA
ATOM     55  C   UNL A   1      45.072  25.375  30.328  1.00  0.00     0.031 C 
ATOM     56  C   UNL A   1      44.736  29.423  34.845  1.00  0.00     0.029 A 
ATOM     57  C   UNL A   1      44.441  28.675  33.716  1.00  0.00     0.049 A 
ATOM     58  H   UNL A   1      42.790  28.836  32.412  1.00  0.00     0.167 HD
ATOM     59  C   UNL A   1      44.846  26.911  32.017  1.00  0.00     0.074 A 
ATOM     60  C   UNL A   1      45.628  25.836  31.440  1.00  0.00     0.031 C 
ATOM     61  C   UNL A   1      45.197  27.594  33.136  1.00  0.00     0.037 A 
BRANCH  48  62
ATOM     62  C   UNL A   1      41.231  32.065  34.738  1.00  0.00     0.058 A 
ATOM     63  C   UNL A   1      40.410  31.870  35.860  1.00  0.00     0.135 A 
ATOM     64  C   UNL A   1      41.752  33.351  34.525  1.00  0.00     0.135 A 
ATOM     65  F   UNL A   1      39.870  30.665  36.103  1.00  0.00    -0.206 F 
ATOM     66  C   UNL A   1      40.088  32.917  36.718  1.00  0.00     0.059 A 
ATOM     67  C   UNL A   1      41.469  34.407  35.387  1.00  0.00     0.059 A 
ATOM     68  F   UNL A   1      42.543  33.594  33.467  1.00  0.00    -0.206 F 
ATOM     69  C   UNL A   1      40.622  34.183  36.472  1.00  0.00     0.060 A 
BRANCH  69  70
ATOM     70  S   UNL A   1      40.196  35.530  37.595  1.00  0.00     0.124 S 
ATOM     71  O   UNL A   1      39.852  36.593  36.656  1.00  0.00    -0.237 OA
ATOM     72  O   UNL A   1      39.081  34.966  38.350  1.00  0.00    -0.237 OA
ATOM     73  O   UNL A   1      41.422  35.738  38.358  1.00  0.00    -0.744 OA
ENDBRANCH  69  70
ENDBRANCH  48  62
BRANCH  49  74
ATOM     74  C   UNL A   1      43.220  24.822  28.120  1.00  0.00     0.058 A 
ATOM     75  C   UNL A   1      43.855  25.146  26.911  1.00  0.00     0.135 A 
ATOM     76  C   UNL A   1      42.916  23.472  28.355  1.00  0.00     0.135 A 
ATOM     77  F   UNL A   1      44.161  26.424  26.638  1.00  0.00    -0.206 F 
ATOM     78  C   UNL A   1      44.161  24.176  25.963  1.00  0.00     0.059 A 
ATOM     79  C   UNL A   1      43.235  22.479  27.432  1.00  0.00     0.059 A 
ATOM     80  F   UNL A   1      42.326  23.105  29.503  1.00  0.00    -0.206 F 
ATOM     81  C   UNL A   1      43.849  22.842  26.235  1.00  0.00     0.060 A 
BRANCH  81  82
ATOM     82  S   UNL A   1      44.295  21.584  25.018  1.00  0.00     0.124 S 
ATOM     83  O   UNL A   1      44.120  22.311  23.766  1.00  0.00    -0.237 OA
ATOM     84  O   UNL A   1      45.671  21.274  25.391  1.00  0.00    -0.237 OA
ATOM     85  O   UNL A   1      43.330  20.518  25.271  1.00  0.00    -0.744 OA
ENDBRANCH  81  82
ENDBRANCH  49  74
BRANCH  61  86
ATOM     86  C   UNL A   1      46.457  27.174  33.839  1.00  0.00     0.058 A 
ATOM     87  C   UNL A   1      46.459  26.163  34.813  1.00  0.00     0.135 A 
ATOM     88  C   UNL A   1      47.689  27.748  33.485  1.00  0.00     0.135 A 
ATOM     89  F   UNL A   1      45.308  25.586  35.191  1.00  0.00    -0.206 F 
ATOM     90  C   UNL A   1      47.638  25.751  35.426  1.00  0.00     0.059 A 
ATOM     91  C   UNL A   1      48.882  27.332  34.065  1.00  0.00     0.059 A 
ATOM     92  F   UNL A   1      47.742  28.712  32.551  1.00  0.00    -0.206 F 
ATOM     93  C   UNL A   1      48.845  26.339  35.043  1.00  0.00     0.060 A 
BRANCH  93  94
ATOM     94  S   UNL A   1      50.372  25.766  35.817  1.00  0.00     0.124 S 
ATOM     95  O   UNL A   1      51.366  26.140  34.818  1.00  0.00    -0.237 OA
ATOM     96  O   UNL A   1      50.400  26.535  37.058  1.00  0.00    -0.237 OA
ATOM     97  O   UNL A   1      50.153  24.332  35.981  1.00  0.00    -0.744 OA
ENDBRANCH  93  94
ENDBRANCH  61  86
ENDBRANCH  35  36
ENDBRANCH  27  30
ENDBRANCH  25  26
ENDBRANCH   1  25
TORSDOF 17
ENDMDL
MODEL 2
REMARK VINA RESULT:     -11.1      4.924      6.409
REMARK SMILES CC[NH2+][C@]1(C(=O)NCCCNC(=O)c2ccc(-c3c4nc(c(-c5c(F)cc(S(=O)(=O)[O-])cc5F)c5ccc([nH]5)c(-c5c(F)cc(S(=O)(=O)[O-])cc5F)c5nc(c(-c6c(F)cc(S(=O)(=O)[O-])cc6F)c6ccc3[nH]6)C=C5)C=C4)cc2)CC[C@@H](Sc2ccccc2C)C1
REMARK SMILES IDX 9 1 8 2 7 3 5 4 6 5 4 7 80 8 91 9 81 10 82 11 3 12 2 15 1 16
REMARK SMILES IDX 83 17 84 18 85 19 89 20 86 21 88 22 90 23 87 24 10 25 11 26
REMARK SMILES IDX 12 27 13 29 14 30 15 31 79 32 16 33 78 34 17 35 18 36 19 37
REMARK SMILES IDX 72 38 20 39 77 40 71 41 73 42 21 43 76 44 70 45 69 46 22 48
REMARK SMILES IDX 56 49 35 50 55 51 36 52 39 53 54 54 74 55 37 56 38 57 53 59
REMARK SMILES IDX 75 60 40 61 23 62 24 63 33 64 25 65 26 66 32 67 34 68 27 69
REMARK SMILES IDX 28 70 29 71 30 72 31 73 57 74 58 75 67 76 59 77 60 78 66 79
REMARK SMILES IDX 68 80 61 81 62 82 63 83 64 84 65 85 41 86 42 87 51 88 43 89
REMARK SMILES IDX 44 90 50 91 52 92 45 93 46 94 47 95 48 96 49 97
REMARK H PARENT 7 6 3 13 3 14 11 28 73 47 39 58
REMARK Flexibility Score: inf
ROOT
ATOM      1  C   UNL A   1      33.877  30.145  27.244  1.00  0.00     0.042 C 
ENDROOT
BRANCH   1   2
ATOM      2  C   UNL A   1      33.476  29.009  26.320  1.00  0.00     0.118 C 
BRANCH   2   3
ATOM      3  N   UNL A   1      33.704  29.325  24.921  1.00  0.00    -0.351 N 
ATOM      4  C   UNL A   1      33.568  28.584  23.782  1.00  0.00     0.281 C 
ATOM      5  O   UNL A   1      33.893  29.167  22.741  1.00  0.00    -0.268 OA
ATOM      6  H   UNL A   1      34.016  30.246  24.765  1.00  0.00     0.163 HD
BRANCH   4   7
ATOM      7  C   UNL A   1      32.997  27.120  23.803  1.00  0.00     0.176 C 
ATOM      8  C   UNL A   1      32.917  26.537  22.372  1.00  0.00     0.080 C 
ATOM      9  C   UNL A   1      33.932  26.157  24.558  1.00  0.00     0.094 C 
ATOM     10  C   UNL A   1      33.335  25.065  22.447  1.00  0.00     0.022 C 
ATOM     11  C   UNL A   1      33.751  24.801  23.893  1.00  0.00     0.058 C 
BRANCH   7  12
ATOM     12  N   UNL A   1      31.607  27.090  24.334  1.00  0.00    -0.334 N 
ATOM     13  H   UNL A   1      31.247  26.144  24.214  1.00  0.00     0.347 HD
ATOM     14  H   UNL A   1      31.679  27.391  25.307  1.00  0.00     0.347 HD
BRANCH  12  15
ATOM     15  C   UNL A   1      30.660  28.009  23.709  1.00  0.00     0.257 C 
ATOM     16  C   UNL A   1      29.357  27.276  23.435  1.00  0.00     0.071 C 
ENDBRANCH  12  15
ENDBRANCH   7  12
BRANCH  11  17
ATOM     17  S   UNL A   1      35.145  23.623  24.143  1.00  0.00    -0.122 SA
BRANCH  17  18
ATOM     18  C   UNL A   1      34.365  22.011  24.295  1.00  0.00     0.010 A 
ATOM     19  C   UNL A   1      32.979  21.951  24.072  1.00  0.00     0.015 A 
ATOM     20  C   UNL A   1      35.030  20.849  24.743  1.00  0.00    -0.038 A 
ATOM     21  C   UNL A   1      32.269  20.755  24.226  1.00  0.00     0.001 A 
ATOM     22  C   UNL A   1      34.302  19.646  24.868  1.00  0.00     0.004 A 
ATOM     23  C   UNL A   1      36.496  20.781  25.077  1.00  0.00     0.045 C 
ATOM     24  C   UNL A   1      32.935  19.598  24.609  1.00  0.00     0.000 A 
ENDBRANCH  17  18
ENDBRANCH  11  17
ENDBRANCH   4   7
ENDBRANCH   2   3
ENDBRANCH   1   2
BRANCH   1  25
ATOM     25  C   UNL A   1      35.187  29.886  27.967  1.00  0.00     0.118 C 
BRANCH  25  26
ATOM     26  N   UNL A   1      35.291  30.637  29.213  1.00  0.00    -0.352 N 
ATOM     27  C   UNL A   1      36.342  30.717  30.098  1.00  0.00     0.251 C 
ATOM     28  H   UNL A   1      34.496  31.163  29.455  1.00  0.00     0.163 HD
ATOM     29  O   UNL A   1      36.179  31.234  31.193  1.00  0.00    -0.269 OA
BRANCH  27  30
ATOM     30  C   UNL A   1      37.655  30.145  29.721  1.00  0.00     0.039 A 
ATOM     31  C   UNL A   1      38.036  30.143  28.377  1.00  0.00     0.014 A 
ATOM     32  C   UNL A   1      38.515  29.634  30.696  1.00  0.00     0.014 A 
ATOM     33  C   UNL A   1      39.312  29.696  28.022  1.00  0.00     0.010 A 
ATOM     34  C   UNL A   1      39.816  29.285  30.354  1.00  0.00     0.010 A 
ATOM     35  C   UNL A   1      40.225  29.302  29.013  1.00  0.00    -0.014 A 
BRANCH  35  36
ATOM     36  C   UNL A   1      41.609  28.880  28.682  1.00  0.00     0.031 A 
ATOM     37  C   UNL A   1      42.710  29.906  28.641  1.00  0.00     0.074 A 
ATOM     38  C   UNL A   1      41.858  27.601  28.335  1.00  0.00     0.049 A 
ATOM     39  N   UNL A   1      43.951  29.774  28.250  1.00  0.00    -0.248 NA
ATOM     40  C   UNL A   1      42.356  31.273  29.059  1.00  0.00     0.031 C 
ATOM     41  C   UNL A   1      40.866  26.525  28.290  1.00  0.00     0.029 A 
ATOM     42  N   UNL A   1      43.022  26.993  27.935  1.00  0.00    -0.354 N 
ATOM     43  C   UNL A   1      44.516  31.040  28.352  1.00  0.00     0.074 A 
ATOM     44  C   UNL A   1      43.469  31.937  28.786  1.00  0.00     0.031 C 
ATOM     45  C   UNL A   1      41.466  25.387  27.905  1.00  0.00     0.029 A 
ATOM     46  C   UNL A   1      42.874  25.659  27.632  1.00  0.00     0.049 A 
ATOM     47  H   UNL A   1      43.882  27.467  27.870  1.00  0.00     0.167 HD
ATOM     48  C   UNL A   1      45.797  31.416  28.128  1.00  0.00     0.037 A 
ATOM     49  C   UNL A   1      43.768  24.762  27.176  1.00  0.00     0.037 A 
ATOM     50  C   UNL A   1      46.841  30.509  27.732  1.00  0.00     0.049 A 
ATOM     51  C   UNL A   1      45.190  25.201  26.942  1.00  0.00     0.074 A 
ATOM     52  C   UNL A   1      48.184  30.775  27.536  1.00  0.00     0.029 A 
ATOM     53  N   UNL A   1      46.659  29.158  27.473  1.00  0.00    -0.354 N 
ATOM     54  N   UNL A   1      45.721  26.391  27.096  1.00  0.00    -0.248 NA
ATOM     55  C   UNL A   1      46.136  24.175  26.481  1.00  0.00     0.031 C 
ATOM     56  C   UNL A   1      48.807  29.594  27.121  1.00  0.00     0.029 A 
ATOM     57  C   UNL A   1      47.862  28.580  27.106  1.00  0.00     0.049 A 
ATOM     58  H   UNL A   1      45.800  28.681  27.540  1.00  0.00     0.167 HD
ATOM     59  C   UNL A   1      47.067  26.250  26.781  1.00  0.00     0.074 A 
ATOM     60  C   UNL A   1      47.272  24.858  26.436  1.00  0.00     0.031 C 
ATOM     61  C   UNL A   1      48.048  27.188  26.780  1.00  0.00     0.037 A 
BRANCH  48  62
ATOM     62  C   UNL A   1      46.139  32.869  28.316  1.00  0.00     0.058 A 
ATOM     63  C   UNL A   1      46.052  33.790  27.259  1.00  0.00     0.135 A 
ATOM     64  C   UNL A   1      46.536  33.354  29.573  1.00  0.00     0.135 A 
ATOM     65  F   UNL A   1      45.695  33.380  26.032  1.00  0.00    -0.206 F 
ATOM     66  C   UNL A   1      46.379  35.131  27.433  1.00  0.00     0.059 A 
ATOM     67  C   UNL A   1      46.839  34.698  29.777  1.00  0.00     0.059 A 
ATOM     68  F   UNL A   1      46.638  32.518  30.619  1.00  0.00    -0.206 F 
ATOM     69  C   UNL A   1      46.772  35.575  28.696  1.00  0.00     0.060 A 
BRANCH  69  70
ATOM     70  S   UNL A   1      47.192  37.318  28.904  1.00  0.00     0.124 S 
ATOM     71  O   UNL A   1      47.516  37.704  27.534  1.00  0.00    -0.237 OA
ATOM     72  O   UNL A   1      45.954  37.874  29.442  1.00  0.00    -0.237 OA
ATOM     73  O   UNL A   1      48.318  37.290  29.832  1.00  0.00    -0.744 OA
ENDBRANCH  69  70
ENDBRANCH  48  62
BRANCH  49  74
ATOM     74  C   UNL A   1      43.354  23.354  26.932  1.00  0.00     0.058 A 
ATOM     75  C   UNL A   1      43.184  22.869  25.627  1.00  0.00     0.135 A 
ATOM     76  C   UNL A   1      43.136  22.461  27.993  1.00  0.00     0.135 A 
ATOM     77  F   UNL A   1      43.376  23.686  24.579  1.00  0.00    -0.206 F 
ATOM     78  C   UNL A   1      42.796  21.557  25.380  1.00  0.00     0.059 A 
ATOM     79  C   UNL A   1      42.772  21.136  27.771  1.00  0.00     0.059 A 
ATOM     80  F   UNL A   1      43.303  22.869  29.261  1.00  0.00    -0.206 F 
ATOM     81  C   UNL A   1      42.594  20.696  26.460  1.00  0.00     0.060 A 
BRANCH  81  82
ATOM     82  S   UNL A   1      42.138  18.980  26.126  1.00  0.00     0.124 S 
ATOM     83  O   UNL A   1      40.730  19.115  25.770  1.00  0.00    -0.237 OA
ATOM     84  O   UNL A   1      43.043  18.630  25.037  1.00  0.00    -0.237 OA
ATOM     85  O   UNL A   1      42.408  18.310  27.396  1.00  0.00    -0.744 OA
ENDBRANCH  81  82
ENDBRANCH  49  74
BRANCH  61  86
ATOM     86  C   UNL A   1      49.440  26.735  26.440  1.00  0.00     0.058 A 
ATOM     87  C   UNL A   1      50.255  26.080  27.377  1.00  0.00     0.135 A 
ATOM     88  C   UNL A   1      49.941  26.906  25.139  1.00  0.00     0.135 A 
ATOM     89  F   UNL A   1      49.826  25.898  28.635  1.00  0.00    -0.206 F 
ATOM     90  C   UNL A   1      51.526  25.626  27.039  1.00  0.00     0.059 A 
ATOM     91  C   UNL A   1      51.197  26.435  24.773  1.00  0.00     0.059 A 
ATOM     92  F   UNL A   1      49.197  27.518  24.204  1.00  0.00    -0.206 F 
ATOM     93  C   UNL A   1      51.986  25.805  25.733  1.00  0.00     0.060 A 
BRANCH  93  94
ATOM     94  S   UNL A   1      53.621  25.175  25.297  1.00  0.00     0.124 S 
ATOM     95  O   UNL A   1      53.421  23.734  25.416  1.00  0.00    -0.237 OA
ATOM     96  O   UNL A   1      53.799  25.680  23.939  1.00  0.00    -0.237 OA
ATOM     97  O   UNL A   1      54.495  25.773  26.301  1.00  0.00    -0.744 OA
ENDBRANCH  93  94
ENDBRANCH  61  86
ENDBRANCH  35  36
ENDBRANCH  27  30
ENDBRANCH  25  26
ENDBRANCH   1  25
TORSDOF 17
ENDMDL
MODEL 3
REMARK VINA RESULT:     -11.0      4.990      6.620
REMARK SMILES CC[NH2+][C@]1(C(=O)NCCCNC(=O)c2ccc(-c3c4nc(c(-c5c(F)cc(S(=O)(=O)[O-])cc5F)c5ccc([nH]5)c(-c5c(F)cc(S(=O)(=O)[O-])cc5F)c5nc(c(-c6c(F)cc(S(=O)(=O)[O-])cc6F)c6ccc3[nH]6)C=C5)C=C4)cc2)CC[C@@H](Sc2ccccc2C)C1
REMARK SMILES IDX 9 1 8 2 7 3 5 4 6 5 4 7 80 8 91 9 81 10 82 11 3 12 2 15 1 16
REMARK SMILES IDX 83 17 84 18 85 19 89 20 86 21 88 22 90 23 87 24 10 25 11 26
REMARK SMILES IDX 12 27 13 29 14 30 15 31 79 32 16 33 78 34 17 35 18 36 19 37
REMARK SMILES IDX 72 38 20 39 77 40 71 41 73 42 21 43 76 44 70 45 69 46 22 48
REMARK SMILES IDX 56 49 35 50 55 51 36 52 39 53 54 54 74 55 37 56 38 57 53 59
REMARK SMILES IDX 75 60 40 61 23 62 24 63 33 64 25 65 26 66 32 67 34 68 27 69
REMARK SMILES IDX 28 70 29 71 30 72 31 73 57 74 58 75 67 76 59 77 60 78 66 79
REMARK SMILES IDX 68 80 61 81 62 82 63 83 64 84 65 85 41 86 42 87 51 88 43 89
REMARK SMILES IDX 44 90 50 91 52 92 45 93 46 94 47 95 48 96 49 97
REMARK H PARENT 7 6 3 13 3 14 11 28 73 47 39 58
REMARK Flexibility Score: inf
ROOT
ATOM      1  C   UNL A   1      35.041  29.710  27.678  1.00  0.00     0.042 C 
ENDROOT
BRANCH   1   2
ATOM      2  C   UNL A   1      33.677  30.039  27.096  1.00  0.00     0.118 C 
BRANCH   2   3
ATOM      3  N   UNL A   1      32.641  29.138  27.568  1.00  0.00    -0.351 N 
ATOM      4  C   UNL A   1      31.961  28.124  26.955  1.00  0.00     0.281 C 
ATOM      5  O   UNL A   1      31.099  27.579  27.655  1.00  0.00    -0.268 OA
ATOM      6  H   UNL A   1      32.379  29.285  28.506  1.00  0.00     0.163 HD
BRANCH   4   7
ATOM      7  C   UNL A   1      32.290  27.668  25.487  1.00  0.00     0.176 C 
ATOM      8  C   UNL A   1      33.758  27.191  25.373  1.00  0.00     0.080 C 
ATOM      9  C   UNL A   1      31.455  26.444  25.072  1.00  0.00     0.094 C 
ATOM     10  C   UNL A   1      33.776  25.969  24.450  1.00  0.00     0.022 C 
ATOM     11  C   UNL A   1      32.322  25.665  24.095  1.00  0.00     0.058 C 
BRANCH   7  12
ATOM     12  N   UNL A   1      32.152  28.798  24.528  1.00  0.00    -0.334 N 
ATOM     13  H   UNL A   1      32.498  29.640  24.986  1.00  0.00     0.347 HD
ATOM     14  H   UNL A   1      32.684  28.521  23.702  1.00  0.00     0.347 HD
BRANCH  12  15
ATOM     15  C   UNL A   1      30.801  29.074  24.049  1.00  0.00     0.257 C 
ATOM     16  C   UNL A   1      30.775  28.966  22.532  1.00  0.00     0.071 C 
ENDBRANCH  12  15
ENDBRANCH   7  12
BRANCH  11  17
ATOM     17  S   UNL A   1      31.878  23.887  23.911  1.00  0.00    -0.122 SA
BRANCH  17  18
ATOM     18  C   UNL A   1      33.168  22.995  24.789  1.00  0.00     0.010 A 
ATOM     19  C   UNL A   1      34.162  22.382  24.008  1.00  0.00     0.015 A 
ATOM     20  C   UNL A   1      33.169  22.773  26.183  1.00  0.00    -0.038 A 
ATOM     21  C   UNL A   1      35.175  21.614  24.593  1.00  0.00     0.001 A 
ATOM     22  C   UNL A   1      34.213  22.016  26.757  1.00  0.00     0.004 A 
ATOM     23  C   UNL A   1      32.136  23.317  27.133  1.00  0.00     0.045 C 
ATOM     24  C   UNL A   1      35.209  21.444  25.970  1.00  0.00     0.000 A 
ENDBRANCH  17  18
ENDBRANCH  11  17
ENDBRANCH   4   7
ENDBRANCH   2   3
ENDBRANCH   1   2
BRANCH   1  25
ATOM     25  C   UNL A   1      35.692  30.896  28.368  1.00  0.00     0.118 C 
BRANCH  25  26
ATOM     26  N   UNL A   1      35.571  30.829  29.819  1.00  0.00    -0.352 N 
ATOM     27  C   UNL A   1      36.491  30.409  30.752  1.00  0.00     0.251 C 
ATOM     28  H   UNL A   1      34.708  31.128  30.184  1.00  0.00     0.163 HD
ATOM     29  O   UNL A   1      36.146  30.229  31.911  1.00  0.00    -0.269 OA
BRANCH  27  30
ATOM     30  C   UNL A   1      37.887  30.148  30.330  1.00  0.00     0.039 A 
ATOM     31  C   UNL A   1      38.833  29.787  31.292  1.00  0.00     0.014 A 
ATOM     32  C   UNL A   1      38.251  30.238  28.985  1.00  0.00     0.014 A 
ATOM     33  C   UNL A   1      40.127  29.444  30.892  1.00  0.00     0.010 A 
ATOM     34  C   UNL A   1      39.507  29.801  28.580  1.00  0.00     0.010 A 
ATOM     35  C   UNL A   1      40.461  29.409  29.530  1.00  0.00    -0.014 A 
BRANCH  35  36
ATOM     36  C   UNL A   1      41.806  28.990  29.061  1.00  0.00     0.031 A 
ATOM     37  C   UNL A   1      42.908  30.011  28.957  1.00  0.00     0.074 A 
ATOM     38  C   UNL A   1      42.012  27.723  28.649  1.00  0.00     0.049 A 
ATOM     39  N   UNL A   1      44.108  29.885  28.452  1.00  0.00    -0.248 NA
ATOM     40  C   UNL A   1      42.606  31.364  29.453  1.00  0.00     0.031 C 
ATOM     41  C   UNL A   1      41.009  26.656  28.656  1.00  0.00     0.029 A 
ATOM     42  N   UNL A   1      43.130  27.123  28.125  1.00  0.00    -0.354 N 
ATOM     43  C   UNL A   1      44.691  31.144  28.547  1.00  0.00     0.074 A 
ATOM     44  C   UNL A   1      43.696  32.031  29.105  1.00  0.00     0.031 C 
ATOM     45  C   UNL A   1      41.562  25.528  28.179  1.00  0.00     0.029 A 
ATOM     46  C   UNL A   1      42.942  25.801  27.791  1.00  0.00     0.049 A 
ATOM     47  H   UNL A   1      43.985  27.594  28.000  1.00  0.00     0.167 HD
ATOM     48  C   UNL A   1      45.951  31.520  28.223  1.00  0.00     0.037 A 
ATOM     49  C   UNL A   1      43.784  24.915  27.225  1.00  0.00     0.037 A 
ATOM     50  C   UNL A   1      46.947  30.620  27.703  1.00  0.00     0.049 A 
ATOM     51  C   UNL A   1      45.183  25.354  26.881  1.00  0.00     0.074 A 
ATOM     52  C   UNL A   1      48.270  30.886  27.397  1.00  0.00     0.029 A 
ATOM     53  N   UNL A   1      46.730  29.281  27.415  1.00  0.00    -0.354 N 
ATOM     54  N   UNL A   1      45.736  26.535  27.027  1.00  0.00    -0.248 NA
ATOM     55  C   UNL A   1      46.074  24.340  26.301  1.00  0.00     0.031 C 
ATOM     56  C   UNL A   1      48.841  29.716  26.887  1.00  0.00     0.029 A 
ATOM     57  C   UNL A   1      47.890  28.709  26.921  1.00  0.00     0.049 A 
ATOM     58  H   UNL A   1      45.876  28.807  27.542  1.00  0.00     0.167 HD
ATOM     59  C   UNL A   1      47.048  26.397  26.588  1.00  0.00     0.074 A 
ATOM     60  C   UNL A   1      47.208  25.017  26.178  1.00  0.00     0.031 C 
ATOM     61  C   UNL A   1      48.034  27.328  26.532  1.00  0.00     0.037 A 
BRANCH  48  62
ATOM     62  C   UNL A   1      46.322  32.963  28.430  1.00  0.00     0.058 A 
ATOM     63  C   UNL A   1      46.889  33.414  29.633  1.00  0.00     0.135 A 
ATOM     64  C   UNL A   1      46.132  33.904  27.405  1.00  0.00     0.135 A 
ATOM     65  F   UNL A   1      47.076  32.562  30.653  1.00  0.00    -0.206 F 
ATOM     66  C   UNL A   1      47.221  34.751  29.826  1.00  0.00     0.059 A 
ATOM     67  C   UNL A   1      46.486  35.241  27.565  1.00  0.00     0.059 A 
ATOM     68  F   UNL A   1      45.594  33.529  26.233  1.00  0.00    -0.206 F 
ATOM     69  C   UNL A   1      47.015  35.657  28.786  1.00  0.00     0.060 A 
BRANCH  69  70
ATOM     70  S   UNL A   1      47.453  37.388  29.052  1.00  0.00     0.124 S 
ATOM     71  O   UNL A   1      48.911  37.324  29.036  1.00  0.00    -0.237 OA
ATOM     72  O   UNL A   1      46.834  38.046  27.905  1.00  0.00    -0.237 OA
ATOM     73  O   UNL A   1      46.852  37.697  30.346  1.00  0.00    -0.744 OA
ENDBRANCH  69  70
ENDBRANCH  48  62
BRANCH  49  74
ATOM     74  C   UNL A   1      43.337  23.520  26.971  1.00  0.00     0.058 A 
ATOM     75  C   UNL A   1      43.032  23.087  25.672  1.00  0.00     0.135 A 
ATOM     76  C   UNL A   1      43.222  22.586  28.013  1.00  0.00     0.135 A 
ATOM     77  F   UNL A   1      43.121  23.943  24.643  1.00  0.00    -0.206 F 
ATOM     78  C   UNL A   1      42.610  21.787  25.415  1.00  0.00     0.059 A 
ATOM     79  C   UNL A   1      42.827  21.273  27.779  1.00  0.00     0.059 A 
ATOM     80  F   UNL A   1      43.520  22.944  29.272  1.00  0.00    -0.206 F 
ATOM     81  C   UNL A   1      42.513  20.885  26.477  1.00  0.00     0.060 A 
BRANCH  81  82
ATOM     82  S   UNL A   1      42.013  19.185  26.125  1.00  0.00     0.124 S 
ATOM     83  O   UNL A   1      42.833  18.873  24.960  1.00  0.00    -0.237 OA
ATOM     84  O   UNL A   1      42.372  18.499  27.361  1.00  0.00    -0.237 OA
ATOM     85  O   UNL A   1      40.579  19.304  25.876  1.00  0.00    -0.744 OA
ENDBRANCH  81  82
ENDBRANCH  49  74
BRANCH  61  86
ATOM     86  C   UNL A   1      49.386  26.880  26.053  1.00  0.00     0.058 A 
ATOM     87  C   UNL A   1      49.796  27.058  24.723  1.00  0.00     0.135 A 
ATOM     88  C   UNL A   1      50.305  26.321  26.956  1.00  0.00     0.135 A 
ATOM     89  F   UNL A   1      48.953  27.582  23.819  1.00  0.00    -0.206 F 
ATOM     90  C   UNL A   1      51.066  26.680  24.300  1.00  0.00     0.059 A 
ATOM     91  C   UNL A   1      51.589  25.962  26.561  1.00  0.00     0.059 A 
ATOM     92  F   UNL A   1      49.965  26.139  28.242  1.00  0.00    -0.206 F 
ATOM     93  C   UNL A   1      51.957  26.136  25.228  1.00  0.00     0.060 A 
BRANCH  93  94
ATOM     94  S   UNL A   1      53.616  25.687  24.675  1.00  0.00     0.124 S 
ATOM     95  O   UNL A   1      53.595  26.135  23.287  1.00  0.00    -0.237 OA
ATOM     96  O   UNL A   1      54.465  26.459  25.577  1.00  0.00    -0.237 OA
ATOM     97  O   UNL A   1      53.660  24.241  24.869  1.00  0.00    -0.744 OA
ENDBRANCH  93  94
ENDBRANCH  61  86
ENDBRANCH  35  36
ENDBRANCH  27  30
ENDBRANCH  25  26
ENDBRANCH   1  25
TORSDOF 17
ENDMDL
