MODEL 1
REMARK VINA RESULT:     -11.4      0.000      0.000
REMARK SMILES O=C(NCCCNC(=O)c1oc2cccc3c2c1CCC3)c1ccc(-c2c3nc(c(-c4c(F)cc(S(=O)(=O)[O-])cc4F)c4ccc([nH]4)c(-c4c(F)cc(S(=O)(=O)[O-])cc4F)c4nc(c(-c5c(F)cc(S(=O)(=O)[O-])cc5F)c5ccc2[nH]5)C=C4)C=C3)cc1
REMARK SMILES IDX 1 1 2 2 3 3 22 5 23 6 87 7 24 8 86 9 25 10 26 11 27 12 80 13
REMARK SMILES IDX 28 14 85 15 79 16 81 17 29 18 84 19 78 20 77 21 30 23 64 24
REMARK SMILES IDX 43 25 63 26 44 27 47 28 62 29 82 30 45 31 46 32 61 34 83 35
REMARK SMILES IDX 48 36 31 37 32 38 41 39 33 40 34 41 40 42 42 43 35 44 36 45
REMARK SMILES IDX 37 46 38 47 39 48 65 49 66 50 75 51 67 52 68 53 74 54 76 55
REMARK SMILES IDX 69 56 70 57 71 58 72 59 73 60 49 61 50 62 59 63 51 64 52 65
REMARK SMILES IDX 58 66 60 67 53 68 54 69 55 70 56 71 57 72 4 73 5 74 6 75
REMARK SMILES IDX 7 76 8 77 9 79 10 80 11 81 18 82 12 83 17 84 19 85 13 86
REMARK SMILES IDX 16 87 20 88 14 89 15 90 21 91
REMARK H PARENT 3 4 81 22 47 33 7 78
REMARK Flexibility Score: inf
ROOT
ATOM      1  O   UNL A   1      38.542  22.883  25.875  1.00  0.00    -0.269 OA
ATOM      2  C   UNL A   1      39.514  22.871  26.631  1.00  0.00     0.251 C 
ATOM      3  N   UNL A   1      39.936  21.653  27.096  1.00  0.00    -0.352 N 
ATOM      4  H   UNL A   1      39.304  20.923  26.905  1.00  0.00     0.163 HD
ENDROOT
BRANCH   2   5
ATOM      5  C   UNL A   1      40.077  24.158  27.108  1.00  0.00     0.039 A 
ATOM      6  C   UNL A   1      41.305  24.296  27.756  1.00  0.00     0.014 A 
ATOM      7  C   UNL A   1      39.238  25.276  26.976  1.00  0.00     0.014 A 
ATOM      8  C   UNL A   1      41.588  25.455  28.460  1.00  0.00     0.010 A 
ATOM      9  C   UNL A   1      39.539  26.456  27.635  1.00  0.00     0.010 A 
ATOM     10  C   UNL A   1      40.671  26.503  28.445  1.00  0.00    -0.014 A 
BRANCH  10  11
ATOM     11  C   UNL A   1      40.964  27.674  29.257  1.00  0.00     0.031 A 
ATOM     12  C   UNL A   1      42.066  28.537  28.739  1.00  0.00     0.074 A 
ATOM     13  C   UNL A   1      40.189  28.000  30.311  1.00  0.00     0.049 A 
ATOM     14  N   UNL A   1      43.168  28.890  29.318  1.00  0.00    -0.248 NA
ATOM     15  C   UNL A   1      41.975  28.960  27.329  1.00  0.00     0.031 C 
ATOM     16  C   UNL A   1      38.924  27.387  30.732  1.00  0.00     0.029 A 
ATOM     17  N   UNL A   1      40.312  29.044  31.167  1.00  0.00    -0.354 N 
ATOM     18  C   UNL A   1      43.823  29.732  28.418  1.00  0.00     0.074 A 
ATOM     19  C   UNL A   1      43.119  29.623  27.166  1.00  0.00     0.031 C 
ATOM     20  C   UNL A   1      38.286  28.225  31.580  1.00  0.00     0.029 A 
ATOM     21  C   UNL A   1      39.149  29.360  31.857  1.00  0.00     0.049 A 
ATOM     22  H   UNL A   1      41.155  29.537  31.291  1.00  0.00     0.167 HD
ATOM     23  C   UNL A   1      44.790  30.613  28.794  1.00  0.00     0.037 A 
ATOM     24  C   UNL A   1      38.897  30.533  32.492  1.00  0.00     0.037 A 
ATOM     25  C   UNL A   1      45.322  30.316  30.093  1.00  0.00     0.049 A 
ATOM     26  C   UNL A   1      40.215  31.191  32.723  1.00  0.00     0.074 A 
ATOM     27  C   UNL A   1      46.040  29.261  30.623  1.00  0.00     0.029 A 
ATOM     28  N   UNL A   1      44.825  31.005  31.172  1.00  0.00    -0.354 N 
ATOM     29  N   UNL A   1      41.139  30.707  33.511  1.00  0.00    -0.248 NA
ATOM     30  C   UNL A   1      40.690  32.120  31.707  1.00  0.00     0.031 C 
ATOM     31  C   UNL A   1      45.517  29.085  31.937  1.00  0.00     0.029 A 
ATOM     32  C   UNL A   1      44.556  30.076  32.146  1.00  0.00     0.049 A 
ATOM     33  H   UNL A   1      44.688  31.978  31.234  1.00  0.00     0.167 HD
ATOM     34  C   UNL A   1      42.338  30.947  32.853  1.00  0.00     0.074 A 
ATOM     35  C   UNL A   1      41.999  31.869  31.771  1.00  0.00     0.031 C 
ATOM     36  C   UNL A   1      43.441  30.167  33.062  1.00  0.00     0.037 A 
BRANCH  23  37
ATOM     37  C   UNL A   1      45.037  31.922  28.094  1.00  0.00     0.058 A 
ATOM     38  C   UNL A   1      46.269  32.181  27.467  1.00  0.00     0.135 A 
ATOM     39  C   UNL A   1      44.175  33.032  28.243  1.00  0.00     0.135 A 
ATOM     40  F   UNL A   1      47.171  31.200  27.305  1.00  0.00    -0.206 F 
ATOM     41  C   UNL A   1      46.632  33.461  27.044  1.00  0.00     0.059 A 
ATOM     42  C   UNL A   1      44.492  34.304  27.782  1.00  0.00     0.059 A 
ATOM     43  F   UNL A   1      43.024  32.943  28.925  1.00  0.00    -0.206 F 
ATOM     44  C   UNL A   1      45.738  34.518  27.215  1.00  0.00     0.060 A 
BRANCH  44  45
ATOM     45  S   UNL A   1      46.242  36.188  26.759  1.00  0.00     0.124 S 
ATOM     46  O   UNL A   1      46.939  35.949  25.500  1.00  0.00    -0.237 OA
ATOM     47  O   UNL A   1      44.959  36.875  26.661  1.00  0.00    -0.237 OA
ATOM     48  O   UNL A   1      47.085  36.601  27.877  1.00  0.00    -0.744 OA
ENDBRANCH  44  45
ENDBRANCH  23  37
BRANCH  24  49
ATOM     49  C   UNL A   1      37.616  31.294  32.458  1.00  0.00     0.058 A 
ATOM     50  C   UNL A   1      37.032  31.799  33.633  1.00  0.00     0.135 A 
ATOM     51  C   UNL A   1      37.078  31.776  31.245  1.00  0.00     0.135 A 
ATOM     52  F   UNL A   1      37.498  31.420  34.832  1.00  0.00    -0.206 F 
ATOM     53  C   UNL A   1      36.004  32.752  33.606  1.00  0.00     0.059 A 
ATOM     54  C   UNL A   1      36.050  32.714  31.193  1.00  0.00     0.059 A 
ATOM     55  F   UNL A   1      37.602  31.417  30.063  1.00  0.00    -0.206 F 
ATOM     56  C   UNL A   1      35.533  33.218  32.379  1.00  0.00     0.060 A 
BRANCH  56  57
ATOM     57  S   UNL A   1      34.323  34.563  32.336  1.00  0.00     0.124 S 
ATOM     58  O   UNL A   1      34.162  34.777  30.903  1.00  0.00    -0.237 OA
ATOM     59  O   UNL A   1      33.183  33.969  33.026  1.00  0.00    -0.237 OA
ATOM     60  O   UNL A   1      34.991  35.643  33.056  1.00  0.00    -0.744 OA
ENDBRANCH  56  57
ENDBRANCH  24  49
BRANCH  36  61
ATOM     61  C   UNL A   1      43.401  29.160  34.183  1.00  0.00     0.058 A 
ATOM     62  C   UNL A   1      43.675  29.468  35.529  1.00  0.00     0.135 A 
ATOM     63  C   UNL A   1      42.904  27.877  33.915  1.00  0.00     0.135 A 
ATOM     64  F   UNL A   1      44.045  30.705  35.888  1.00  0.00    -0.206 F 
ATOM     65  C   UNL A   1      43.505  28.532  36.552  1.00  0.00     0.059 A 
ATOM     66  C   UNL A   1      42.697  26.937  34.921  1.00  0.00     0.059 A 
ATOM     67  F   UNL A   1      42.557  27.541  32.660  1.00  0.00    -0.206 F 
ATOM     68  C   UNL A   1      43.012  27.267  36.238  1.00  0.00     0.060 A 
BRANCH  68  69
ATOM     69  S   UNL A   1      42.732  26.081  37.570  1.00  0.00     0.124 S 
ATOM     70  O   UNL A   1      43.590  26.600  38.630  1.00  0.00    -0.237 OA
ATOM     71  O   UNL A   1      41.295  26.203  37.802  1.00  0.00    -0.237 OA
ATOM     72  O   UNL A   1      43.155  24.809  36.991  1.00  0.00    -0.744 OA
ENDBRANCH  68  69
ENDBRANCH  36  61
ENDBRANCH  10  11
ENDBRANCH   2   5
BRANCH   3  73
ATOM     73  C   UNL A   1      41.119  21.215  27.813  1.00  0.00     0.118 C 
BRANCH  73  74
ATOM     74  C   UNL A   1      42.068  20.308  27.035  1.00  0.00     0.042 C 
BRANCH  74  75
ATOM     75  C   UNL A   1      42.729  20.973  25.833  1.00  0.00     0.118 C 
BRANCH  75  76
ATOM     76  N   UNL A   1      44.094  20.520  25.612  1.00  0.00    -0.349 N 
ATOM     77  C   UNL A   1      45.276  21.229  25.645  1.00  0.00     0.287 C 
ATOM     78  H   UNL A   1      44.188  19.562  25.408  1.00  0.00     0.163 HD
ATOM     79  O   UNL A   1      46.278  20.672  25.218  1.00  0.00    -0.266 OA
BRANCH  77  80
ATOM     80  C   UNL A   1      45.261  22.568  26.186  1.00  0.00     0.195 A 
ATOM     81  O   UNL A   1      45.994  22.808  27.336  1.00  0.00    -0.451 OA
ATOM     82  C   UNL A   1      44.637  23.735  25.784  1.00  0.00     0.012 A 
ATOM     83  C   UNL A   1      45.914  24.148  27.595  1.00  0.00     0.135 A 
ATOM     84  C   UNL A   1      45.094  24.731  26.663  1.00  0.00     0.028 A 
ATOM     85  C   UNL A   1      43.716  24.120  24.676  1.00  0.00     0.041 C 
ATOM     86  C   UNL A   1      46.542  24.878  28.593  1.00  0.00     0.048 A 
ATOM     87  C   UNL A   1      44.826  26.098  26.636  1.00  0.00    -0.037 A 
ATOM     88  C   UNL A   1      43.013  25.474  24.991  1.00  0.00     0.010 C 
ATOM     89  C   UNL A   1      46.308  26.268  28.564  1.00  0.00     0.004 A 
ATOM     90  C   UNL A   1      45.475  26.871  27.601  1.00  0.00     0.004 A 
ATOM     91  C   UNL A   1      43.967  26.597  25.507  1.00  0.00     0.036 C 
ENDBRANCH  77  80
ENDBRANCH  75  76
ENDBRANCH  74  75
ENDBRANCH  73  74
ENDBRANCH   3  73
TORSDOF 13
ENDMDL
MODEL 2
REMARK VINA RESULT:     -11.4      2.944      5.335
REMARK SMILES O=C(NCCCNC(=O)c1oc2cccc3c2c1CCC3)c1ccc(-c2c3nc(c(-c4c(F)cc(S(=O)(=O)[O-])cc4F)c4ccc([nH]4)c(-c4c(F)cc(S(=O)(=O)[O-])cc4F)c4nc(c(-c5c(F)cc(S(=O)(=O)[O-])cc5F)c5ccc2[nH]5)C=C4)C=C3)cc1
REMARK SMILES IDX 1 1 2 2 3 3 22 5 23 6 87 7 24 8 86 9 25 10 26 11 27 12 80 13
REMARK SMILES IDX 28 14 85 15 79 16 81 17 29 18 84 19 78 20 77 21 30 23 64 24
REMARK SMILES IDX 43 25 63 26 44 27 47 28 62 29 82 30 45 31 46 32 61 34 83 35
REMARK SMILES IDX 48 36 31 37 32 38 41 39 33 40 34 41 40 42 42 43 35 44 36 45
REMARK SMILES IDX 37 46 38 47 39 48 65 49 66 50 75 51 67 52 68 53 74 54 76 55
REMARK SMILES IDX 69 56 70 57 71 58 72 59 73 60 49 61 50 62 59 63 51 64 52 65
REMARK SMILES IDX 58 66 60 67 53 68 54 69 55 70 56 71 57 72 4 73 5 74 6 75
REMARK SMILES IDX 7 76 8 77 9 79 10 80 11 81 18 82 12 83 17 84 19 85 13 86
REMARK SMILES IDX 16 87 20 88 14 89 15 90 21 91
REMARK H PARENT 3 4 81 22 47 33 7 78
REMARK Flexibility Score: inf
ROOT
ATOM      1  O   UNL A   1      43.097  22.352  24.637  1.00  0.00    -0.269 OA
ATOM      2  C   UNL A   1      42.296  22.730  25.493  1.00  0.00     0.251 C 
ATOM      3  N   UNL A   1      41.173  21.967  25.685  1.00  0.00    -0.352 N 
ATOM      4  H   UNL A   1      41.046  21.280  24.991  1.00  0.00     0.163 HD
ENDROOT
BRANCH   2   5
ATOM      5  C   UNL A   1      42.506  24.040  26.155  1.00  0.00     0.039 A 
ATOM      6  C   UNL A   1      43.241  24.229  27.326  1.00  0.00     0.014 A 
ATOM      7  C   UNL A   1      41.811  25.124  25.594  1.00  0.00     0.014 A 
ATOM      8  C   UNL A   1      43.099  25.403  28.048  1.00  0.00     0.010 A 
ATOM      9  C   UNL A   1      41.707  26.318  26.286  1.00  0.00     0.010 A 
ATOM     10  C   UNL A   1      42.280  26.414  27.552  1.00  0.00    -0.014 A 
BRANCH  10  11
ATOM     11  C   UNL A   1      42.093  27.600  28.373  1.00  0.00     0.031 A 
ATOM     12  C   UNL A   1      43.181  28.617  28.265  1.00  0.00     0.074 A 
ATOM     13  C   UNL A   1      40.948  27.797  29.056  1.00  0.00     0.049 A 
ATOM     14  N   UNL A   1      43.933  29.110  29.195  1.00  0.00    -0.248 NA
ATOM     15  C   UNL A   1      43.558  29.047  26.905  1.00  0.00     0.031 C 
ATOM     16  C   UNL A   1      39.712  27.008  29.006  1.00  0.00     0.029 A 
ATOM     17  N   UNL A   1      40.604  28.834  29.861  1.00  0.00    -0.354 N 
ATOM     18  C   UNL A   1      44.753  30.049  28.569  1.00  0.00     0.074 A 
ATOM     19  C   UNL A   1      44.581  29.865  27.151  1.00  0.00     0.031 C 
ATOM     20  C   UNL A   1      38.699  27.735  29.530  1.00  0.00     0.029 A 
ATOM     21  C   UNL A   1      39.238  28.973  30.064  1.00  0.00     0.049 A 
ATOM     22  H   UNL A   1      41.267  29.437  30.268  1.00  0.00     0.167 HD
ATOM     23  C   UNL A   1      45.385  31.050  29.242  1.00  0.00     0.037 A 
ATOM     24  C   UNL A   1      38.613  30.090  30.520  1.00  0.00     0.037 A 
ATOM     25  C   UNL A   1      45.437  30.807  30.655  1.00  0.00     0.049 A 
ATOM     26  C   UNL A   1      39.652  30.920  31.196  1.00  0.00     0.074 A 
ATOM     27  C   UNL A   1      46.044  29.853  31.448  1.00  0.00     0.029 A 
ATOM     28  N   UNL A   1      44.489  31.402  31.451  1.00  0.00    -0.354 N 
ATOM     29  N   UNL A   1      40.277  30.556  32.284  1.00  0.00    -0.248 NA
ATOM     30  C   UNL A   1      40.337  31.923  30.392  1.00  0.00     0.031 C 
ATOM     31  C   UNL A   1      45.103  29.583  32.484  1.00  0.00     0.029 A 
ATOM     32  C   UNL A   1      44.009  30.428  32.291  1.00  0.00     0.049 A 
ATOM     33  H   UNL A   1      44.208  32.346  31.425  1.00  0.00     0.167 HD
ATOM     34  C   UNL A   1      41.590  30.971  32.104  1.00  0.00     0.074 A 
ATOM     35  C   UNL A   1      41.552  31.856  30.941  1.00  0.00     0.031 C 
ATOM     36  C   UNL A   1      42.633  30.348  32.730  1.00  0.00     0.037 A 
BRANCH  23  37
ATOM     37  C   UNL A   1      45.693  32.392  28.635  1.00  0.00     0.058 A 
ATOM     38  C   UNL A   1      47.017  32.860  28.559  1.00  0.00     0.135 A 
ATOM     39  C   UNL A   1      44.685  33.342  28.354  1.00  0.00     0.135 A 
ATOM     40  F   UNL A   1      48.045  32.044  28.838  1.00  0.00    -0.206 F 
ATOM     41  C   UNL A   1      47.318  34.189  28.254  1.00  0.00     0.059 A 
ATOM     42  C   UNL A   1      44.962  34.655  27.997  1.00  0.00     0.059 A 
ATOM     43  F   UNL A   1      43.385  33.054  28.505  1.00  0.00    -0.206 F 
ATOM     44  C   UNL A   1      46.281  35.081  27.983  1.00  0.00     0.060 A 
BRANCH  44  45
ATOM     45  S   UNL A   1      46.662  36.818  27.685  1.00  0.00     0.124 S 
ATOM     46  O   UNL A   1      46.386  36.936  26.257  1.00  0.00    -0.237 OA
ATOM     47  O   UNL A   1      45.723  37.491  28.576  1.00  0.00    -0.237 OA
ATOM     48  O   UNL A   1      48.067  36.924  28.067  1.00  0.00    -0.744 OA
ENDBRANCH  44  45
ENDBRANCH  23  37
BRANCH  24  49
ATOM     49  C   UNL A   1      37.345  30.666  29.992  1.00  0.00     0.058 A 
ATOM     50  C   UNL A   1      36.403  31.269  30.844  1.00  0.00     0.135 A 
ATOM     51  C   UNL A   1      37.154  30.881  28.610  1.00  0.00     0.135 A 
ATOM     52  F   UNL A   1      36.521  31.143  32.174  1.00  0.00    -0.206 F 
ATOM     53  C   UNL A   1      35.358  32.067  30.357  1.00  0.00     0.059 A 
ATOM     54  C   UNL A   1      36.118  31.660  28.102  1.00  0.00     0.059 A 
ATOM     55  F   UNL A   1      38.029  30.413  27.708  1.00  0.00    -0.206 F 
ATOM     56  C   UNL A   1      35.236  32.272  28.982  1.00  0.00     0.060 A 
BRANCH  56  57
ATOM     57  S   UNL A   1      33.992  33.428  28.357  1.00  0.00     0.124 S 
ATOM     58  O   UNL A   1      33.489  34.025  29.588  1.00  0.00    -0.237 OA
ATOM     59  O   UNL A   1      34.790  34.301  27.503  1.00  0.00    -0.237 OA
ATOM     60  O   UNL A   1      33.049  32.563  27.652  1.00  0.00    -0.744 OA
ENDBRANCH  56  57
ENDBRANCH  24  49
BRANCH  36  61
ATOM     61  C   UNL A   1      42.320  29.326  33.793  1.00  0.00     0.058 A 
ATOM     62  C   UNL A   1      42.075  27.965  33.530  1.00  0.00     0.135 A 
ATOM     63  C   UNL A   1      42.441  29.700  35.139  1.00  0.00     0.135 A 
ATOM     64  F   UNL A   1      42.058  27.501  32.273  1.00  0.00    -0.206 F 
ATOM     65  C   UNL A   1      41.912  27.030  34.555  1.00  0.00     0.059 A 
ATOM     66  C   UNL A   1      42.313  28.781  36.178  1.00  0.00     0.059 A 
ATOM     67  F   UNL A   1      42.744  30.970  35.459  1.00  0.00    -0.206 F 
ATOM     68  C   UNL A   1      42.035  27.448  35.879  1.00  0.00     0.060 A 
BRANCH  68  69
ATOM     69  S   UNL A   1      41.889  26.226  37.200  1.00  0.00     0.124 S 
ATOM     70  O   UNL A   1      42.992  26.595  38.083  1.00  0.00    -0.237 OA
ATOM     71  O   UNL A   1      40.550  26.484  37.721  1.00  0.00    -0.237 OA
ATOM     72  O   UNL A   1      42.046  24.951  36.506  1.00  0.00    -0.744 OA
ENDBRANCH  68  69
ENDBRANCH  36  61
ENDBRANCH  10  11
ENDBRANCH   2   5
BRANCH   3  73
ATOM     73  C   UNL A   1      40.132  21.962  26.696  1.00  0.00     0.118 C 
BRANCH  73  74
ATOM     74  C   UNL A   1      38.989  22.949  26.475  1.00  0.00     0.042 C 
BRANCH  74  75
ATOM     75  C   UNL A   1      37.742  22.337  25.846  1.00  0.00     0.118 C 
BRANCH  75  76
ATOM     76  N   UNL A   1      37.622  22.629  24.425  1.00  0.00    -0.349 N 
ATOM     77  C   UNL A   1      36.516  23.000  23.691  1.00  0.00     0.287 C 
ATOM     78  H   UNL A   1      38.457  22.549  23.910  1.00  0.00     0.163 HD
ATOM     79  O   UNL A   1      36.619  22.984  22.472  1.00  0.00    -0.266 OA
BRANCH  77  80
ATOM     80  C   UNL A   1      35.319  23.391  24.398  1.00  0.00     0.195 A 
ATOM     81  O   UNL A   1      35.244  24.690  24.873  1.00  0.00    -0.451 OA
ATOM     82  C   UNL A   1      34.159  22.712  24.727  1.00  0.00     0.012 A 
ATOM     83  C   UNL A   1      33.997  24.855  25.406  1.00  0.00     0.135 A 
ATOM     84  C   UNL A   1      33.320  23.665  25.327  1.00  0.00     0.028 A 
ATOM     85  C   UNL A   1      33.650  21.324  24.533  1.00  0.00     0.041 C 
ATOM     86  C   UNL A   1      33.424  26.002  25.935  1.00  0.00     0.048 A 
ATOM     87  C   UNL A   1      32.006  23.508  25.764  1.00  0.00    -0.037 A 
ATOM     88  C   UNL A   1      32.458  21.037  25.495  1.00  0.00     0.010 C 
ATOM     89  C   UNL A   1      32.085  25.872  26.354  1.00  0.00     0.004 A 
ATOM     90  C   UNL A   1      31.383  24.653  26.264  1.00  0.00     0.004 A 
ATOM     91  C   UNL A   1      31.375  22.161  25.541  1.00  0.00     0.036 C 
ENDBRANCH  77  80
ENDBRANCH  75  76
ENDBRANCH  74  75
ENDBRANCH  73  74
ENDBRANCH   3  73
TORSDOF 13
ENDMDL
MODEL 3
REMARK VINA RESULT:     -11.3      2.834     11.268
REMARK SMILES O=C(NCCCNC(=O)c1oc2cccc3c2c1CCC3)c1ccc(-c2c3nc(c(-c4c(F)cc(S(=O)(=O)[O-])cc4F)c4ccc([nH]4)c(-c4c(F)cc(S(=O)(=O)[O-])cc4F)c4nc(c(-c5c(F)cc(S(=O)(=O)[O-])cc5F)c5ccc2[nH]5)C=C4)C=C3)cc1
REMARK SMILES IDX 1 1 2 2 3 3 22 5 23 6 87 7 24 8 86 9 25 10 26 11 27 12 80 13
REMARK SMILES IDX 28 14 85 15 79 16 81 17 29 18 84 19 78 20 77 21 30 23 64 24
REMARK SMILES IDX 43 25 63 26 44 27 47 28 62 29 82 30 45 31 46 32 61 34 83 35
REMARK SMILES IDX 48 36 31 37 32 38 41 39 33 40 34 41 40 42 42 43 35 44 36 45
REMARK SMILES IDX 37 46 38 47 39 48 65 49 66 50 75 51 67 52 68 53 74 54 76 55
REMARK SMILES IDX 69 56 70 57 71 58 72 59 73 60 49 61 50 62 59 63 51 64 52 65
REMARK SMILES IDX 58 66 60 67 53 68 54 69 55 70 56 71 57 72 4 73 5 74 6 75
REMARK SMILES IDX 7 76 8 77 9 79 10 80 11 81 18 82 12 83 17 84 19 85 13 86
REMARK SMILES IDX 16 87 20 88 14 89 15 90 21 91
REMARK H PARENT 3 4 81 22 47 33 7 78
REMARK Flexibility Score: inf
ROOT
ATOM      1  O   UNL A   1      34.152  30.242  27.291  1.00  0.00    -0.269 OA
ATOM      2  C   UNL A   1      34.870  31.088  27.826  1.00  0.00     0.251 C 
ATOM      3  N   UNL A   1      34.504  32.402  27.688  1.00  0.00    -0.352 N 
ATOM      4  H   UNL A   1      33.788  32.540  27.027  1.00  0.00     0.163 HD
ENDROOT
BRANCH   2   5
ATOM      5  C   UNL A   1      36.145  30.666  28.453  1.00  0.00     0.039 A 
ATOM      6  C   UNL A   1      37.047  31.528  29.078  1.00  0.00     0.014 A 
ATOM      7  C   UNL A   1      36.485  29.313  28.290  1.00  0.00     0.014 A 
ATOM      8  C   UNL A   1      38.345  31.110  29.323  1.00  0.00     0.010 A 
ATOM      9  C   UNL A   1      37.766  28.876  28.580  1.00  0.00     0.010 A 
ATOM     10  C   UNL A   1      38.711  29.803  29.011  1.00  0.00    -0.014 A 
BRANCH  10  11
ATOM     11  C   UNL A   1      40.101  29.422  29.210  1.00  0.00     0.031 A 
ATOM     12  C   UNL A   1      40.509  29.257  30.636  1.00  0.00     0.074 A 
ATOM     13  C   UNL A   1      40.892  29.112  28.163  1.00  0.00     0.049 A 
ATOM     14  N   UNL A   1      41.450  29.857  31.291  1.00  0.00    -0.248 NA
ATOM     15  C   UNL A   1      39.664  28.386  31.475  1.00  0.00     0.031 C 
ATOM     16  C   UNL A   1      40.516  28.966  26.752  1.00  0.00     0.029 A 
ATOM     17  N   UNL A   1      42.196  28.738  28.163  1.00  0.00    -0.354 N 
ATOM     18  C   UNL A   1      41.437  29.307  32.573  1.00  0.00     0.074 A 
ATOM     19  C   UNL A   1      40.235  28.519  32.671  1.00  0.00     0.031 C 
ATOM     20  C   UNL A   1      41.490  28.290  26.101  1.00  0.00     0.029 A 
ATOM     21  C   UNL A   1      42.601  28.076  27.011  1.00  0.00     0.049 A 
ATOM     22  H   UNL A   1      42.804  28.921  28.914  1.00  0.00     0.167 HD
ATOM     23  C   UNL A   1      42.501  29.373  33.421  1.00  0.00     0.037 A 
ATOM     24  C   UNL A   1      43.715  27.308  26.889  1.00  0.00     0.037 A 
ATOM     25  C   UNL A   1      43.452  30.371  33.024  1.00  0.00     0.049 A 
ATOM     26  C   UNL A   1      44.628  27.691  28.004  1.00  0.00     0.074 A 
ATOM     27  C   UNL A   1      43.418  31.748  32.916  1.00  0.00     0.029 A 
ATOM     28  N   UNL A   1      44.550  29.971  32.303  1.00  0.00    -0.354 N 
ATOM     29  N   UNL A   1      45.183  28.868  28.117  1.00  0.00    -0.248 NA
ATOM     30  C   UNL A   1      44.531  26.929  29.241  1.00  0.00     0.031 C 
ATOM     31  C   UNL A   1      44.175  32.044  31.745  1.00  0.00     0.029 A 
ATOM     32  C   UNL A   1      44.669  30.838  31.246  1.00  0.00     0.049 A 
ATOM     33  H   UNL A   1      45.140  29.208  32.507  1.00  0.00     0.167 HD
ATOM     34  C   UNL A   1      45.140  29.161  29.473  1.00  0.00     0.074 A 
ATOM     35  C   UNL A   1      44.776  27.902  30.121  1.00  0.00     0.031 C 
ATOM     36  C   UNL A   1      45.126  30.449  29.931  1.00  0.00     0.037 A 
BRANCH  23  37
ATOM     37  C   UNL A   1      42.810  28.317  34.447  1.00  0.00     0.058 A 
ATOM     38  C   UNL A   1      42.868  28.639  35.815  1.00  0.00     0.135 A 
ATOM     39  C   UNL A   1      43.302  27.041  34.092  1.00  0.00     0.135 A 
ATOM     40  F   UNL A   1      42.454  29.839  36.251  1.00  0.00    -0.206 F 
ATOM     41  C   UNL A   1      43.406  27.764  36.761  1.00  0.00     0.059 A 
ATOM     42  C   UNL A   1      43.792  26.133  35.022  1.00  0.00     0.059 A 
ATOM     43  F   UNL A   1      43.410  26.659  32.812  1.00  0.00    -0.206 F 
ATOM     44  C   UNL A   1      43.873  26.516  36.352  1.00  0.00     0.060 A 
BRANCH  44  45
ATOM     45  S   UNL A   1      44.656  25.425  37.555  1.00  0.00     0.124 S 
ATOM     46  O   UNL A   1      44.251  24.112  37.065  1.00  0.00    -0.237 OA
ATOM     47  O   UNL A   1      46.067  25.760  37.394  1.00  0.00    -0.237 OA
ATOM     48  O   UNL A   1      44.060  25.838  38.821  1.00  0.00    -0.744 OA
ENDBRANCH  44  45
ENDBRANCH  23  37
BRANCH  24  49
ATOM     49  C   UNL A   1      43.803  25.993  26.194  1.00  0.00     0.058 A 
ATOM     50  C   UNL A   1      44.854  25.703  25.305  1.00  0.00     0.135 A 
ATOM     51  C   UNL A   1      43.012  24.895  26.594  1.00  0.00     0.135 A 
ATOM     52  F   UNL A   1      45.676  26.679  24.894  1.00  0.00    -0.206 F 
ATOM     53  C   UNL A   1      45.125  24.398  24.870  1.00  0.00     0.059 A 
ATOM     54  C   UNL A   1      43.255  23.592  26.166  1.00  0.00     0.059 A 
ATOM     55  F   UNL A   1      42.026  25.041  27.491  1.00  0.00    -0.206 F 
ATOM     56  C   UNL A   1      44.330  23.345  25.323  1.00  0.00     0.060 A 
BRANCH  56  57
ATOM     57  S   UNL A   1      44.771  21.643  24.898  1.00  0.00     0.124 S 
ATOM     58  O   UNL A   1      44.631  21.649  23.446  1.00  0.00    -0.237 OA
ATOM     59  O   UNL A   1      46.134  21.544  25.408  1.00  0.00    -0.237 OA
ATOM     60  O   UNL A   1      43.780  20.846  25.616  1.00  0.00    -0.744 OA
ENDBRANCH  56  57
ENDBRANCH  24  49
BRANCH  36  61
ATOM     61  C   UNL A   1      45.370  31.560  28.942  1.00  0.00     0.058 A 
ATOM     62  C   UNL A   1      46.649  31.996  28.546  1.00  0.00     0.135 A 
ATOM     63  C   UNL A   1      44.276  32.088  28.242  1.00  0.00     0.135 A 
ATOM     64  F   UNL A   1      47.754  31.460  29.082  1.00  0.00    -0.206 F 
ATOM     65  C   UNL A   1      46.829  32.943  27.535  1.00  0.00     0.059 A 
ATOM     66  C   UNL A   1      44.431  33.011  27.210  1.00  0.00     0.059 A 
ATOM     67  F   UNL A   1      43.032  31.663  28.523  1.00  0.00    -0.206 F 
ATOM     68  C   UNL A   1      45.711  33.444  26.870  1.00  0.00     0.060 A 
BRANCH  68  69
ATOM     69  S   UNL A   1      45.949  34.619  25.520  1.00  0.00     0.124 S 
ATOM     70  O   UNL A   1      45.016  34.123  24.513  1.00  0.00    -0.237 OA
ATOM     71  O   UNL A   1      45.589  35.891  26.142  1.00  0.00    -0.237 OA
ATOM     72  O   UNL A   1      47.363  34.476  25.186  1.00  0.00    -0.744 OA
ENDBRANCH  68  69
ENDBRANCH  36  61
ENDBRANCH  10  11
ENDBRANCH   2   5
BRANCH   3  73
ATOM     73  C   UNL A   1      34.952  33.633  28.313  1.00  0.00     0.118 C 
BRANCH  73  74
ATOM     74  C   UNL A   1      34.076  34.158  29.448  1.00  0.00     0.042 C 
BRANCH  74  75
ATOM     75  C   UNL A   1      34.648  33.926  30.842  1.00  0.00     0.118 C 
BRANCH  75  76
ATOM     76  N   UNL A   1      34.533  35.092  31.704  1.00  0.00    -0.349 N 
ATOM     77  C   UNL A   1      35.178  35.383  32.888  1.00  0.00     0.287 C 
ATOM     78  H   UNL A   1      33.898  35.779  31.396  1.00  0.00     0.163 HD
ATOM     79  O   UNL A   1      34.759  36.330  33.538  1.00  0.00    -0.266 OA
BRANCH  77  80
ATOM     80  C   UNL A   1      36.304  34.567  33.277  1.00  0.00     0.195 A 
ATOM     81  O   UNL A   1      36.255  33.944  34.512  1.00  0.00    -0.451 OA
ATOM     82  C   UNL A   1      37.495  34.250  32.647  1.00  0.00     0.012 A 
ATOM     83  C   UNL A   1      37.366  33.155  34.612  1.00  0.00     0.135 A 
ATOM     84  C   UNL A   1      38.134  33.326  33.488  1.00  0.00     0.028 A 
ATOM     85  C   UNL A   1      38.141  34.613  31.353  1.00  0.00     0.041 C 
ATOM     86  C   UNL A   1      37.722  32.281  35.630  1.00  0.00     0.048 A 
ATOM     87  C   UNL A   1      39.327  32.639  33.272  1.00  0.00    -0.037 A 
ATOM     88  C   UNL A   1      39.665  34.290  31.391  1.00  0.00     0.010 C 
ATOM     89  C   UNL A   1      38.910  31.554  35.415  1.00  0.00     0.004 A 
ATOM     90  C   UNL A   1      39.695  31.719  34.256  1.00  0.00     0.004 A 
ATOM     91  C   UNL A   1      40.016  32.878  31.957  1.00  0.00     0.036 C 
ENDBRANCH  77  80
ENDBRANCH  75  76
ENDBRANCH  74  75
ENDBRANCH  73  74
ENDBRANCH   3  73
TORSDOF 13
ENDMDL
