MODEL 1
REMARK VINA RESULT:     -11.5      0.000      0.000
REMARK SMILES O=C(CCCNC(=O)[C@@H]1CCCN(S(=O)(=O)c2ccc(F)cc2)C1)NCCCNC(=O)c1ccc(-c2c3nc(c(-c4c(F)cc(S(=O)(=O)[O-])cc4F)c4ccc([nH]4)c(-c4c(F)cc(S(=O)(=O)[O-])cc4F)c4nc(c(-c5c(F)cc(S(=O)(=O)[O-])cc5F)c5ccc2[nH]5)C=C4)C=C3)cc1
REMARK SMILES IDX 1 1 2 2 25 3 3 5 4 6 5 7 6 8 7 9 8 11 9 12 10 13 24 14 11 15
REMARK SMILES IDX 13 16 12 17 14 18 15 19 16 20 17 21 18 22 23 23 19 24 22 25
REMARK SMILES IDX 20 26 21 27 26 28 27 29 28 30 29 31 30 32 31 34 32 35 33 36
REMARK SMILES IDX 97 37 34 38 96 39 35 40 36 41 37 42 90 43 38 44 95 45 89 46
REMARK SMILES IDX 91 47 39 48 94 49 88 50 87 51 40 53 74 54 53 55 73 56 54 57
REMARK SMILES IDX 57 58 72 59 92 60 55 61 56 62 71 64 93 65 58 66 41 67 42 68
REMARK SMILES IDX 51 69 43 70 44 71 50 72 52 73 45 74 46 75 47 76 48 77 49 78
REMARK SMILES IDX 75 79 76 80 85 81 77 82 78 83 84 84 86 85 79 86 80 87 81 88
REMARK SMILES IDX 82 89 83 90 59 91 60 92 69 93 61 94 62 95 68 96 70 97 63 98
REMARK SMILES IDX 64 99 65 100 66 101 67 102
REMARK H PARENT 25 4 6 10 29 33 91 52 57 63
REMARK Flexibility Score: inf
ROOT
ATOM      1  O   UNL A   1      37.024  21.984  24.239  1.00  0.00    -0.275 OA
ATOM      2  C   UNL A   1      37.036  22.491  25.354  1.00  0.00     0.220 C 
ATOM      3  N   UNL A   1      38.078  22.371  26.245  1.00  0.00    -0.356 N 
ATOM      4  H   UNL A   1      38.009  22.823  27.117  1.00  0.00     0.163 HD
ENDROOT
BRANCH   2   5
ATOM      5  C   UNL A   1      35.854  23.268  25.895  1.00  0.00     0.102 C 
BRANCH   5   6
ATOM      6  C   UNL A   1      34.662  22.357  26.198  1.00  0.00     0.031 C 
BRANCH   6   7
ATOM      7  C   UNL A   1      33.405  23.076  26.687  1.00  0.00     0.116 C 
BRANCH   7   8
ATOM      8  N   UNL A   1      32.289  22.918  25.775  1.00  0.00    -0.356 N 
ATOM      9  C   UNL A   1      31.484  23.805  25.156  1.00  0.00     0.224 C 
ATOM     10  H   UNL A   1      32.078  21.981  25.567  1.00  0.00     0.163 HD
ATOM     11  O   UNL A   1      31.112  23.454  24.028  1.00  0.00    -0.275 OA
BRANCH   9  12
ATOM     12  C   UNL A   1      30.900  25.075  25.762  1.00  0.00     0.093 C 
ATOM     13  C   UNL A   1      29.445  25.484  25.565  1.00  0.00     0.016 C 
ATOM     14  C   UNL A   1      31.875  26.226  25.468  1.00  0.00     0.116 C 
ATOM     15  C   UNL A   1      29.198  26.326  24.315  1.00  0.00     0.018 C 
ATOM     16  N   UNL A   1      31.572  26.903  24.156  1.00  0.00    -0.197 NA
ATOM     17  C   UNL A   1      30.197  27.466  24.182  1.00  0.00     0.102 C 
BRANCH  16  18
ATOM     18  S   UNL A   1      32.816  28.035  23.765  1.00  0.00     0.243 S 
ATOM     19  O   UNL A   1      34.020  27.271  23.497  1.00  0.00    -0.207 OA
ATOM     20  O   UNL A   1      32.285  28.958  22.790  1.00  0.00    -0.207 OA
BRANCH  18  21
ATOM     21  C   UNL A   1      33.097  28.956  25.265  1.00  0.00     0.082 A 
ATOM     22  C   UNL A   1      34.276  28.739  25.992  1.00  0.00     0.025 A 
ATOM     23  C   UNL A   1      32.224  29.991  25.621  1.00  0.00     0.025 A 
ATOM     24  C   UNL A   1      34.558  29.530  27.106  1.00  0.00     0.040 A 
ATOM     25  C   UNL A   1      32.523  30.792  26.727  1.00  0.00     0.040 A 
ATOM     26  C   UNL A   1      33.682  30.551  27.460  1.00  0.00     0.123 A 
ATOM     27  F   UNL A   1      33.970  31.325  28.515  1.00  0.00    -0.207 F 
ENDBRANCH  18  21
ENDBRANCH  16  18
ENDBRANCH   9  12
ENDBRANCH   7   8
ENDBRANCH   6   7
ENDBRANCH   5   6
ENDBRANCH   2   5
BRANCH   3  28
ATOM     28  C   UNL A   1      39.276  21.610  25.951  1.00  0.00     0.117 C 
BRANCH  28  29
ATOM     29  C   UNL A   1      40.296  21.671  27.083  1.00  0.00     0.042 C 
BRANCH  29  30
ATOM     30  C   UNL A   1      40.727  23.078  27.494  1.00  0.00     0.118 C 
BRANCH  30  31
ATOM     31  N   UNL A   1      40.931  23.974  26.366  1.00  0.00    -0.352 N 
ATOM     32  C   UNL A   1      40.992  25.350  26.353  1.00  0.00     0.251 C 
ATOM     33  H   UNL A   1      41.042  23.536  25.492  1.00  0.00     0.163 HD
ATOM     34  O   UNL A   1      41.065  25.945  25.282  1.00  0.00    -0.269 OA
BRANCH  32  35
ATOM     35  C   UNL A   1      40.928  26.108  27.623  1.00  0.00     0.039 A 
ATOM     36  C   UNL A   1      41.993  26.948  27.961  1.00  0.00     0.014 A 
ATOM     37  C   UNL A   1      39.821  26.004  28.470  1.00  0.00     0.014 A 
ATOM     38  C   UNL A   1      41.913  27.745  29.107  1.00  0.00     0.010 A 
ATOM     39  C   UNL A   1      39.717  26.843  29.579  1.00  0.00     0.010 A 
ATOM     40  C   UNL A   1      40.757  27.730  29.904  1.00  0.00    -0.014 A 
BRANCH  40  41
ATOM     41  C   UNL A   1      40.601  28.636  31.071  1.00  0.00     0.031 A 
ATOM     42  C   UNL A   1      39.581  29.742  31.036  1.00  0.00     0.074 A 
ATOM     43  C   UNL A   1      41.425  28.517  32.132  1.00  0.00     0.049 A 
ATOM     44  N   UNL A   1      39.396  30.722  31.881  1.00  0.00    -0.248 NA
ATOM     45  C   UNL A   1      38.663  29.758  29.885  1.00  0.00     0.031 C 
ATOM     46  C   UNL A   1      42.466  27.499  32.285  1.00  0.00     0.029 A 
ATOM     47  N   UNL A   1      41.528  29.269  33.277  1.00  0.00    -0.354 N 
ATOM     48  C   UNL A   1      38.359  31.484  31.358  1.00  0.00     0.074 A 
ATOM     49  C   UNL A   1      37.976  30.871  30.104  1.00  0.00     0.031 C 
ATOM     50  C   UNL A   1      43.090  27.680  33.460  1.00  0.00     0.029 A 
ATOM     51  C   UNL A   1      42.529  28.853  34.124  1.00  0.00     0.049 A 
ATOM     52  H   UNL A   1      40.940  30.035  33.472  1.00  0.00     0.167 HD
ATOM     53  C   UNL A   1      37.771  32.586  31.879  1.00  0.00     0.037 A 
ATOM     54  C   UNL A   1      42.957  29.366  35.295  1.00  0.00     0.037 A 
ATOM     55  C   UNL A   1      38.131  33.175  33.142  1.00  0.00     0.049 A 
ATOM     56  C   UNL A   1      42.297  30.598  35.850  1.00  0.00     0.074 A 
ATOM     57  C   UNL A   1      37.568  34.273  33.769  1.00  0.00     0.029 A 
ATOM     58  N   UNL A   1      39.140  32.714  33.974  1.00  0.00    -0.354 N 
ATOM     59  N   UNL A   1      41.312  31.299  35.345  1.00  0.00    -0.248 NA
ATOM     60  C   UNL A   1      42.809  31.111  37.129  1.00  0.00     0.031 C 
ATOM     61  C   UNL A   1      38.253  34.492  34.968  1.00  0.00     0.029 A 
ATOM     62  C   UNL A   1      39.220  33.508  35.105  1.00  0.00     0.049 A 
ATOM     63  H   UNL A   1      39.715  31.936  33.788  1.00  0.00     0.167 HD
ATOM     64  C   UNL A   1      41.069  32.323  36.254  1.00  0.00     0.074 A 
ATOM     65  C   UNL A   1      42.009  32.149  37.342  1.00  0.00     0.031 C 
ATOM     66  C   UNL A   1      40.150  33.315  36.189  1.00  0.00     0.037 A 
BRANCH  53  67
ATOM     67  C   UNL A   1      36.663  33.225  31.092  1.00  0.00     0.058 A 
ATOM     68  C   UNL A   1      36.950  34.082  30.019  1.00  0.00     0.135 A 
ATOM     69  C   UNL A   1      35.315  33.028  31.432  1.00  0.00     0.135 A 
ATOM     70  F   UNL A   1      38.222  34.302  29.649  1.00  0.00    -0.206 F 
ATOM     71  C   UNL A   1      35.940  34.730  29.316  1.00  0.00     0.059 A 
ATOM     72  C   UNL A   1      34.288  33.648  30.728  1.00  0.00     0.059 A 
ATOM     73  F   UNL A   1      34.987  32.199  32.437  1.00  0.00    -0.206 F 
ATOM     74  C   UNL A   1      34.611  34.508  29.679  1.00  0.00     0.060 A 
BRANCH  74  75
ATOM     75  S   UNL A   1      33.306  35.320  28.731  1.00  0.00     0.124 S 
ATOM     76  O   UNL A   1      32.614  34.181  28.139  1.00  0.00    -0.237 OA
ATOM     77  O   UNL A   1      32.573  36.041  29.768  1.00  0.00    -0.237 OA
ATOM     78  O   UNL A   1      34.044  36.165  27.798  1.00  0.00    -0.744 OA
ENDBRANCH  74  75
ENDBRANCH  53  67
BRANCH  54  79
ATOM     79  C   UNL A   1      44.063  28.696  36.028  1.00  0.00     0.058 A 
ATOM     80  C   UNL A   1      43.817  27.643  36.922  1.00  0.00     0.135 A 
ATOM     81  C   UNL A   1      45.389  29.128  35.874  1.00  0.00     0.135 A 
ATOM     82  F   UNL A   1      42.565  27.197  37.110  1.00  0.00    -0.206 F 
ATOM     83  C   UNL A   1      44.843  27.060  37.657  1.00  0.00     0.059 A 
ATOM     84  C   UNL A   1      46.435  28.547  36.583  1.00  0.00     0.059 A 
ATOM     85  F   UNL A   1      45.672  30.123  35.019  1.00  0.00    -0.206 F 
ATOM     86  C   UNL A   1      46.149  27.525  37.488  1.00  0.00     0.060 A 
BRANCH  86  87
ATOM     87  S   UNL A   1      47.465  26.772  38.468  1.00  0.00     0.124 S 
ATOM     88  O   UNL A   1      48.094  25.898  37.484  1.00  0.00    -0.237 OA
ATOM     89  O   UNL A   1      48.246  27.934  38.879  1.00  0.00    -0.237 OA
ATOM     90  O   UNL A   1      46.741  26.095  39.540  1.00  0.00    -0.744 OA
ENDBRANCH  86  87
ENDBRANCH  54  79
BRANCH  66  91
ATOM     91  C   UNL A   1      40.077  34.284  37.335  1.00  0.00     0.058 A 
ATOM     92  C   UNL A   1      39.108  34.123  38.338  1.00  0.00     0.135 A 
ATOM     93  C   UNL A   1      40.891  35.425  37.383  1.00  0.00     0.135 A 
ATOM     94  F   UNL A   1      38.303  33.048  38.335  1.00  0.00    -0.206 F 
ATOM     95  C   UNL A   1      38.928  35.077  39.334  1.00  0.00     0.059 A 
ATOM     96  C   UNL A   1      40.742  36.383  38.381  1.00  0.00     0.059 A 
ATOM     97  F   UNL A   1      41.842  35.615  36.453  1.00  0.00    -0.206 F 
ATOM     98  C   UNL A   1      39.743  36.211  39.339  1.00  0.00     0.060 A 
BRANCH  98  99
ATOM     99  S   UNL A   1      39.481  37.453  40.624  1.00  0.00     0.124 S 
ATOM    100  O   UNL A   1      39.330  36.624  41.814  1.00  0.00    -0.237 OA
ATOM    101  O   UNL A   1      40.709  38.240  40.550  1.00  0.00    -0.237 OA
ATOM    102  O   UNL A   1      38.275  38.146  40.182  1.00  0.00    -0.744 OA
ENDBRANCH  98  99
ENDBRANCH  66  91
ENDBRANCH  40  41
ENDBRANCH  32  35
ENDBRANCH  30  31
ENDBRANCH  29  30
ENDBRANCH  28  29
ENDBRANCH   3  28
TORSDOF 19
ENDMDL
MODEL 2
REMARK VINA RESULT:     -11.4      6.586     11.972
REMARK SMILES O=C(CCCNC(=O)[C@@H]1CCCN(S(=O)(=O)c2ccc(F)cc2)C1)NCCCNC(=O)c1ccc(-c2c3nc(c(-c4c(F)cc(S(=O)(=O)[O-])cc4F)c4ccc([nH]4)c(-c4c(F)cc(S(=O)(=O)[O-])cc4F)c4nc(c(-c5c(F)cc(S(=O)(=O)[O-])cc5F)c5ccc2[nH]5)C=C4)C=C3)cc1
REMARK SMILES IDX 1 1 2 2 25 3 3 5 4 6 5 7 6 8 7 9 8 11 9 12 10 13 24 14 11 15
REMARK SMILES IDX 13 16 12 17 14 18 15 19 16 20 17 21 18 22 23 23 19 24 22 25
REMARK SMILES IDX 20 26 21 27 26 28 27 29 28 30 29 31 30 32 31 34 32 35 33 36
REMARK SMILES IDX 97 37 34 38 96 39 35 40 36 41 37 42 90 43 38 44 95 45 89 46
REMARK SMILES IDX 91 47 39 48 94 49 88 50 87 51 40 53 74 54 53 55 73 56 54 57
REMARK SMILES IDX 57 58 72 59 92 60 55 61 56 62 71 64 93 65 58 66 41 67 42 68
REMARK SMILES IDX 51 69 43 70 44 71 50 72 52 73 45 74 46 75 47 76 48 77 49 78
REMARK SMILES IDX 75 79 76 80 85 81 77 82 78 83 84 84 86 85 79 86 80 87 81 88
REMARK SMILES IDX 82 89 83 90 59 91 60 92 69 93 61 94 62 95 68 96 70 97 63 98
REMARK SMILES IDX 64 99 65 100 66 101 67 102
REMARK H PARENT 25 4 6 10 29 33 91 52 57 63
REMARK Flexibility Score: inf
ROOT
ATOM      1  O   UNL A   1      33.537  33.576  28.065  1.00  0.00    -0.275 OA
ATOM      2  C   UNL A   1      34.186  32.537  28.034  1.00  0.00     0.220 C 
ATOM      3  N   UNL A   1      35.507  32.440  28.405  1.00  0.00    -0.356 N 
ATOM      4  H   UNL A   1      35.947  31.561  28.361  1.00  0.00     0.163 HD
ENDROOT
BRANCH   2   5
ATOM      5  C   UNL A   1      33.598  31.240  27.517  1.00  0.00     0.102 C 
BRANCH   5   6
ATOM      6  C   UNL A   1      34.641  30.121  27.464  1.00  0.00     0.031 C 
BRANCH   6   7
ATOM      7  C   UNL A   1      34.092  28.741  27.102  1.00  0.00     0.116 C 
BRANCH   7   8
ATOM      8  N   UNL A   1      32.650  28.671  27.224  1.00  0.00    -0.356 N 
ATOM      9  C   UNL A   1      31.784  27.637  27.239  1.00  0.00     0.224 C 
ATOM     10  H   UNL A   1      32.218  29.550  27.314  1.00  0.00     0.163 HD
ATOM     11  O   UNL A   1      30.799  27.809  27.971  1.00  0.00    -0.275 OA
BRANCH   9  12
ATOM     12  C   UNL A   1      31.838  26.397  26.356  1.00  0.00     0.093 C 
ATOM     13  C   UNL A   1      33.046  25.468  26.319  1.00  0.00     0.016 C 
ATOM     14  C   UNL A   1      31.370  26.803  24.950  1.00  0.00     0.116 C 
ATOM     15  C   UNL A   1      34.112  25.872  25.301  1.00  0.00     0.018 C 
ATOM     16  N   UNL A   1      32.512  27.273  24.086  1.00  0.00    -0.197 NA
ATOM     17  C   UNL A   1      33.514  26.187  23.937  1.00  0.00     0.102 C 
BRANCH  16  18
ATOM     18  S   UNL A   1      31.914  27.922  22.603  1.00  0.00     0.243 S 
ATOM     19  O   UNL A   1      32.914  28.849  22.108  1.00  0.00    -0.207 OA
ATOM     20  O   UNL A   1      31.451  26.820  21.792  1.00  0.00    -0.207 OA
BRANCH  18  21
ATOM     21  C   UNL A   1      30.482  28.880  23.057  1.00  0.00     0.082 A 
ATOM     22  C   UNL A   1      30.651  30.053  23.807  1.00  0.00     0.025 A 
ATOM     23  C   UNL A   1      29.225  28.548  22.536  1.00  0.00     0.025 A 
ATOM     24  C   UNL A   1      29.552  30.868  24.075  1.00  0.00     0.040 A 
ATOM     25  C   UNL A   1      28.133  29.380  22.793  1.00  0.00     0.040 A 
ATOM     26  C   UNL A   1      28.304  30.528  23.562  1.00  0.00     0.123 A 
ATOM     27  F   UNL A   1      27.257  31.328  23.800  1.00  0.00    -0.207 F 
ENDBRANCH  18  21
ENDBRANCH  16  18
ENDBRANCH   9  12
ENDBRANCH   7   8
ENDBRANCH   6   7
ENDBRANCH   5   6
ENDBRANCH   2   5
BRANCH   3  28
ATOM     28  C   UNL A   1      36.277  33.580  28.863  1.00  0.00     0.117 C 
BRANCH  28  29
ATOM     29  C   UNL A   1      36.115  33.826  30.359  1.00  0.00     0.042 C 
BRANCH  29  30
ATOM     30  C   UNL A   1      37.033  32.997  31.257  1.00  0.00     0.118 C 
BRANCH  30  31
ATOM     31  N   UNL A   1      36.475  31.704  31.620  1.00  0.00    -0.352 N 
ATOM     32  C   UNL A   1      36.991  30.446  31.401  1.00  0.00     0.251 C 
ATOM     33  H   UNL A   1      35.610  31.732  32.087  1.00  0.00     0.163 HD
ATOM     34  O   UNL A   1      36.322  29.456  31.684  1.00  0.00    -0.269 OA
BRANCH  32  35
ATOM     35  C   UNL A   1      38.329  30.289  30.786  1.00  0.00     0.039 A 
ATOM     36  C   UNL A   1      39.433  30.085  31.619  1.00  0.00     0.014 A 
ATOM     37  C   UNL A   1      38.496  30.329  29.399  1.00  0.00     0.014 A 
ATOM     38  C   UNL A   1      40.690  29.840  31.059  1.00  0.00     0.010 A 
ATOM     39  C   UNL A   1      39.737  30.025  28.842  1.00  0.00     0.010 A 
ATOM     40  C   UNL A   1      40.846  29.767  29.666  1.00  0.00    -0.014 A 
BRANCH  40  41
ATOM     41  C   UNL A   1      42.147  29.412  29.041  1.00  0.00     0.031 A 
ATOM     42  C   UNL A   1      42.384  28.015  28.536  1.00  0.00     0.074 A 
ATOM     43  C   UNL A   1      43.144  30.320  28.997  1.00  0.00     0.049 A 
ATOM     44  N   UNL A   1      43.491  27.470  28.103  1.00  0.00    -0.248 NA
ATOM     45  C   UNL A   1      41.227  27.105  28.541  1.00  0.00     0.031 C 
ATOM     46  C   UNL A   1      43.050  31.703  29.466  1.00  0.00     0.029 A 
ATOM     47  N   UNL A   1      44.437  30.210  28.550  1.00  0.00    -0.354 N 
ATOM     48  C   UNL A   1      43.173  26.151  27.805  1.00  0.00     0.074 A 
ATOM     49  C   UNL A   1      41.776  25.968  28.137  1.00  0.00     0.031 C 
ATOM     50  C   UNL A   1      44.227  32.316  29.268  1.00  0.00     0.029 A 
ATOM     51  C   UNL A   1      45.175  31.361  28.702  1.00  0.00     0.049 A 
ATOM     52  H   UNL A   1      44.802  29.384  28.156  1.00  0.00     0.167 HD
ATOM     53  C   UNL A   1      43.967  25.184  27.289  1.00  0.00     0.037 A 
ATOM     54  C   UNL A   1      46.472  31.615  28.433  1.00  0.00     0.037 A 
ATOM     55  C   UNL A   1      45.348  25.377  26.928  1.00  0.00     0.049 A 
ATOM     56  C   UNL A   1      47.339  30.523  27.871  1.00  0.00     0.074 A 
ATOM     57  C   UNL A   1      46.224  24.465  26.367  1.00  0.00     0.029 A 
ATOM     58  N   UNL A   1      46.051  26.561  27.086  1.00  0.00    -0.354 N 
ATOM     59  N   UNL A   1      47.018  29.284  27.587  1.00  0.00    -0.248 NA
ATOM     60  C   UNL A   1      48.745  30.859  27.599  1.00  0.00     0.031 C 
ATOM     61  C   UNL A   1      47.465  25.089  26.209  1.00  0.00     0.029 A 
ATOM     62  C   UNL A   1      47.351  26.402  26.639  1.00  0.00     0.049 A 
ATOM     63  H   UNL A   1      45.681  27.393  27.461  1.00  0.00     0.167 HD
ATOM     64  C   UNL A   1      48.174  28.699  27.080  1.00  0.00     0.074 A 
ATOM     65  C   UNL A   1      49.201  29.719  27.096  1.00  0.00     0.031 C 
ATOM     66  C   UNL A   1      48.361  27.431  26.644  1.00  0.00     0.037 A 
BRANCH  53  67
ATOM     67  C   UNL A   1      43.363  23.827  27.068  1.00  0.00     0.058 A 
ATOM     68  C   UNL A   1      43.381  22.862  28.087  1.00  0.00     0.135 A 
ATOM     69  C   UNL A   1      42.809  23.465  25.830  1.00  0.00     0.135 A 
ATOM     70  F   UNL A   1      43.895  23.158  29.292  1.00  0.00    -0.206 F 
ATOM     71  C   UNL A   1      42.880  21.581  27.883  1.00  0.00     0.059 A 
ATOM     72  C   UNL A   1      42.282  22.195  25.611  1.00  0.00     0.059 A 
ATOM     73  F   UNL A   1      42.748  24.359  24.830  1.00  0.00    -0.206 F 
ATOM     74  C   UNL A   1      42.334  21.256  26.640  1.00  0.00     0.060 A 
BRANCH  74  75
ATOM     75  S   UNL A   1      41.646  19.604  26.400  1.00  0.00     0.124 S 
ATOM     76  O   UNL A   1      42.439  19.109  25.281  1.00  0.00    -0.237 OA
ATOM     77  O   UNL A   1      41.902  18.971  27.692  1.00  0.00    -0.237 OA
ATOM     78  O   UNL A   1      40.239  19.864  26.110  1.00  0.00    -0.744 OA
ENDBRANCH  74  75
ENDBRANCH  53  67
BRANCH  54  79
ATOM     79  C   UNL A   1      47.019  32.975  28.677  1.00  0.00     0.058 A 
ATOM     80  C   UNL A   1      46.981  33.969  27.688  1.00  0.00     0.135 A 
ATOM     81  C   UNL A   1      47.627  33.292  29.901  1.00  0.00     0.135 A 
ATOM     82  F   UNL A   1      46.415  33.713  26.498  1.00  0.00    -0.206 F 
ATOM     83  C   UNL A   1      47.551  35.220  27.893  1.00  0.00     0.059 A 
ATOM     84  C   UNL A   1      48.187  34.543  30.138  1.00  0.00     0.059 A 
ATOM     85  F   UNL A   1      47.673  32.376  30.881  1.00  0.00    -0.206 F 
ATOM     86  C   UNL A   1      48.161  35.495  29.119  1.00  0.00     0.060 A 
BRANCH  86  87
ATOM     87  S   UNL A   1      48.917  37.117  29.359  1.00  0.00     0.124 S 
ATOM     88  O   UNL A   1      50.331  36.806  29.184  1.00  0.00    -0.237 OA
ATOM     89  O   UNL A   1      48.302  37.904  28.295  1.00  0.00    -0.237 OA
ATOM     90  O   UNL A   1      48.515  37.479  30.714  1.00  0.00    -0.744 OA
ENDBRANCH  86  87
ENDBRANCH  54  79
BRANCH  66  91
ATOM     91  C   UNL A   1      49.716  27.063  26.111  1.00  0.00     0.058 A 
ATOM     92  C   UNL A   1      50.024  27.266  24.757  1.00  0.00     0.135 A 
ATOM     93  C   UNL A   1      50.667  26.412  26.912  1.00  0.00     0.135 A 
ATOM     94  F   UNL A   1      49.147  27.883  23.949  1.00  0.00    -0.206 F 
ATOM     95  C   UNL A   1      51.217  26.811  24.206  1.00  0.00     0.059 A 
ATOM     96  C   UNL A   1      51.876  25.965  26.387  1.00  0.00     0.059 A 
ATOM     97  F   UNL A   1      50.423  26.207  28.216  1.00  0.00    -0.206 F 
ATOM     98  C   UNL A   1      52.132  26.150  25.028  1.00  0.00     0.060 A 
BRANCH  98  99
ATOM     99  S   UNL A   1      53.666  25.542  24.294  1.00  0.00     0.124 S 
ATOM    100  O   UNL A   1      53.618  24.124  24.632  1.00  0.00    -0.237 OA
ATOM    101  O   UNL A   1      53.483  25.865  22.882  1.00  0.00    -0.237 OA
ATOM    102  O   UNL A   1      54.698  26.317  24.977  1.00  0.00    -0.744 OA
ENDBRANCH  98  99
ENDBRANCH  66  91
ENDBRANCH  40  41
ENDBRANCH  32  35
ENDBRANCH  30  31
ENDBRANCH  29  30
ENDBRANCH  28  29
ENDBRANCH   3  28
TORSDOF 19
ENDMDL
MODEL 3
REMARK VINA RESULT:     -11.2      6.717      8.923
REMARK SMILES O=C(CCCNC(=O)[C@@H]1CCCN(S(=O)(=O)c2ccc(F)cc2)C1)NCCCNC(=O)c1ccc(-c2c3nc(c(-c4c(F)cc(S(=O)(=O)[O-])cc4F)c4ccc([nH]4)c(-c4c(F)cc(S(=O)(=O)[O-])cc4F)c4nc(c(-c5c(F)cc(S(=O)(=O)[O-])cc5F)c5ccc2[nH]5)C=C4)C=C3)cc1
REMARK SMILES IDX 1 1 2 2 25 3 3 5 4 6 5 7 6 8 7 9 8 11 9 12 10 13 24 14 11 15
REMARK SMILES IDX 13 16 12 17 14 18 15 19 16 20 17 21 18 22 23 23 19 24 22 25
REMARK SMILES IDX 20 26 21 27 26 28 27 29 28 30 29 31 30 32 31 34 32 35 33 36
REMARK SMILES IDX 97 37 34 38 96 39 35 40 36 41 37 42 90 43 38 44 95 45 89 46
REMARK SMILES IDX 91 47 39 48 94 49 88 50 87 51 40 53 74 54 53 55 73 56 54 57
REMARK SMILES IDX 57 58 72 59 92 60 55 61 56 62 71 64 93 65 58 66 41 67 42 68
REMARK SMILES IDX 51 69 43 70 44 71 50 72 52 73 45 74 46 75 47 76 48 77 49 78
REMARK SMILES IDX 75 79 76 80 85 81 77 82 78 83 84 84 86 85 79 86 80 87 81 88
REMARK SMILES IDX 82 89 83 90 59 91 60 92 69 93 61 94 62 95 68 96 70 97 63 98
REMARK SMILES IDX 64 99 65 100 66 101 67 102
REMARK H PARENT 25 4 6 10 29 33 91 52 57 63
REMARK Flexibility Score: inf
ROOT
ATOM      1  O   UNL A   1      38.810  24.642  26.880  1.00  0.00    -0.275 OA
ATOM      2  C   UNL A   1      38.129  23.716  26.455  1.00  0.00     0.220 C 
ATOM      3  N   UNL A   1      38.600  22.438  26.256  1.00  0.00    -0.356 N 
ATOM      4  H   UNL A   1      37.978  21.752  25.923  1.00  0.00     0.163 HD
ENDROOT
BRANCH   2   5
ATOM      5  C   UNL A   1      36.684  23.907  26.044  1.00  0.00     0.102 C 
BRANCH   5   6
ATOM      6  C   UNL A   1      36.124  22.674  25.329  1.00  0.00     0.031 C 
BRANCH   6   7
ATOM      7  C   UNL A   1      35.161  21.826  26.160  1.00  0.00     0.116 C 
BRANCH   7   8
ATOM      8  N   UNL A   1      34.167  22.629  26.842  1.00  0.00    -0.356 N 
ATOM      9  C   UNL A   1      32.822  22.552  26.911  1.00  0.00     0.224 C 
ATOM     10  H   UNL A   1      34.547  23.377  27.356  1.00  0.00     0.163 HD
ATOM     11  O   UNL A   1      32.347  22.905  28.000  1.00  0.00    -0.275 OA
BRANCH   9  12
ATOM     12  C   UNL A   1      31.874  22.226  25.765  1.00  0.00     0.093 C 
ATOM     13  C   UNL A   1      32.010  20.966  24.919  1.00  0.00     0.016 C 
ATOM     14  C   UNL A   1      31.725  23.492  24.906  1.00  0.00     0.116 C 
ATOM     15  C   UNL A   1      32.934  21.122  23.712  1.00  0.00     0.018 C 
ATOM     16  N   UNL A   1      32.763  23.562  23.816  1.00  0.00    -0.197 NA
ATOM     17  C   UNL A   1      32.635  22.386  22.918  1.00  0.00     0.102 C 
BRANCH  16  18
ATOM     18  S   UNL A   1      32.697  25.095  23.023  1.00  0.00     0.243 S 
ATOM     19  O   UNL A   1      33.929  25.241  22.272  1.00  0.00    -0.207 OA
ATOM     20  O   UNL A   1      31.410  25.204  22.377  1.00  0.00    -0.207 OA
BRANCH  18  21
ATOM     21  C   UNL A   1      32.731  26.300  24.335  1.00  0.00     0.082 A 
ATOM     22  C   UNL A   1      31.569  27.028  24.629  1.00  0.00     0.025 A 
ATOM     23  C   UNL A   1      33.858  26.401  25.160  1.00  0.00     0.025 A 
ATOM     24  C   UNL A   1      31.552  27.894  25.722  1.00  0.00     0.040 A 
ATOM     25  C   UNL A   1      33.827  27.256  26.265  1.00  0.00     0.040 A 
ATOM     26  C   UNL A   1      32.678  27.997  26.533  1.00  0.00     0.123 A 
ATOM     27  F   UNL A   1      32.648  28.810  27.597  1.00  0.00    -0.207 F 
ENDBRANCH  18  21
ENDBRANCH  16  18
ENDBRANCH   9  12
ENDBRANCH   7   8
ENDBRANCH   6   7
ENDBRANCH   5   6
ENDBRANCH   2   5
BRANCH   3  28
ATOM     28  C   UNL A   1      39.974  22.061  26.520  1.00  0.00     0.117 C 
BRANCH  28  29
ATOM     29  C   UNL A   1      40.200  20.559  26.387  1.00  0.00     0.042 C 
BRANCH  29  30
ATOM     30  C   UNL A   1      41.550  20.057  26.896  1.00  0.00     0.118 C 
BRANCH  30  31
ATOM     31  N   UNL A   1      42.347  19.399  25.872  1.00  0.00    -0.352 N 
ATOM     32  C   UNL A   1      43.412  19.894  25.152  1.00  0.00     0.251 C 
ATOM     33  H   UNL A   1      42.091  18.471  25.666  1.00  0.00     0.163 HD
ATOM     34  O   UNL A   1      43.898  19.223  24.246  1.00  0.00    -0.269 OA
BRANCH  32  35
ATOM     35  C   UNL A   1      43.940  21.246  25.443  1.00  0.00     0.039 A 
ATOM     36  C   UNL A   1      43.437  22.334  24.725  1.00  0.00     0.014 A 
ATOM     37  C   UNL A   1      44.913  21.445  26.426  1.00  0.00     0.014 A 
ATOM     38  C   UNL A   1      43.849  23.631  25.047  1.00  0.00     0.010 A 
ATOM     39  C   UNL A   1      45.278  22.742  26.786  1.00  0.00     0.010 A 
ATOM     40  C   UNL A   1      44.743  23.849  26.107  1.00  0.00    -0.014 A 
BRANCH  40  41
ATOM     41  C   UNL A   1      45.125  25.219  26.538  1.00  0.00     0.031 A 
ATOM     42  C   UNL A   1      44.080  26.161  27.073  1.00  0.00     0.074 A 
ATOM     43  C   UNL A   1      46.395  25.647  26.378  1.00  0.00     0.049 A 
ATOM     44  N   UNL A   1      44.182  27.433  27.355  1.00  0.00    -0.248 NA
ATOM     45  C   UNL A   1      42.738  25.600  27.297  1.00  0.00     0.031 C 
ATOM     46  C   UNL A   1      47.499  24.840  25.857  1.00  0.00     0.029 A 
ATOM     47  N   UNL A   1      46.966  26.871  26.622  1.00  0.00    -0.354 N 
ATOM     48  C   UNL A   1      42.917  27.832  27.769  1.00  0.00     0.074 A 
ATOM     49  C   UNL A   1      42.055  26.673  27.670  1.00  0.00     0.031 C 
ATOM     50  C   UNL A   1      48.616  25.585  25.835  1.00  0.00     0.029 A 
ATOM     51  C   UNL A   1      48.301  26.934  26.296  1.00  0.00     0.049 A 
ATOM     52  H   UNL A   1      46.466  27.633  26.997  1.00  0.00     0.167 HD
ATOM     53  C   UNL A   1      42.514  29.048  28.205  1.00  0.00     0.037 A 
ATOM     54  C   UNL A   1      49.169  27.965  26.345  1.00  0.00     0.037 A 
ATOM     55  C   UNL A   1      43.379  30.191  28.334  1.00  0.00     0.049 A 
ATOM     56  C   UNL A   1      48.696  29.310  26.821  1.00  0.00     0.074 A 
ATOM     57  C   UNL A   1      43.067  31.456  28.799  1.00  0.00     0.029 A 
ATOM     58  N   UNL A   1      44.726  30.207  28.006  1.00  0.00    -0.354 N 
ATOM     59  N   UNL A   1      47.498  29.666  27.217  1.00  0.00    -0.248 NA
ATOM     60  C   UNL A   1      49.688  30.395  26.851  1.00  0.00     0.031 C 
ATOM     61  C   UNL A   1      44.219  32.246  28.728  1.00  0.00     0.029 A 
ATOM     62  C   UNL A   1      45.258  31.461  28.252  1.00  0.00     0.049 A 
ATOM     63  H   UNL A   1      45.231  29.440  27.650  1.00  0.00     0.167 HD
ATOM     64  C   UNL A   1      47.597  31.009  27.566  1.00  0.00     0.074 A 
ATOM     65  C   UNL A   1      48.971  31.401  27.337  1.00  0.00     0.031 C 
ATOM     66  C   UNL A   1      46.633  31.836  28.034  1.00  0.00     0.037 A 
BRANCH  53  67
ATOM     67  C   UNL A   1      41.070  29.209  28.588  1.00  0.00     0.058 A 
ATOM     68  C   UNL A   1      40.082  29.367  27.605  1.00  0.00     0.135 A 
ATOM     69  C   UNL A   1      40.671  29.255  29.934  1.00  0.00     0.135 A 
ATOM     70  F   UNL A   1      40.409  29.326  26.304  1.00  0.00    -0.206 F 
ATOM     71  C   UNL A   1      38.749  29.577  27.942  1.00  0.00     0.059 A 
ATOM     72  C   UNL A   1      39.340  29.441  30.293  1.00  0.00     0.059 A 
ATOM     73  F   UNL A   1      41.575  29.086  30.912  1.00  0.00    -0.206 F 
ATOM     74  C   UNL A   1      38.387  29.614  29.289  1.00  0.00     0.060 A 
BRANCH  74  75
ATOM     75  S   UNL A   1      36.647  29.842  29.714  1.00  0.00     0.124 S 
ATOM     76  O   UNL A   1      36.575  31.285  29.915  1.00  0.00    -0.237 OA
ATOM     77  O   UNL A   1      35.969  29.330  28.527  1.00  0.00    -0.237 OA
ATOM     78  O   UNL A   1      36.485  29.029  30.915  1.00  0.00    -0.744 OA
ENDBRANCH  74  75
ENDBRANCH  53  67
BRANCH  54  79
ATOM     79  C   UNL A   1      50.585  27.750  25.946  1.00  0.00     0.058 A 
ATOM     80  C   UNL A   1      50.984  27.804  24.603  1.00  0.00     0.135 A 
ATOM     81  C   UNL A   1      51.560  27.446  26.908  1.00  0.00     0.135 A 
ATOM     82  F   UNL A   1      50.088  28.085  23.645  1.00  0.00    -0.206 F 
ATOM     83  C   UNL A   1      52.295  27.539  24.224  1.00  0.00     0.059 A 
ATOM     84  C   UNL A   1      52.883  27.196  26.556  1.00  0.00     0.059 A 
ATOM     85  F   UNL A   1      51.226  27.397  28.207  1.00  0.00    -0.206 F 
ATOM     86  C   UNL A   1      53.236  27.227  25.207  1.00  0.00     0.060 A 
BRANCH  86  87
ATOM     87  S   UNL A   1      54.928  26.862  24.693  1.00  0.00     0.124 S 
ATOM     88  O   UNL A   1      54.996  27.552  23.409  1.00  0.00    -0.237 OA
ATOM     89  O   UNL A   1      55.712  27.450  25.774  1.00  0.00    -0.237 OA
ATOM     90  O   UNL A   1      54.953  25.404  24.625  1.00  0.00    -0.744 OA
ENDBRANCH  86  87
ENDBRANCH  54  79
BRANCH  66  91
ATOM     91  C   UNL A   1      47.018  33.249  28.367  1.00  0.00     0.058 A 
ATOM     92  C   UNL A   1      46.968  34.248  27.382  1.00  0.00     0.135 A 
ATOM     93  C   UNL A   1      47.537  33.590  29.625  1.00  0.00     0.135 A 
ATOM     94  F   UNL A   1      46.481  33.971  26.162  1.00  0.00    -0.206 F 
ATOM     95  C   UNL A   1      47.448  35.531  27.624  1.00  0.00     0.059 A 
ATOM     96  C   UNL A   1      48.005  34.872  29.895  1.00  0.00     0.059 A 
ATOM     97  F   UNL A   1      47.593  32.672  30.603  1.00  0.00    -0.206 F 
ATOM     98  C   UNL A   1      47.976  35.830  28.881  1.00  0.00     0.060 A 
BRANCH  98  99
ATOM     99  S   UNL A   1      48.618  37.493  29.172  1.00  0.00     0.124 S 
ATOM    100  O   UNL A   1      49.682  37.579  28.178  1.00  0.00    -0.237 OA
ATOM    101  O   UNL A   1      47.445  38.326  28.920  1.00  0.00    -0.237 OA
ATOM    102  O   UNL A   1      49.057  37.447  30.563  1.00  0.00    -0.744 OA
ENDBRANCH  98  99
ENDBRANCH  66  91
ENDBRANCH  40  41
ENDBRANCH  32  35
ENDBRANCH  30  31
ENDBRANCH  29  30
ENDBRANCH  28  29
ENDBRANCH   3  28
TORSDOF 19
ENDMDL
