MODEL 1
REMARK VINA RESULT:     -14.2      0.000      0.000
REMARK SMILES Cc1ccc(-c2c(C(=O)NCCCNC(=O)c3ccc(-c4c5nc(c(-c6c(F)cc(S(=O)(=O)[O-])cc6F)c6ccc([nH]6)c(-c6c(F)cc(S(=O)(=O)[O-])cc6F)c6nc(c(-c7c(F)cc(S(=O)(=O)[O-])cc7F)c7ccc4[nH]7)C=C6)C=C5)cc3)nnn2Cc2c(F)cccc2Cl)cc1
REMARK SMILES IDX 12 1 11 2 10 3 8 4 9 5 7 7 6 8 85 9 83 10 84 11 5 12 1 13
REMARK SMILES IDX 2 14 3 15 96 16 4 17 95 18 86 19 87 20 88 21 93 22 89 23
REMARK SMILES IDX 90 24 92 25 94 26 91 27 13 28 14 29 15 30 16 32 17 33 18 34
REMARK SMILES IDX 82 35 19 36 81 37 20 38 21 39 22 40 75 41 23 42 80 43 74 44
REMARK SMILES IDX 76 45 24 46 79 47 73 48 72 49 25 51 59 52 38 53 58 54 39 55
REMARK SMILES IDX 42 56 57 57 77 58 40 59 41 60 56 62 78 63 43 64 26 65 27 66
REMARK SMILES IDX 36 67 28 68 29 69 35 70 37 71 30 72 31 73 32 74 33 75 34 76
REMARK SMILES IDX 60 77 61 78 70 79 62 80 63 81 69 82 71 83 64 84 65 85 66 86
REMARK SMILES IDX 67 87 68 88 44 89 45 90 54 91 46 92 47 93 53 94 55 95 48 96
REMARK SMILES IDX 49 97 50 98 51 99 52 100
REMARK H PARENT 10 6 14 31 76 50 42 61
REMARK Flexibility Score: inf
ROOT
ATOM      1  C   UNL A   1      33.494  30.143  26.236  1.00  0.00     0.042 C 
ENDROOT
BRANCH   1   2
ATOM      2  C   UNL A   1      33.195  28.786  25.619  1.00  0.00     0.118 C 
BRANCH   2   3
ATOM      3  N   UNL A   1      33.623  28.751  24.239  1.00  0.00    -0.351 N 
ATOM      4  C   UNL A   1      33.594  27.820  23.239  1.00  0.00     0.274 C 
ATOM      5  O   UNL A   1      34.121  28.222  22.193  1.00  0.00    -0.267 OA
ATOM      6  H   UNL A   1      34.031  29.600  23.951  1.00  0.00     0.163 HD
BRANCH   4   7
ATOM      7  C   UNL A   1      33.000  26.473  23.277  1.00  0.00     0.178 A 
ATOM      8  C   UNL A   1      33.367  25.166  23.628  1.00  0.00     0.102 A 
ATOM      9  N   UNL A   1      32.197  24.449  23.430  1.00  0.00    -0.239 N 
ATOM     10  N   UNL A   1      31.695  26.417  22.785  1.00  0.00    -0.124 NA
ATOM     11  N   UNL A   1      31.243  25.186  22.854  1.00  0.00    -0.066 NA
BRANCH   8  12
ATOM     12  C   UNL A   1      34.576  24.489  24.087  1.00  0.00     0.002 A 
ATOM     13  C   UNL A   1      37.959  22.243  25.560  1.00  0.00     0.044 C 
ATOM     14  C   UNL A   1      36.860  23.118  25.025  1.00  0.00    -0.051 A 
ATOM     15  C   UNL A   1      36.434  22.967  23.701  1.00  0.00     0.004 A 
ATOM     16  C   UNL A   1      36.174  24.009  25.860  1.00  0.00     0.004 A 
ATOM     17  C   UNL A   1      35.315  23.665  23.231  1.00  0.00     0.011 A 
ATOM     18  C   UNL A   1      35.043  24.694  25.394  1.00  0.00     0.011 A 
ENDBRANCH   8  12
BRANCH   9  19
ATOM     19  C   UNL A   1      31.894  23.042  23.672  1.00  0.00     0.187 C 
BRANCH  19  20
ATOM     20  C   UNL A   1      32.405  22.465  24.967  1.00  0.00     0.028 A 
ATOM     21  C   UNL A   1      33.221  21.329  24.877  1.00  0.00     0.129 A 
ATOM     22  C   UNL A   1      32.095  22.930  26.254  1.00  0.00     0.049 A 
ATOM     23  F   UNL A   1      33.467  20.783  23.676  1.00  0.00    -0.207 F 
ATOM     24  C   UNL A   1      33.782  20.723  25.998  1.00  0.00     0.040 A 
ATOM     25  C   UNL A   1      32.687  22.350  27.385  1.00  0.00     0.021 A 
ATOM     26  Cl  UNL A   1      30.970  24.205  26.553  1.00  0.00    -0.084 Cl
ATOM     27  C   UNL A   1      33.536  21.254  27.258  1.00  0.00     0.005 A 
ENDBRANCH  19  20
ENDBRANCH   9  19
ENDBRANCH   4   7
ENDBRANCH   2   3
ENDBRANCH   1   2
BRANCH   1  28
ATOM     28  C   UNL A   1      34.172  30.084  27.590  1.00  0.00     0.118 C 
BRANCH  28  29
ATOM     29  N   UNL A   1      35.018  31.248  27.858  1.00  0.00    -0.352 N 
ATOM     30  C   UNL A   1      36.363  31.257  28.184  1.00  0.00     0.251 C 
ATOM     31  H   UNL A   1      34.578  32.127  27.799  1.00  0.00     0.163 HD
ATOM     32  O   UNL A   1      36.963  32.271  28.492  1.00  0.00    -0.269 OA
BRANCH  30  33
ATOM     33  C   UNL A   1      37.050  29.953  28.083  1.00  0.00     0.039 A 
ATOM     34  C   UNL A   1      37.144  29.193  29.252  1.00  0.00     0.014 A 
ATOM     35  C   UNL A   1      37.921  29.764  27.015  1.00  0.00     0.014 A 
ATOM     36  C   UNL A   1      38.258  28.381  29.440  1.00  0.00     0.010 A 
ATOM     37  C   UNL A   1      39.078  29.048  27.253  1.00  0.00     0.010 A 
ATOM     38  C   UNL A   1      39.273  28.400  28.484  1.00  0.00    -0.014 A 
BRANCH  38  39
ATOM     39  C   UNL A   1      40.608  27.849  28.709  1.00  0.00     0.031 A 
ATOM     40  C   UNL A   1      40.882  26.434  28.363  1.00  0.00     0.074 A 
ATOM     41  C   UNL A   1      41.618  28.623  29.168  1.00  0.00     0.049 A 
ATOM     42  N   UNL A   1      41.906  25.759  28.769  1.00  0.00    -0.248 NA
ATOM     43  C   UNL A   1      39.946  25.628  27.589  1.00  0.00     0.031 C 
ATOM     44  C   UNL A   1      43.047  28.328  29.089  1.00  0.00     0.029 A 
ATOM     45  N   UNL A   1      41.548  29.752  29.982  1.00  0.00    -0.354 N 
ATOM     46  C   UNL A   1      41.919  24.556  28.099  1.00  0.00     0.074 A 
ATOM     47  C   UNL A   1      40.626  24.486  27.467  1.00  0.00     0.031 C 
ATOM     48  C   UNL A   1      43.702  29.082  29.983  1.00  0.00     0.029 A 
ATOM     49  C   UNL A   1      42.709  29.784  30.774  1.00  0.00     0.049 A 
ATOM     50  H   UNL A   1      40.816  30.409  29.999  1.00  0.00     0.167 HD
ATOM     51  C   UNL A   1      43.078  23.833  28.063  1.00  0.00     0.037 A 
ATOM     52  C   UNL A   1      42.651  29.749  32.140  1.00  0.00     0.037 A 
ATOM     53  C   UNL A   1      44.055  24.384  29.010  1.00  0.00     0.049 A 
ATOM     54  C   UNL A   1      43.320  28.545  32.760  1.00  0.00     0.074 A 
ATOM     55  C   UNL A   1      45.175  25.185  28.861  1.00  0.00     0.029 A 
ATOM     56  N   UNL A   1      43.781  24.346  30.375  1.00  0.00    -0.354 N 
ATOM     57  N   UNL A   1      43.666  27.478  32.094  1.00  0.00    -0.248 NA
ATOM     58  C   UNL A   1      43.635  28.434  34.183  1.00  0.00     0.031 C 
ATOM     59  C   UNL A   1      45.538  25.678  30.141  1.00  0.00     0.029 A 
ATOM     60  C   UNL A   1      44.653  25.160  31.072  1.00  0.00     0.049 A 
ATOM     61  H   UNL A   1      43.065  23.811  30.788  1.00  0.00     0.167 HD
ATOM     62  C   UNL A   1      44.184  26.542  32.952  1.00  0.00     0.074 A 
ATOM     63  C   UNL A   1      44.176  27.204  34.244  1.00  0.00     0.031 C 
ATOM     64  C   UNL A   1      44.556  25.299  32.521  1.00  0.00     0.037 A 
BRANCH  51  65
ATOM     65  C   UNL A   1      43.443  22.807  26.989  1.00  0.00     0.058 A 
ATOM     66  C   UNL A   1      42.745  21.577  26.906  1.00  0.00     0.135 A 
ATOM     67  C   UNL A   1      44.521  22.903  26.084  1.00  0.00     0.135 A 
ATOM     68  F   UNL A   1      41.639  21.350  27.630  1.00  0.00    -0.206 F 
ATOM     69  C   UNL A   1      43.147  20.514  26.088  1.00  0.00     0.059 A 
ATOM     70  C   UNL A   1      44.959  21.849  25.277  1.00  0.00     0.059 A 
ATOM     71  F   UNL A   1      45.200  24.033  25.892  1.00  0.00    -0.206 F 
ATOM     72  C   UNL A   1      44.279  20.647  25.298  1.00  0.00     0.060 A 
BRANCH  72  73
ATOM     73  S   UNL A   1      44.844  19.259  24.300  1.00  0.00     0.124 S 
ATOM     74  O   UNL A   1      46.290  19.311  24.495  1.00  0.00    -0.237 OA
ATOM     75  O   UNL A   1      44.155  18.133  24.922  1.00  0.00    -0.237 OA
ATOM     76  O   UNL A   1      44.388  19.599  22.954  1.00  0.00    -0.744 OA
ENDBRANCH  72  73
ENDBRANCH  51  65
BRANCH  52  77
ATOM     77  C   UNL A   1      41.482  30.480  32.695  1.00  0.00     0.058 A 
ATOM     78  C   UNL A   1      40.364  29.710  33.063  1.00  0.00     0.135 A 
ATOM     79  C   UNL A   1      41.631  31.741  33.288  1.00  0.00     0.135 A 
ATOM     80  F   UNL A   1      40.165  28.504  32.504  1.00  0.00    -0.206 F 
ATOM     81  C   UNL A   1      39.535  30.086  34.112  1.00  0.00     0.059 A 
ATOM     82  C   UNL A   1      40.806  32.143  34.341  1.00  0.00     0.059 A 
ATOM     83  F   UNL A   1      42.675  32.520  32.969  1.00  0.00    -0.206 F 
ATOM     84  C   UNL A   1      39.815  31.268  34.795  1.00  0.00     0.060 A 
BRANCH  84  85
ATOM     85  S   UNL A   1      39.022  31.511  36.402  1.00  0.00     0.124 S 
ATOM     86  O   UNL A   1      40.156  31.836  37.259  1.00  0.00    -0.237 OA
ATOM     87  O   UNL A   1      38.111  32.618  36.111  1.00  0.00    -0.237 OA
ATOM     88  O   UNL A   1      38.383  30.225  36.658  1.00  0.00    -0.744 OA
ENDBRANCH  84  85
ENDBRANCH  52  77
BRANCH  64  89
ATOM     89  C   UNL A   1      44.945  24.123  33.396  1.00  0.00     0.058 A 
ATOM     90  C   UNL A   1      44.139  22.992  33.613  1.00  0.00     0.135 A 
ATOM     91  C   UNL A   1      46.248  24.049  33.950  1.00  0.00     0.135 A 
ATOM     92  F   UNL A   1      42.929  22.876  33.048  1.00  0.00    -0.206 F 
ATOM     93  C   UNL A   1      44.562  21.901  34.380  1.00  0.00     0.059 A 
ATOM     94  C   UNL A   1      46.710  22.947  34.669  1.00  0.00     0.059 A 
ATOM     95  F   UNL A   1      47.132  25.046  33.799  1.00  0.00    -0.206 F 
ATOM     96  C   UNL A   1      45.850  21.886  34.904  1.00  0.00     0.060 A 
BRANCH  96  97
ATOM     97  S   UNL A   1      46.434  20.456  35.834  1.00  0.00     0.124 S 
ATOM     98  O   UNL A   1      47.873  20.523  35.599  1.00  0.00    -0.237 OA
ATOM     99  O   UNL A   1      46.004  20.755  37.197  1.00  0.00    -0.237 OA
ATOM    100  O   UNL A   1      45.738  19.342  35.198  1.00  0.00    -0.744 OA
ENDBRANCH  96  97
ENDBRANCH  64  89
ENDBRANCH  38  39
ENDBRANCH  30  33
ENDBRANCH  28  29
ENDBRANCH   1  28
TORSDOF 16
ENDMDL
MODEL 2
REMARK VINA RESULT:     -14.0      1.342      1.880
REMARK SMILES Cc1ccc(-c2c(C(=O)NCCCNC(=O)c3ccc(-c4c5nc(c(-c6c(F)cc(S(=O)(=O)[O-])cc6F)c6ccc([nH]6)c(-c6c(F)cc(S(=O)(=O)[O-])cc6F)c6nc(c(-c7c(F)cc(S(=O)(=O)[O-])cc7F)c7ccc4[nH]7)C=C6)C=C5)cc3)nnn2Cc2c(F)cccc2Cl)cc1
REMARK SMILES IDX 12 1 11 2 10 3 8 4 9 5 7 7 6 8 85 9 83 10 84 11 5 12 1 13
REMARK SMILES IDX 2 14 3 15 96 16 4 17 95 18 86 19 87 20 88 21 93 22 89 23
REMARK SMILES IDX 90 24 92 25 94 26 91 27 13 28 14 29 15 30 16 32 17 33 18 34
REMARK SMILES IDX 82 35 19 36 81 37 20 38 21 39 22 40 75 41 23 42 80 43 74 44
REMARK SMILES IDX 76 45 24 46 79 47 73 48 72 49 25 51 59 52 38 53 58 54 39 55
REMARK SMILES IDX 42 56 57 57 77 58 40 59 41 60 56 62 78 63 43 64 26 65 27 66
REMARK SMILES IDX 36 67 28 68 29 69 35 70 37 71 30 72 31 73 32 74 33 75 34 76
REMARK SMILES IDX 60 77 61 78 70 79 62 80 63 81 69 82 71 83 64 84 65 85 66 86
REMARK SMILES IDX 67 87 68 88 44 89 45 90 54 91 46 92 47 93 53 94 55 95 48 96
REMARK SMILES IDX 49 97 50 98 51 99 52 100
REMARK H PARENT 10 6 14 31 76 50 42 61
REMARK Flexibility Score: inf
ROOT
ATOM      1  C   UNL A   1      32.941  30.486  27.254  1.00  0.00     0.042 C 
ENDROOT
BRANCH   1   2
ATOM      2  C   UNL A   1      32.192  30.184  25.967  1.00  0.00     0.118 C 
BRANCH   2   3
ATOM      3  N   UNL A   1      33.081  29.610  24.984  1.00  0.00    -0.351 N 
ATOM      4  C   UNL A   1      33.327  28.348  24.518  1.00  0.00     0.274 C 
ATOM      5  O   UNL A   1      34.230  28.317  23.671  1.00  0.00    -0.267 OA
ATOM      6  H   UNL A   1      33.643  30.289  24.544  1.00  0.00     0.163 HD
BRANCH   4   7
ATOM      7  C   UNL A   1      32.636  27.101  24.885  1.00  0.00     0.178 A 
ATOM      8  C   UNL A   1      32.936  25.744  25.074  1.00  0.00     0.102 A 
ATOM      9  N   UNL A   1      31.722  25.209  25.479  1.00  0.00    -0.239 N 
ATOM     10  N   UNL A   1      31.261  27.249  25.067  1.00  0.00    -0.124 NA
ATOM     11  N   UNL A   1      30.724  26.095  25.389  1.00  0.00    -0.066 NA
BRANCH   8  12
ATOM     12  C   UNL A   1      34.108  24.886  24.938  1.00  0.00     0.002 A 
ATOM     13  C   UNL A   1      37.383  22.088  24.607  1.00  0.00     0.044 C 
ATOM     14  C   UNL A   1      36.327  23.153  24.713  1.00  0.00    -0.051 A 
ATOM     15  C   UNL A   1      35.592  23.517  23.580  1.00  0.00     0.004 A 
ATOM     16  C   UNL A   1      35.986  23.712  25.951  1.00  0.00     0.004 A 
ATOM     17  C   UNL A   1      34.506  24.393  23.689  1.00  0.00     0.011 A 
ATOM     18  C   UNL A   1      34.888  24.576  26.063  1.00  0.00     0.011 A 
ENDBRANCH   8  12
BRANCH   9  19
ATOM     19  C   UNL A   1      31.372  23.854  25.889  1.00  0.00     0.187 C 
BRANCH  19  20
ATOM     20  C   UNL A   1      31.862  22.742  24.998  1.00  0.00     0.028 A 
ATOM     21  C   UNL A   1      31.375  22.721  23.683  1.00  0.00     0.129 A 
ATOM     22  C   UNL A   1      32.720  21.698  25.379  1.00  0.00     0.049 A 
ATOM     23  F   UNL A   1      30.474  23.638  23.296  1.00  0.00    -0.207 F 
ATOM     24  C   UNL A   1      31.778  21.766  22.754  1.00  0.00     0.040 A 
ATOM     25  C   UNL A   1      33.161  20.756  24.438  1.00  0.00     0.021 A 
ATOM     26  Cl  UNL A   1      33.272  21.473  26.998  1.00  0.00    -0.084 Cl
ATOM     27  C   UNL A   1      32.698  20.794  23.125  1.00  0.00     0.005 A 
ENDBRANCH  19  20
ENDBRANCH   9  19
ENDBRANCH   4   7
ENDBRANCH   2   3
ENDBRANCH   1   2
BRANCH   1  28
ATOM     28  C   UNL A   1      34.432  30.218  27.194  1.00  0.00     0.118 C 
BRANCH  28  29
ATOM     29  N   UNL A   1      35.235  31.340  27.682  1.00  0.00    -0.352 N 
ATOM     30  C   UNL A   1      36.472  31.286  28.303  1.00  0.00     0.251 C 
ATOM     31  H   UNL A   1      34.851  32.238  27.552  1.00  0.00     0.163 HD
ATOM     32  O   UNL A   1      37.021  32.267  28.769  1.00  0.00    -0.269 OA
BRANCH  30  33
ATOM     33  C   UNL A   1      37.117  29.958  28.318  1.00  0.00     0.039 A 
ATOM     34  C   UNL A   1      37.241  29.326  29.559  1.00  0.00     0.014 A 
ATOM     35  C   UNL A   1      37.936  29.626  27.243  1.00  0.00     0.014 A 
ATOM     36  C   UNL A   1      38.340  28.504  29.790  1.00  0.00     0.010 A 
ATOM     37  C   UNL A   1      39.082  28.904  27.512  1.00  0.00     0.010 A 
ATOM     38  C   UNL A   1      39.313  28.387  28.798  1.00  0.00    -0.014 A 
BRANCH  38  39
ATOM     39  C   UNL A   1      40.641  27.822  29.029  1.00  0.00     0.031 A 
ATOM     40  C   UNL A   1      40.918  26.422  28.628  1.00  0.00     0.074 A 
ATOM     41  C   UNL A   1      41.643  28.571  29.543  1.00  0.00     0.049 A 
ATOM     42  N   UNL A   1      41.930  25.726  29.026  1.00  0.00    -0.248 NA
ATOM     43  C   UNL A   1      39.997  25.654  27.799  1.00  0.00     0.031 C 
ATOM     44  C   UNL A   1      43.072  28.274  29.484  1.00  0.00     0.029 A 
ATOM     45  N   UNL A   1      41.557  29.664  30.404  1.00  0.00    -0.354 N 
ATOM     46  C   UNL A   1      41.955  24.552  28.305  1.00  0.00     0.074 A 
ATOM     47  C   UNL A   1      40.676  24.516  27.643  1.00  0.00     0.031 C 
ATOM     48  C   UNL A   1      43.709  28.986  30.424  1.00  0.00     0.029 A 
ATOM     49  C   UNL A   1      42.700  29.657  31.222  1.00  0.00     0.049 A 
ATOM     50  H   UNL A   1      40.828  30.323  30.433  1.00  0.00     0.167 HD
ATOM     51  C   UNL A   1      43.111  23.827  28.264  1.00  0.00     0.037 A 
ATOM     52  C   UNL A   1      42.611  29.563  32.583  1.00  0.00     0.037 A 
ATOM     53  C   UNL A   1      44.069  24.332  29.255  1.00  0.00     0.049 A 
ATOM     54  C   UNL A   1      43.263  28.330  33.166  1.00  0.00     0.074 A 
ATOM     55  C   UNL A   1      45.195  25.134  29.167  1.00  0.00     0.029 A 
ATOM     56  N   UNL A   1      43.764  24.236  30.611  1.00  0.00    -0.354 N 
ATOM     57  N   UNL A   1      43.620  27.292  32.462  1.00  0.00    -0.248 NA
ATOM     58  C   UNL A   1      43.545  28.157  34.589  1.00  0.00     0.031 C 
ATOM     59  C   UNL A   1      45.530  25.570  30.474  1.00  0.00     0.029 A 
ATOM     60  C   UNL A   1      44.623  25.017  31.362  1.00  0.00     0.049 A 
ATOM     61  H   UNL A   1      43.038  23.687  30.984  1.00  0.00     0.167 HD
ATOM     62  C   UNL A   1      44.116  26.317  33.290  1.00  0.00     0.074 A 
ATOM     63  C   UNL A   1      44.081  26.923  34.608  1.00  0.00     0.031 C 
ATOM     64  C   UNL A   1      44.493  25.092  32.813  1.00  0.00     0.037 A 
BRANCH  51  65
ATOM     65  C   UNL A   1      43.497  22.848  27.155  1.00  0.00     0.058 A 
ATOM     66  C   UNL A   1      42.800  21.624  27.006  1.00  0.00     0.135 A 
ATOM     67  C   UNL A   1      44.594  22.979  26.277  1.00  0.00     0.135 A 
ATOM     68  F   UNL A   1      41.679  21.368  27.696  1.00  0.00    -0.206 F 
ATOM     69  C   UNL A   1      43.218  20.596  26.151  1.00  0.00     0.059 A 
ATOM     70  C   UNL A   1      45.047  21.960  25.435  1.00  0.00     0.059 A 
ATOM     71  F   UNL A   1      45.278  24.116  26.147  1.00  0.00    -0.206 F 
ATOM     72  C   UNL A   1      44.366  20.760  25.391  1.00  0.00     0.060 A 
BRANCH  72  73
ATOM     73  S   UNL A   1      44.949  19.414  24.346  1.00  0.00     0.124 S 
ATOM     74  O   UNL A   1      46.390  19.451  24.578  1.00  0.00    -0.237 OA
ATOM     75  O   UNL A   1      44.242  18.266  24.901  1.00  0.00    -0.237 OA
ATOM     76  O   UNL A   1      44.528  19.816  23.005  1.00  0.00    -0.744 OA
ENDBRANCH  72  73
ENDBRANCH  51  65
BRANCH  52  77
ATOM     77  C   UNL A   1      41.432  30.274  33.144  1.00  0.00     0.058 A 
ATOM     78  C   UNL A   1      41.533  31.670  33.279  1.00  0.00     0.135 A 
ATOM     79  C   UNL A   1      40.149  29.714  33.074  1.00  0.00     0.135 A 
ATOM     80  F   UNL A   1      42.741  32.250  33.374  1.00  0.00    -0.206 F 
ATOM     81  C   UNL A   1      40.422  32.494  33.156  1.00  0.00     0.059 A 
ATOM     82  C   UNL A   1      39.017  30.524  32.954  1.00  0.00     0.059 A 
ATOM     83  F   UNL A   1      39.995  28.387  32.951  1.00  0.00    -0.206 F 
ATOM     84  C   UNL A   1      39.180  31.910  32.915  1.00  0.00     0.060 A 
BRANCH  84  85
ATOM     85  S   UNL A   1      37.853  32.988  32.323  1.00  0.00     0.124 S 
ATOM     86  O   UNL A   1      38.507  33.714  31.240  1.00  0.00    -0.237 OA
ATOM     87  O   UNL A   1      36.847  32.010  31.912  1.00  0.00    -0.237 OA
ATOM     88  O   UNL A   1      37.514  33.780  33.500  1.00  0.00    -0.744 OA
ENDBRANCH  84  85
ENDBRANCH  52  77
BRANCH  64  89
ATOM     89  C   UNL A   1      44.859  23.878  33.645  1.00  0.00     0.058 A 
ATOM     90  C   UNL A   1      43.951  22.880  34.038  1.00  0.00     0.135 A 
ATOM     91  C   UNL A   1      46.216  23.616  33.963  1.00  0.00     0.135 A 
ATOM     92  F   UNL A   1      42.655  22.940  33.699  1.00  0.00    -0.206 F 
ATOM     93  C   UNL A   1      44.342  21.745  34.754  1.00  0.00     0.059 A 
ATOM     94  C   UNL A   1      46.636  22.464  34.626  1.00  0.00     0.059 A 
ATOM     95  F   UNL A   1      47.193  24.470  33.625  1.00  0.00    -0.206 F 
ATOM     96  C   UNL A   1      45.688  21.543  35.044  1.00  0.00     0.060 A 
BRANCH  96  97
ATOM     97  S   UNL A   1      46.216  20.049  35.904  1.00  0.00     0.124 S 
ATOM     98  O   UNL A   1      45.546  19.012  35.126  1.00  0.00    -0.237 OA
ATOM     99  O   UNL A   1      47.670  20.093  35.773  1.00  0.00    -0.237 OA
ATOM    100  O   UNL A   1      45.712  20.251  37.258  1.00  0.00    -0.744 OA
ENDBRANCH  96  97
ENDBRANCH  64  89
ENDBRANCH  38  39
ENDBRANCH  30  33
ENDBRANCH  28  29
ENDBRANCH   1  28
TORSDOF 16
ENDMDL
MODEL 3
REMARK VINA RESULT:     -13.9      4.915     11.134
REMARK SMILES Cc1ccc(-c2c(C(=O)NCCCNC(=O)c3ccc(-c4c5nc(c(-c6c(F)cc(S(=O)(=O)[O-])cc6F)c6ccc([nH]6)c(-c6c(F)cc(S(=O)(=O)[O-])cc6F)c6nc(c(-c7c(F)cc(S(=O)(=O)[O-])cc7F)c7ccc4[nH]7)C=C6)C=C5)cc3)nnn2Cc2c(F)cccc2Cl)cc1
REMARK SMILES IDX 12 1 11 2 10 3 8 4 9 5 7 7 6 8 85 9 83 10 84 11 5 12 1 13
REMARK SMILES IDX 2 14 3 15 96 16 4 17 95 18 86 19 87 20 88 21 93 22 89 23
REMARK SMILES IDX 90 24 92 25 94 26 91 27 13 28 14 29 15 30 16 32 17 33 18 34
REMARK SMILES IDX 82 35 19 36 81 37 20 38 21 39 22 40 75 41 23 42 80 43 74 44
REMARK SMILES IDX 76 45 24 46 79 47 73 48 72 49 25 51 59 52 38 53 58 54 39 55
REMARK SMILES IDX 42 56 57 57 77 58 40 59 41 60 56 62 78 63 43 64 26 65 27 66
REMARK SMILES IDX 36 67 28 68 29 69 35 70 37 71 30 72 31 73 32 74 33 75 34 76
REMARK SMILES IDX 60 77 61 78 70 79 62 80 63 81 69 82 71 83 64 84 65 85 66 86
REMARK SMILES IDX 67 87 68 88 44 89 45 90 54 91 46 92 47 93 53 94 55 95 48 96
REMARK SMILES IDX 49 97 50 98 51 99 52 100
REMARK H PARENT 10 6 14 31 76 50 42 61
REMARK Flexibility Score: inf
ROOT
ATOM      1  C   UNL A   1      37.843  21.965  25.088  1.00  0.00     0.042 C 
ENDROOT
BRANCH   1   2
ATOM      2  C   UNL A   1      36.649  21.079  25.405  1.00  0.00     0.118 C 
BRANCH   2   3
ATOM      3  N   UNL A   1      35.802  21.704  26.395  1.00  0.00    -0.351 N 
ATOM      4  C   UNL A   1      34.795  22.629  26.365  1.00  0.00     0.274 C 
ATOM      5  O   UNL A   1      34.364  22.904  27.492  1.00  0.00    -0.267 OA
ATOM      6  H   UNL A   1      35.995  21.388  27.308  1.00  0.00     0.163 HD
BRANCH   4   7
ATOM      7  C   UNL A   1      34.190  23.265  25.183  1.00  0.00     0.178 A 
ATOM      8  C   UNL A   1      33.613  24.492  24.823  1.00  0.00     0.102 A 
ATOM      9  N   UNL A   1      33.332  24.321  23.475  1.00  0.00    -0.239 N 
ATOM     10  N   UNL A   1      34.098  22.424  24.074  1.00  0.00    -0.124 NA
ATOM     11  N   UNL A   1      33.548  23.066  23.068  1.00  0.00    -0.066 NA
BRANCH   8  12
ATOM     12  C   UNL A   1      33.279  25.745  25.491  1.00  0.00     0.002 A 
ATOM     13  C   UNL A   1      32.143  29.552  27.186  1.00  0.00     0.044 C 
ATOM     14  C   UNL A   1      32.606  28.208  26.699  1.00  0.00    -0.051 A 
ATOM     15  C   UNL A   1      31.777  27.091  26.852  1.00  0.00     0.004 A 
ATOM     16  C   UNL A   1      33.806  28.069  25.991  1.00  0.00     0.004 A 
ATOM     17  C   UNL A   1      32.123  25.865  26.272  1.00  0.00     0.011 A 
ATOM     18  C   UNL A   1      34.144  26.846  25.396  1.00  0.00     0.011 A 
ENDBRANCH   8  12
BRANCH   9  19
ATOM     19  C   UNL A   1      32.778  25.251  22.497  1.00  0.00     0.187 C 
BRANCH  19  20
ATOM     20  C   UNL A   1      31.560  26.024  22.932  1.00  0.00     0.028 A 
ATOM     21  C   UNL A   1      30.408  25.281  23.228  1.00  0.00     0.129 A 
ATOM     22  C   UNL A   1      31.458  27.421  23.017  1.00  0.00     0.049 A 
ATOM     23  F   UNL A   1      30.420  23.948  23.066  1.00  0.00    -0.207 F 
ATOM     24  C   UNL A   1      29.231  25.875  23.672  1.00  0.00     0.040 A 
ATOM     25  C   UNL A   1      30.289  28.025  23.501  1.00  0.00     0.021 A 
ATOM     26  Cl  UNL A   1      32.720  28.491  22.525  1.00  0.00    -0.084 Cl
ATOM     27  C   UNL A   1      29.179  27.254  23.837  1.00  0.00     0.005 A 
ENDBRANCH  19  20
ENDBRANCH   9  19
ENDBRANCH   4   7
ENDBRANCH   2   3
ENDBRANCH   1   2
BRANCH   1  28
ATOM     28  C   UNL A   1      38.131  23.031  26.126  1.00  0.00     0.118 C 
BRANCH  28  29
ATOM     29  N   UNL A   1      39.403  22.825  26.821  1.00  0.00    -0.352 N 
ATOM     30  C   UNL A   1      40.182  23.778  27.455  1.00  0.00     0.251 C 
ATOM     31  H   UNL A   1      39.743  21.901  26.839  1.00  0.00     0.163 HD
ATOM     32  O   UNL A   1      41.280  23.532  27.920  1.00  0.00    -0.269 OA
BRANCH  30  33
ATOM     33  C   UNL A   1      39.570  25.116  27.584  1.00  0.00     0.039 A 
ATOM     34  C   UNL A   1      40.075  26.126  26.761  1.00  0.00     0.014 A 
ATOM     35  C   UNL A   1      38.889  25.404  28.763  1.00  0.00     0.014 A 
ATOM     36  C   UNL A   1      40.088  27.435  27.233  1.00  0.00     0.010 A 
ATOM     37  C   UNL A   1      39.008  26.681  29.273  1.00  0.00     0.010 A 
ATOM     38  C   UNL A   1      39.654  27.687  28.533  1.00  0.00    -0.014 A 
BRANCH  38  39
ATOM     39  C   UNL A   1      39.906  28.938  29.245  1.00  0.00     0.031 A 
ATOM     40  C   UNL A   1      38.903  30.028  29.183  1.00  0.00     0.074 A 
ATOM     41  C   UNL A   1      41.009  29.099  30.012  1.00  0.00     0.049 A 
ATOM     42  N   UNL A   1      39.125  31.256  29.516  1.00  0.00    -0.248 NA
ATOM     43  C   UNL A   1      37.567  29.824  28.638  1.00  0.00     0.031 C 
ATOM     44  C   UNL A   1      41.209  30.110  31.047  1.00  0.00     0.029 A 
ATOM     45  N   UNL A   1      42.259  28.500  29.873  1.00  0.00    -0.354 N 
ATOM     46  C   UNL A   1      37.923  31.927  29.506  1.00  0.00     0.074 A 
ATOM     47  C   UNL A   1      37.015  31.020  28.851  1.00  0.00     0.031 C 
ATOM     48  C   UNL A   1      42.521  30.232  31.294  1.00  0.00     0.029 A 
ATOM     49  C   UNL A   1      43.227  29.414  30.325  1.00  0.00     0.049 A 
ATOM     50  H   UNL A   1      42.434  27.598  29.521  1.00  0.00     0.167 HD
ATOM     51  C   UNL A   1      37.824  33.116  30.172  1.00  0.00     0.037 A 
ATOM     52  C   UNL A   1      44.219  29.878  29.507  1.00  0.00     0.037 A 
ATOM     53  C   UNL A   1      39.155  33.592  30.569  1.00  0.00     0.049 A 
ATOM     54  C   UNL A   1      44.187  31.371  29.276  1.00  0.00     0.074 A 
ATOM     55  C   UNL A   1      39.849  33.587  31.767  1.00  0.00     0.029 A 
ATOM     56  N   UNL A   1      40.080  33.935  29.584  1.00  0.00    -0.354 N 
ATOM     57  N   UNL A   1      43.167  32.133  29.562  1.00  0.00    -0.248 NA
ATOM     58  C   UNL A   1      45.291  32.125  28.685  1.00  0.00     0.031 C 
ATOM     59  C   UNL A   1      41.211  33.869  31.491  1.00  0.00     0.029 A 
ATOM     60  C   UNL A   1      41.344  34.069  30.127  1.00  0.00     0.049 A 
ATOM     61  H   UNL A   1      39.863  34.065  28.633  1.00  0.00     0.167 HD
ATOM     62  C   UNL A   1      43.426  33.422  29.171  1.00  0.00     0.074 A 
ATOM     63  C   UNL A   1      44.783  33.371  28.660  1.00  0.00     0.031 C 
ATOM     64  C   UNL A   1      42.488  34.410  29.288  1.00  0.00     0.037 A 
BRANCH  51  65
ATOM     65  C   UNL A   1      36.527  33.717  30.715  1.00  0.00     0.058 A 
ATOM     66  C   UNL A   1      35.521  34.170  29.826  1.00  0.00     0.135 A 
ATOM     67  C   UNL A   1      36.240  33.983  32.070  1.00  0.00     0.135 A 
ATOM     68  F   UNL A   1      35.586  33.922  28.510  1.00  0.00    -0.206 F 
ATOM     69  C   UNL A   1      34.403  34.907  30.236  1.00  0.00     0.059 A 
ATOM     70  C   UNL A   1      35.146  34.738  32.503  1.00  0.00     0.059 A 
ATOM     71  F   UNL A   1      36.976  33.498  33.069  1.00  0.00    -0.206 F 
ATOM     72  C   UNL A   1      34.240  35.217  31.578  1.00  0.00     0.060 A 
BRANCH  72  73
ATOM     73  S   UNL A   1      32.845  36.226  32.102  1.00  0.00     0.124 S 
ATOM     74  O   UNL A   1      32.533  36.971  30.886  1.00  0.00    -0.237 OA
ATOM     75  O   UNL A   1      31.869  35.219  32.502  1.00  0.00    -0.237 OA
ATOM     76  O   UNL A   1      33.394  37.028  33.194  1.00  0.00    -0.744 OA
ENDBRANCH  72  73
ENDBRANCH  51  65
BRANCH  52  77
ATOM     77  C   UNL A   1      44.710  28.857  28.545  1.00  0.00     0.058 A 
ATOM     78  C   UNL A   1      44.153  28.877  27.253  1.00  0.00     0.135 A 
ATOM     79  C   UNL A   1      45.964  28.254  28.707  1.00  0.00     0.135 A 
ATOM     80  F   UNL A   1      42.942  29.423  27.052  1.00  0.00    -0.206 F 
ATOM     81  C   UNL A   1      44.886  28.491  26.139  1.00  0.00     0.059 A 
ATOM     82  C   UNL A   1      46.718  27.853  27.601  1.00  0.00     0.059 A 
ATOM     83  F   UNL A   1      46.539  28.201  29.917  1.00  0.00    -0.206 F 
ATOM     84  C   UNL A   1      46.198  28.054  26.320  1.00  0.00     0.060 A 
BRANCH  84  85
ATOM     85  S   UNL A   1      47.263  27.986  24.860  1.00  0.00     0.124 S 
ATOM     86  O   UNL A   1      46.709  29.046  24.026  1.00  0.00    -0.237 OA
ATOM     87  O   UNL A   1      48.574  28.261  25.445  1.00  0.00    -0.237 OA
ATOM     88  O   UNL A   1      47.069  26.627  24.367  1.00  0.00    -0.744 OA
ENDBRANCH  84  85
ENDBRANCH  52  77
BRANCH  64  89
ATOM     89  C   UNL A   1      42.580  35.810  28.711  1.00  0.00     0.058 A 
ATOM     90  C   UNL A   1      42.124  36.174  27.432  1.00  0.00     0.135 A 
ATOM     91  C   UNL A   1      43.028  36.885  29.519  1.00  0.00     0.135 A 
ATOM     92  F   UNL A   1      41.565  35.278  26.607  1.00  0.00    -0.206 F 
ATOM     93  C   UNL A   1      42.174  37.491  26.962  1.00  0.00     0.059 A 
ATOM     94  C   UNL A   1      43.033  38.212  29.091  1.00  0.00     0.059 A 
ATOM     95  F   UNL A   1      43.467  36.685  30.771  1.00  0.00    -0.206 F 
ATOM     96  C   UNL A   1      42.629  38.505  27.798  1.00  0.00     0.060 A 
BRANCH  96  97
ATOM     97  S   UNL A   1      42.631  40.215  27.230  1.00  0.00     0.124 S 
ATOM     98  O   UNL A   1      41.208  40.451  27.008  1.00  0.00    -0.237 OA
ATOM     99  O   UNL A   1      43.220  40.933  28.358  1.00  0.00    -0.237 OA
ATOM    100  O   UNL A   1      43.460  40.165  26.031  1.00  0.00    -0.744 OA
ENDBRANCH  96  97
ENDBRANCH  64  89
ENDBRANCH  38  39
ENDBRANCH  30  33
ENDBRANCH  28  29
ENDBRANCH   1  28
TORSDOF 16
ENDMDL
