MODEL 1
REMARK VINA RESULT:     -13.0      0.000      0.000
REMARK SMILES N#Cc1ccc(C(=O)N2CCC(Oc3ccccc3)(C(=O)NCCCNC(=O)c3ccc(-c4c5nc(c(-c6c(F)cc(S(=O)(=O)[O-])cc6F)c6ccc([nH]6)c(-c6c(F)cc(S(=O)(=O)[O-])cc6F)c6nc(c(-c7c(F)cc(S(=O)(=O)[O-])cc7F)c7ccc4[nH]7)C=C6)C=C5)cc3)CC2)cc1
REMARK SMILES IDX 24 1 23 2 22 3 20 4 21 5 12 7 7 8 8 9 9 10 10 11 96 12 11 13
REMARK SMILES IDX 95 14 6 15 3 16 4 17 98 18 5 19 97 20 2 21 1 22 13 23 14 24
REMARK SMILES IDX 15 25 19 26 16 27 18 28 17 29 25 30 26 31 27 32 28 34 29 35
REMARK SMILES IDX 30 36 94 37 31 38 93 39 32 40 33 41 34 42 87 43 35 44 92 45
REMARK SMILES IDX 86 46 88 47 36 48 91 49 85 50 84 51 37 53 71 54 50 55 70 56
REMARK SMILES IDX 51 57 54 58 69 59 89 60 52 61 53 62 68 64 90 65 55 66 38 67
REMARK SMILES IDX 39 68 48 69 40 70 41 71 47 72 49 73 42 74 43 75 44 76 45 77
REMARK SMILES IDX 46 78 72 79 73 80 82 81 74 82 75 83 81 84 83 85 76 86 77 87
REMARK SMILES IDX 78 88 79 89 80 90 56 91 57 92 66 93 58 94 59 95 65 96 67 97
REMARK SMILES IDX 60 98 61 99 62 100 63 101 64 102
REMARK H PARENT 22 6 26 33 88 52 54 63
REMARK Flexibility Score: inf
ROOT
ATOM      1  C   UNL A   1      34.217  31.428  27.896  1.00  0.00     0.042 C 
ENDROOT
BRANCH   1   2
ATOM      2  C   UNL A   1      33.753  30.366  26.907  1.00  0.00     0.118 C 
BRANCH   2   3
ATOM      3  N   UNL A   1      32.728  29.513  27.479  1.00  0.00    -0.353 N 
ATOM      4  C   UNL A   1      31.825  28.685  26.878  1.00  0.00     0.264 C 
ATOM      5  O   UNL A   1      31.117  28.017  27.640  1.00  0.00    -0.270 OA
ATOM      6  H   UNL A   1      32.675  29.536  28.462  1.00  0.00     0.163 HD
BRANCH   4   7
ATOM      7  C   UNL A   1      31.689  28.606  25.328  1.00  0.00     0.190 C 
ATOM      8  C   UNL A   1      33.189  24.936  23.934  1.00  0.00     0.253 C 
ATOM      9  O   UNL A   1      32.481  24.549  23.010  1.00  0.00    -0.269 OA
ATOM     10  N   UNL A   1      32.856  26.023  24.723  1.00  0.00    -0.338 N 
ATOM     11  C   UNL A   1      31.521  26.085  25.282  1.00  0.00     0.124 C 
ATOM     12  C   UNL A   1      33.766  27.130  24.994  1.00  0.00     0.124 C 
ATOM     13  C   UNL A   1      30.846  27.386  24.911  1.00  0.00     0.080 C 
ATOM     14  C   UNL A   1      33.103  28.485  24.706  1.00  0.00     0.080 C 
BRANCH   8  15
ATOM     15  C   UNL A   1      34.356  24.112  24.360  1.00  0.00     0.040 A 
ATOM     16  C   UNL A   1      36.732  22.858  25.174  1.00  0.00     0.052 A 
ATOM     17  C   UNL A   1      35.897  23.464  26.120  1.00  0.00     0.020 A 
ATOM     18  C   UNL A   1      36.377  22.876  23.822  1.00  0.00     0.020 A 
ATOM     19  C   UNL A   1      34.714  24.090  25.714  1.00  0.00     0.015 A 
ATOM     20  C   UNL A   1      35.200  23.509  23.417  1.00  0.00     0.015 A 
BRANCH  16  21
ATOM     21  C   UNL A   1      37.962  22.241  25.579  1.00  0.00     0.099 C 
ATOM     22  N   UNL A   1      38.952  21.742  25.915  1.00  0.00    -0.192 NA
ENDBRANCH  16  21
ENDBRANCH   8  15
BRANCH   7  23
ATOM     23  O   UNL A   1      31.100  29.899  25.031  1.00  0.00    -0.477 OA
BRANCH  23  24
ATOM     24  C   UNL A   1      30.308  30.027  23.930  1.00  0.00     0.120 A 
ATOM     25  C   UNL A   1      29.181  30.836  24.047  1.00  0.00     0.046 A 
ATOM     26  C   UNL A   1      30.501  29.273  22.774  1.00  0.00     0.046 A 
ATOM     27  C   UNL A   1      28.303  30.969  22.971  1.00  0.00     0.004 A 
ATOM     28  C   UNL A   1      29.644  29.430  21.686  1.00  0.00     0.004 A 
ATOM     29  C   UNL A   1      28.549  30.284  21.781  1.00  0.00     0.000 A 
ENDBRANCH  23  24
ENDBRANCH   7  23
ENDBRANCH   4   7
ENDBRANCH   2   3
ENDBRANCH   1   2
BRANCH   1  30
ATOM     30  C   UNL A   1      35.601  31.165  28.474  1.00  0.00     0.118 C 
BRANCH  30  31
ATOM     31  N   UNL A   1      35.563  30.875  29.899  1.00  0.00    -0.352 N 
ATOM     32  C   UNL A   1      36.491  30.261  30.702  1.00  0.00     0.251 C 
ATOM     33  H   UNL A   1      34.743  31.166  30.360  1.00  0.00     0.163 HD
ATOM     34  O   UNL A   1      36.169  29.922  31.838  1.00  0.00    -0.269 OA
BRANCH  32  35
ATOM     35  C   UNL A   1      37.859  29.993  30.205  1.00  0.00     0.039 A 
ATOM     36  C   UNL A   1      38.848  29.638  31.125  1.00  0.00     0.014 A 
ATOM     37  C   UNL A   1      38.179  30.116  28.851  1.00  0.00     0.014 A 
ATOM     38  C   UNL A   1      40.140  29.354  30.677  1.00  0.00     0.010 A 
ATOM     39  C   UNL A   1      39.440  29.739  28.396  1.00  0.00     0.010 A 
ATOM     40  C   UNL A   1      40.439  29.365  29.305  1.00  0.00    -0.014 A 
BRANCH  40  41
ATOM     41  C   UNL A   1      41.791  28.987  28.813  1.00  0.00     0.031 A 
ATOM     42  C   UNL A   1      42.886  30.017  28.722  1.00  0.00     0.074 A 
ATOM     43  C   UNL A   1      42.020  27.721  28.411  1.00  0.00     0.049 A 
ATOM     44  N   UNL A   1      44.116  29.879  28.299  1.00  0.00    -0.248 NA
ATOM     45  C   UNL A   1      42.550  31.388  29.142  1.00  0.00     0.031 C 
ATOM     46  C   UNL A   1      41.028  26.643  28.407  1.00  0.00     0.029 A 
ATOM     47  N   UNL A   1      43.157  27.123  27.927  1.00  0.00    -0.354 N 
ATOM     48  C   UNL A   1      44.697  31.137  28.396  1.00  0.00     0.074 A 
ATOM     49  C   UNL A   1      43.667  32.042  28.856  1.00  0.00     0.031 C 
ATOM     50  C   UNL A   1      41.607  25.511  27.981  1.00  0.00     0.029 A 
ATOM     51  C   UNL A   1      42.996  25.789  27.630  1.00  0.00     0.049 A 
ATOM     52  H   UNL A   1      44.007  27.604  27.805  1.00  0.00     0.167 HD
ATOM     53  C   UNL A   1      45.979  31.501  28.148  1.00  0.00     0.037 A 
ATOM     54  C   UNL A   1      43.865  24.893  27.122  1.00  0.00     0.037 A 
ATOM     55  C   UNL A   1      47.000  30.591  27.695  1.00  0.00     0.049 A 
ATOM     56  C   UNL A   1      45.274  25.331  26.825  1.00  0.00     0.074 A 
ATOM     57  C   UNL A   1      48.339  30.851  27.459  1.00  0.00     0.029 A 
ATOM     58  N   UNL A   1      46.797  29.251  27.399  1.00  0.00    -0.354 N 
ATOM     59  N   UNL A   1      45.825  26.510  26.987  1.00  0.00    -0.248 NA
ATOM     60  C   UNL A   1      46.184  24.312  26.283  1.00  0.00     0.031 C 
ATOM     61  C   UNL A   1      48.928  29.688  26.954  1.00  0.00     0.029 A 
ATOM     62  C   UNL A   1      47.978  28.679  26.951  1.00  0.00     0.049 A 
ATOM     63  H   UNL A   1      45.940  28.775  27.493  1.00  0.00     0.167 HD
ATOM     64  C   UNL A   1      47.153  26.367  26.599  1.00  0.00     0.074 A 
ATOM     65  C   UNL A   1      47.325  24.982  26.212  1.00  0.00     0.031 C 
ATOM     66  C   UNL A   1      48.140  27.297  26.569  1.00  0.00     0.037 A 
BRANCH  53  67
ATOM     67  C   UNL A   1      46.352  32.947  28.356  1.00  0.00     0.058 A 
ATOM     68  C   UNL A   1      46.777  33.432  29.604  1.00  0.00     0.135 A 
ATOM     69  C   UNL A   1      46.327  33.852  27.281  1.00  0.00     0.135 A 
ATOM     70  F   UNL A   1      46.808  32.619  30.672  1.00  0.00    -0.206 F 
ATOM     71  C   UNL A   1      47.133  34.764  29.787  1.00  0.00     0.059 A 
ATOM     72  C   UNL A   1      46.713  35.180  27.433  1.00  0.00     0.059 A 
ATOM     73  F   UNL A   1      45.929  33.446  26.066  1.00  0.00    -0.206 F 
ATOM     74  C   UNL A   1      47.101  35.631  28.692  1.00  0.00     0.060 A 
BRANCH  74  75
ATOM     75  S   UNL A   1      47.578  37.353  28.946  1.00  0.00     0.124 S 
ATOM     76  O   UNL A   1      47.342  37.919  27.621  1.00  0.00    -0.237 OA
ATOM     77  O   UNL A   1      46.652  37.780  29.990  1.00  0.00    -0.237 OA
ATOM     78  O   UNL A   1      48.978  37.265  29.348  1.00  0.00    -0.744 OA
ENDBRANCH  74  75
ENDBRANCH  53  67
BRANCH  54  79
ATOM     79  C   UNL A   1      43.430  23.491  26.875  1.00  0.00     0.058 A 
ATOM     80  C   UNL A   1      43.150  23.035  25.578  1.00  0.00     0.135 A 
ATOM     81  C   UNL A   1      43.290  22.576  27.930  1.00  0.00     0.135 A 
ATOM     82  F   UNL A   1      43.262  23.871  24.534  1.00  0.00    -0.206 F 
ATOM     83  C   UNL A   1      42.726  21.732  25.337  1.00  0.00     0.059 A 
ATOM     84  C   UNL A   1      42.900  21.258  27.712  1.00  0.00     0.059 A 
ATOM     85  F   UNL A   1      43.560  22.954  29.190  1.00  0.00    -0.206 F 
ATOM     86  C   UNL A   1      42.610  20.849  26.412  1.00  0.00     0.060 A 
BRANCH  86  87
ATOM     87  S   UNL A   1      42.104  19.148  26.082  1.00  0.00     0.124 S 
ATOM     88  O   UNL A   1      42.956  18.800  24.951  1.00  0.00    -0.237 OA
ATOM     89  O   UNL A   1      42.416  18.488  27.346  1.00  0.00    -0.237 OA
ATOM     90  O   UNL A   1      40.680  19.272  25.783  1.00  0.00    -0.744 OA
ENDBRANCH  86  87
ENDBRANCH  54  79
BRANCH  66  91
ATOM     91  C   UNL A   1      49.512  26.841  26.145  1.00  0.00     0.058 A 
ATOM     92  C   UNL A   1      50.373  26.156  27.018  1.00  0.00     0.135 A 
ATOM     93  C   UNL A   1      49.955  27.060  24.830  1.00  0.00     0.135 A 
ATOM     94  F   UNL A   1      50.005  25.922  28.288  1.00  0.00    -0.206 F 
ATOM     95  C   UNL A   1      51.637  25.737  26.612  1.00  0.00     0.059 A 
ATOM     96  C   UNL A   1      51.198  26.616  24.391  1.00  0.00     0.059 A 
ATOM     97  F   UNL A   1      49.170  27.700  23.949  1.00  0.00    -0.206 F 
ATOM     98  C   UNL A   1      52.039  25.969  25.295  1.00  0.00     0.060 A 
BRANCH  98  99
ATOM     99  S   UNL A   1      53.672  25.400  24.778  1.00  0.00     0.124 S 
ATOM    100  O   UNL A   1      53.766  25.958  23.433  1.00  0.00    -0.237 OA
ATOM    101  O   UNL A   1      54.543  26.007  25.779  1.00  0.00    -0.237 OA
ATOM    102  O   UNL A   1      53.564  23.945  24.847  1.00  0.00    -0.744 OA
ENDBRANCH  98  99
ENDBRANCH  66  91
ENDBRANCH  40  41
ENDBRANCH  32  35
ENDBRANCH  30  31
ENDBRANCH   1  30
TORSDOF 17
ENDMDL
MODEL 2
REMARK VINA RESULT:     -12.8      1.283      1.799
REMARK SMILES N#Cc1ccc(C(=O)N2CCC(Oc3ccccc3)(C(=O)NCCCNC(=O)c3ccc(-c4c5nc(c(-c6c(F)cc(S(=O)(=O)[O-])cc6F)c6ccc([nH]6)c(-c6c(F)cc(S(=O)(=O)[O-])cc6F)c6nc(c(-c7c(F)cc(S(=O)(=O)[O-])cc7F)c7ccc4[nH]7)C=C6)C=C5)cc3)CC2)cc1
REMARK SMILES IDX 24 1 23 2 22 3 20 4 21 5 12 7 7 8 8 9 9 10 10 11 96 12 11 13
REMARK SMILES IDX 95 14 6 15 3 16 4 17 98 18 5 19 97 20 2 21 1 22 13 23 14 24
REMARK SMILES IDX 15 25 19 26 16 27 18 28 17 29 25 30 26 31 27 32 28 34 29 35
REMARK SMILES IDX 30 36 94 37 31 38 93 39 32 40 33 41 34 42 87 43 35 44 92 45
REMARK SMILES IDX 86 46 88 47 36 48 91 49 85 50 84 51 37 53 71 54 50 55 70 56
REMARK SMILES IDX 51 57 54 58 69 59 89 60 52 61 53 62 68 64 90 65 55 66 38 67
REMARK SMILES IDX 39 68 48 69 40 70 41 71 47 72 49 73 42 74 43 75 44 76 45 77
REMARK SMILES IDX 46 78 72 79 73 80 82 81 74 82 75 83 81 84 83 85 76 86 77 87
REMARK SMILES IDX 78 88 79 89 80 90 56 91 57 92 66 93 58 94 59 95 65 96 67 97
REMARK SMILES IDX 60 98 61 99 62 100 63 101 64 102
REMARK H PARENT 22 6 26 33 88 52 54 63
REMARK Flexibility Score: inf
ROOT
ATOM      1  C   UNL A   1      34.261  31.216  27.527  1.00  0.00     0.042 C 
ENDROOT
BRANCH   1   2
ATOM      2  C   UNL A   1      33.296  30.266  26.829  1.00  0.00     0.118 C 
BRANCH   2   3
ATOM      3  N   UNL A   1      33.942  29.544  25.749  1.00  0.00    -0.353 N 
ATOM      4  C   UNL A   1      33.413  28.789  24.744  1.00  0.00     0.264 C 
ATOM      5  O   UNL A   1      34.220  28.353  23.915  1.00  0.00    -0.270 OA
ATOM      6  H   UNL A   1      34.925  29.611  25.740  1.00  0.00     0.163 HD
BRANCH   4   7
ATOM      7  C   UNL A   1      31.887  28.482  24.665  1.00  0.00     0.190 C 
ATOM      8  C   UNL A   1      31.129  24.583  26.037  1.00  0.00     0.253 C 
ATOM      9  O   UNL A   1      30.073  24.586  26.662  1.00  0.00    -0.269 OA
ATOM     10  N   UNL A   1      31.745  25.745  25.609  1.00  0.00    -0.338 N 
ATOM     11  C   UNL A   1      31.932  26.817  26.566  1.00  0.00     0.124 C 
ATOM     12  C   UNL A   1      32.185  25.966  24.236  1.00  0.00     0.124 C 
ATOM     13  C   UNL A   1      31.330  28.105  26.051  1.00  0.00     0.080 C 
ATOM     14  C   UNL A   1      31.663  27.301  23.687  1.00  0.00     0.080 C 
BRANCH   8  15
ATOM     15  C   UNL A   1      31.887  23.308  25.882  1.00  0.00     0.040 A 
ATOM     16  C   UNL A   1      33.423  21.035  25.286  1.00  0.00     0.052 A 
ATOM     17  C   UNL A   1      34.032  22.172  25.831  1.00  0.00     0.020 A 
ATOM     18  C   UNL A   1      32.046  21.034  25.044  1.00  0.00     0.020 A 
ATOM     19  C   UNL A   1      33.267  23.305  26.127  1.00  0.00     0.015 A 
ATOM     20  C   UNL A   1      31.285  22.169  25.331  1.00  0.00     0.015 A 
BRANCH  16  21
ATOM     21  C   UNL A   1      34.206  19.881  24.952  1.00  0.00     0.099 C 
ATOM     22  N   UNL A   1      34.837  18.950  24.672  1.00  0.00    -0.192 NA
ENDBRANCH  16  21
ENDBRANCH   8  15
BRANCH   7  23
ATOM     23  O   UNL A   1      31.380  29.722  24.108  1.00  0.00    -0.477 OA
BRANCH  23  24
ATOM     24  C   UNL A   1      30.080  29.781  23.704  1.00  0.00     0.120 A 
ATOM     25  C   UNL A   1      29.403  30.981  23.909  1.00  0.00     0.046 A 
ATOM     26  C   UNL A   1      29.383  28.664  23.247  1.00  0.00     0.046 A 
ATOM     27  C   UNL A   1      28.056  31.090  23.563  1.00  0.00     0.004 A 
ATOM     28  C   UNL A   1      28.046  28.779  22.870  1.00  0.00     0.004 A 
ATOM     29  C   UNL A   1      27.384  29.995  23.020  1.00  0.00     0.000 A 
ENDBRANCH  23  24
ENDBRANCH   7  23
ENDBRANCH   4   7
ENDBRANCH   2   3
ENDBRANCH   1   2
BRANCH   1  30
ATOM     30  C   UNL A   1      35.429  30.514  28.208  1.00  0.00     0.118 C 
BRANCH  30  31
ATOM     31  N   UNL A   1      35.444  30.728  29.646  1.00  0.00    -0.352 N 
ATOM     32  C   UNL A   1      36.441  30.507  30.562  1.00  0.00     0.251 C 
ATOM     33  H   UNL A   1      34.608  31.090  30.021  1.00  0.00     0.163 HD
ATOM     34  O   UNL A   1      36.174  30.552  31.761  1.00  0.00    -0.269 OA
BRANCH  32  35
ATOM     35  C   UNL A   1      37.819  30.200  30.119  1.00  0.00     0.039 A 
ATOM     36  C   UNL A   1      38.766  29.834  31.079  1.00  0.00     0.014 A 
ATOM     37  C   UNL A   1      38.191  30.298  28.776  1.00  0.00     0.014 A 
ATOM     38  C   UNL A   1      40.066  29.515  30.681  1.00  0.00     0.010 A 
ATOM     39  C   UNL A   1      39.458  29.887  28.371  1.00  0.00     0.010 A 
ATOM     40  C   UNL A   1      40.414  29.501  29.321  1.00  0.00    -0.014 A 
BRANCH  40  41
ATOM     41  C   UNL A   1      41.774  29.086  28.883  1.00  0.00     0.031 A 
ATOM     42  C   UNL A   1      42.901  30.085  28.841  1.00  0.00     0.074 A 
ATOM     43  C   UNL A   1      41.983  27.815  28.486  1.00  0.00     0.049 A 
ATOM     44  N   UNL A   1      44.143  29.911  28.467  1.00  0.00    -0.248 NA
ATOM     45  C   UNL A   1      42.588  31.463  29.251  1.00  0.00     0.031 C 
ATOM     46  C   UNL A   1      40.961  26.766  28.437  1.00  0.00     0.029 A 
ATOM     47  N   UNL A   1      43.121  27.186  28.046  1.00  0.00    -0.354 N 
ATOM     48  C   UNL A   1      44.755  31.152  28.592  1.00  0.00     0.074 A 
ATOM     49  C   UNL A   1      43.734  32.085  29.013  1.00  0.00     0.031 C 
ATOM     50  C   UNL A   1      41.525  25.619  28.030  1.00  0.00     0.029 A 
ATOM     51  C   UNL A   1      42.935  25.858  27.737  1.00  0.00     0.049 A 
ATOM     52  H   UNL A   1      43.989  27.642  27.960  1.00  0.00     0.167 HD
ATOM     53  C   UNL A   1      46.056  31.480  28.399  1.00  0.00     0.037 A 
ATOM     54  C   UNL A   1      43.797  24.938  27.262  1.00  0.00     0.037 A 
ATOM     55  C   UNL A   1      47.068  30.542  27.984  1.00  0.00     0.049 A 
ATOM     56  C   UNL A   1      45.229  25.336  27.024  1.00  0.00     0.074 A 
ATOM     57  C   UNL A   1      48.422  30.764  27.803  1.00  0.00     0.029 A 
ATOM     58  N   UNL A   1      46.839  29.209  27.675  1.00  0.00    -0.354 N 
ATOM     59  N   UNL A   1      45.806  26.499  27.213  1.00  0.00    -0.248 NA
ATOM     60  C   UNL A   1      46.131  24.293  26.516  1.00  0.00     0.031 C 
ATOM     61  C   UNL A   1      48.998  29.586  27.319  1.00  0.00     0.029 A 
ATOM     62  C   UNL A   1      48.020  28.605  27.273  1.00  0.00     0.049 A 
ATOM     63  H   UNL A   1      45.965  28.758  27.732  1.00  0.00     0.167 HD
ATOM     64  C   UNL A   1      47.144  26.318  26.879  1.00  0.00     0.074 A 
ATOM     65  C   UNL A   1      47.292  24.930  26.494  1.00  0.00     0.031 C 
ATOM     66  C   UNL A   1      48.158  27.220  26.893  1.00  0.00     0.037 A 
BRANCH  53  67
ATOM     67  C   UNL A   1      46.462  32.914  28.627  1.00  0.00     0.058 A 
ATOM     68  C   UNL A   1      46.869  33.378  29.889  1.00  0.00     0.135 A 
ATOM     69  C   UNL A   1      46.486  33.827  27.559  1.00  0.00     0.135 A 
ATOM     70  F   UNL A   1      46.853  32.557  30.951  1.00  0.00    -0.206 F 
ATOM     71  C   UNL A   1      47.255  34.700  30.091  1.00  0.00     0.059 A 
ATOM     72  C   UNL A   1      46.903  35.144  27.731  1.00  0.00     0.059 A 
ATOM     73  F   UNL A   1      46.107  33.441  26.331  1.00  0.00    -0.206 F 
ATOM     74  C   UNL A   1      47.273  35.574  29.003  1.00  0.00     0.060 A 
BRANCH  74  75
ATOM     75  S   UNL A   1      47.788  37.282  29.282  1.00  0.00     0.124 S 
ATOM     76  O   UNL A   1      46.499  37.962  29.383  1.00  0.00    -0.237 OA
ATOM     77  O   UNL A   1      48.547  37.177  30.524  1.00  0.00    -0.237 OA
ATOM     78  O   UNL A   1      48.572  37.601  28.093  1.00  0.00    -0.744 OA
ENDBRANCH  74  75
ENDBRANCH  53  67
BRANCH  54  79
ATOM     79  C   UNL A   1      43.332  23.550  26.992  1.00  0.00     0.058 A 
ATOM     80  C   UNL A   1      43.128  22.636  28.037  1.00  0.00     0.135 A 
ATOM     81  C   UNL A   1      43.080  23.108  25.684  1.00  0.00     0.135 A 
ATOM     82  F   UNL A   1      43.361  23.005  29.307  1.00  0.00    -0.206 F 
ATOM     83  C   UNL A   1      42.711  21.331  27.795  1.00  0.00     0.059 A 
ATOM     84  C   UNL A   1      42.630  21.819  25.418  1.00  0.00     0.059 A 
ATOM     85  F   UNL A   1      43.244  23.946  24.647  1.00  0.00    -0.206 F 
ATOM     86  C   UNL A   1      42.460  20.934  26.481  1.00  0.00     0.060 A 
BRANCH  86  87
ATOM     87  S   UNL A   1      41.875  19.252  26.183  1.00  0.00     0.124 S 
ATOM     88  O   UNL A   1      40.452  19.471  25.952  1.00  0.00    -0.237 OA
ATOM     89  O   UNL A   1      42.660  18.860  25.017  1.00  0.00    -0.237 OA
ATOM     90  O   UNL A   1      42.213  18.554  27.421  1.00  0.00    -0.744 OA
ENDBRANCH  86  87
ENDBRANCH  54  79
BRANCH  66  91
ATOM     91  C   UNL A   1      49.533  26.726  26.523  1.00  0.00     0.058 A 
ATOM     92  C   UNL A   1      50.387  26.126  27.463  1.00  0.00     0.135 A 
ATOM     93  C   UNL A   1      49.985  26.819  25.196  1.00  0.00     0.135 A 
ATOM     94  F   UNL A   1      50.011  26.013  28.746  1.00  0.00    -0.206 F 
ATOM     95  C   UNL A   1      51.653  25.670  27.107  1.00  0.00     0.059 A 
ATOM     96  C   UNL A   1      51.231  26.335  24.810  1.00  0.00     0.059 A 
ATOM     97  F   UNL A   1      49.207  27.373  24.253  1.00  0.00    -0.206 F 
ATOM     98  C   UNL A   1      52.065  25.777  25.777  1.00  0.00     0.060 A 
BRANCH  98  99
ATOM     99  S   UNL A   1      53.701  25.161  25.327  1.00  0.00     0.124 S 
ATOM    100  O   UNL A   1      53.897  25.774  24.018  1.00  0.00    -0.237 OA
ATOM    101  O   UNL A   1      54.535  25.684  26.404  1.00  0.00    -0.237 OA
ATOM    102  O   UNL A   1      53.529  23.711  25.321  1.00  0.00    -0.744 OA
ENDBRANCH  98  99
ENDBRANCH  66  91
ENDBRANCH  40  41
ENDBRANCH  32  35
ENDBRANCH  30  31
ENDBRANCH   1  30
TORSDOF 17
ENDMDL
MODEL 3
REMARK VINA RESULT:     -12.8      5.934      8.101
REMARK SMILES N#Cc1ccc(C(=O)N2CCC(Oc3ccccc3)(C(=O)NCCCNC(=O)c3ccc(-c4c5nc(c(-c6c(F)cc(S(=O)(=O)[O-])cc6F)c6ccc([nH]6)c(-c6c(F)cc(S(=O)(=O)[O-])cc6F)c6nc(c(-c7c(F)cc(S(=O)(=O)[O-])cc7F)c7ccc4[nH]7)C=C6)C=C5)cc3)CC2)cc1
REMARK SMILES IDX 24 1 23 2 22 3 20 4 21 5 12 7 7 8 8 9 9 10 10 11 96 12 11 13
REMARK SMILES IDX 95 14 6 15 3 16 4 17 98 18 5 19 97 20 2 21 1 22 13 23 14 24
REMARK SMILES IDX 15 25 19 26 16 27 18 28 17 29 25 30 26 31 27 32 28 34 29 35
REMARK SMILES IDX 30 36 94 37 31 38 93 39 32 40 33 41 34 42 87 43 35 44 92 45
REMARK SMILES IDX 86 46 88 47 36 48 91 49 85 50 84 51 37 53 71 54 50 55 70 56
REMARK SMILES IDX 51 57 54 58 69 59 89 60 52 61 53 62 68 64 90 65 55 66 38 67
REMARK SMILES IDX 39 68 48 69 40 70 41 71 47 72 49 73 42 74 43 75 44 76 45 77
REMARK SMILES IDX 46 78 72 79 73 80 82 81 74 82 75 83 81 84 83 85 76 86 77 87
REMARK SMILES IDX 78 88 79 89 80 90 56 91 57 92 66 93 58 94 59 95 65 96 67 97
REMARK SMILES IDX 60 98 61 99 62 100 63 101 64 102
REMARK H PARENT 22 6 26 33 88 52 54 63
REMARK Flexibility Score: inf
ROOT
ATOM      1  C   UNL A   1      31.759  31.843  26.551  1.00  0.00     0.042 C 
ENDROOT
BRANCH   1   2
ATOM      2  C   UNL A   1      31.817  30.329  26.395  1.00  0.00     0.118 C 
BRANCH   2   3
ATOM      3  N   UNL A   1      32.979  29.914  25.630  1.00  0.00    -0.353 N 
ATOM      4  C   UNL A   1      33.076  29.124  24.523  1.00  0.00     0.264 C 
ATOM      5  O   UNL A   1      34.209  29.007  24.043  1.00  0.00    -0.270 OA
ATOM      6  H   UNL A   1      33.838  30.260  25.967  1.00  0.00     0.163 HD
BRANCH   4   7
ATOM      7  C   UNL A   1      31.835  28.400  23.919  1.00  0.00     0.190 C 
ATOM      8  C   UNL A   1      31.918  24.319  24.918  1.00  0.00     0.253 C 
ATOM      9  O   UNL A   1      30.770  23.947  25.140  1.00  0.00    -0.269 OA
ATOM     10  N   UNL A   1      32.247  25.651  24.738  1.00  0.00    -0.338 N 
ATOM     11  C   UNL A   1      31.769  26.616  25.707  1.00  0.00     0.124 C 
ATOM     12  C   UNL A   1      33.022  26.143  23.603  1.00  0.00     0.124 C 
ATOM     13  C   UNL A   1      31.001  27.725  25.023  1.00  0.00     0.080 C 
ATOM     14  C   UNL A   1      32.322  27.324  22.916  1.00  0.00     0.080 C 
BRANCH   8  15
ATOM     15  C   UNL A   1      33.041  23.344  25.027  1.00  0.00     0.040 A 
ATOM     16  C   UNL A   1      35.349  21.747  25.075  1.00  0.00     0.052 A 
ATOM     17  C   UNL A   1      35.155  22.732  26.051  1.00  0.00     0.020 A 
ATOM     18  C   UNL A   1      34.387  21.559  24.078  1.00  0.00     0.020 A 
ATOM     19  C   UNL A   1      34.005  23.529  26.026  1.00  0.00     0.015 A 
ATOM     20  C   UNL A   1      33.244  22.361  24.049  1.00  0.00     0.015 A 
BRANCH  16  21
ATOM     21  C   UNL A   1      36.540  20.948  25.075  1.00  0.00     0.099 C 
ATOM     22  N   UNL A   1      37.498  20.297  25.068  1.00  0.00    -0.192 NA
ENDBRANCH  16  21
ENDBRANCH   8  15
BRANCH   7  23
ATOM     23  O   UNL A   1      31.180  29.496  23.228  1.00  0.00    -0.477 OA
BRANCH  23  24
ATOM     24  C   UNL A   1      29.821  29.585  23.271  1.00  0.00     0.120 A 
ATOM     25  C   UNL A   1      29.097  28.468  22.863  1.00  0.00     0.046 A 
ATOM     26  C   UNL A   1      29.155  30.776  23.555  1.00  0.00     0.046 A 
ATOM     27  C   UNL A   1      27.702  28.513  22.837  1.00  0.00     0.004 A 
ATOM     28  C   UNL A   1      27.762  30.814  23.562  1.00  0.00     0.004 A 
ATOM     29  C   UNL A   1      27.035  29.680  23.211  1.00  0.00     0.000 A 
ENDBRANCH  23  24
ENDBRANCH   7  23
ENDBRANCH   4   7
ENDBRANCH   2   3
ENDBRANCH   1   2
BRANCH   1  30
ATOM     30  C   UNL A   1      32.960  32.431  27.281  1.00  0.00     0.118 C 
BRANCH  30  31
ATOM     31  N   UNL A   1      32.775  33.835  27.616  1.00  0.00    -0.352 N 
ATOM     32  C   UNL A   1      33.353  34.592  28.603  1.00  0.00     0.251 C 
ATOM     33  H   UNL A   1      32.134  34.317  27.044  1.00  0.00     0.163 HD
ATOM     34  O   UNL A   1      32.896  35.705  28.850  1.00  0.00    -0.269 OA
BRANCH  32  35
ATOM     35  C   UNL A   1      34.504  34.074  29.375  1.00  0.00     0.039 A 
ATOM     36  C   UNL A   1      34.255  33.304  30.514  1.00  0.00     0.014 A 
ATOM     37  C   UNL A   1      35.820  34.364  29.006  1.00  0.00     0.014 A 
ATOM     38  C   UNL A   1      35.325  32.782  31.244  1.00  0.00     0.010 A 
ATOM     39  C   UNL A   1      36.881  33.764  29.677  1.00  0.00     0.010 A 
ATOM     40  C   UNL A   1      36.647  32.974  30.812  1.00  0.00    -0.014 A 
BRANCH  40  41
ATOM     41  C   UNL A   1      37.788  32.357  31.539  1.00  0.00     0.031 A 
ATOM     42  C   UNL A   1      38.226  32.898  32.874  1.00  0.00     0.074 A 
ATOM     43  C   UNL A   1      38.454  31.330  30.975  1.00  0.00     0.049 A 
ATOM     44  N   UNL A   1      39.210  32.504  33.642  1.00  0.00    -0.248 NA
ATOM     45  C   UNL A   1      37.475  34.046  33.409  1.00  0.00     0.031 C 
ATOM     46  C   UNL A   1      38.155  30.746  29.665  1.00  0.00     0.029 A 
ATOM     47  N   UNL A   1      39.521  30.593  31.428  1.00  0.00    -0.354 N 
ATOM     48  C   UNL A   1      39.199  33.353  34.741  1.00  0.00     0.074 A 
ATOM     49  C   UNL A   1      38.154  34.326  34.512  1.00  0.00     0.031 C 
ATOM     50  C   UNL A   1      38.991  29.721  29.437  1.00  0.00     0.029 A 
ATOM     51  C   UNL A   1      39.920  29.605  30.557  1.00  0.00     0.049 A 
ATOM     52  H   UNL A   1      39.958  30.757  32.294  1.00  0.00     0.167 HD
ATOM     53  C   UNL A   1      39.973  33.311  35.853  1.00  0.00     0.037 A 
ATOM     54  C   UNL A   1      40.926  28.713  30.643  1.00  0.00     0.037 A 
ATOM     55  C   UNL A   1      41.008  32.334  36.075  1.00  0.00     0.049 A 
ATOM     56  C   UNL A   1      41.792  28.709  31.874  1.00  0.00     0.074 A 
ATOM     57  C   UNL A   1      41.818  32.179  37.188  1.00  0.00     0.029 A 
ATOM     58  N   UNL A   1      41.386  31.355  35.168  1.00  0.00    -0.354 N 
ATOM     59  N   UNL A   1      41.724  29.477  32.936  1.00  0.00    -0.248 NA
ATOM     60  C   UNL A   1      42.868  27.709  31.924  1.00  0.00     0.031 C 
ATOM     61  C   UNL A   1      42.730  31.152  36.924  1.00  0.00     0.029 A 
ATOM     62  C   UNL A   1      42.439  30.613  35.682  1.00  0.00     0.049 A 
ATOM     63  H   UNL A   1      40.969  31.208  34.288  1.00  0.00     0.167 HD
ATOM     64  C   UNL A   1      42.725  29.031  33.793  1.00  0.00     0.074 A 
ATOM     65  C   UNL A   1      43.371  27.916  33.132  1.00  0.00     0.031 C 
ATOM     66  C   UNL A   1      43.075  29.502  35.016  1.00  0.00     0.037 A 
BRANCH  53  67
ATOM     67  C   UNL A   1      39.735  34.354  36.916  1.00  0.00     0.058 A 
ATOM     68  C   UNL A   1      39.037  34.063  38.099  1.00  0.00     0.135 A 
ATOM     69  C   UNL A   1      40.252  35.653  36.768  1.00  0.00     0.135 A 
ATOM     70  F   UNL A   1      38.506  32.844  38.290  1.00  0.00    -0.206 F 
ATOM     71  C   UNL A   1      38.832  35.026  39.082  1.00  0.00     0.059 A 
ATOM     72  C   UNL A   1      40.091  36.622  37.754  1.00  0.00     0.059 A 
ATOM     73  F   UNL A   1      40.927  35.990  35.658  1.00  0.00    -0.206 F 
ATOM     74  C   UNL A   1      39.367  36.303  38.901  1.00  0.00     0.060 A 
BRANCH  74  75
ATOM     75  S   UNL A   1      39.102  37.536  40.192  1.00  0.00     0.124 S 
ATOM     76  O   UNL A   1      38.562  36.715  41.272  1.00  0.00    -0.237 OA
ATOM     77  O   UNL A   1      40.448  38.057  40.405  1.00  0.00    -0.237 OA
ATOM     78  O   UNL A   1      38.158  38.470  39.585  1.00  0.00    -0.744 OA
ENDBRANCH  74  75
ENDBRANCH  53  67
BRANCH  54  79
ATOM     79  C   UNL A   1      41.160  27.744  29.538  1.00  0.00     0.058 A 
ATOM     80  C   UNL A   1      42.262  27.873  28.679  1.00  0.00     0.135 A 
ATOM     81  C   UNL A   1      40.289  26.664  29.321  1.00  0.00     0.135 A 
ATOM     82  F   UNL A   1      43.122  28.891  28.840  1.00  0.00    -0.206 F 
ATOM     83  C   UNL A   1      42.481  26.983  27.633  1.00  0.00     0.059 A 
ATOM     84  C   UNL A   1      40.505  25.741  28.302  1.00  0.00     0.059 A 
ATOM     85  F   UNL A   1      39.228  26.484  30.123  1.00  0.00    -0.206 F 
ATOM     86  C   UNL A   1      41.598  25.916  27.456  1.00  0.00     0.060 A 
BRANCH  86  87
ATOM     87  S   UNL A   1      41.918  24.741  26.124  1.00  0.00     0.124 S 
ATOM     88  O   UNL A   1      41.984  25.621  24.963  1.00  0.00    -0.237 OA
ATOM     89  O   UNL A   1      43.181  24.141  26.545  1.00  0.00    -0.237 OA
ATOM     90  O   UNL A   1      40.762  23.851  26.175  1.00  0.00    -0.744 OA
ENDBRANCH  86  87
ENDBRANCH  54  79
BRANCH  66  91
ATOM     91  C   UNL A   1      44.181  28.784  35.746  1.00  0.00     0.058 A 
ATOM     92  C   UNL A   1      43.926  27.715  36.620  1.00  0.00     0.135 A 
ATOM     93  C   UNL A   1      45.521  29.150  35.536  1.00  0.00     0.135 A 
ATOM     94  F   UNL A   1      42.665  27.325  36.864  1.00  0.00    -0.206 F 
ATOM     95  C   UNL A   1      44.957  27.059  37.286  1.00  0.00     0.059 A 
ATOM     96  C   UNL A   1      46.570  28.482  36.160  1.00  0.00     0.059 A 
ATOM     97  F   UNL A   1      45.825  30.158  34.702  1.00  0.00    -0.206 F 
ATOM     98  C   UNL A   1      46.277  27.448  37.047  1.00  0.00     0.060 A 
BRANCH  98  99
ATOM     99  S   UNL A   1      47.604  26.572  37.900  1.00  0.00     0.124 S 
ATOM    100  O   UNL A   1      47.262  26.809  39.299  1.00  0.00    -0.237 OA
ATOM    101  O   UNL A   1      47.426  25.203  37.426  1.00  0.00    -0.237 OA
ATOM    102  O   UNL A   1      48.813  27.241  37.428  1.00  0.00    -0.744 OA
ENDBRANCH  98  99
ENDBRANCH  66  91
ENDBRANCH  40  41
ENDBRANCH  32  35
ENDBRANCH  30  31
ENDBRANCH   1  30
TORSDOF 17
ENDMDL
