MODEL 1
REMARK VINA RESULT:     -11.5      0.000      0.000
REMARK SMILES COC1CCN(c2nc(C(C)C)c(C(=O)NCCCNC(=O)c3ccc(-c4c5nc(c(-c6c(F)cc(S(=O)(=O)[O-])cc6F)c6ccc([nH]6)c(-c6c(F)cc(S(=O)(=O)[O-])cc6F)c6nc(c(-c7c(F)cc(S(=O)(=O)[O-])cc7F)c7ccc4[nH]7)C=C6)C=C5)cc3)s2)CC1
REMARK SMILES IDX 18 1 17 2 16 3 14 4 15 5 13 7 7 8 8 9 89 10 9 11 6 12 3 13
REMARK SMILES IDX 4 14 91 15 5 16 90 17 2 18 1 19 10 20 11 21 12 22 19 23
REMARK SMILES IDX 20 24 21 25 22 27 23 28 24 29 88 30 25 31 87 32 26 33 27 34
REMARK SMILES IDX 28 35 81 36 29 37 86 38 80 39 82 40 30 41 85 42 79 43 78 44
REMARK SMILES IDX 31 46 65 47 44 48 64 49 45 50 48 51 63 52 83 53 46 54 47 55
REMARK SMILES IDX 62 57 84 58 49 59 32 60 33 61 42 62 34 63 35 64 41 65 43 66
REMARK SMILES IDX 36 67 37 68 38 69 39 70 40 71 66 72 67 73 76 74 68 75 69 76
REMARK SMILES IDX 75 77 77 78 70 79 71 80 72 81 73 82 74 83 50 84 51 85 60 86
REMARK SMILES IDX 52 87 53 88 59 89 61 90 54 91 55 92 56 93 57 94 58 95
REMARK H PARENT 16 6 20 26 82 45 48 56
REMARK Flexibility Score: inf
ROOT
ATOM      1  C   UNL A   1      33.125  27.427  25.681  1.00  0.00     0.042 C 
ENDROOT
BRANCH   1   2
ATOM      2  C   UNL A   1      33.641  26.571  24.539  1.00  0.00     0.118 C 
BRANCH   2   3
ATOM      3  N   UNL A   1      32.578  25.950  23.808  1.00  0.00    -0.351 N 
ATOM      4  C   UNL A   1      32.189  24.655  23.606  1.00  0.00     0.263 C 
ATOM      5  O   UNL A   1      31.155  24.615  22.920  1.00  0.00    -0.268 OA
ATOM      6  H   UNL A   1      31.996  26.599  23.351  1.00  0.00     0.163 HD
BRANCH   4   7
ATOM      7  C   UNL A   1      32.825  23.441  24.131  1.00  0.00     0.117 A 
ATOM      8  C   UNL A   1      33.300  21.005  24.171  1.00  0.00     0.186 A 
ATOM      9  N   UNL A   1      33.806  21.601  25.210  1.00  0.00    -0.224 NA
ATOM     10  S   UNL A   1      32.493  22.046  23.104  1.00  0.00    -0.091 S 
ATOM     11  C   UNL A   1      33.663  22.985  25.159  1.00  0.00     0.069 A 
BRANCH   8  12
ATOM     12  N   UNL A   1      33.330  19.664  24.009  1.00  0.00    -0.348 N 
ATOM     13  C   UNL A   1      33.445  16.883  23.424  1.00  0.00     0.121 C 
ATOM     14  C   UNL A   1      34.613  17.605  24.113  1.00  0.00     0.053 C 
ATOM     15  C   UNL A   1      32.619  17.869  22.589  1.00  0.00     0.053 C 
ATOM     16  C   UNL A   1      34.135  18.830  24.893  1.00  0.00     0.121 C 
ATOM     17  C   UNL A   1      32.145  19.030  23.454  1.00  0.00     0.121 C 
BRANCH  13  18
ATOM     18  O   UNL A   1      32.680  16.230  24.446  1.00  0.00    -0.381 OA
ATOM     19  C   UNL A   1      33.429  15.343  25.264  1.00  0.00     0.195 C 
ENDBRANCH  13  18
ENDBRANCH   8  12
BRANCH  11  20
ATOM     20  C   UNL A   1      34.508  23.619  26.238  1.00  0.00     0.034 C 
ATOM     21  C   UNL A   1      34.368  22.914  27.584  1.00  0.00     0.014 C 
ATOM     22  C   UNL A   1      35.912  24.040  25.792  1.00  0.00     0.014 C 
ENDBRANCH  11  20
ENDBRANCH   4   7
ENDBRANCH   2   3
ENDBRANCH   1   2
BRANCH   1  23
ATOM     23  C   UNL A   1      34.248  28.104  26.436  1.00  0.00     0.118 C 
BRANCH  23  24
ATOM     24  N   UNL A   1      33.873  29.450  26.864  1.00  0.00    -0.352 N 
ATOM     25  C   UNL A   1      34.516  30.323  27.713  1.00  0.00     0.251 C 
ATOM     26  H   UNL A   1      33.027  29.785  26.488  1.00  0.00     0.163 HD
ATOM     27  O   UNL A   1      33.918  31.310  28.137  1.00  0.00    -0.269 OA
BRANCH  25  28
ATOM     28  C   UNL A   1      35.911  30.059  28.128  1.00  0.00     0.039 A 
ATOM     29  C   UNL A   1      36.186  29.642  29.434  1.00  0.00     0.014 A 
ATOM     30  C   UNL A   1      36.950  30.210  27.214  1.00  0.00     0.014 A 
ATOM     31  C   UNL A   1      37.494  29.293  29.787  1.00  0.00     0.010 A 
ATOM     32  C   UNL A   1      38.211  29.728  27.521  1.00  0.00     0.010 A 
ATOM     33  C   UNL A   1      38.508  29.286  28.818  1.00  0.00    -0.014 A 
BRANCH  33  34
ATOM     34  C   UNL A   1      39.910  28.884  29.106  1.00  0.00     0.031 A 
ATOM     35  C   UNL A   1      40.871  29.924  29.624  1.00  0.00     0.074 A 
ATOM     36  C   UNL A   1      40.351  27.654  28.779  1.00  0.00     0.049 A 
ATOM     37  N   UNL A   1      42.175  29.886  29.699  1.00  0.00    -0.248 NA
ATOM     38  C   UNL A   1      40.285  31.206  30.053  1.00  0.00     0.031 C 
ATOM     39  C   UNL A   1      39.530  26.572  28.231  1.00  0.00     0.029 A 
ATOM     40  N   UNL A   1      41.614  27.117  28.831  1.00  0.00    -0.354 N 
ATOM     41  C   UNL A   1      42.563  31.150  30.128  1.00  0.00     0.074 A 
ATOM     42  C   UNL A   1      41.365  31.949  30.237  1.00  0.00     0.031 C 
ATOM     43  C   UNL A   1      40.307  25.498  28.013  1.00  0.00     0.029 A 
ATOM     44  C   UNL A   1      41.687  25.831  28.348  1.00  0.00     0.049 A 
ATOM     45  H   UNL A   1      42.393  27.606  29.181  1.00  0.00     0.167 HD
ATOM     46  C   UNL A   1      43.805  31.599  30.429  1.00  0.00     0.037 A 
ATOM     47  C   UNL A   1      42.750  25.021  28.175  1.00  0.00     0.037 A 
ATOM     48  C   UNL A   1      44.981  30.772  30.378  1.00  0.00     0.049 A 
ATOM     49  C   UNL A   1      44.119  25.523  28.550  1.00  0.00     0.074 A 
ATOM     50  C   UNL A   1      46.276  31.096  30.736  1.00  0.00     0.029 A 
ATOM     51  N   UNL A   1      44.999  29.451  29.952  1.00  0.00    -0.354 N 
ATOM     52  N   UNL A   1      44.468  26.707  28.995  1.00  0.00    -0.248 NA
ATOM     53  C   UNL A   1      45.239  24.582  28.404  1.00  0.00     0.031 C 
ATOM     54  C   UNL A   1      47.085  29.983  30.487  1.00  0.00     0.029 A 
ATOM     55  C   UNL A   1      46.285  28.948  30.029  1.00  0.00     0.049 A 
ATOM     56  H   UNL A   1      44.212  28.947  29.642  1.00  0.00     0.167 HD
ATOM     57  C   UNL A   1      45.839  26.642  29.220  1.00  0.00     0.074 A 
ATOM     58  C   UNL A   1      46.256  25.303  28.858  1.00  0.00     0.031 C 
ATOM     59  C   UNL A   1      46.673  27.600  29.691  1.00  0.00     0.037 A 
BRANCH  46  60
ATOM     60  C   UNL A   1      43.948  33.039  30.841  1.00  0.00     0.058 A 
ATOM     61  C   UNL A   1      43.859  33.439  32.185  1.00  0.00     0.135 A 
ATOM     62  C   UNL A   1      44.184  34.035  29.879  1.00  0.00     0.135 A 
ATOM     63  F   UNL A   1      43.620  32.533  33.147  1.00  0.00    -0.206 F 
ATOM     64  C   UNL A   1      43.948  34.777  32.554  1.00  0.00     0.059 A 
ATOM     65  C   UNL A   1      44.313  35.376  30.230  1.00  0.00     0.059 A 
ATOM     66  F   UNL A   1      44.281  33.712  28.580  1.00  0.00    -0.206 F 
ATOM     67  C   UNL A   1      44.172  35.739  31.569  1.00  0.00     0.060 A 
BRANCH  67  68
ATOM     68  S   UNL A   1      44.271  37.472  32.063  1.00  0.00     0.124 S 
ATOM     69  O   UNL A   1      43.363  37.500  33.206  1.00  0.00    -0.237 OA
ATOM     70  O   UNL A   1      45.688  37.626  32.377  1.00  0.00    -0.237 OA
ATOM     71  O   UNL A   1      43.812  38.190  30.879  1.00  0.00    -0.744 OA
ENDBRANCH  67  68
ENDBRANCH  46  60
BRANCH  47  72
ATOM     72  C   UNL A   1      42.552  23.644  27.649  1.00  0.00     0.058 A 
ATOM     73  C   UNL A   1      42.550  23.397  26.268  1.00  0.00     0.135 A 
ATOM     74  C   UNL A   1      42.405  22.542  28.508  1.00  0.00     0.135 A 
ATOM     75  F   UNL A   1      42.681  24.417  25.406  1.00  0.00    -0.206 F 
ATOM     76  C   UNL A   1      42.400  22.113  25.755  1.00  0.00     0.059 A 
ATOM     77  C   UNL A   1      42.278  21.245  28.019  1.00  0.00     0.059 A 
ATOM     78  F   UNL A   1      42.419  22.721  29.838  1.00  0.00    -0.206 F 
ATOM     79  C   UNL A   1      42.271  21.041  26.640  1.00  0.00     0.060 A 
BRANCH  79  80
ATOM     80  S   UNL A   1      42.146  19.372  25.961  1.00  0.00     0.124 S 
ATOM     81  O   UNL A   1      42.620  18.564  27.078  1.00  0.00    -0.237 OA
ATOM     82  O   UNL A   1      40.721  19.272  25.660  1.00  0.00    -0.237 OA
ATOM     83  O   UNL A   1      43.023  19.417  24.796  1.00  0.00    -0.744 OA
ENDBRANCH  79  80
ENDBRANCH  47  72
BRANCH  59  84
ATOM     84  C   UNL A   1      48.113  27.233  29.912  1.00  0.00     0.058 A 
ATOM     85  C   UNL A   1      49.107  27.523  28.967  1.00  0.00     0.135 A 
ATOM     86  C   UNL A   1      48.513  26.675  31.139  1.00  0.00     0.135 A 
ATOM     87  F   UNL A   1      48.777  28.049  27.777  1.00  0.00    -0.206 F 
ATOM     88  C   UNL A   1      50.451  27.271  29.229  1.00  0.00     0.059 A 
ATOM     89  C   UNL A   1      49.851  26.440  31.432  1.00  0.00     0.059 A 
ATOM     90  F   UNL A   1      47.599  26.388  32.079  1.00  0.00    -0.206 F 
ATOM     91  C   UNL A   1      50.813  26.740  30.469  1.00  0.00     0.060 A 
BRANCH  91  92
ATOM     92  S   UNL A   1      52.565  26.489  30.824  1.00  0.00     0.124 S 
ATOM     93  O   UNL A   1      52.516  25.397  31.791  1.00  0.00    -0.237 OA
ATOM     94  O   UNL A   1      53.103  26.150  29.511  1.00  0.00    -0.237 OA
ATOM     95  O   UNL A   1      52.992  27.779  31.356  1.00  0.00    -0.744 OA
ENDBRANCH  91  92
ENDBRANCH  59  84
ENDBRANCH  33  34
ENDBRANCH  25  28
ENDBRANCH  23  24
ENDBRANCH   1  23
TORSDOF 16
ENDMDL
MODEL 2
REMARK VINA RESULT:     -11.3      4.990     10.726
REMARK SMILES COC1CCN(c2nc(C(C)C)c(C(=O)NCCCNC(=O)c3ccc(-c4c5nc(c(-c6c(F)cc(S(=O)(=O)[O-])cc6F)c6ccc([nH]6)c(-c6c(F)cc(S(=O)(=O)[O-])cc6F)c6nc(c(-c7c(F)cc(S(=O)(=O)[O-])cc7F)c7ccc4[nH]7)C=C6)C=C5)cc3)s2)CC1
REMARK SMILES IDX 18 1 17 2 16 3 14 4 15 5 13 7 7 8 8 9 89 10 9 11 6 12 3 13
REMARK SMILES IDX 4 14 91 15 5 16 90 17 2 18 1 19 10 20 11 21 12 22 19 23
REMARK SMILES IDX 20 24 21 25 22 27 23 28 24 29 88 30 25 31 87 32 26 33 27 34
REMARK SMILES IDX 28 35 81 36 29 37 86 38 80 39 82 40 30 41 85 42 79 43 78 44
REMARK SMILES IDX 31 46 65 47 44 48 64 49 45 50 48 51 63 52 83 53 46 54 47 55
REMARK SMILES IDX 62 57 84 58 49 59 32 60 33 61 42 62 34 63 35 64 41 65 43 66
REMARK SMILES IDX 36 67 37 68 38 69 39 70 40 71 66 72 67 73 76 74 68 75 69 76
REMARK SMILES IDX 75 77 77 78 70 79 71 80 72 81 73 82 74 83 50 84 51 85 60 86
REMARK SMILES IDX 52 87 53 88 59 89 61 90 54 91 55 92 56 93 57 94 58 95
REMARK H PARENT 16 6 20 26 82 45 48 56
REMARK Flexibility Score: inf
ROOT
ATOM      1  C   UNL A   1      38.406  22.296  26.035  1.00  0.00     0.042 C 
ENDROOT
BRANCH   1   2
ATOM      2  C   UNL A   1      36.984  22.540  25.566  1.00  0.00     0.118 C 
BRANCH   2   3
ATOM      3  N   UNL A   1      36.017  22.096  26.524  1.00  0.00    -0.351 N 
ATOM      4  C   UNL A   1      34.651  22.114  26.579  1.00  0.00     0.263 C 
ATOM      5  O   UNL A   1      34.251  21.559  27.615  1.00  0.00    -0.268 OA
ATOM      6  H   UNL A   1      36.426  21.684  27.318  1.00  0.00     0.163 HD
BRANCH   4   7
ATOM      7  C   UNL A   1      33.725  22.653  25.575  1.00  0.00     0.117 A 
ATOM      8  C   UNL A   1      32.368  24.442  24.518  1.00  0.00     0.186 A 
ATOM      9  N   UNL A   1      32.120  23.283  23.982  1.00  0.00    -0.224 NA
ATOM     10  S   UNL A   1      33.534  24.398  25.747  1.00  0.00    -0.091 S 
ATOM     11  C   UNL A   1      32.950  22.277  24.467  1.00  0.00     0.069 A 
BRANCH   8  12
ATOM     12  N   UNL A   1      31.684  25.561  24.193  1.00  0.00    -0.348 N 
ATOM     13  C   UNL A   1      30.111  27.883  23.721  1.00  0.00     0.121 C 
ATOM     14  C   UNL A   1      31.540  27.983  24.277  1.00  0.00     0.053 C 
ATOM     15  C   UNL A   1      29.493  26.524  24.067  1.00  0.00     0.053 C 
ATOM     16  C   UNL A   1      32.394  26.788  23.852  1.00  0.00     0.121 C 
ATOM     17  C   UNL A   1      30.383  25.394  23.566  1.00  0.00     0.121 C 
BRANCH  13  18
ATOM     18  O   UNL A   1      30.181  28.130  22.310  1.00  0.00    -0.381 OA
ATOM     19  C   UNL A   1      29.890  29.468  21.933  1.00  0.00     0.195 C 
ENDBRANCH  13  18
ENDBRANCH   8  12
BRANCH  11  20
ATOM     20  C   UNL A   1      32.800  21.042  23.611  1.00  0.00     0.034 C 
ATOM     21  C   UNL A   1      32.621  19.773  24.438  1.00  0.00     0.014 C 
ATOM     22  C   UNL A   1      31.916  21.222  22.372  1.00  0.00     0.014 C 
ENDBRANCH  11  20
ENDBRANCH   4   7
ENDBRANCH   2   3
ENDBRANCH   1   2
BRANCH   1  23
ATOM     23  C   UNL A   1      39.074  23.568  26.509  1.00  0.00     0.118 C 
BRANCH  23  24
ATOM     24  N   UNL A   1      40.475  23.626  26.096  1.00  0.00    -0.352 N 
ATOM     25  C   UNL A   1      41.429  24.593  26.322  1.00  0.00     0.251 C 
ATOM     26  H   UNL A   1      40.786  22.852  25.572  1.00  0.00     0.163 HD
ATOM     27  O   UNL A   1      42.480  24.571  25.686  1.00  0.00    -0.269 OA
BRANCH  25  28
ATOM     28  C   UNL A   1      41.176  25.663  27.311  1.00  0.00     0.039 A 
ATOM     29  C   UNL A   1      40.237  25.470  28.329  1.00  0.00     0.014 A 
ATOM     30  C   UNL A   1      41.886  26.860  27.239  1.00  0.00     0.014 A 
ATOM     31  C   UNL A   1      40.082  26.445  29.320  1.00  0.00     0.010 A 
ATOM     32  C   UNL A   1      41.836  27.753  28.295  1.00  0.00     0.010 A 
ATOM     33  C   UNL A   1      40.916  27.573  29.338  1.00  0.00    -0.014 A 
BRANCH  33  34
ATOM     34  C   UNL A   1      40.842  28.626  30.383  1.00  0.00     0.031 A 
ATOM     35  C   UNL A   1      41.734  28.512  31.593  1.00  0.00     0.074 A 
ATOM     36  C   UNL A   1      39.900  29.588  30.323  1.00  0.00     0.049 A 
ATOM     37  N   UNL A   1      41.671  29.145  32.735  1.00  0.00    -0.248 NA
ATOM     38  C   UNL A   1      42.803  27.499  31.530  1.00  0.00     0.031 C 
ATOM     39  C   UNL A   1      38.948  29.780  29.226  1.00  0.00     0.029 A 
ATOM     40  N   UNL A   1      39.566  30.567  31.225  1.00  0.00    -0.354 N 
ATOM     41  C   UNL A   1      42.649  28.568  33.538  1.00  0.00     0.074 A 
ATOM     42  C   UNL A   1      43.248  27.497  32.776  1.00  0.00     0.031 C 
ATOM     43  C   UNL A   1      38.151  30.821  29.513  1.00  0.00     0.029 A 
ATOM     44  C   UNL A   1      38.492  31.334  30.836  1.00  0.00     0.049 A 
ATOM     45  H   UNL A   1      40.050  30.707  32.070  1.00  0.00     0.167 HD
ATOM     46  C   UNL A   1      43.031  28.916  34.789  1.00  0.00     0.037 A 
ATOM     47  C   UNL A   1      37.844  32.323  31.482  1.00  0.00     0.037 A 
ATOM     48  C   UNL A   1      42.469  30.026  35.510  1.00  0.00     0.049 A 
ATOM     49  C   UNL A   1      38.306  32.722  32.858  1.00  0.00     0.074 A 
ATOM     50  C   UNL A   1      42.833  30.520  36.749  1.00  0.00     0.029 A 
ATOM     51  N   UNL A   1      41.432  30.823  35.048  1.00  0.00    -0.354 N 
ATOM     52  N   UNL A   1      39.260  32.197  33.590  1.00  0.00    -0.248 NA
ATOM     53  C   UNL A   1      37.610  33.848  33.497  1.00  0.00     0.031 C 
ATOM     54  C   UNL A   1      41.988  31.590  37.055  1.00  0.00     0.029 A 
ATOM     55  C   UNL A   1      41.135  31.800  35.982  1.00  0.00     0.049 A 
ATOM     56  H   UNL A   1      40.975  30.710  34.183  1.00  0.00     0.167 HD
ATOM     57  C   UNL A   1      39.306  32.952  34.756  1.00  0.00     0.074 A 
ATOM     58  C   UNL A   1      38.281  33.967  34.635  1.00  0.00     0.031 C 
ATOM     59  C   UNL A   1      40.128  32.821  35.827  1.00  0.00     0.037 A 
BRANCH  46  60
ATOM     60  C   UNL A   1      44.105  28.092  35.447  1.00  0.00     0.058 A 
ATOM     61  C   UNL A   1      45.470  28.385  35.287  1.00  0.00     0.135 A 
ATOM     62  C   UNL A   1      43.765  26.995  36.257  1.00  0.00     0.135 A 
ATOM     63  F   UNL A   1      45.855  29.412  34.512  1.00  0.00    -0.206 F 
ATOM     64  C   UNL A   1      46.458  27.593  35.862  1.00  0.00     0.059 A 
ATOM     65  C   UNL A   1      44.737  26.210  36.873  1.00  0.00     0.059 A 
ATOM     66  F   UNL A   1      42.478  26.669  36.449  1.00  0.00    -0.206 F 
ATOM     67  C   UNL A   1      46.081  26.505  36.650  1.00  0.00     0.060 A 
BRANCH  67  68
ATOM     68  S   UNL A   1      47.376  25.479  37.378  1.00  0.00     0.124 S 
ATOM     69  O   UNL A   1      48.531  26.367  37.291  1.00  0.00    -0.237 OA
ATOM     70  O   UNL A   1      46.863  25.237  38.723  1.00  0.00    -0.237 OA
ATOM     71  O   UNL A   1      47.415  24.311  36.505  1.00  0.00    -0.744 OA
ENDBRANCH  67  68
ENDBRANCH  46  60
BRANCH  47  72
ATOM     72  C   UNL A   1      36.709  33.020  30.819  1.00  0.00     0.058 A 
ATOM     73  C   UNL A   1      35.385  32.758  31.201  1.00  0.00     0.135 A 
ATOM     74  C   UNL A   1      36.921  33.988  29.824  1.00  0.00     0.135 A 
ATOM     75  F   UNL A   1      35.130  31.838  32.143  1.00  0.00    -0.206 F 
ATOM     76  C   UNL A   1      34.311  33.423  30.617  1.00  0.00     0.059 A 
ATOM     77  C   UNL A   1      35.865  34.684  29.243  1.00  0.00     0.059 A 
ATOM     78  F   UNL A   1      38.170  34.290  29.435  1.00  0.00    -0.206 F 
ATOM     79  C   UNL A   1      34.562  34.389  29.643  1.00  0.00     0.060 A 
BRANCH  79  80
ATOM     80  S   UNL A   1      33.163  35.293  28.942  1.00  0.00     0.124 S 
ATOM     81  O   UNL A   1      33.832  36.407  28.283  1.00  0.00    -0.237 OA
ATOM     82  O   UNL A   1      32.566  34.294  28.061  1.00  0.00    -0.237 OA
ATOM     83  O   UNL A   1      32.366  35.638  30.116  1.00  0.00    -0.744 OA
ENDBRANCH  79  80
ENDBRANCH  47  72
BRANCH  59  84
ATOM     84  C   UNL A   1      40.011  33.833  36.931  1.00  0.00     0.058 A 
ATOM     85  C   UNL A   1      40.701  35.053  36.897  1.00  0.00     0.135 A 
ATOM     86  C   UNL A   1      39.109  33.615  37.986  1.00  0.00     0.135 A 
ATOM     87  F   UNL A   1      41.580  35.307  35.914  1.00  0.00    -0.206 F 
ATOM     88  C   UNL A   1      40.502  36.024  37.875  1.00  0.00     0.059 A 
ATOM     89  C   UNL A   1      38.876  34.581  38.958  1.00  0.00     0.059 A 
ATOM     90  F   UNL A   1      38.418  32.466  38.058  1.00  0.00    -0.206 F 
ATOM     91  C   UNL A   1      39.580  35.782  38.895  1.00  0.00     0.060 A 
BRANCH  91  92
ATOM     92  S   UNL A   1      39.277  37.080  40.112  1.00  0.00     0.124 S 
ATOM     93  O   UNL A   1      38.483  36.369  41.109  1.00  0.00    -0.237 OA
ATOM     94  O   UNL A   1      40.629  37.445  40.521  1.00  0.00    -0.237 OA
ATOM     95  O   UNL A   1      38.560  38.099  39.352  1.00  0.00    -0.744 OA
ENDBRANCH  91  92
ENDBRANCH  59  84
ENDBRANCH  33  34
ENDBRANCH  25  28
ENDBRANCH  23  24
ENDBRANCH   1  23
TORSDOF 16
ENDMDL
MODEL 3
REMARK VINA RESULT:     -10.8      4.862     10.226
REMARK SMILES COC1CCN(c2nc(C(C)C)c(C(=O)NCCCNC(=O)c3ccc(-c4c5nc(c(-c6c(F)cc(S(=O)(=O)[O-])cc6F)c6ccc([nH]6)c(-c6c(F)cc(S(=O)(=O)[O-])cc6F)c6nc(c(-c7c(F)cc(S(=O)(=O)[O-])cc7F)c7ccc4[nH]7)C=C6)C=C5)cc3)s2)CC1
REMARK SMILES IDX 18 1 17 2 16 3 14 4 15 5 13 7 7 8 8 9 89 10 9 11 6 12 3 13
REMARK SMILES IDX 4 14 91 15 5 16 90 17 2 18 1 19 10 20 11 21 12 22 19 23
REMARK SMILES IDX 20 24 21 25 22 27 23 28 24 29 88 30 25 31 87 32 26 33 27 34
REMARK SMILES IDX 28 35 81 36 29 37 86 38 80 39 82 40 30 41 85 42 79 43 78 44
REMARK SMILES IDX 31 46 65 47 44 48 64 49 45 50 48 51 63 52 83 53 46 54 47 55
REMARK SMILES IDX 62 57 84 58 49 59 32 60 33 61 42 62 34 63 35 64 41 65 43 66
REMARK SMILES IDX 36 67 37 68 38 69 39 70 40 71 66 72 67 73 76 74 68 75 69 76
REMARK SMILES IDX 75 77 77 78 70 79 71 80 72 81 73 82 74 83 50 84 51 85 60 86
REMARK SMILES IDX 52 87 53 88 59 89 61 90 54 91 55 92 56 93 57 94 58 95
REMARK H PARENT 16 6 20 26 82 45 48 56
REMARK Flexibility Score: inf
ROOT
ATOM      1  C   UNL A   1      38.317  24.124  26.107  1.00  0.00     0.042 C 
ENDROOT
BRANCH   1   2
ATOM      2  C   UNL A   1      37.010  23.354  26.066  1.00  0.00     0.118 C 
BRANCH   2   3
ATOM      3  N   UNL A   1      35.873  24.223  26.060  1.00  0.00    -0.351 N 
ATOM      4  C   UNL A   1      34.583  24.102  25.623  1.00  0.00     0.263 C 
ATOM      5  O   UNL A   1      33.939  25.132  25.881  1.00  0.00    -0.268 OA
ATOM      6  H   UNL A   1      36.060  25.102  26.459  1.00  0.00     0.163 HD
BRANCH   4   7
ATOM      7  C   UNL A   1      33.965  22.937  24.978  1.00  0.00     0.117 A 
ATOM      8  C   UNL A   1      33.553  20.508  24.673  1.00  0.00     0.186 A 
ATOM      9  N   UNL A   1      33.006  21.203  23.719  1.00  0.00    -0.224 NA
ATOM     10  S   UNL A   1      34.359  21.445  25.833  1.00  0.00    -0.091 S 
ATOM     11  C   UNL A   1      33.114  22.576  23.923  1.00  0.00     0.069 A 
BRANCH   8  12
ATOM     12  N   UNL A   1      33.562  19.157  24.682  1.00  0.00    -0.348 N 
ATOM     13  C   UNL A   1      33.365  16.322  24.572  1.00  0.00     0.121 C 
ATOM     14  C   UNL A   1      34.304  17.096  23.635  1.00  0.00     0.053 C 
ATOM     15  C   UNL A   1      32.203  17.214  25.027  1.00  0.00     0.053 C 
ATOM     16  C   UNL A   1      34.746  18.423  24.252  1.00  0.00     0.121 C 
ATOM     17  C   UNL A   1      32.734  18.488  25.671  1.00  0.00     0.121 C 
BRANCH  13  18
ATOM     18  O   UNL A   1      34.156  15.826  25.661  1.00  0.00    -0.381 OA
ATOM     19  C   UNL A   1      35.518  15.588  25.336  1.00  0.00     0.195 C 
ENDBRANCH  13  18
ENDBRANCH   8  12
BRANCH  11  20
ATOM     20  C   UNL A   1      32.226  23.303  22.942  1.00  0.00     0.034 C 
ATOM     21  C   UNL A   1      30.887  23.708  23.550  1.00  0.00     0.014 C 
ATOM     22  C   UNL A   1      32.948  24.322  22.054  1.00  0.00     0.014 C 
ENDBRANCH  11  20
ENDBRANCH   4   7
ENDBRANCH   2   3
ENDBRANCH   1   2
BRANCH   1  23
ATOM     23  C   UNL A   1      39.415  23.344  26.797  1.00  0.00     0.118 C 
BRANCH  23  24
ATOM     24  N   UNL A   1      40.720  23.600  26.190  1.00  0.00    -0.352 N 
ATOM     25  C   UNL A   1      41.539  24.702  26.278  1.00  0.00     0.251 C 
ATOM     26  H   UNL A   1      41.067  22.870  25.628  1.00  0.00     0.163 HD
ATOM     27  O   UNL A   1      42.482  24.823  25.499  1.00  0.00    -0.269 OA
BRANCH  25  28
ATOM     28  C   UNL A   1      41.270  25.745  27.293  1.00  0.00     0.039 A 
ATOM     29  C   UNL A   1      40.490  25.446  28.414  1.00  0.00     0.014 A 
ATOM     30  C   UNL A   1      41.807  27.020  27.139  1.00  0.00     0.014 A 
ATOM     31  C   UNL A   1      40.329  26.406  29.419  1.00  0.00     0.010 A 
ATOM     32  C   UNL A   1      41.767  27.914  28.196  1.00  0.00     0.010 A 
ATOM     33  C   UNL A   1      41.008  27.631  29.340  1.00  0.00    -0.014 A 
BRANCH  33  34
ATOM     34  C   UNL A   1      40.923  28.680  30.389  1.00  0.00     0.031 A 
ATOM     35  C   UNL A   1      41.826  28.578  31.592  1.00  0.00     0.074 A 
ATOM     36  C   UNL A   1      39.963  29.625  30.339  1.00  0.00     0.049 A 
ATOM     37  N   UNL A   1      41.760  29.206  32.736  1.00  0.00    -0.248 NA
ATOM     38  C   UNL A   1      42.912  27.585  31.518  1.00  0.00     0.031 C 
ATOM     39  C   UNL A   1      39.000  29.803  29.250  1.00  0.00     0.029 A 
ATOM     40  N   UNL A   1      39.619  30.596  31.247  1.00  0.00    -0.354 N 
ATOM     41  C   UNL A   1      42.755  28.644  33.530  1.00  0.00     0.074 A 
ATOM     42  C   UNL A   1      43.367  27.587  32.760  1.00  0.00     0.031 C 
ATOM     43  C   UNL A   1      38.186  30.829  29.546  1.00  0.00     0.029 A 
ATOM     44  C   UNL A   1      38.529  31.344  30.868  1.00  0.00     0.049 A 
ATOM     45  H   UNL A   1      40.107  30.742  32.089  1.00  0.00     0.167 HD
ATOM     46  C   UNL A   1      43.140  28.996  34.779  1.00  0.00     0.037 A 
ATOM     47  C   UNL A   1      37.868  32.320  31.522  1.00  0.00     0.037 A 
ATOM     48  C   UNL A   1      42.564  30.094  35.508  1.00  0.00     0.049 A 
ATOM     49  C   UNL A   1      38.333  32.722  32.895  1.00  0.00     0.074 A 
ATOM     50  C   UNL A   1      42.928  30.590  36.746  1.00  0.00     0.029 A 
ATOM     51  N   UNL A   1      41.509  30.873  35.056  1.00  0.00    -0.354 N 
ATOM     52  N   UNL A   1      39.302  32.212  33.619  1.00  0.00    -0.248 NA
ATOM     53  C   UNL A   1      37.622  33.834  33.543  1.00  0.00     0.031 C 
ATOM     54  C   UNL A   1      42.066  31.644  37.061  1.00  0.00     0.029 A 
ATOM     55  C   UNL A   1      41.202  31.842  35.995  1.00  0.00     0.049 A 
ATOM     56  H   UNL A   1      41.047  30.755  34.194  1.00  0.00     0.167 HD
ATOM     57  C   UNL A   1      39.344  32.965  34.787  1.00  0.00     0.074 A 
ATOM     58  C   UNL A   1      38.300  33.962  34.677  1.00  0.00     0.031 C 
ATOM     59  C   UNL A   1      40.176  32.846  35.851  1.00  0.00     0.037 A 
BRANCH  46  60
ATOM     60  C   UNL A   1      44.234  28.189  35.427  1.00  0.00     0.058 A 
ATOM     61  C   UNL A   1      45.591  28.516  35.269  1.00  0.00     0.135 A 
ATOM     62  C   UNL A   1      43.920  27.075  36.223  1.00  0.00     0.135 A 
ATOM     63  F   UNL A   1      45.951  29.561  34.507  1.00  0.00    -0.206 F 
ATOM     64  C   UNL A   1      46.598  27.740  35.834  1.00  0.00     0.059 A 
ATOM     65  C   UNL A   1      44.910  26.306  36.829  1.00  0.00     0.059 A 
ATOM     66  F   UNL A   1      42.641  26.717  36.412  1.00  0.00    -0.206 F 
ATOM     67  C   UNL A   1      46.247  26.635  36.609  1.00  0.00     0.060 A 
BRANCH  67  68
ATOM     68  S   UNL A   1      47.566  25.631  37.324  1.00  0.00     0.124 S 
ATOM     69  O   UNL A   1      48.624  25.794  36.331  1.00  0.00    -0.237 OA
ATOM     70  O   UNL A   1      47.796  26.285  38.608  1.00  0.00    -0.237 OA
ATOM     71  O   UNL A   1      46.977  24.298  37.399  1.00  0.00    -0.744 OA
ENDBRANCH  67  68
ENDBRANCH  46  60
BRANCH  47  72
ATOM     72  C   UNL A   1      36.716  32.998  30.869  1.00  0.00     0.058 A 
ATOM     73  C   UNL A   1      35.402  32.743  31.290  1.00  0.00     0.135 A 
ATOM     74  C   UNL A   1      36.902  33.942  29.847  1.00  0.00     0.135 A 
ATOM     75  F   UNL A   1      35.171  31.845  32.260  1.00  0.00    -0.206 F 
ATOM     76  C   UNL A   1      34.312  33.391  30.716  1.00  0.00     0.059 A 
ATOM     77  C   UNL A   1      35.830  34.621  29.275  1.00  0.00     0.059 A 
ATOM     78  F   UNL A   1      38.140  34.236  29.421  1.00  0.00    -0.206 F 
ATOM     79  C   UNL A   1      34.538  34.334  29.712  1.00  0.00     0.060 A 
BRANCH  79  80
ATOM     80  S   UNL A   1      33.120  35.218  29.024  1.00  0.00     0.124 S 
ATOM     81  O   UNL A   1      32.615  34.253  28.054  1.00  0.00    -0.237 OA
ATOM     82  O   UNL A   1      32.290  35.429  30.206  1.00  0.00    -0.237 OA
ATOM     83  O   UNL A   1      33.718  36.426  28.463  1.00  0.00    -0.744 OA
ENDBRANCH  79  80
ENDBRANCH  47  72
BRANCH  59  84
ATOM     84  C   UNL A   1      40.049  33.852  36.959  1.00  0.00     0.058 A 
ATOM     85  C   UNL A   1      40.741  35.071  36.938  1.00  0.00     0.135 A 
ATOM     86  C   UNL A   1      39.136  33.630  38.004  1.00  0.00     0.135 A 
ATOM     87  F   UNL A   1      41.630  35.329  35.966  1.00  0.00    -0.206 F 
ATOM     88  C   UNL A   1      40.534  36.037  37.919  1.00  0.00     0.059 A 
ATOM     89  C   UNL A   1      38.894  34.591  38.978  1.00  0.00     0.059 A 
ATOM     90  F   UNL A   1      38.443  32.481  38.063  1.00  0.00    -0.206 F 
ATOM     91  C   UNL A   1      39.601  35.792  38.929  1.00  0.00     0.060 A 
BRANCH  91  92
ATOM     92  S   UNL A   1      39.287  37.083  40.150  1.00  0.00     0.124 S 
ATOM     93  O   UNL A   1      38.596  38.087  39.347  1.00  0.00    -0.237 OA
ATOM     94  O   UNL A   1      38.469  36.387  41.137  1.00  0.00    -0.237 OA
ATOM     95  O   UNL A   1      40.624  37.455  40.602  1.00  0.00    -0.744 OA
ENDBRANCH  91  92
ENDBRANCH  59  84
ENDBRANCH  33  34
ENDBRANCH  25  28
ENDBRANCH  23  24
ENDBRANCH   1  23
TORSDOF 16
ENDMDL
