MODEL 1
REMARK VINA RESULT:     -14.2      0.000      0.000
REMARK SMILES Cc1ccc([C@H]2NC(=O)N(C)C3=C2C(=O)N(c2cccc(C(=O)NCCCNC(=O)c4ccc(-c5c6nc(c(-c7c(F)cc(S(=O)(=O)[O-])cc7F)c7ccc([nH]7)c(-c7c(F)cc(S(=O)(=O)[O-])cc7F)c7nc(c(-c8c(F)cc(S(=O)(=O)[O-])cc8F)c8ccc5[nH]8)C=C7)C=C6)cc4)c2)C3)cc1
REMARK SMILES IDX 26 1 25 2 24 3 22 4 23 5 21 7 17 8 18 9 97 10 19 11 20 12
REMARK SMILES IDX 16 13 6 14 7 15 13 16 8 17 12 19 14 20 9 21 10 22 98 23
REMARK SMILES IDX 15 24 11 25 5 26 1 27 2 28 3 29 100 30 4 31 99 32 27 33
REMARK SMILES IDX 28 34 29 35 30 37 31 38 32 39 96 40 33 41 95 42 34 43 35 44
REMARK SMILES IDX 36 45 89 46 37 47 94 48 88 49 90 50 38 51 93 52 87 53 86 54
REMARK SMILES IDX 39 56 73 57 52 58 72 59 53 60 56 61 71 62 91 63 54 64 55 65
REMARK SMILES IDX 70 67 92 68 57 69 40 70 41 71 50 72 42 73 43 74 49 75 51 76
REMARK SMILES IDX 44 77 45 78 46 79 47 80 48 81 74 82 75 83 84 84 76 85 77 86
REMARK SMILES IDX 83 87 85 88 78 89 79 90 80 91 81 92 82 93 58 94 59 95 68 96
REMARK SMILES IDX 60 97 61 98 67 99 69 100 62 101 63 102 64 103 65 104 66 105
REMARK H PARENT 24 6 7 18 28 36 90 55 56 66
REMARK Flexibility Score: inf
ROOT
ATOM      1  C   UNL A   1      37.950  21.302  25.133  1.00  0.00     0.042 C 
ENDROOT
BRANCH   1   2
ATOM      2  C   UNL A   1      36.681  21.628  24.348  1.00  0.00     0.118 C 
BRANCH   2   3
ATOM      3  N   UNL A   1      35.757  20.500  24.366  1.00  0.00    -0.352 N 
ATOM      4  C   UNL A   1      34.567  20.273  25.010  1.00  0.00     0.251 C 
ATOM      5  O   UNL A   1      34.032  19.176  24.823  1.00  0.00    -0.269 OA
ATOM      6  H   UNL A   1      36.045  19.749  23.800  1.00  0.00     0.163 HD
BRANCH   4   7
ATOM      7  C   UNL A   1      33.860  21.264  25.886  1.00  0.00     0.041 A 
ATOM      8  C   UNL A   1      32.758  23.446  25.982  1.00  0.00     0.045 A 
ATOM      9  C   UNL A   1      32.728  23.375  27.373  1.00  0.00     0.026 A 
ATOM     10  C   UNL A   1      33.308  22.390  25.244  1.00  0.00     0.040 A 
ATOM     11  C   UNL A   1      33.175  22.230  28.015  1.00  0.00     0.003 A 
ATOM     12  C   UNL A   1      33.731  21.185  27.275  1.00  0.00     0.014 A 
BRANCH   8  13
ATOM     13  N   UNL A   1      32.261  24.588  25.337  1.00  0.00    -0.303 N 
ATOM     14  C   UNL A   1      30.858  27.994  25.175  1.00  0.00     0.152 C 
ATOM     15  N   UNL A   1      30.467  28.545  23.884  1.00  0.00    -0.327 N 
ATOM     16  C   UNL A   1      31.299  26.611  24.953  1.00  0.00     0.066 C 
ATOM     17  C   UNL A   1      30.812  28.062  22.650  1.00  0.00     0.322 C 
ATOM     18  H   UNL A   1      29.896  29.348  23.901  1.00  0.00     0.166 HD
ATOM     19  C   UNL A   1      31.680  26.115  23.778  1.00  0.00     0.053 C 
ATOM     20  C   UNL A   1      31.548  25.598  25.976  1.00  0.00     0.258 C 
ATOM     21  O   UNL A   1      30.500  28.708  21.651  1.00  0.00    -0.248 OA
ATOM     22  N   UNL A   1      31.470  26.832  22.622  1.00  0.00    -0.299 N 
ATOM     23  C   UNL A   1      32.387  24.808  23.914  1.00  0.00     0.180 C 
ATOM     24  O   UNL A   1      31.211  25.712  27.132  1.00  0.00    -0.269 OA
ATOM     25  C   UNL A   1      31.849  26.264  21.337  1.00  0.00     0.155 C 
BRANCH  14  26
ATOM     26  C   UNL A   1      31.913  28.890  25.831  1.00  0.00    -0.021 A 
ATOM     27  C   UNL A   1      34.804  31.466  27.785  1.00  0.00     0.044 C 
ATOM     28  C   UNL A   1      33.808  30.579  27.101  1.00  0.00    -0.051 A 
ATOM     29  C   UNL A   1      32.518  31.039  26.819  1.00  0.00     0.004 A 
ATOM     30  C   UNL A   1      34.155  29.281  26.733  1.00  0.00     0.004 A 
ATOM     31  C   UNL A   1      31.581  30.205  26.197  1.00  0.00     0.006 A 
ATOM     32  C   UNL A   1      33.225  28.453  26.098  1.00  0.00     0.006 A 
ENDBRANCH  14  26
ENDBRANCH   8  13
ENDBRANCH   4   7
ENDBRANCH   2   3
ENDBRANCH   1   2
BRANCH   1  33
ATOM     33  C   UNL A   1      38.306  22.392  26.121  1.00  0.00     0.118 C 
BRANCH  33  34
ATOM     34  N   UNL A   1      39.610  22.191  26.741  1.00  0.00    -0.352 N 
ATOM     35  C   UNL A   1      40.669  23.087  26.720  1.00  0.00     0.251 C 
ATOM     36  H   UNL A   1      39.751  21.342  27.219  1.00  0.00     0.163 HD
ATOM     37  O   UNL A   1      41.845  22.751  26.676  1.00  0.00    -0.269 OA
BRANCH  35  38
ATOM     38  C   UNL A   1      40.304  24.497  26.951  1.00  0.00     0.039 A 
ATOM     39  C   UNL A   1      40.931  25.462  26.149  1.00  0.00     0.014 A 
ATOM     40  C   UNL A   1      39.707  24.828  28.161  1.00  0.00     0.014 A 
ATOM     41  C   UNL A   1      41.160  26.725  26.671  1.00  0.00     0.010 A 
ATOM     42  C   UNL A   1      40.082  26.005  28.742  1.00  0.00     0.010 A 
ATOM     43  C   UNL A   1      40.827  26.933  28.002  1.00  0.00    -0.014 A 
BRANCH  43  44
ATOM     44  C   UNL A   1      41.091  28.145  28.738  1.00  0.00     0.031 A 
ATOM     45  C   UNL A   1      39.990  29.122  28.775  1.00  0.00     0.074 A 
ATOM     46  C   UNL A   1      42.178  28.159  29.536  1.00  0.00     0.049 A 
ATOM     47  N   UNL A   1      40.111  30.350  29.119  1.00  0.00    -0.248 NA
ATOM     48  C   UNL A   1      38.626  28.784  28.361  1.00  0.00     0.031 C 
ATOM     49  C   UNL A   1      42.459  29.013  30.680  1.00  0.00     0.029 A 
ATOM     50  N   UNL A   1      43.370  27.452  29.337  1.00  0.00    -0.354 N 
ATOM     51  C   UNL A   1      38.837  30.850  29.309  1.00  0.00     0.074 A 
ATOM     52  C   UNL A   1      37.958  29.888  28.701  1.00  0.00     0.031 C 
ATOM     53  C   UNL A   1      43.785  29.007  30.911  1.00  0.00     0.029 A 
ATOM     54  C   UNL A   1      44.408  28.268  29.822  1.00  0.00     0.049 A 
ATOM     55  H   UNL A   1      43.462  26.558  28.935  1.00  0.00     0.167 HD
ATOM     56  C   UNL A   1      38.694  31.932  30.126  1.00  0.00     0.037 A 
ATOM     57  C   UNL A   1      45.303  28.808  28.937  1.00  0.00     0.037 A 
ATOM     58  C   UNL A   1      40.021  32.375  30.555  1.00  0.00     0.049 A 
ATOM     59  C   UNL A   1      45.162  30.311  28.843  1.00  0.00     0.074 A 
ATOM     60  C   UNL A   1      40.763  32.079  31.686  1.00  0.00     0.029 A 
ATOM     61  N   UNL A   1      40.909  32.880  29.614  1.00  0.00    -0.354 N 
ATOM     62  N   UNL A   1      44.052  30.956  29.084  1.00  0.00    -0.248 NA
ATOM     63  C   UNL A   1      46.279  31.204  28.554  1.00  0.00     0.031 C 
ATOM     64  C   UNL A   1      42.125  32.330  31.386  1.00  0.00     0.029 A 
ATOM     65  C   UNL A   1      42.205  32.789  30.081  1.00  0.00     0.049 A 
ATOM     66  H   UNL A   1      40.651  33.251  28.738  1.00  0.00     0.167 HD
ATOM     67  C   UNL A   1      44.286  32.304  29.015  1.00  0.00     0.074 A 
ATOM     68  C   UNL A   1      45.694  32.408  28.679  1.00  0.00     0.031 C 
ATOM     69  C   UNL A   1      43.321  33.241  29.266  1.00  0.00     0.037 A 
BRANCH  56  70
ATOM     70  C   UNL A   1      37.418  32.408  30.791  1.00  0.00     0.058 A 
ATOM     71  C   UNL A   1      36.740  33.532  30.264  1.00  0.00     0.135 A 
ATOM     72  C   UNL A   1      36.821  31.864  31.947  1.00  0.00     0.135 A 
ATOM     73  F   UNL A   1      37.142  34.131  29.134  1.00  0.00    -0.206 F 
ATOM     74  C   UNL A   1      35.619  34.105  30.861  1.00  0.00     0.059 A 
ATOM     75  C   UNL A   1      35.709  32.435  32.580  1.00  0.00     0.059 A 
ATOM     76  F   UNL A   1      37.253  30.728  32.503  1.00  0.00    -0.206 F 
ATOM     77  C   UNL A   1      35.115  33.559  32.030  1.00  0.00     0.060 A 
BRANCH  77  78
ATOM     78  S   UNL A   1      33.663  34.316  32.776  1.00  0.00     0.124 S 
ATOM     79  O   UNL A   1      34.260  35.231  33.745  1.00  0.00    -0.237 OA
ATOM     80  O   UNL A   1      33.020  34.941  31.624  1.00  0.00    -0.237 OA
ATOM     81  O   UNL A   1      32.945  33.183  33.353  1.00  0.00    -0.744 OA
ENDBRANCH  77  78
ENDBRANCH  56  70
BRANCH  57  82
ATOM     82  C   UNL A   1      45.621  27.867  27.817  1.00  0.00     0.058 A 
ATOM     83  C   UNL A   1      45.035  28.151  26.566  1.00  0.00     0.135 A 
ATOM     84  C   UNL A   1      46.795  27.098  27.813  1.00  0.00     0.135 A 
ATOM     85  F   UNL A   1      43.894  28.858  26.508  1.00  0.00    -0.206 F 
ATOM     86  C   UNL A   1      45.683  27.869  25.366  1.00  0.00     0.059 A 
ATOM     87  C   UNL A   1      47.455  26.789  26.616  1.00  0.00     0.059 A 
ATOM     88  F   UNL A   1      47.395  26.772  28.967  1.00  0.00    -0.206 F 
ATOM     89  C   UNL A   1      46.931  27.254  25.407  1.00  0.00     0.060 A 
BRANCH  89  90
ATOM     90  S   UNL A   1      47.914  27.230  23.886  1.00  0.00     0.124 S 
ATOM     91  O   UNL A   1      47.128  28.085  23.005  1.00  0.00    -0.237 OA
ATOM     92  O   UNL A   1      49.194  27.789  24.331  1.00  0.00    -0.237 OA
ATOM     93  O   UNL A   1      47.946  25.817  23.530  1.00  0.00    -0.744 OA
ENDBRANCH  89  90
ENDBRANCH  57  82
BRANCH  69  94
ATOM     94  C   UNL A   1      43.396  34.698  28.877  1.00  0.00     0.058 A 
ATOM     95  C   UNL A   1      43.553  35.741  29.804  1.00  0.00     0.135 A 
ATOM     96  C   UNL A   1      43.458  35.084  27.513  1.00  0.00     0.135 A 
ATOM     97  F   UNL A   1      43.666  35.501  31.118  1.00  0.00    -0.206 F 
ATOM     98  C   UNL A   1      43.643  37.075  29.417  1.00  0.00     0.059 A 
ATOM     99  C   UNL A   1      43.626  36.401  27.104  1.00  0.00     0.059 A 
ATOM    100  F   UNL A   1      43.371  34.189  26.518  1.00  0.00    -0.206 F 
ATOM    101  C   UNL A   1      43.669  37.397  28.065  1.00  0.00     0.060 A 
BRANCH 101 102
ATOM    102  S   UNL A   1      43.775  39.122  27.574  1.00  0.00     0.124 S 
ATOM    103  O   UNL A   1      45.087  39.157  26.937  1.00  0.00    -0.237 OA
ATOM    104  O   UNL A   1      42.632  39.268  26.676  1.00  0.00    -0.237 OA
ATOM    105  O   UNL A   1      43.665  39.843  28.838  1.00  0.00    -0.744 OA
ENDBRANCH 101 102
ENDBRANCH  69  94
ENDBRANCH  43  44
ENDBRANCH  35  38
ENDBRANCH  33  34
ENDBRANCH   1  33
TORSDOF 15
ENDMDL
MODEL 2
REMARK VINA RESULT:     -13.5      4.277     10.769
REMARK SMILES Cc1ccc([C@H]2NC(=O)N(C)C3=C2C(=O)N(c2cccc(C(=O)NCCCNC(=O)c4ccc(-c5c6nc(c(-c7c(F)cc(S(=O)(=O)[O-])cc7F)c7ccc([nH]7)c(-c7c(F)cc(S(=O)(=O)[O-])cc7F)c7nc(c(-c8c(F)cc(S(=O)(=O)[O-])cc8F)c8ccc5[nH]8)C=C7)C=C6)cc4)c2)C3)cc1
REMARK SMILES IDX 26 1 25 2 24 3 22 4 23 5 21 7 17 8 18 9 97 10 19 11 20 12
REMARK SMILES IDX 16 13 6 14 7 15 13 16 8 17 12 19 14 20 9 21 10 22 98 23
REMARK SMILES IDX 15 24 11 25 5 26 1 27 2 28 3 29 100 30 4 31 99 32 27 33
REMARK SMILES IDX 28 34 29 35 30 37 31 38 32 39 96 40 33 41 95 42 34 43 35 44
REMARK SMILES IDX 36 45 89 46 37 47 94 48 88 49 90 50 38 51 93 52 87 53 86 54
REMARK SMILES IDX 39 56 73 57 52 58 72 59 53 60 56 61 71 62 91 63 54 64 55 65
REMARK SMILES IDX 70 67 92 68 57 69 40 70 41 71 50 72 42 73 43 74 49 75 51 76
REMARK SMILES IDX 44 77 45 78 46 79 47 80 48 81 74 82 75 83 84 84 76 85 77 86
REMARK SMILES IDX 83 87 85 88 78 89 79 90 80 91 81 92 82 93 58 94 59 95 68 96
REMARK SMILES IDX 60 97 61 98 67 99 69 100 62 101 63 102 64 103 65 104 66 105
REMARK H PARENT 24 6 7 18 28 36 90 55 56 66
REMARK Flexibility Score: inf
ROOT
ATOM      1  C   UNL A   1      33.694  33.905  27.973  1.00  0.00     0.042 C 
ENDROOT
BRANCH   1   2
ATOM      2  C   UNL A   1      33.073  32.565  27.582  1.00  0.00     0.118 C 
BRANCH   2   3
ATOM      3  N   UNL A   1      34.047  31.487  27.703  1.00  0.00    -0.352 N 
ATOM      4  C   UNL A   1      34.079  30.195  27.243  1.00  0.00     0.251 C 
ATOM      5  O   UNL A   1      35.067  29.519  27.545  1.00  0.00    -0.269 OA
ATOM      6  H   UNL A   1      34.846  31.738  28.220  1.00  0.00     0.163 HD
BRANCH   4   7
ATOM      7  C   UNL A   1      33.028  29.564  26.379  1.00  0.00     0.041 A 
ATOM      8  C   UNL A   1      32.260  27.494  25.324  1.00  0.00     0.045 A 
ATOM      9  C   UNL A   1      31.319  28.213  24.589  1.00  0.00     0.026 A 
ATOM     10  C   UNL A   1      33.099  28.165  26.223  1.00  0.00     0.040 A 
ATOM     11  C   UNL A   1      31.170  29.574  24.804  1.00  0.00     0.003 A 
ATOM     12  C   UNL A   1      32.015  30.239  25.695  1.00  0.00     0.014 A 
BRANCH   8  13
ATOM     13  N   UNL A   1      32.375  26.110  25.134  1.00  0.00    -0.303 N 
ATOM     14  C   UNL A   1      33.983  23.022  23.917  1.00  0.00     0.152 C 
ATOM     15  N   UNL A   1      33.301  21.746  24.088  1.00  0.00    -0.327 N 
ATOM     16  C   UNL A   1      33.087  24.075  24.412  1.00  0.00     0.066 C 
ATOM     17  C   UNL A   1      32.235  21.492  24.910  1.00  0.00     0.322 C 
ATOM     18  H   UNL A   1      33.642  20.988  23.560  1.00  0.00     0.166 HD
ATOM     19  C   UNL A   1      32.065  23.875  25.241  1.00  0.00     0.053 C 
ATOM     20  C   UNL A   1      33.242  25.515  24.220  1.00  0.00     0.258 C 
ATOM     21  O   UNL A   1      31.844  20.333  25.034  1.00  0.00    -0.248 OA
ATOM     22  N   UNL A   1      31.642  22.596  25.523  1.00  0.00    -0.299 N 
ATOM     23  C   UNL A   1      31.554  25.147  25.832  1.00  0.00     0.180 C 
ATOM     24  O   UNL A   1      34.020  26.011  23.440  1.00  0.00    -0.269 OA
ATOM     25  C   UNL A   1      30.496  22.387  26.395  1.00  0.00     0.155 C 
BRANCH  14  26
ATOM     26  C   UNL A   1      35.349  22.986  24.610  1.00  0.00    -0.021 A 
ATOM     27  C   UNL A   1      39.278  22.874  26.443  1.00  0.00     0.044 C 
ATOM     28  C   UNL A   1      37.917  22.907  25.816  1.00  0.00    -0.051 A 
ATOM     29  C   UNL A   1      37.576  22.004  24.803  1.00  0.00     0.004 A 
ATOM     30  C   UNL A   1      36.968  23.836  26.236  1.00  0.00     0.004 A 
ATOM     31  C   UNL A   1      36.311  22.046  24.204  1.00  0.00     0.006 A 
ATOM     32  C   UNL A   1      35.700  23.868  25.650  1.00  0.00     0.006 A 
ENDBRANCH  14  26
ENDBRANCH   8  13
ENDBRANCH   4   7
ENDBRANCH   2   3
ENDBRANCH   1   2
BRANCH   1  33
ATOM     33  C   UNL A   1      35.079  33.742  28.562  1.00  0.00     0.118 C 
BRANCH  33  34
ATOM     34  N   UNL A   1      35.077  33.738  30.019  1.00  0.00    -0.352 N 
ATOM     35  C   UNL A   1      35.220  32.621  30.830  1.00  0.00     0.251 C 
ATOM     36  H   UNL A   1      34.966  34.606  30.469  1.00  0.00     0.163 HD
ATOM     37  O   UNL A   1      34.657  32.486  31.909  1.00  0.00    -0.269 OA
BRANCH  35  38
ATOM     38  C   UNL A   1      36.258  31.663  30.405  1.00  0.00     0.039 A 
ATOM     39  C   UNL A   1      36.244  30.395  31.003  1.00  0.00     0.014 A 
ATOM     40  C   UNL A   1      37.393  32.165  29.781  1.00  0.00     0.014 A 
ATOM     41  C   UNL A   1      37.441  29.718  31.174  1.00  0.00     0.010 A 
ATOM     42  C   UNL A   1      38.589  31.588  30.101  1.00  0.00     0.010 A 
ATOM     43  C   UNL A   1      38.604  30.384  30.816  1.00  0.00    -0.014 A 
BRANCH  43  44
ATOM     44  C   UNL A   1      39.940  29.880  31.022  1.00  0.00     0.031 A 
ATOM     45  C   UNL A   1      40.243  28.593  30.372  1.00  0.00     0.074 A 
ATOM     46  C   UNL A   1      40.850  30.731  31.537  1.00  0.00     0.049 A 
ATOM     47  N   UNL A   1      41.246  27.848  30.654  1.00  0.00    -0.248 NA
ATOM     48  C   UNL A   1      39.374  28.006  29.349  1.00  0.00     0.031 C 
ATOM     49  C   UNL A   1      42.302  30.672  31.456  1.00  0.00     0.029 A 
ATOM     50  N   UNL A   1      40.599  31.790  32.417  1.00  0.00    -0.354 N 
ATOM     51  C   UNL A   1      41.350  26.903  29.651  1.00  0.00     0.074 A 
ATOM     52  C   UNL A   1      40.098  26.960  28.946  1.00  0.00     0.031 C 
ATOM     53  C   UNL A   1      42.822  31.432  32.438  1.00  0.00     0.029 A 
ATOM     54  C   UNL A   1      41.713  31.876  33.272  1.00  0.00     0.049 A 
ATOM     55  H   UNL A   1      39.798  32.362  32.435  1.00  0.00     0.167 HD
ATOM     56  C   UNL A   1      42.568  26.327  29.444  1.00  0.00     0.037 A 
ATOM     57  C   UNL A   1      41.567  31.554  34.595  1.00  0.00     0.037 A 
ATOM     58  C   UNL A   1      43.499  26.821  30.458  1.00  0.00     0.049 A 
ATOM     59  C   UNL A   1      42.319  30.291  34.952  1.00  0.00     0.074 A 
ATOM     60  C   UNL A   1      44.401  27.872  30.438  1.00  0.00     0.029 A 
ATOM     61  N   UNL A   1      43.288  26.500  31.793  1.00  0.00    -0.354 N 
ATOM     62  N   UNL A   1      42.588  29.337  34.101  1.00  0.00    -0.248 NA
ATOM     63  C   UNL A   1      42.896  30.047  36.270  1.00  0.00     0.031 C 
ATOM     64  C   UNL A   1      44.665  28.239  31.781  1.00  0.00     0.029 A 
ATOM     65  C   UNL A   1      43.934  27.404  32.612  1.00  0.00     0.049 A 
ATOM     66  H   UNL A   1      42.753  25.736  32.110  1.00  0.00     0.167 HD
ATOM     67  C   UNL A   1      43.368  28.390  34.711  1.00  0.00     0.074 A 
ATOM     68  C   UNL A   1      43.531  28.880  36.068  1.00  0.00     0.031 C 
ATOM     69  C   UNL A   1      43.849  27.289  34.058  1.00  0.00     0.037 A 
BRANCH  56  70
ATOM     70  C   UNL A   1      43.027  25.590  28.201  1.00  0.00     0.058 A 
ATOM     71  C   UNL A   1      43.399  24.229  28.302  1.00  0.00     0.135 A 
ATOM     72  C   UNL A   1      43.172  26.135  26.908  1.00  0.00     0.135 A 
ATOM     73  F   UNL A   1      43.264  23.544  29.446  1.00  0.00    -0.206 F 
ATOM     74  C   UNL A   1      43.927  23.495  27.241  1.00  0.00     0.059 A 
ATOM     75  C   UNL A   1      43.723  25.425  25.833  1.00  0.00     0.059 A 
ATOM     76  F   UNL A   1      42.751  27.365  26.604  1.00  0.00    -0.206 F 
ATOM     77  C   UNL A   1      44.100  24.105  26.010  1.00  0.00     0.060 A 
BRANCH  77  78
ATOM     78  S   UNL A   1      44.780  23.131  24.657  1.00  0.00     0.124 S 
ATOM     79  O   UNL A   1      45.314  21.967  25.358  1.00  0.00    -0.237 OA
ATOM     80  O   UNL A   1      43.600  22.890  23.834  1.00  0.00    -0.237 OA
ATOM     81  O   UNL A   1      45.781  24.015  24.068  1.00  0.00    -0.744 OA
ENDBRANCH  77  78
ENDBRANCH  56  70
BRANCH  57  82
ATOM     82  C   UNL A   1      40.240  31.987  35.135  1.00  0.00     0.058 A 
ATOM     83  C   UNL A   1      39.236  30.999  35.218  1.00  0.00     0.135 A 
ATOM     84  C   UNL A   1      40.118  33.095  35.988  1.00  0.00     0.135 A 
ATOM     85  F   UNL A   1      39.283  29.930  34.405  1.00  0.00    -0.206 F 
ATOM     86  C   UNL A   1      38.281  31.001  36.231  1.00  0.00     0.059 A 
ATOM     87  C   UNL A   1      39.154  33.124  37.004  1.00  0.00     0.059 A 
ATOM     88  F   UNL A   1      41.024  34.083  35.948  1.00  0.00    -0.206 F 
ATOM     89  C   UNL A   1      38.297  32.033  37.165  1.00  0.00     0.060 A 
BRANCH  89  90
ATOM     90  S   UNL A   1      37.305  31.831  38.667  1.00  0.00     0.124 S 
ATOM     91  O   UNL A   1      36.897  30.434  38.574  1.00  0.00    -0.237 OA
ATOM     92  O   UNL A   1      38.273  32.137  39.725  1.00  0.00    -0.237 OA
ATOM     93  O   UNL A   1      36.240  32.811  38.500  1.00  0.00    -0.744 OA
ENDBRANCH  89  90
ENDBRANCH  57  82
BRANCH  69  94
ATOM     94  C   UNL A   1      44.402  26.051  34.723  1.00  0.00     0.058 A 
ATOM     95  C   UNL A   1      43.617  24.936  35.061  1.00  0.00     0.135 A 
ATOM     96  C   UNL A   1      45.798  25.889  34.913  1.00  0.00     0.135 A 
ATOM     97  F   UNL A   1      42.304  24.894  34.792  1.00  0.00    -0.206 F 
ATOM     98  C   UNL A   1      44.157  23.797  35.652  1.00  0.00     0.059 A 
ATOM     99  C   UNL A   1      46.366  24.731  35.429  1.00  0.00     0.059 A 
ATOM    100  F   UNL A   1      46.674  26.853  34.589  1.00  0.00    -0.206 F 
ATOM    101  C   UNL A   1      45.531  23.707  35.842  1.00  0.00     0.060 A 
BRANCH 101 102
ATOM    102  S   UNL A   1      46.217  22.238  36.616  1.00  0.00     0.124 S 
ATOM    103  O   UNL A   1      47.606  22.305  36.173  1.00  0.00    -0.237 OA
ATOM    104  O   UNL A   1      45.993  22.492  38.036  1.00  0.00    -0.237 OA
ATOM    105  O   UNL A   1      45.424  21.152  36.048  1.00  0.00    -0.744 OA
ENDBRANCH 101 102
ENDBRANCH  69  94
ENDBRANCH  43  44
ENDBRANCH  35  38
ENDBRANCH  33  34
ENDBRANCH   1  33
TORSDOF 15
ENDMDL
MODEL 3
REMARK VINA RESULT:     -13.3      4.766     11.730
REMARK SMILES Cc1ccc([C@H]2NC(=O)N(C)C3=C2C(=O)N(c2cccc(C(=O)NCCCNC(=O)c4ccc(-c5c6nc(c(-c7c(F)cc(S(=O)(=O)[O-])cc7F)c7ccc([nH]7)c(-c7c(F)cc(S(=O)(=O)[O-])cc7F)c7nc(c(-c8c(F)cc(S(=O)(=O)[O-])cc8F)c8ccc5[nH]8)C=C7)C=C6)cc4)c2)C3)cc1
REMARK SMILES IDX 26 1 25 2 24 3 22 4 23 5 21 7 17 8 18 9 97 10 19 11 20 12
REMARK SMILES IDX 16 13 6 14 7 15 13 16 8 17 12 19 14 20 9 21 10 22 98 23
REMARK SMILES IDX 15 24 11 25 5 26 1 27 2 28 3 29 100 30 4 31 99 32 27 33
REMARK SMILES IDX 28 34 29 35 30 37 31 38 32 39 96 40 33 41 95 42 34 43 35 44
REMARK SMILES IDX 36 45 89 46 37 47 94 48 88 49 90 50 38 51 93 52 87 53 86 54
REMARK SMILES IDX 39 56 73 57 52 58 72 59 53 60 56 61 71 62 91 63 54 64 55 65
REMARK SMILES IDX 70 67 92 68 57 69 40 70 41 71 50 72 42 73 43 74 49 75 51 76
REMARK SMILES IDX 44 77 45 78 46 79 47 80 48 81 74 82 75 83 84 84 76 85 77 86
REMARK SMILES IDX 83 87 85 88 78 89 79 90 80 91 81 92 82 93 58 94 59 95 68 96
REMARK SMILES IDX 60 97 61 98 67 99 69 100 62 101 63 102 64 103 65 104 66 105
REMARK H PARENT 24 6 7 18 28 36 90 55 56 66
REMARK Flexibility Score: inf
ROOT
ATOM      1  C   UNL A   1      35.153  33.816  33.426  1.00  0.00     0.042 C 
ENDROOT
BRANCH   1   2
ATOM      2  C   UNL A   1      35.128  35.341  33.337  1.00  0.00     0.118 C 
BRANCH   2   3
ATOM      3  N   UNL A   1      33.758  35.839  33.370  1.00  0.00    -0.352 N 
ATOM      4  C   UNL A   1      32.885  36.250  32.395  1.00  0.00     0.251 C 
ATOM      5  O   UNL A   1      31.776  36.644  32.767  1.00  0.00    -0.269 OA
ATOM      6  H   UNL A   1      33.382  35.891  34.278  1.00  0.00     0.163 HD
BRANCH   4   7
ATOM      7  C   UNL A   1      33.166  36.221  30.921  1.00  0.00     0.041 A 
ATOM      8  C   UNL A   1      33.780  34.819  29.012  1.00  0.00     0.045 A 
ATOM      9  C   UNL A   1      33.969  35.958  28.232  1.00  0.00     0.026 A 
ATOM     10  C   UNL A   1      33.367  34.951  30.344  1.00  0.00     0.040 A 
ATOM     11  C   UNL A   1      33.679  37.209  28.755  1.00  0.00     0.003 A 
ATOM     12  C   UNL A   1      33.277  37.334  30.086  1.00  0.00     0.014 A 
BRANCH   8  13
ATOM     13  N   UNL A   1      34.031  33.554  28.463  1.00  0.00    -0.303 N 
ATOM     14  C   UNL A   1      36.091  30.597  27.679  1.00  0.00     0.152 C 
ATOM     15  N   UNL A   1      35.536  29.541  26.842  1.00  0.00    -0.327 N 
ATOM     16  C   UNL A   1      35.095  31.673  27.755  1.00  0.00     0.066 C 
ATOM     17  C   UNL A   1      34.217  29.360  26.520  1.00  0.00     0.322 C 
ATOM     18  H   UNL A   1      36.174  28.890  26.470  1.00  0.00     0.166 HD
ATOM     19  C   UNL A   1      33.799  31.530  27.489  1.00  0.00     0.053 C 
ATOM     20  C   UNL A   1      35.305  33.023  28.275  1.00  0.00     0.258 C 
ATOM     21  O   UNL A   1      33.890  28.352  25.899  1.00  0.00    -0.248 OA
ATOM     22  N   UNL A   1      33.337  30.375  26.898  1.00  0.00    -0.299 N 
ATOM     23  C   UNL A   1      32.987  32.685  27.971  1.00  0.00     0.180 C 
ATOM     24  O   UNL A   1      36.394  33.491  28.513  1.00  0.00    -0.269 OA
ATOM     25  C   UNL A   1      31.925  30.243  26.569  1.00  0.00     0.155 C 
BRANCH  14  26
ATOM     26  C   UNL A   1      36.502  30.027  29.040  1.00  0.00    -0.021 A 
ATOM     27  C   UNL A   1      37.804  28.433  32.858  1.00  0.00     0.044 C 
ATOM     28  C   UNL A   1      37.347  28.977  31.538  1.00  0.00    -0.051 A 
ATOM     29  C   UNL A   1      37.939  28.548  30.346  1.00  0.00     0.004 A 
ATOM     30  C   UNL A   1      36.321  29.918  31.478  1.00  0.00     0.004 A 
ATOM     31  C   UNL A   1      37.527  29.069  29.114  1.00  0.00     0.006 A 
ATOM     32  C   UNL A   1      35.899  30.427  30.248  1.00  0.00     0.006 A 
ENDBRANCH  14  26
ENDBRANCH   8  13
ENDBRANCH   4   7
ENDBRANCH   2   3
ENDBRANCH   1   2
BRANCH   1  33
ATOM     33  C   UNL A   1      36.487  33.241  33.001  1.00  0.00     0.118 C 
BRANCH  33  34
ATOM     34  N   UNL A   1      37.049  33.916  31.837  1.00  0.00    -0.352 N 
ATOM     35  C   UNL A   1      38.355  33.801  31.381  1.00  0.00     0.251 C 
ATOM     36  H   UNL A   1      36.448  34.505  31.328  1.00  0.00     0.163 HD
ATOM     37  O   UNL A   1      38.977  34.717  30.861  1.00  0.00    -0.269 OA
BRANCH  35  38
ATOM     38  C   UNL A   1      38.902  32.431  31.382  1.00  0.00     0.039 A 
ATOM     39  C   UNL A   1      39.015  31.786  32.623  1.00  0.00     0.014 A 
ATOM     40  C   UNL A   1      39.633  32.019  30.276  1.00  0.00     0.014 A 
ATOM     41  C   UNL A   1      40.033  30.866  32.814  1.00  0.00     0.010 A 
ATOM     42  C   UNL A   1      40.738  31.250  30.506  1.00  0.00     0.010 A 
ATOM     43  C   UNL A   1      40.943  30.702  31.779  1.00  0.00    -0.014 A 
BRANCH  43  44
ATOM     44  C   UNL A   1      42.120  29.871  31.841  1.00  0.00     0.031 A 
ATOM     45  C   UNL A   1      42.067  28.628  31.053  1.00  0.00     0.074 A 
ATOM     46  C   UNL A   1      43.235  30.418  32.368  1.00  0.00     0.049 A 
ATOM     47  N   UNL A   1      42.866  27.637  31.192  1.00  0.00    -0.248 NA
ATOM     48  C   UNL A   1      41.033  28.382  30.043  1.00  0.00     0.031 C 
ATOM     49  C   UNL A   1      44.622  30.020  32.179  1.00  0.00     0.029 A 
ATOM     50  N   UNL A   1      43.293  31.403  33.359  1.00  0.00    -0.354 N 
ATOM     51  C   UNL A   1      42.687  26.809  30.100  1.00  0.00     0.074 A 
ATOM     52  C   UNL A   1      41.457  27.242  29.494  1.00  0.00     0.031 C 
ATOM     53  C   UNL A   1      45.358  30.520  33.189  1.00  0.00     0.029 A 
ATOM     54  C   UNL A   1      44.432  31.125  34.138  1.00  0.00     0.049 A 
ATOM     55  H   UNL A   1      42.660  32.146  33.487  1.00  0.00     0.167 HD
ATOM     56  C   UNL A   1      43.715  25.983  29.754  1.00  0.00     0.037 A 
ATOM     57  C   UNL A   1      44.272  30.706  35.431  1.00  0.00     0.037 A 
ATOM     58  C   UNL A   1      44.785  26.125  30.741  1.00  0.00     0.049 A 
ATOM     59  C   UNL A   1      44.705  29.269  35.614  1.00  0.00     0.074 A 
ATOM     60  C   UNL A   1      45.916  26.923  30.756  1.00  0.00     0.029 A 
ATOM     61  N   UNL A   1      44.562  25.722  32.052  1.00  0.00    -0.354 N 
ATOM     62  N   UNL A   1      44.691  28.376  34.660  1.00  0.00    -0.248 NA
ATOM     63  C   UNL A   1      45.264  28.751  36.858  1.00  0.00     0.031 C 
ATOM     64  C   UNL A   1      46.324  27.069  32.105  1.00  0.00     0.029 A 
ATOM     65  C   UNL A   1      45.449  26.349  32.904  1.00  0.00     0.049 A 
ATOM     66  H   UNL A   1      43.870  25.079  32.333  1.00  0.00     0.167 HD
ATOM     67  C   UNL A   1      45.240  27.208  35.121  1.00  0.00     0.074 A 
ATOM     68  C   UNL A   1      45.581  27.494  36.503  1.00  0.00     0.031 C 
ATOM     69  C   UNL A   1      45.404  26.101  34.335  1.00  0.00     0.037 A 
BRANCH  56  70
ATOM     70  C   UNL A   1      43.921  25.297  28.417  1.00  0.00     0.058 A 
ATOM     71  C   UNL A   1      43.567  23.934  28.278  1.00  0.00     0.135 A 
ATOM     72  C   UNL A   1      44.484  25.869  27.258  1.00  0.00     0.135 A 
ATOM     73  F   UNL A   1      42.965  23.258  29.267  1.00  0.00    -0.206 F 
ATOM     74  C   UNL A   1      43.810  23.190  27.125  1.00  0.00     0.059 A 
ATOM     75  C   UNL A   1      44.759  25.137  26.096  1.00  0.00     0.059 A 
ATOM     76  F   UNL A   1      44.758  27.174  27.170  1.00  0.00    -0.206 F 
ATOM     77  C   UNL A   1      44.421  23.795  26.040  1.00  0.00     0.060 A 
BRANCH  77  78
ATOM     78  S   UNL A   1      44.716  22.811  24.562  1.00  0.00     0.124 S 
ATOM     79  O   UNL A   1      45.740  23.593  23.875  1.00  0.00    -0.237 OA
ATOM     80  O   UNL A   1      45.159  21.540  25.126  1.00  0.00    -0.237 OA
ATOM     81  O   UNL A   1      43.413  22.781  23.905  1.00  0.00    -0.744 OA
ENDBRANCH  77  78
ENDBRANCH  56  70
BRANCH  57  82
ATOM     82  C   UNL A   1      43.119  31.386  36.102  1.00  0.00     0.058 A 
ATOM     83  C   UNL A   1      43.299  32.741  36.451  1.00  0.00     0.135 A 
ATOM     84  C   UNL A   1      41.799  30.940  35.929  1.00  0.00     0.135 A 
ATOM     85  F   UNL A   1      44.538  33.218  36.660  1.00  0.00    -0.206 F 
ATOM     86  C   UNL A   1      42.248  33.655  36.428  1.00  0.00     0.059 A 
ATOM     87  C   UNL A   1      40.726  31.840  35.917  1.00  0.00     0.059 A 
ATOM     88  F   UNL A   1      41.552  29.660  35.617  1.00  0.00    -0.206 F 
ATOM     89  C   UNL A   1      40.977  33.204  36.085  1.00  0.00     0.060 A 
BRANCH  89  90
ATOM     90  S   UNL A   1      39.715  34.446  35.700  1.00  0.00     0.124 S 
ATOM     91  O   UNL A   1      40.013  35.491  36.672  1.00  0.00    -0.237 OA
ATOM     92  O   UNL A   1      40.016  34.777  34.304  1.00  0.00    -0.237 OA
ATOM     93  O   UNL A   1      38.464  33.729  35.910  1.00  0.00    -0.744 OA
ENDBRANCH  89  90
ENDBRANCH  57  82
BRANCH  69  94
ATOM     94  C   UNL A   1      45.664  24.703  34.840  1.00  0.00     0.058 A 
ATOM     95  C   UNL A   1      44.650  23.837  35.284  1.00  0.00     0.135 A 
ATOM     96  C   UNL A   1      46.957  24.126  34.753  1.00  0.00     0.135 A 
ATOM     97  F   UNL A   1      43.360  24.202  35.272  1.00  0.00    -0.206 F 
ATOM     98  C   UNL A   1      44.915  22.543  35.723  1.00  0.00     0.059 A 
ATOM     99  C   UNL A   1      47.229  22.812  35.112  1.00  0.00     0.059 A 
ATOM    100  F   UNL A   1      48.013  24.819  34.299  1.00  0.00    -0.206 F 
ATOM    101  C   UNL A   1      46.208  22.042  35.642  1.00  0.00     0.060 A 
BRANCH 101 102
ATOM    102  S   UNL A   1      46.543  20.373  36.220  1.00  0.00     0.124 S 
ATOM    103  O   UNL A   1      45.662  20.291  37.380  1.00  0.00    -0.237 OA
ATOM    104  O   UNL A   1      46.156  19.556  35.073  1.00  0.00    -0.237 OA
ATOM    105  O   UNL A   1      47.972  20.394  36.511  1.00  0.00    -0.744 OA
ENDBRANCH 101 102
ENDBRANCH  69  94
ENDBRANCH  43  44
ENDBRANCH  35  38
ENDBRANCH  33  34
ENDBRANCH   1  33
TORSDOF 15
ENDMDL
