MODEL 1
REMARK VINA RESULT:     -12.0      0.000      0.000
REMARK SMILES CC(C)(CNC(=O)[C@H]1CCC[C@H](C(=O)NCCCNC(=O)c2ccc(-c3c4nc(c(-c5c(F)cc(S(=O)(=O)[O-])cc5F)c5ccc([nH]5)c(-c5c(F)cc(S(=O)(=O)[O-])cc5F)c5nc(c(-c6c(F)cc(S(=O)(=O)[O-])cc6F)c6ccc3[nH]6)C=C5)C=C4)cc2)C1)S(C)(=O)=O
REMARK SMILES IDX 16 1 15 2 13 3 14 4 12 6 8 7 9 8 88 9 10 10 11 11 6 12 5 13
REMARK SMILES IDX 7 15 4 16 2 17 1 18 3 19 89 20 90 21 91 22 92 23 17 24 18 25
REMARK SMILES IDX 19 26 20 27 21 29 22 30 23 31 87 32 24 33 86 34 25 35 26 36
REMARK SMILES IDX 27 37 80 38 28 39 85 40 79 41 81 42 29 43 84 44 78 45 77 46
REMARK SMILES IDX 30 48 64 49 43 50 63 51 44 52 47 53 62 54 82 55 45 56 46 57
REMARK SMILES IDX 61 59 83 60 48 61 31 62 32 63 41 64 33 65 34 66 40 67 42 68
REMARK SMILES IDX 35 69 36 70 37 71 38 72 39 73 65 74 66 75 75 76 67 77 68 78
REMARK SMILES IDX 74 79 76 80 69 81 70 82 71 83 72 84 73 85 49 86 50 87 59 88
REMARK SMILES IDX 51 89 52 90 58 91 60 92 53 93 54 94 55 95 56 96 57 97
REMARK H PARENT 15 5 5 14 19 28 81 47 47 58
REMARK Flexibility Score: inf
ROOT
ATOM      1  C   UNL A   1      33.695  30.200  26.871  1.00  0.00     0.117 C 
ENDROOT
BRANCH   1   2
ATOM      2  N   UNL A   1      32.685  29.433  27.587  1.00  0.00    -0.356 N 
ATOM      3  C   UNL A   1      32.030  28.284  27.257  1.00  0.00     0.223 C 
ATOM      4  O   UNL A   1      31.204  27.845  28.060  1.00  0.00    -0.275 OA
ATOM      5  H   UNL A   1      32.431  29.809  28.459  1.00  0.00     0.163 HD
BRANCH   3   6
ATOM      6  C   UNL A   1      32.328  27.543  25.957  1.00  0.00     0.079 C 
ATOM      7  C   UNL A   1      31.252  25.744  24.435  1.00  0.00     0.079 C 
ATOM      8  C   UNL A   1      32.391  24.811  24.844  1.00  0.00     0.013 C 
ATOM      9  C   UNL A   1      31.044  26.887  25.426  1.00  0.00     0.027 C 
ATOM     10  C   UNL A   1      33.695  25.574  25.028  1.00  0.00     0.002 C 
ATOM     11  C   UNL A   1      33.565  26.645  26.098  1.00  0.00     0.013 C 
BRANCH   7  12
ATOM     12  C   UNL A   1      31.494  26.259  23.021  1.00  0.00     0.223 C 
ATOM     13  N   UNL A   1      30.634  27.179  22.493  1.00  0.00    -0.354 N 
ATOM     14  H   UNL A   1      30.786  27.409  21.547  1.00  0.00     0.163 HD
ATOM     15  O   UNL A   1      32.423  25.874  22.314  1.00  0.00    -0.275 OA
BRANCH  13  16
ATOM     16  C   UNL A   1      29.529  27.865  23.136  1.00  0.00     0.138 C 
BRANCH  16  17
ATOM     17  C   UNL A   1      29.536  29.396  22.969  1.00  0.00     0.084 C 
ATOM     18  C   UNL A   1      30.153  30.090  24.191  1.00  0.00     0.030 C 
ATOM     19  C   UNL A   1      30.409  29.715  21.734  1.00  0.00     0.030 C 
BRANCH  17  20
ATOM     20  S   UNL A   1      27.866  30.055  22.616  1.00  0.00     0.154 S 
ATOM     21  C   UNL A   1      27.665  31.589  23.500  1.00  0.00     0.158 C 
ATOM     22  O   UNL A   1      27.834  30.401  21.202  1.00  0.00    -0.229 OA
ATOM     23  O   UNL A   1      26.890  29.123  23.146  1.00  0.00    -0.229 OA
ENDBRANCH  17  20
ENDBRANCH  16  17
ENDBRANCH  13  16
ENDBRANCH   7  12
ENDBRANCH   3   6
ENDBRANCH   1   2
BRANCH   1  24
ATOM     24  C   UNL A   1      34.204  31.385  27.678  1.00  0.00     0.042 C 
BRANCH  24  25
ATOM     25  C   UNL A   1      35.557  31.146  28.322  1.00  0.00     0.118 C 
BRANCH  25  26
ATOM     26  N   UNL A   1      35.467  31.014  29.768  1.00  0.00    -0.352 N 
ATOM     27  C   UNL A   1      36.351  30.448  30.653  1.00  0.00     0.251 C 
ATOM     28  H   UNL A   1      34.650  31.386  30.172  1.00  0.00     0.163 HD
ATOM     29  O   UNL A   1      35.998  30.241  31.811  1.00  0.00    -0.269 OA
BRANCH  27  30
ATOM     30  C   UNL A   1      37.712  30.073  30.209  1.00  0.00     0.039 A 
ATOM     31  C   UNL A   1      38.632  29.613  31.154  1.00  0.00     0.014 A 
ATOM     32  C   UNL A   1      38.088  30.193  28.868  1.00  0.00     0.014 A 
ATOM     33  C   UNL A   1      39.911  29.230  30.743  1.00  0.00     0.010 A 
ATOM     34  C   UNL A   1      39.320  29.710  28.447  1.00  0.00     0.010 A 
ATOM     35  C   UNL A   1      40.257  29.250  29.383  1.00  0.00    -0.014 A 
BRANCH  35  36
ATOM     36  C   UNL A   1      41.610  28.847  28.920  1.00  0.00     0.031 A 
ATOM     37  C   UNL A   1      42.708  29.877  28.837  1.00  0.00     0.074 A 
ATOM     38  C   UNL A   1      41.837  27.579  28.526  1.00  0.00     0.049 A 
ATOM     39  N   UNL A   1      43.932  29.746  28.396  1.00  0.00    -0.248 NA
ATOM     40  C   UNL A   1      42.375  31.242  29.276  1.00  0.00     0.031 C 
ATOM     41  C   UNL A   1      40.842  26.503  28.514  1.00  0.00     0.029 A 
ATOM     42  N   UNL A   1      42.976  26.980  28.051  1.00  0.00    -0.354 N 
ATOM     43  C   UNL A   1      44.505  31.010  28.488  1.00  0.00     0.074 A 
ATOM     44  C   UNL A   1      43.475  31.907  28.962  1.00  0.00     0.031 C 
ATOM     45  C   UNL A   1      41.422  25.372  28.083  1.00  0.00     0.029 A 
ATOM     46  C   UNL A   1      42.815  25.648  27.749  1.00  0.00     0.049 A 
ATOM     47  H   UNL A   1      43.829  27.458  27.939  1.00  0.00     0.167 HD
ATOM     48  C   UNL A   1      45.781  31.385  28.231  1.00  0.00     0.037 A 
ATOM     49  C   UNL A   1      43.693  24.751  27.254  1.00  0.00     0.037 A 
ATOM     50  C   UNL A   1      46.807  30.479  27.787  1.00  0.00     0.049 A 
ATOM     51  C   UNL A   1      45.107  25.190  26.983  1.00  0.00     0.074 A 
ATOM     52  C   UNL A   1      48.143  30.744  27.544  1.00  0.00     0.029 A 
ATOM     53  N   UNL A   1      46.612  29.130  27.521  1.00  0.00    -0.354 N 
ATOM     54  N   UNL A   1      45.646  26.378  27.127  1.00  0.00    -0.248 NA
ATOM     55  C   UNL A   1      46.037  24.163  26.495  1.00  0.00     0.031 C 
ATOM     56  C   UNL A   1      48.744  29.568  27.086  1.00  0.00     0.029 A 
ATOM     57  C   UNL A   1      47.800  28.555  27.103  1.00  0.00     0.049 A 
ATOM     58  H   UNL A   1      45.755  28.654  27.616  1.00  0.00     0.167 HD
ATOM     59  C   UNL A   1      46.987  26.230  26.788  1.00  0.00     0.074 A 
ATOM     60  C   UNL A   1      47.176  24.838  26.437  1.00  0.00     0.031 C 
ATOM     61  C   UNL A   1      47.974  27.161  26.773  1.00  0.00     0.037 A 
BRANCH  48  62
ATOM     62  C   UNL A   1      46.136  32.835  28.429  1.00  0.00     0.058 A 
ATOM     63  C   UNL A   1      46.030  33.772  27.388  1.00  0.00     0.135 A 
ATOM     64  C   UNL A   1      46.565  33.300  29.684  1.00  0.00     0.135 A 
ATOM     65  F   UNL A   1      45.643  33.383  26.163  1.00  0.00    -0.206 F 
ATOM     66  C   UNL A   1      46.367  35.109  27.573  1.00  0.00     0.059 A 
ATOM     67  C   UNL A   1      46.876  34.639  29.901  1.00  0.00     0.059 A 
ATOM     68  F   UNL A   1      46.687  32.449  30.714  1.00  0.00    -0.206 F 
ATOM     69  C   UNL A   1      46.788  35.533  28.835  1.00  0.00     0.060 A 
BRANCH  69  70
ATOM     70  S   UNL A   1      47.214  37.273  29.059  1.00  0.00     0.124 S 
ATOM     71  O   UNL A   1      47.258  37.378  30.514  1.00  0.00    -0.237 OA
ATOM     72  O   UNL A   1      48.501  37.369  28.377  1.00  0.00    -0.237 OA
ATOM     73  O   UNL A   1      46.112  37.980  28.413  1.00  0.00    -0.744 OA
ENDBRANCH  69  70
ENDBRANCH  48  62
BRANCH  49  74
ATOM     74  C   UNL A   1      43.267  23.346  27.016  1.00  0.00     0.058 A 
ATOM     75  C   UNL A   1      43.016  22.877  25.718  1.00  0.00     0.135 A 
ATOM     76  C   UNL A   1      43.110  22.441  28.077  1.00  0.00     0.135 A 
ATOM     77  F   UNL A   1      43.147  23.704  24.668  1.00  0.00    -0.206 F 
ATOM     78  C   UNL A   1      42.602  21.569  25.480  1.00  0.00     0.059 A 
ATOM     79  C   UNL A   1      42.726  21.121  27.863  1.00  0.00     0.059 A 
ATOM     80  F   UNL A   1      43.356  22.832  29.337  1.00  0.00    -0.206 F 
ATOM     81  C   UNL A   1      42.462  20.698  26.561  1.00  0.00     0.060 A 
BRANCH  81  82
ATOM     82  S   UNL A   1      41.968  18.991  26.238  1.00  0.00     0.124 S 
ATOM     83  O   UNL A   1      42.877  18.622  25.159  1.00  0.00    -0.237 OA
ATOM     84  O   UNL A   1      42.213  18.353  27.527  1.00  0.00    -0.237 OA
ATOM     85  O   UNL A   1      40.562  19.114  25.864  1.00  0.00    -0.744 OA
ENDBRANCH  81  82
ENDBRANCH  49  74
BRANCH  61  86
ATOM     86  C   UNL A   1      49.362  26.694  26.428  1.00  0.00     0.058 A 
ATOM     87  C   UNL A   1      50.219  26.124  27.383  1.00  0.00     0.135 A 
ATOM     88  C   UNL A   1      49.827  26.789  25.105  1.00  0.00     0.135 A 
ATOM     89  F   UNL A   1      49.826  26.012  28.662  1.00  0.00    -0.206 F 
ATOM     90  C   UNL A   1      51.502  25.701  27.047  1.00  0.00     0.059 A 
ATOM     91  C   UNL A   1      51.092  26.340  24.740  1.00  0.00     0.059 A 
ATOM     92  F   UNL A   1      49.044  27.311  24.148  1.00  0.00    -0.206 F 
ATOM     93  C   UNL A   1      51.929  25.815  25.723  1.00  0.00     0.060 A 
BRANCH  93  94
ATOM     94  S   UNL A   1      53.591  25.253  25.298  1.00  0.00     0.124 S 
ATOM     95  O   UNL A   1      54.358  25.708  26.454  1.00  0.00    -0.237 OA
ATOM     96  O   UNL A   1      53.413  23.809  25.184  1.00  0.00    -0.237 OA
ATOM     97  O   UNL A   1      53.874  25.945  24.044  1.00  0.00    -0.744 OA
ENDBRANCH  93  94
ENDBRANCH  61  86
ENDBRANCH  35  36
ENDBRANCH  27  30
ENDBRANCH  25  26
ENDBRANCH  24  25
ENDBRANCH   1  24
TORSDOF 17
ENDMDL
MODEL 2
REMARK VINA RESULT:     -12.0      6.441     11.931
REMARK SMILES CC(C)(CNC(=O)[C@H]1CCC[C@H](C(=O)NCCCNC(=O)c2ccc(-c3c4nc(c(-c5c(F)cc(S(=O)(=O)[O-])cc5F)c5ccc([nH]5)c(-c5c(F)cc(S(=O)(=O)[O-])cc5F)c5nc(c(-c6c(F)cc(S(=O)(=O)[O-])cc6F)c6ccc3[nH]6)C=C5)C=C4)cc2)C1)S(C)(=O)=O
REMARK SMILES IDX 16 1 15 2 13 3 14 4 12 6 8 7 9 8 88 9 10 10 11 11 6 12 5 13
REMARK SMILES IDX 7 15 4 16 2 17 1 18 3 19 89 20 90 21 91 22 92 23 17 24 18 25
REMARK SMILES IDX 19 26 20 27 21 29 22 30 23 31 87 32 24 33 86 34 25 35 26 36
REMARK SMILES IDX 27 37 80 38 28 39 85 40 79 41 81 42 29 43 84 44 78 45 77 46
REMARK SMILES IDX 30 48 64 49 43 50 63 51 44 52 47 53 62 54 82 55 45 56 46 57
REMARK SMILES IDX 61 59 83 60 48 61 31 62 32 63 41 64 33 65 34 66 40 67 42 68
REMARK SMILES IDX 35 69 36 70 37 71 38 72 39 73 65 74 66 75 75 76 67 77 68 78
REMARK SMILES IDX 74 79 76 80 69 81 70 82 71 83 72 84 73 85 49 86 50 87 59 88
REMARK SMILES IDX 51 89 52 90 58 91 60 92 53 93 54 94 55 95 56 96 57 97
REMARK H PARENT 15 5 5 14 19 28 81 47 47 58
REMARK Flexibility Score: inf
ROOT
ATOM      1  C   UNL A   1      37.901  22.899  26.103  1.00  0.00     0.117 C 
ENDROOT
BRANCH   1   2
ATOM      2  N   UNL A   1      37.692  22.954  24.662  1.00  0.00    -0.356 N 
ATOM      3  C   UNL A   1      36.554  22.879  23.917  1.00  0.00     0.223 C 
ATOM      4  O   UNL A   1      36.665  22.949  22.691  1.00  0.00    -0.275 OA
ATOM      5  H   UNL A   1      38.516  23.062  24.136  1.00  0.00     0.163 HD
BRANCH   3   6
ATOM      6  C   UNL A   1      35.181  22.750  24.571  1.00  0.00     0.079 C 
ATOM      7  C   UNL A   1      33.745  23.943  26.367  1.00  0.00     0.079 C 
ATOM      8  C   UNL A   1      33.911  22.695  27.234  1.00  0.00     0.013 C 
ATOM      9  C   UNL A   1      34.823  24.059  25.291  1.00  0.00     0.027 C 
ATOM     10  C   UNL A   1      33.931  21.430  26.388  1.00  0.00     0.002 C 
ATOM     11  C   UNL A   1      35.070  21.452  25.382  1.00  0.00     0.013 C 
BRANCH   7  12
ATOM     12  C   UNL A   1      32.344  23.968  25.768  1.00  0.00     0.223 C 
ATOM     13  N   UNL A   1      31.575  25.085  25.922  1.00  0.00    -0.354 N 
ATOM     14  H   UNL A   1      30.649  25.013  25.594  1.00  0.00     0.163 HD
ATOM     15  O   UNL A   1      31.855  23.018  25.158  1.00  0.00    -0.275 OA
BRANCH  13  16
ATOM     16  C   UNL A   1      31.936  26.364  26.504  1.00  0.00     0.138 C 
BRANCH  16  17
ATOM     17  C   UNL A   1      32.115  27.507  25.487  1.00  0.00     0.084 C 
ATOM     18  C   UNL A   1      31.738  28.863  26.096  1.00  0.00     0.030 C 
ATOM     19  C   UNL A   1      33.612  27.543  25.103  1.00  0.00     0.030 C 
BRANCH  17  20
ATOM     20  S   UNL A   1      31.184  27.202  23.941  1.00  0.00     0.154 S 
ATOM     21  C   UNL A   1      31.053  28.738  23.048  1.00  0.00     0.158 C 
ATOM     22  O   UNL A   1      32.003  26.328  23.115  1.00  0.00    -0.229 OA
ATOM     23  O   UNL A   1      29.839  26.795  24.297  1.00  0.00    -0.229 OA
ENDBRANCH  17  20
ENDBRANCH  16  17
ENDBRANCH  13  16
ENDBRANCH   7  12
ENDBRANCH   3   6
ENDBRANCH   1   2
BRANCH   1  24
ATOM     24  C   UNL A   1      39.269  22.343  26.471  1.00  0.00     0.042 C 
BRANCH  24  25
ATOM     25  C   UNL A   1      40.196  23.372  27.093  1.00  0.00     0.118 C 
BRANCH  25  26
ATOM     26  N   UNL A   1      41.068  23.998  26.112  1.00  0.00    -0.352 N 
ATOM     27  C   UNL A   1      41.499  25.299  26.027  1.00  0.00     0.251 C 
ATOM     28  H   UNL A   1      41.398  23.400  25.403  1.00  0.00     0.163 HD
ATOM     29  O   UNL A   1      42.059  25.684  25.003  1.00  0.00    -0.269 OA
BRANCH  27  30
ATOM     30  C   UNL A   1      41.274  26.233  27.152  1.00  0.00     0.039 A 
ATOM     31  C   UNL A   1      40.263  25.953  28.074  1.00  0.00     0.014 A 
ATOM     32  C   UNL A   1      42.043  27.391  27.288  1.00  0.00     0.014 A 
ATOM     33  C   UNL A   1      40.058  26.812  29.156  1.00  0.00     0.010 A 
ATOM     34  C   UNL A   1      41.910  28.184  28.421  1.00  0.00     0.010 A 
ATOM     35  C   UNL A   1      40.898  27.920  29.354  1.00  0.00    -0.014 A 
BRANCH  35  36
ATOM     36  C   UNL A   1      40.702  28.848  30.497  1.00  0.00     0.031 A 
ATOM     37  C   UNL A   1      41.553  28.699  31.733  1.00  0.00     0.074 A 
ATOM     38  C   UNL A   1      39.734  29.783  30.448  1.00  0.00     0.049 A 
ATOM     39  N   UNL A   1      41.494  29.359  32.861  1.00  0.00    -0.248 NA
ATOM     40  C   UNL A   1      42.581  27.645  31.711  1.00  0.00     0.031 C 
ATOM     41  C   UNL A   1      38.814  29.994  29.327  1.00  0.00     0.029 A 
ATOM     42  N   UNL A   1      39.354  30.727  31.368  1.00  0.00    -0.354 N 
ATOM     43  C   UNL A   1      42.463  28.790  33.683  1.00  0.00     0.074 A 
ATOM     44  C   UNL A   1      43.045  27.689  32.950  1.00  0.00     0.031 C 
ATOM     45  C   UNL A   1      37.999  31.021  29.614  1.00  0.00     0.029 A 
ATOM     46  C   UNL A   1      38.306  31.515  30.952  1.00  0.00     0.049 A 
ATOM     47  H   UNL A   1      39.792  30.832  32.243  1.00  0.00     0.167 HD
ATOM     48  C   UNL A   1      42.852  29.168  34.923  1.00  0.00     0.037 A 
ATOM     49  C   UNL A   1      37.664  32.519  31.581  1.00  0.00     0.037 A 
ATOM     50  C   UNL A   1      42.286  30.284  35.634  1.00  0.00     0.049 A 
ATOM     51  C   UNL A   1      38.120  32.928  32.956  1.00  0.00     0.074 A 
ATOM     52  C   UNL A   1      42.640  30.784  36.874  1.00  0.00     0.029 A 
ATOM     53  N   UNL A   1      41.246  31.077  35.166  1.00  0.00    -0.354 N 
ATOM     54  N   UNL A   1      39.073  32.413  33.697  1.00  0.00    -0.248 NA
ATOM     55  C   UNL A   1      37.422  34.061  33.577  1.00  0.00     0.031 C 
ATOM     56  C   UNL A   1      41.784  31.847  37.177  1.00  0.00     0.029 A 
ATOM     57  C   UNL A   1      40.937  32.051  36.100  1.00  0.00     0.049 A 
ATOM     58  H   UNL A   1      40.795  30.962  34.298  1.00  0.00     0.167 HD
ATOM     59  C   UNL A   1      39.117  33.187  34.852  1.00  0.00     0.074 A 
ATOM     60  C   UNL A   1      38.098  34.206  34.707  1.00  0.00     0.031 C 
ATOM     61  C   UNL A   1      39.930  33.070  35.932  1.00  0.00     0.037 A 
BRANCH  48  62
ATOM     62  C   UNL A   1      43.945  28.372  35.586  1.00  0.00     0.058 A 
ATOM     63  C   UNL A   1      43.662  27.293  36.439  1.00  0.00     0.135 A 
ATOM     64  C   UNL A   1      45.296  28.676  35.345  1.00  0.00     0.135 A 
ATOM     65  F   UNL A   1      42.390  26.967  36.721  1.00  0.00    -0.206 F 
ATOM     66  C   UNL A   1      44.675  26.565  37.055  1.00  0.00     0.059 A 
ATOM     67  C   UNL A   1      46.326  27.939  35.924  1.00  0.00     0.059 A 
ATOM     68  F   UNL A   1      45.626  29.697  34.540  1.00  0.00    -0.206 F 
ATOM     69  C   UNL A   1      46.004  26.895  36.790  1.00  0.00     0.060 A 
BRANCH  69  70
ATOM     70  S   UNL A   1      47.305  25.935  37.592  1.00  0.00     0.124 S 
ATOM     71  O   UNL A   1      47.274  24.697  36.819  1.00  0.00    -0.237 OA
ATOM     72  O   UNL A   1      48.481  26.777  37.393  1.00  0.00    -0.237 OA
ATOM     73  O   UNL A   1      46.845  25.824  38.973  1.00  0.00    -0.744 OA
ENDBRANCH  69  70
ENDBRANCH  48  62
BRANCH  49  74
ATOM     74  C   UNL A   1      36.545  33.229  30.902  1.00  0.00     0.058 A 
ATOM     75  C   UNL A   1      36.790  34.127  29.853  1.00  0.00     0.135 A 
ATOM     76  C   UNL A   1      35.211  33.017  31.282  1.00  0.00     0.135 A 
ATOM     77  F   UNL A   1      38.049  34.367  29.455  1.00  0.00    -0.206 F 
ATOM     78  C   UNL A   1      35.756  34.810  29.220  1.00  0.00     0.059 A 
ATOM     79  C   UNL A   1      34.157  33.665  30.644  1.00  0.00     0.059 A 
ATOM     80  F   UNL A   1      34.920  32.154  32.267  1.00  0.00    -0.206 F 
ATOM     81  C   UNL A   1      34.441  34.569  29.622  1.00  0.00     0.060 A 
BRANCH  81  82
ATOM     82  S   UNL A   1      33.103  35.426  28.763  1.00  0.00     0.124 S 
ATOM     83  O   UNL A   1      33.842  36.395  27.962  1.00  0.00    -0.237 OA
ATOM     84  O   UNL A   1      32.467  34.338  28.026  1.00  0.00    -0.237 OA
ATOM     85  O   UNL A   1      32.308  35.984  29.853  1.00  0.00    -0.744 OA
ENDBRANCH  81  82
ENDBRANCH  49  74
BRANCH  61  86
ATOM     86  C   UNL A   1      39.798  34.106  37.015  1.00  0.00     0.058 A 
ATOM     87  C   UNL A   1      39.027  33.889  38.168  1.00  0.00     0.135 A 
ATOM     88  C   UNL A   1      40.488  35.326  36.909  1.00  0.00     0.135 A 
ATOM     89  F   UNL A   1      38.346  32.742  38.319  1.00  0.00    -0.206 F 
ATOM     90  C   UNL A   1      38.913  34.860  39.158  1.00  0.00     0.059 A 
ATOM     91  C   UNL A   1      40.416  36.296  37.902  1.00  0.00     0.059 A 
ATOM     92  F   UNL A   1      41.252  35.580  35.835  1.00  0.00    -0.206 F 
ATOM     93  C   UNL A   1      39.610  36.061  39.015  1.00  0.00     0.060 A 
BRANCH  93  94
ATOM     94  S   UNL A   1      39.462  37.309  40.311  1.00  0.00     0.124 S 
ATOM     95  O   UNL A   1      38.683  38.342  39.636  1.00  0.00    -0.237 OA
ATOM     96  O   UNL A   1      38.766  36.579  41.368  1.00  0.00    -0.237 OA
ATOM     97  O   UNL A   1      40.847  37.658  40.608  1.00  0.00    -0.744 OA
ENDBRANCH  93  94
ENDBRANCH  61  86
ENDBRANCH  35  36
ENDBRANCH  27  30
ENDBRANCH  25  26
ENDBRANCH  24  25
ENDBRANCH   1  24
TORSDOF 17
ENDMDL
MODEL 3
REMARK VINA RESULT:     -11.8      2.505      4.425
REMARK SMILES CC(C)(CNC(=O)[C@H]1CCC[C@H](C(=O)NCCCNC(=O)c2ccc(-c3c4nc(c(-c5c(F)cc(S(=O)(=O)[O-])cc5F)c5ccc([nH]5)c(-c5c(F)cc(S(=O)(=O)[O-])cc5F)c5nc(c(-c6c(F)cc(S(=O)(=O)[O-])cc6F)c6ccc3[nH]6)C=C5)C=C4)cc2)C1)S(C)(=O)=O
REMARK SMILES IDX 16 1 15 2 13 3 14 4 12 6 8 7 9 8 88 9 10 10 11 11 6 12 5 13
REMARK SMILES IDX 7 15 4 16 2 17 1 18 3 19 89 20 90 21 91 22 92 23 17 24 18 25
REMARK SMILES IDX 19 26 20 27 21 29 22 30 23 31 87 32 24 33 86 34 25 35 26 36
REMARK SMILES IDX 27 37 80 38 28 39 85 40 79 41 81 42 29 43 84 44 78 45 77 46
REMARK SMILES IDX 30 48 64 49 43 50 63 51 44 52 47 53 62 54 82 55 45 56 46 57
REMARK SMILES IDX 61 59 83 60 48 61 31 62 32 63 41 64 33 65 34 66 40 67 42 68
REMARK SMILES IDX 35 69 36 70 37 71 38 72 39 73 65 74 66 75 75 76 67 77 68 78
REMARK SMILES IDX 74 79 76 80 69 81 70 82 71 83 72 84 73 85 49 86 50 87 59 88
REMARK SMILES IDX 51 89 52 90 58 91 60 92 53 93 54 94 55 95 56 96 57 97
REMARK H PARENT 15 5 5 14 19 28 81 47 47 58
REMARK Flexibility Score: inf
ROOT
ATOM      1  C   UNL A   1      33.430  27.947  26.764  1.00  0.00     0.117 C 
ENDROOT
BRANCH   1   2
ATOM      2  N   UNL A   1      33.607  27.737  25.333  1.00  0.00    -0.356 N 
ATOM      3  C   UNL A   1      33.606  26.597  24.587  1.00  0.00     0.223 C 
ATOM      4  O   UNL A   1      33.788  26.706  23.373  1.00  0.00    -0.275 OA
ATOM      5  H   UNL A   1      33.754  28.561  24.816  1.00  0.00     0.163 HD
BRANCH   3   6
ATOM      6  C   UNL A   1      33.353  25.231  25.220  1.00  0.00     0.079 C 
ATOM      7  C   UNL A   1      33.593  22.721  24.628  1.00  0.00     0.079 C 
ATOM      8  C   UNL A   1      32.067  22.641  24.636  1.00  0.00     0.013 C 
ATOM      9  C   UNL A   1      34.106  24.147  24.435  1.00  0.00     0.027 C 
ATOM     10  C   UNL A   1      31.469  23.550  25.701  1.00  0.00     0.002 C 
ATOM     11  C   UNL A   1      31.857  25.002  25.472  1.00  0.00     0.013 C 
BRANCH   7  12
ATOM     12  C   UNL A   1      34.146  22.089  25.900  1.00  0.00     0.223 C 
ATOM     13  N   UNL A   1      34.534  20.780  25.877  1.00  0.00    -0.354 N 
ATOM     14  H   UNL A   1      34.798  20.399  26.747  1.00  0.00     0.163 HD
ATOM     15  O   UNL A   1      34.249  22.696  26.964  1.00  0.00    -0.275 OA
BRANCH  13  16
ATOM     16  C   UNL A   1      34.610  19.873  24.747  1.00  0.00     0.138 C 
BRANCH  16  17
ATOM     17  C   UNL A   1      33.456  18.857  24.658  1.00  0.00     0.084 C 
ATOM     18  C   UNL A   1      32.596  18.874  25.928  1.00  0.00     0.030 C 
ATOM     19  C   UNL A   1      32.570  19.278  23.463  1.00  0.00     0.030 C 
BRANCH  17  20
ATOM     20  S   UNL A   1      34.057  17.167  24.297  1.00  0.00     0.154 S 
ATOM     21  C   UNL A   1      33.075  16.007  25.227  1.00  0.00     0.158 C 
ATOM     22  O   UNL A   1      33.767  16.901  22.895  1.00  0.00    -0.229 OA
ATOM     23  O   UNL A   1      35.420  17.059  24.777  1.00  0.00    -0.229 OA
ENDBRANCH  17  20
ENDBRANCH  16  17
ENDBRANCH  13  16
ENDBRANCH   7  12
ENDBRANCH   3   6
ENDBRANCH   1   2
BRANCH   1  24
ATOM     24  C   UNL A   1      33.856  29.341  27.203  1.00  0.00     0.042 C 
BRANCH  24  25
ATOM     25  C   UNL A   1      35.248  29.389  27.807  1.00  0.00     0.118 C 
BRANCH  25  26
ATOM     26  N   UNL A   1      35.298  30.189  29.021  1.00  0.00    -0.352 N 
ATOM     27  C   UNL A   1      36.338  30.392  29.894  1.00  0.00     0.251 C 
ATOM     28  H   UNL A   1      34.461  30.655  29.250  1.00  0.00     0.163 HD
ATOM     29  O   UNL A   1      36.120  30.928  30.977  1.00  0.00    -0.269 OA
BRANCH  27  30
ATOM     30  C   UNL A   1      37.704  29.950  29.539  1.00  0.00     0.039 A 
ATOM     31  C   UNL A   1      38.101  29.978  28.200  1.00  0.00     0.014 A 
ATOM     32  C   UNL A   1      38.587  29.490  30.520  1.00  0.00     0.014 A 
ATOM     33  C   UNL A   1      39.397  29.590  27.855  1.00  0.00     0.010 A 
ATOM     34  C   UNL A   1      39.907  29.209  30.189  1.00  0.00     0.010 A 
ATOM     35  C   UNL A   1      40.320  29.228  28.850  1.00  0.00    -0.014 A 
BRANCH  35  36
ATOM     36  C   UNL A   1      41.705  28.812  28.510  1.00  0.00     0.031 A 
ATOM     37  C   UNL A   1      42.809  29.839  28.492  1.00  0.00     0.074 A 
ATOM     38  C   UNL A   1      41.960  27.534  28.168  1.00  0.00     0.049 A 
ATOM     39  N   UNL A   1      44.065  29.696  28.157  1.00  0.00    -0.248 NA
ATOM     40  C   UNL A   1      42.444  31.215  28.868  1.00  0.00     0.031 C 
ATOM     41  C   UNL A   1      40.967  26.459  28.101  1.00  0.00     0.029 A 
ATOM     42  N   UNL A   1      43.133  26.923  27.804  1.00  0.00    -0.354 N 
ATOM     43  C   UNL A   1      44.632  30.962  28.264  1.00  0.00     0.074 A 
ATOM     44  C   UNL A   1      43.569  31.871  28.629  1.00  0.00     0.031 C 
ATOM     45  C   UNL A   1      41.577  25.317  27.749  1.00  0.00     0.029 A 
ATOM     46  C   UNL A   1      42.994  25.583  27.524  1.00  0.00     0.049 A 
ATOM     47  H   UNL A   1      43.993  27.397  27.750  1.00  0.00     0.167 HD
ATOM     48  C   UNL A   1      45.925  31.329  28.104  1.00  0.00     0.037 A 
ATOM     49  C   UNL A   1      43.906  24.675  27.125  1.00  0.00     0.037 A 
ATOM     50  C   UNL A   1      46.982  30.412  27.768  1.00  0.00     0.049 A 
ATOM     51  C   UNL A   1      45.340  25.105  26.961  1.00  0.00     0.074 A 
ATOM     52  C   UNL A   1      48.334  30.669  27.630  1.00  0.00     0.029 A 
ATOM     53  N   UNL A   1      46.806  29.057  27.522  1.00  0.00    -0.354 N 
ATOM     54  N   UNL A   1      45.868  26.296  27.118  1.00  0.00    -0.248 NA
ATOM     55  C   UNL A   1      46.304  24.065  26.576  1.00  0.00     0.031 C 
ATOM     56  C   UNL A   1      48.968  29.482  27.252  1.00  0.00     0.029 A 
ATOM     57  C   UNL A   1      48.023  28.470  27.217  1.00  0.00     0.049 A 
ATOM     58  H   UNL A   1      45.943  28.584  27.558  1.00  0.00     0.167 HD
ATOM     59  C   UNL A   1      47.232  26.139  26.895  1.00  0.00     0.074 A 
ATOM     60  C   UNL A   1      47.445  24.738  26.596  1.00  0.00     0.031 C 
ATOM     61  C   UNL A   1      48.219  27.068  26.938  1.00  0.00     0.037 A 
BRANCH  48  62
ATOM     62  C   UNL A   1      46.267  32.783  28.294  1.00  0.00     0.058 A 
ATOM     63  C   UNL A   1      46.651  33.297  29.544  1.00  0.00     0.135 A 
ATOM     64  C   UNL A   1      46.237  33.672  27.206  1.00  0.00     0.135 A 
ATOM     65  F   UNL A   1      46.681  32.499  30.624  1.00  0.00    -0.206 F 
ATOM     66  C   UNL A   1      46.959  34.642  29.716  1.00  0.00     0.059 A 
ATOM     67  C   UNL A   1      46.573  35.015  27.348  1.00  0.00     0.059 A 
ATOM     68  F   UNL A   1      45.876  33.238  25.989  1.00  0.00    -0.206 F 
ATOM     69  C   UNL A   1      46.919  35.494  28.611  1.00  0.00     0.060 A 
BRANCH  69  70
ATOM     70  S   UNL A   1      47.329  37.235  28.852  1.00  0.00     0.124 S 
ATOM     71  O   UNL A   1      47.580  37.668  27.481  1.00  0.00    -0.237 OA
ATOM     72  O   UNL A   1      46.114  37.759  29.469  1.00  0.00    -0.237 OA
ATOM     73  O   UNL A   1      48.501  37.192  29.721  1.00  0.00    -0.744 OA
ENDBRANCH  69  70
ENDBRANCH  48  62
BRANCH  49  74
ATOM     74  C   UNL A   1      43.498  23.264  26.888  1.00  0.00     0.058 A 
ATOM     75  C   UNL A   1      43.427  22.740  25.588  1.00  0.00     0.135 A 
ATOM     76  C   UNL A   1      43.177  22.408  27.953  1.00  0.00     0.135 A 
ATOM     77  F   UNL A   1      43.720  23.519  24.535  1.00  0.00    -0.206 F 
ATOM     78  C   UNL A   1      43.032  21.427  25.349  1.00  0.00     0.059 A 
ATOM     79  C   UNL A   1      42.808  21.083  27.742  1.00  0.00     0.059 A 
ATOM     80  F   UNL A   1      43.247  22.852  29.218  1.00  0.00    -0.206 F 
ATOM     81  C   UNL A   1      42.726  20.605  26.435  1.00  0.00     0.060 A 
BRANCH  81  82
ATOM     82  S   UNL A   1      42.258  18.890  26.117  1.00  0.00     0.124 S 
ATOM     83  O   UNL A   1      43.183  18.527  25.050  1.00  0.00    -0.237 OA
ATOM     84  O   UNL A   1      42.497  18.263  27.413  1.00  0.00    -0.237 OA
ATOM     85  O   UNL A   1      40.855  18.993  25.727  1.00  0.00    -0.744 OA
ENDBRANCH  81  82
ENDBRANCH  49  74
BRANCH  61  86
ATOM     86  C   UNL A   1      49.630  26.592  26.720  1.00  0.00     0.058 A 
ATOM     87  C   UNL A   1      50.440  26.144  27.775  1.00  0.00     0.135 A 
ATOM     88  C   UNL A   1      50.166  26.551  25.421  1.00  0.00     0.135 A 
ATOM     89  F   UNL A   1      49.979  26.163  29.036  1.00  0.00    -0.206 F 
ATOM     90  C   UNL A   1      51.744  25.710  27.556  1.00  0.00     0.059 A 
ATOM     91  C   UNL A   1      51.454  26.089  25.175  1.00  0.00     0.059 A 
ATOM     92  F   UNL A   1      49.430  26.953  24.373  1.00  0.00    -0.206 F 
ATOM     93  C   UNL A   1      52.243  25.688  26.252  1.00  0.00     0.060 A 
BRANCH  93  94
ATOM     94  S   UNL A   1      53.932  25.114  25.980  1.00  0.00     0.124 S 
ATOM     95  O   UNL A   1      54.426  26.100  25.024  1.00  0.00    -0.237 OA
ATOM     96  O   UNL A   1      54.506  25.187  27.321  1.00  0.00    -0.237 OA
ATOM     97  O   UNL A   1      53.752  23.764  25.455  1.00  0.00    -0.744 OA
ENDBRANCH  93  94
ENDBRANCH  61  86
ENDBRANCH  35  36
ENDBRANCH  27  30
ENDBRANCH  25  26
ENDBRANCH  24  25
ENDBRANCH   1  24
TORSDOF 17
ENDMDL
