MODEL 1
REMARK VINA RESULT:     -11.0      0.000      0.000
REMARK SMILES CCN(C(=O)C1(C)CCCC1)[C@@H]1COC[C@H]1C(=O)NCCCNC(=O)c1ccc(-c2c3nc(c(-c4c(F)cc(S(=O)(=O)[O-])cc4F)c4ccc([nH]4)c(-c4c(F)cc(S(=O)(=O)[O-])cc4F)c4nc(c(-c5c(F)cc(S(=O)(=O)[O-])cc5F)c5ccc2[nH]5)C=C4)C=C3)cc1
REMARK SMILES IDX 21 1 20 2 19 3 17 4 18 5 16 7 12 8 13 9 14 10 15 11 3 12
REMARK SMILES IDX 2 13 1 14 4 15 5 16 6 17 7 18 8 19 11 20 9 21 10 22 22 23
REMARK SMILES IDX 23 24 24 25 25 27 26 28 27 29 91 30 28 31 90 32 29 33 30 34
REMARK SMILES IDX 31 35 84 36 32 37 89 38 83 39 85 40 33 41 88 42 82 43 81 44
REMARK SMILES IDX 34 46 68 47 47 48 67 49 48 50 51 51 66 52 86 53 49 54 50 55
REMARK SMILES IDX 65 57 87 58 52 59 35 60 36 61 45 62 37 63 38 64 44 65 46 66
REMARK SMILES IDX 39 67 40 68 41 69 42 70 43 71 69 72 70 73 79 74 71 75 72 76
REMARK SMILES IDX 78 77 80 78 73 79 74 80 75 81 76 82 77 83 53 84 54 85 63 86
REMARK SMILES IDX 55 87 56 88 62 89 64 90 57 91 58 92 59 93 60 94 61 95
REMARK H PARENT 19 6 23 26 85 45 51 56
REMARK Flexibility Score: inf
ROOT
ATOM      1  C   UNL A   1      33.018  27.849  25.786  1.00  0.00     0.042 C 
ENDROOT
BRANCH   1   2
ATOM      2  C   UNL A   1      33.845  26.697  25.218  1.00  0.00     0.117 C 
BRANCH   2   3
ATOM      3  N   UNL A   1      34.008  26.783  23.775  1.00  0.00    -0.356 N 
ATOM      4  C   UNL A   1      33.393  26.149  22.743  1.00  0.00     0.227 C 
ATOM      5  O   UNL A   1      33.737  26.493  21.607  1.00  0.00    -0.275 OA
ATOM      6  H   UNL A   1      34.699  27.425  23.492  1.00  0.00     0.163 HD
BRANCH   4   7
ATOM      7  C   UNL A   1      32.320  25.092  22.918  1.00  0.00     0.129 C 
ATOM      8  C   UNL A   1      32.484  24.173  24.118  1.00  0.00     0.125 C 
ATOM      9  C   UNL A   1      31.043  23.999  24.608  1.00  0.00     0.186 C 
ATOM     10  O   UNL A   1      30.405  25.256  24.346  1.00  0.00    -0.378 OA
ATOM     11  C   UNL A   1      30.953  25.740  23.109  1.00  0.00     0.176 C 
BRANCH   8  12
ATOM     12  N   UNL A   1      33.238  22.918  23.949  1.00  0.00    -0.336 N 
BRANCH  12  13
ATOM     13  C   UNL A   1      32.452  21.681  23.848  1.00  0.00     0.116 C 
ATOM     14  C   UNL A   1      32.177  21.280  22.406  1.00  0.00     0.027 C 
ENDBRANCH  12  13
BRANCH  12  15
ATOM     15  C   UNL A   1      34.630  22.951  24.015  1.00  0.00     0.228 C 
ATOM     16  O   UNL A   1      35.293  23.066  22.979  1.00  0.00    -0.274 OA
BRANCH  15  17
ATOM     17  C   UNL A   1      35.330  22.658  25.375  1.00  0.00     0.047 C 
ATOM     18  C   UNL A   1      34.538  23.336  26.506  1.00  0.00     0.022 C 
ATOM     19  C   UNL A   1      35.341  21.132  25.643  1.00  0.00     0.016 C 
ATOM     20  C   UNL A   1      36.834  22.955  25.421  1.00  0.00     0.016 C 
ATOM     21  C   UNL A   1      36.566  20.589  24.913  1.00  0.00     0.001 C 
ATOM     22  C   UNL A   1      37.495  21.778  24.714  1.00  0.00     0.001 C 
ENDBRANCH  15  17
ENDBRANCH  12  15
ENDBRANCH   8  12
ENDBRANCH   4   7
ENDBRANCH   2   3
ENDBRANCH   1   2
BRANCH   1  23
ATOM     23  C   UNL A   1      33.389  28.252  27.208  1.00  0.00     0.118 C 
BRANCH  23  24
ATOM     24  N   UNL A   1      33.317  29.690  27.416  1.00  0.00    -0.352 N 
ATOM     25  C   UNL A   1      34.227  30.551  27.972  1.00  0.00     0.251 C 
ATOM     26  H   UNL A   1      32.482  30.111  27.110  1.00  0.00     0.163 HD
ATOM     27  O   UNL A   1      33.871  31.700  28.248  1.00  0.00    -0.269 OA
BRANCH  25  28
ATOM     28  C   UNL A   1      35.613  30.121  28.258  1.00  0.00     0.039 A 
ATOM     29  C   UNL A   1      36.557  30.156  27.227  1.00  0.00     0.014 A 
ATOM     30  C   UNL A   1      35.982  29.646  29.519  1.00  0.00     0.014 A 
ATOM     31  C   UNL A   1      37.879  29.779  27.478  1.00  0.00     0.010 A 
ATOM     32  C   UNL A   1      37.316  29.348  29.790  1.00  0.00     0.010 A 
ATOM     33  C   UNL A   1      38.280  29.406  28.771  1.00  0.00    -0.014 A 
BRANCH  33  34
ATOM     34  C   UNL A   1      39.697  29.079  29.078  1.00  0.00     0.031 A 
ATOM     35  C   UNL A   1      40.607  30.122  29.671  1.00  0.00     0.074 A 
ATOM     36  C   UNL A   1      40.185  27.863  28.757  1.00  0.00     0.049 A 
ATOM     37  N   UNL A   1      41.888  30.052  29.929  1.00  0.00    -0.248 NA
ATOM     38  C   UNL A   1      40.004  31.427  29.991  1.00  0.00     0.031 C 
ATOM     39  C   UNL A   1      39.416  26.781  28.137  1.00  0.00     0.029 A 
ATOM     40  N   UNL A   1      41.444  27.335  28.895  1.00  0.00    -0.354 N 
ATOM     41  C   UNL A   1      42.247  31.301  30.421  1.00  0.00     0.074 A 
ATOM     42  C   UNL A   1      41.060  32.126  30.381  1.00  0.00     0.031 C 
ATOM     43  C   UNL A   1      40.214  25.714  27.968  1.00  0.00     0.029 A 
ATOM     44  C   UNL A   1      41.560  26.048  28.424  1.00  0.00     0.049 A 
ATOM     45  H   UNL A   1      42.195  27.831  29.294  1.00  0.00     0.167 HD
ATOM     46  C   UNL A   1      43.452  31.716  30.881  1.00  0.00     0.037 A 
ATOM     47  C   UNL A   1      42.630  25.231  28.355  1.00  0.00     0.037 A 
ATOM     48  C   UNL A   1      44.621  30.879  30.949  1.00  0.00     0.049 A 
ATOM     49  C   UNL A   1      43.957  25.717  28.872  1.00  0.00     0.074 A 
ATOM     50  C   UNL A   1      45.868  31.184  31.466  1.00  0.00     0.029 A 
ATOM     51  N   UNL A   1      44.692  29.574  30.482  1.00  0.00    -0.354 N 
ATOM     52  N   UNL A   1      44.261  26.880  29.399  1.00  0.00    -0.248 NA
ATOM     53  C   UNL A   1      45.086  24.781  28.790  1.00  0.00     0.031 C 
ATOM     54  C   UNL A   1      46.707  30.083  31.265  1.00  0.00     0.029 A 
ATOM     55  C   UNL A   1      45.968  29.071  30.674  1.00  0.00     0.049 A 
ATOM     56  H   UNL A   1      43.945  29.079  30.074  1.00  0.00     0.167 HD
ATOM     57  C   UNL A   1      45.607  26.803  29.740  1.00  0.00     0.074 A 
ATOM     58  C   UNL A   1      46.056  25.477  29.369  1.00  0.00     0.031 C 
ATOM     59  C   UNL A   1      46.399  27.745  30.309  1.00  0.00     0.037 A 
BRANCH  46  60
ATOM     60  C   UNL A   1      43.572  33.141  31.352  1.00  0.00     0.058 A 
ATOM     61  C   UNL A   1      43.307  33.508  32.681  1.00  0.00     0.135 A 
ATOM     62  C   UNL A   1      44.007  34.147  30.471  1.00  0.00     0.135 A 
ATOM     63  F   UNL A   1      42.874  32.592  33.562  1.00  0.00    -0.206 F 
ATOM     64  C   UNL A   1      43.442  34.823  33.115  1.00  0.00     0.059 A 
ATOM     65  C   UNL A   1      44.177  35.463  30.890  1.00  0.00     0.059 A 
ATOM     66  F   UNL A   1      44.276  33.853  29.189  1.00  0.00    -0.206 F 
ATOM     67  C   UNL A   1      43.879  35.793  32.211  1.00  0.00     0.060 A 
BRANCH  67  68
ATOM     68  S   UNL A   1      44.060  37.492  32.794  1.00  0.00     0.124 S 
ATOM     69  O   UNL A   1      42.999  37.571  33.793  1.00  0.00    -0.237 OA
ATOM     70  O   UNL A   1      45.423  37.499  33.316  1.00  0.00    -0.237 OA
ATOM     71  O   UNL A   1      43.847  38.289  31.591  1.00  0.00    -0.744 OA
ENDBRANCH  67  68
ENDBRANCH  46  60
BRANCH  47  72
ATOM     72  C   UNL A   1      42.489  23.864  27.786  1.00  0.00     0.058 A 
ATOM     73  C   UNL A   1      42.434  22.736  28.620  1.00  0.00     0.135 A 
ATOM     74  C   UNL A   1      42.407  23.654  26.401  1.00  0.00     0.135 A 
ATOM     75  F   UNL A   1      42.515  22.884  29.951  1.00  0.00    -0.206 F 
ATOM     76  C   UNL A   1      42.326  21.450  28.103  1.00  0.00     0.059 A 
ATOM     77  C   UNL A   1      42.269  22.380  25.860  1.00  0.00     0.059 A 
ATOM     78  F   UNL A   1      42.435  24.700  25.559  1.00  0.00    -0.206 F 
ATOM     79  C   UNL A   1      42.243  21.283  26.720  1.00  0.00     0.060 A 
BRANCH  79  80
ATOM     80  S   UNL A   1      42.066  19.611  26.058  1.00  0.00     0.124 S 
ATOM     81  O   UNL A   1      43.012  19.633  24.948  1.00  0.00    -0.237 OA
ATOM     82  O   UNL A   1      42.441  18.788  27.204  1.00  0.00    -0.237 OA
ATOM     83  O   UNL A   1      40.656  19.547  25.686  1.00  0.00    -0.744 OA
ENDBRANCH  79  80
ENDBRANCH  47  72
BRANCH  59  84
ATOM     84  C   UNL A   1      47.824  27.367  30.607  1.00  0.00     0.058 A 
ATOM     85  C   UNL A   1      48.175  26.656  31.765  1.00  0.00     0.135 A 
ATOM     86  C   UNL A   1      48.844  27.672  29.691  1.00  0.00     0.135 A 
ATOM     87  F   UNL A   1      47.240  26.344  32.676  1.00  0.00    -0.206 F 
ATOM     88  C   UNL A   1      49.491  26.279  32.015  1.00  0.00     0.059 A 
ATOM     89  C   UNL A   1      50.162  27.280  29.906  1.00  0.00     0.059 A 
ATOM     90  F   UNL A   1      48.561  28.342  28.562  1.00  0.00    -0.206 F 
ATOM     91  C   UNL A   1      50.477  26.593  31.077  1.00  0.00     0.060 A 
BRANCH  91  92
ATOM     92  S   UNL A   1      52.173  26.064  31.395  1.00  0.00     0.124 S 
ATOM     93  O   UNL A   1      52.639  27.103  32.307  1.00  0.00    -0.237 OA
ATOM     94  O   UNL A   1      51.983  24.743  31.985  1.00  0.00    -0.237 OA
ATOM     95  O   UNL A   1      52.785  26.069  30.071  1.00  0.00    -0.744 OA
ENDBRANCH  91  92
ENDBRANCH  59  84
ENDBRANCH  33  34
ENDBRANCH  25  28
ENDBRANCH  23  24
ENDBRANCH   1  23
TORSDOF 17
ENDMDL
MODEL 2
REMARK VINA RESULT:     -11.0      2.928      3.976
REMARK SMILES CCN(C(=O)C1(C)CCCC1)[C@@H]1COC[C@H]1C(=O)NCCCNC(=O)c1ccc(-c2c3nc(c(-c4c(F)cc(S(=O)(=O)[O-])cc4F)c4ccc([nH]4)c(-c4c(F)cc(S(=O)(=O)[O-])cc4F)c4nc(c(-c5c(F)cc(S(=O)(=O)[O-])cc5F)c5ccc2[nH]5)C=C4)C=C3)cc1
REMARK SMILES IDX 21 1 20 2 19 3 17 4 18 5 16 7 12 8 13 9 14 10 15 11 3 12
REMARK SMILES IDX 2 13 1 14 4 15 5 16 6 17 7 18 8 19 11 20 9 21 10 22 22 23
REMARK SMILES IDX 23 24 24 25 25 27 26 28 27 29 91 30 28 31 90 32 29 33 30 34
REMARK SMILES IDX 31 35 84 36 32 37 89 38 83 39 85 40 33 41 88 42 82 43 81 44
REMARK SMILES IDX 34 46 68 47 47 48 67 49 48 50 51 51 66 52 86 53 49 54 50 55
REMARK SMILES IDX 65 57 87 58 52 59 35 60 36 61 45 62 37 63 38 64 44 65 46 66
REMARK SMILES IDX 39 67 40 68 41 69 42 70 43 71 69 72 70 73 79 74 71 75 72 76
REMARK SMILES IDX 78 77 80 78 73 79 74 80 75 81 76 82 77 83 53 84 54 85 63 86
REMARK SMILES IDX 55 87 56 88 62 89 64 90 57 91 58 92 59 93 60 94 61 95
REMARK H PARENT 19 6 23 26 85 45 51 56
REMARK Flexibility Score: inf
ROOT
ATOM      1  C   UNL A   1      34.992  29.797  27.531  1.00  0.00     0.042 C 
ENDROOT
BRANCH   1   2
ATOM      2  C   UNL A   1      33.627  30.019  26.882  1.00  0.00     0.117 C 
BRANCH   2   3
ATOM      3  N   UNL A   1      32.582  29.206  27.484  1.00  0.00    -0.356 N 
ATOM      4  C   UNL A   1      31.727  28.283  26.971  1.00  0.00     0.227 C 
ATOM      5  O   UNL A   1      30.977  27.724  27.778  1.00  0.00    -0.275 OA
ATOM      6  H   UNL A   1      32.474  29.353  28.452  1.00  0.00     0.163 HD
BRANCH   4   7
ATOM      7  C   UNL A   1      31.673  27.903  25.503  1.00  0.00     0.129 C 
ATOM      8  C   UNL A   1      30.748  26.749  25.152  1.00  0.00     0.125 C 
ATOM      9  C   UNL A   1      30.142  27.200  23.819  1.00  0.00     0.186 C 
ATOM     10  O   UNL A   1      30.025  28.624  23.923  1.00  0.00    -0.378 OA
ATOM     11  C   UNL A   1      31.174  29.073  24.663  1.00  0.00     0.176 C 
BRANCH   8  12
ATOM     12  N   UNL A   1      31.294  25.380  25.155  1.00  0.00    -0.336 N 
BRANCH  12  13
ATOM     13  C   UNL A   1      31.778  24.862  26.441  1.00  0.00     0.116 C 
ATOM     14  C   UNL A   1      31.159  23.519  26.802  1.00  0.00     0.027 C 
ENDBRANCH  12  13
BRANCH  12  15
ATOM     15  C   UNL A   1      31.433  24.705  23.943  1.00  0.00     0.228 C 
ATOM     16  O   UNL A   1      30.452  24.160  23.426  1.00  0.00    -0.274 OA
BRANCH  15  17
ATOM     17  C   UNL A   1      32.859  24.493  23.355  1.00  0.00     0.047 C 
ATOM     18  C   UNL A   1      33.378  23.107  23.776  1.00  0.00     0.022 C 
ATOM     19  C   UNL A   1      32.802  24.536  21.807  1.00  0.00     0.016 C 
ATOM     20  C   UNL A   1      33.858  25.625  23.624  1.00  0.00     0.016 C 
ATOM     21  C   UNL A   1      32.881  26.012  21.428  1.00  0.00     0.001 C 
ATOM     22  C   UNL A   1      33.501  26.719  22.625  1.00  0.00     0.001 C 
ENDBRANCH  15  17
ENDBRANCH  12  15
ENDBRANCH   8  12
ENDBRANCH   4   7
ENDBRANCH   2   3
ENDBRANCH   1   2
BRANCH   1  23
ATOM     23  C   UNL A   1      35.560  31.021  28.240  1.00  0.00     0.118 C 
BRANCH  23  24
ATOM     24  N   UNL A   1      35.494  30.907  29.688  1.00  0.00    -0.352 N 
ATOM     25  C   UNL A   1      36.409  30.414  30.581  1.00  0.00     0.251 C 
ATOM     26  H   UNL A   1      34.659  31.237  30.091  1.00  0.00     0.163 HD
ATOM     27  O   UNL A   1      36.057  30.213  31.747  1.00  0.00    -0.269 OA
BRANCH  25  28
ATOM     28  C   UNL A   1      37.795  30.105  30.166  1.00  0.00     0.039 A 
ATOM     29  C   UNL A   1      38.756  29.860  31.152  1.00  0.00     0.014 A 
ATOM     30  C   UNL A   1      38.166  30.094  28.820  1.00  0.00     0.014 A 
ATOM     31  C   UNL A   1      40.066  29.542  30.785  1.00  0.00     0.010 A 
ATOM     32  C   UNL A   1      39.450  29.697  28.453  1.00  0.00     0.010 A 
ATOM     33  C   UNL A   1      40.417  29.421  29.431  1.00  0.00    -0.014 A 
BRANCH  33  34
ATOM     34  C   UNL A   1      41.784  29.005  29.020  1.00  0.00     0.031 A 
ATOM     35  C   UNL A   1      42.904  30.011  28.975  1.00  0.00     0.074 A 
ATOM     36  C   UNL A   1      42.001  27.736  28.617  1.00  0.00     0.049 A 
ATOM     37  N   UNL A   1      44.137  29.858  28.565  1.00  0.00    -0.248 NA
ATOM     38  C   UNL A   1      42.590  31.377  29.425  1.00  0.00     0.031 C 
ATOM     39  C   UNL A   1      40.988  26.679  28.572  1.00  0.00     0.029 A 
ATOM     40  N   UNL A   1      43.139  27.122  28.159  1.00  0.00    -0.354 N 
ATOM     41  C   UNL A   1      44.738  31.105  28.688  1.00  0.00     0.074 A 
ATOM     42  C   UNL A   1      43.721  32.016  29.166  1.00  0.00     0.031 C 
ATOM     43  C   UNL A   1      41.555  25.544  28.130  1.00  0.00     0.029 A 
ATOM     44  C   UNL A   1      42.958  25.801  27.820  1.00  0.00     0.049 A 
ATOM     45  H   UNL A   1      44.005  27.583  28.080  1.00  0.00     0.167 HD
ATOM     46  C   UNL A   1      46.024  31.454  28.444  1.00  0.00     0.037 A 
ATOM     47  C   UNL A   1      43.818  24.900  27.306  1.00  0.00     0.037 A 
ATOM     48  C   UNL A   1      47.038  30.534  27.999  1.00  0.00     0.049 A 
ATOM     49  C   UNL A   1      45.241  25.314  27.042  1.00  0.00     0.074 A 
ATOM     50  C   UNL A   1      48.385  30.774  27.793  1.00  0.00     0.029 A 
ATOM     51  N   UNL A   1      46.819  29.200  27.688  1.00  0.00    -0.354 N 
ATOM     52  N   UNL A   1      45.809  26.481  27.231  1.00  0.00    -0.248 NA
ATOM     53  C   UNL A   1      46.142  24.289  26.498  1.00  0.00     0.031 C 
ATOM     54  C   UNL A   1      48.970  29.600  27.307  1.00  0.00     0.029 A 
ATOM     55  C   UNL A   1      48.000  28.612  27.265  1.00  0.00     0.049 A 
ATOM     56  H   UNL A   1      45.952  28.739  27.757  1.00  0.00     0.167 HD
ATOM     57  C   UNL A   1      47.139  26.322  26.860  1.00  0.00     0.074 A 
ATOM     58  C   UNL A   1      47.294  24.943  26.445  1.00  0.00     0.031 C 
ATOM     59  C   UNL A   1      48.142  27.235  26.865  1.00  0.00     0.037 A 
BRANCH  46  60
ATOM     60  C   UNL A   1      46.413  32.893  28.651  1.00  0.00     0.058 A 
ATOM     61  C   UNL A   1      46.813  33.380  29.906  1.00  0.00     0.135 A 
ATOM     62  C   UNL A   1      46.435  33.788  27.567  1.00  0.00     0.135 A 
ATOM     63  F   UNL A   1      46.798  32.574  30.980  1.00  0.00    -0.206 F 
ATOM     64  C   UNL A   1      47.194  34.705  30.086  1.00  0.00     0.059 A 
ATOM     65  C   UNL A   1      46.840  35.110  27.718  1.00  0.00     0.059 A 
ATOM     66  F   UNL A   1      46.064  33.377  26.344  1.00  0.00    -0.206 F 
ATOM     67  C   UNL A   1      47.205  35.563  28.985  1.00  0.00     0.060 A 
BRANCH  67  68
ATOM     68  S   UNL A   1      47.713  37.278  29.234  1.00  0.00     0.124 S 
ATOM     69  O   UNL A   1      47.230  37.529  30.588  1.00  0.00    -0.237 OA
ATOM     70  O   UNL A   1      49.162  37.198  29.084  1.00  0.00    -0.237 OA
ATOM     71  O   UNL A   1      47.014  37.997  28.175  1.00  0.00    -0.744 OA
ENDBRANCH  67  68
ENDBRANCH  46  60
BRANCH  47  72
ATOM     72  C   UNL A   1      43.363  23.513  27.018  1.00  0.00     0.058 A 
ATOM     73  C   UNL A   1      43.217  22.573  28.049  1.00  0.00     0.135 A 
ATOM     74  C   UNL A   1      43.065  23.099  25.710  1.00  0.00     0.135 A 
ATOM     75  F   UNL A   1      43.496  22.918  29.315  1.00  0.00    -0.206 F 
ATOM     76  C   UNL A   1      42.814  21.266  27.794  1.00  0.00     0.059 A 
ATOM     77  C   UNL A   1      42.633  21.806  25.433  1.00  0.00     0.059 A 
ATOM     78  F   UNL A   1      43.169  23.964  24.690  1.00  0.00    -0.206 F 
ATOM     79  C   UNL A   1      42.524  20.893  26.481  1.00  0.00     0.060 A 
BRANCH  79  80
ATOM     80  S   UNL A   1      41.967  19.204  26.163  1.00  0.00     0.124 S 
ATOM     81  O   UNL A   1      42.776  18.842  25.005  1.00  0.00    -0.237 OA
ATOM     82  O   UNL A   1      42.302  18.531  27.414  1.00  0.00    -0.237 OA
ATOM     83  O   UNL A   1      40.538  19.366  25.910  1.00  0.00    -0.744 OA
ENDBRANCH  79  80
ENDBRANCH  47  72
BRANCH  59  84
ATOM     84  C   UNL A   1      49.509  26.767  26.446  1.00  0.00     0.058 A 
ATOM     85  C   UNL A   1      50.371  26.107  27.336  1.00  0.00     0.135 A 
ATOM     86  C   UNL A   1      49.939  26.932  25.119  1.00  0.00     0.135 A 
ATOM     87  F   UNL A   1      50.011  25.929  28.617  1.00  0.00    -0.206 F 
ATOM     88  C   UNL A   1      51.620  25.646  26.932  1.00  0.00     0.059 A 
ATOM     89  C   UNL A   1      51.172  26.453  24.685  1.00  0.00     0.059 A 
ATOM     90  F   UNL A   1      49.150  27.549  24.224  1.00  0.00    -0.206 F 
ATOM     91  C   UNL A   1      52.009  25.821  25.602  1.00  0.00     0.060 A 
BRANCH  91  92
ATOM     92  S   UNL A   1      53.615  25.183  25.081  1.00  0.00     0.124 S 
ATOM     93  O   UNL A   1      53.460  23.755  25.333  1.00  0.00    -0.237 OA
ATOM     94  O   UNL A   1      53.667  25.576  23.676  1.00  0.00    -0.237 OA
ATOM     95  O   UNL A   1      54.557  25.877  25.953  1.00  0.00    -0.744 OA
ENDBRANCH  91  92
ENDBRANCH  59  84
ENDBRANCH  33  34
ENDBRANCH  25  28
ENDBRANCH  23  24
ENDBRANCH   1  23
TORSDOF 17
ENDMDL
MODEL 3
REMARK VINA RESULT:     -10.9      4.953      9.662
REMARK SMILES CCN(C(=O)C1(C)CCCC1)[C@@H]1COC[C@H]1C(=O)NCCCNC(=O)c1ccc(-c2c3nc(c(-c4c(F)cc(S(=O)(=O)[O-])cc4F)c4ccc([nH]4)c(-c4c(F)cc(S(=O)(=O)[O-])cc4F)c4nc(c(-c5c(F)cc(S(=O)(=O)[O-])cc5F)c5ccc2[nH]5)C=C4)C=C3)cc1
REMARK SMILES IDX 21 1 20 2 19 3 17 4 18 5 16 7 12 8 13 9 14 10 15 11 3 12
REMARK SMILES IDX 2 13 1 14 4 15 5 16 6 17 7 18 8 19 11 20 9 21 10 22 22 23
REMARK SMILES IDX 23 24 24 25 25 27 26 28 27 29 91 30 28 31 90 32 29 33 30 34
REMARK SMILES IDX 31 35 84 36 32 37 89 38 83 39 85 40 33 41 88 42 82 43 81 44
REMARK SMILES IDX 34 46 68 47 47 48 67 49 48 50 51 51 66 52 86 53 49 54 50 55
REMARK SMILES IDX 65 57 87 58 52 59 35 60 36 61 45 62 37 63 38 64 44 65 46 66
REMARK SMILES IDX 39 67 40 68 41 69 42 70 43 71 69 72 70 73 79 74 71 75 72 76
REMARK SMILES IDX 78 77 80 78 73 79 74 80 75 81 76 82 77 83 53 84 54 85 63 86
REMARK SMILES IDX 55 87 56 88 62 89 64 90 57 91 58 92 59 93 60 94 61 95
REMARK H PARENT 19 6 23 26 85 45 51 56
REMARK Flexibility Score: inf
ROOT
ATOM      1  C   UNL A   1      38.328  23.811  26.366  1.00  0.00     0.042 C 
ENDROOT
BRANCH   1   2
ATOM      2  C   UNL A   1      37.790  22.526  25.738  1.00  0.00     0.117 C 
BRANCH   2   3
ATOM      3  N   UNL A   1      37.471  22.684  24.328  1.00  0.00    -0.356 N 
ATOM      4  C   UNL A   1      36.292  22.725  23.653  1.00  0.00     0.227 C 
ATOM      5  O   UNL A   1      36.366  22.924  22.435  1.00  0.00    -0.275 OA
ATOM      6  H   UNL A   1      38.263  22.778  23.750  1.00  0.00     0.163 HD
BRANCH   4   7
ATOM      7  C   UNL A   1      34.934  22.569  24.311  1.00  0.00     0.129 C 
ATOM      8  C   UNL A   1      33.735  22.920  23.445  1.00  0.00     0.125 C 
ATOM      9  C   UNL A   1      32.711  21.852  23.841  1.00  0.00     0.186 C 
ATOM     10  O   UNL A   1      33.483  20.675  24.110  1.00  0.00    -0.378 OA
ATOM     11  C   UNL A   1      34.702  21.121  24.728  1.00  0.00     0.176 C 
BRANCH   8  12
ATOM     12  N   UNL A   1      33.228  24.305  23.469  1.00  0.00    -0.336 N 
BRANCH  12  13
ATOM     13  C   UNL A   1      32.798  24.874  22.185  1.00  0.00     0.116 C 
ATOM     14  C   UNL A   1      33.258  26.313  22.000  1.00  0.00     0.027 C 
ENDBRANCH  12  13
BRANCH  12  15
ATOM     15  C   UNL A   1      33.296  25.029  24.657  1.00  0.00     0.228 C 
ATOM     16  O   UNL A   1      34.348  25.592  24.976  1.00  0.00    -0.274 OA
BRANCH  15  17
ATOM     17  C   UNL A   1      32.100  24.963  25.652  1.00  0.00     0.047 C 
ATOM     18  C   UNL A   1      32.396  23.906  26.729  1.00  0.00     0.022 C 
ATOM     19  C   UNL A   1      31.925  26.332  26.357  1.00  0.00     0.016 C 
ATOM     20  C   UNL A   1      30.715  24.808  25.009  1.00  0.00     0.016 C 
ATOM     21  C   UNL A   1      31.076  27.181  25.414  1.00  0.00     0.001 C 
ATOM     22  C   UNL A   1      30.349  26.199  24.507  1.00  0.00     0.001 C 
ENDBRANCH  15  17
ENDBRANCH  12  15
ENDBRANCH   8  12
ENDBRANCH   4   7
ENDBRANCH   2   3
ENDBRANCH   1   2
BRANCH   1  23
ATOM     23  C   UNL A   1      39.778  23.729  26.828  1.00  0.00     0.118 C 
BRANCH  23  24
ATOM     24  N   UNL A   1      40.687  24.444  25.945  1.00  0.00    -0.352 N 
ATOM     25  C   UNL A   1      41.221  25.701  26.054  1.00  0.00     0.251 C 
ATOM     26  H   UNL A   1      40.961  23.946  25.142  1.00  0.00     0.163 HD
ATOM     27  O   UNL A   1      41.798  26.191  25.079  1.00  0.00    -0.269 OA
BRANCH  25  28
ATOM     28  C   UNL A   1      41.101  26.479  27.307  1.00  0.00     0.039 A 
ATOM     29  C   UNL A   1      41.916  27.602  27.485  1.00  0.00     0.014 A 
ATOM     30  C   UNL A   1      40.226  26.090  28.323  1.00  0.00     0.014 A 
ATOM     31  C   UNL A   1      41.804  28.367  28.649  1.00  0.00     0.010 A 
ATOM     32  C   UNL A   1      40.057  26.899  29.446  1.00  0.00     0.010 A 
ATOM     33  C   UNL A   1      40.847  28.044  29.624  1.00  0.00    -0.014 A 
BRANCH  33  34
ATOM     34  C   UNL A   1      40.656  28.891  30.832  1.00  0.00     0.031 A 
ATOM     35  C   UNL A   1      39.587  29.950  30.855  1.00  0.00     0.074 A 
ATOM     36  C   UNL A   1      41.494  28.753  31.880  1.00  0.00     0.049 A 
ATOM     37  N   UNL A   1      39.323  30.838  31.780  1.00  0.00    -0.248 NA
ATOM     38  C   UNL A   1      38.715  30.043  29.673  1.00  0.00     0.031 C 
ATOM     39  C   UNL A   1      42.598  27.794  31.961  1.00  0.00     0.029 A 
ATOM     40  N   UNL A   1      41.555  29.428  33.074  1.00  0.00    -0.354 N 
ATOM     41  C   UNL A   1      38.274  31.604  31.285  1.00  0.00     0.074 A 
ATOM     42  C   UNL A   1      37.980  31.107  29.959  1.00  0.00     0.031 C 
ATOM     43  C   UNL A   1      43.213  27.929  33.147  1.00  0.00     0.029 A 
ATOM     44  C   UNL A   1      42.578  29.010  33.893  1.00  0.00     0.049 A 
ATOM     45  H   UNL A   1      40.927  30.144  33.321  1.00  0.00     0.167 HD
ATOM     46  C   UNL A   1      37.605  32.615  31.889  1.00  0.00     0.037 A 
ATOM     47  C   UNL A   1      42.971  29.455  35.104  1.00  0.00     0.037 A 
ATOM     48  C   UNL A   1      37.882  33.082  33.223  1.00  0.00     0.049 A 
ATOM     49  C   UNL A   1      42.211  30.581  35.752  1.00  0.00     0.074 A 
ATOM     50  C   UNL A   1      37.214  34.051  33.950  1.00  0.00     0.029 A 
ATOM     51  N   UNL A   1      38.912  32.619  34.028  1.00  0.00    -0.354 N 
ATOM     52  N   UNL A   1      41.176  31.246  35.298  1.00  0.00    -0.248 NA
ATOM     53  C   UNL A   1      42.670  31.015  37.079  1.00  0.00     0.031 C 
ATOM     54  C   UNL A   1      37.870  34.211  35.175  1.00  0.00     0.029 A 
ATOM     55  C   UNL A   1      38.914  33.301  35.234  1.00  0.00     0.049 A 
ATOM     56  H   UNL A   1      39.548  31.910  33.780  1.00  0.00     0.167 HD
ATOM     57  C   UNL A   1      40.840  32.155  36.295  1.00  0.00     0.074 A 
ATOM     58  C   UNL A   1      41.775  31.947  37.381  1.00  0.00     0.031 C 
ATOM     59  C   UNL A   1      39.845  33.077  36.311  1.00  0.00     0.037 A 
BRANCH  46  60
ATOM     60  C   UNL A   1      36.503  33.290  31.116  1.00  0.00     0.058 A 
ATOM     61  C   UNL A   1      35.149  33.101  31.437  1.00  0.00     0.135 A 
ATOM     62  C   UNL A   1      36.809  34.177  30.070  1.00  0.00     0.135 A 
ATOM     63  F   UNL A   1      34.799  32.254  32.417  1.00  0.00    -0.206 F 
ATOM     64  C   UNL A   1      34.137  33.746  30.733  1.00  0.00     0.059 A 
ATOM     65  C   UNL A   1      35.814  34.855  29.371  1.00  0.00     0.059 A 
ATOM     66  F   UNL A   1      38.086  34.396  29.721  1.00  0.00    -0.206 F 
ATOM     67  C   UNL A   1      34.480  34.622  29.702  1.00  0.00     0.060 A 
BRANCH  67  68
ATOM     68  S   UNL A   1      33.155  35.459  28.807  1.00  0.00     0.124 S 
ATOM     69  O   UNL A   1      33.910  36.390  27.974  1.00  0.00    -0.237 OA
ATOM     70  O   UNL A   1      32.512  34.356  28.100  1.00  0.00    -0.237 OA
ATOM     71  O   UNL A   1      32.360  36.069  29.867  1.00  0.00    -0.744 OA
ENDBRANCH  67  68
ENDBRANCH  46  60
BRANCH  47  72
ATOM     72  C   UNL A   1      44.133  28.827  35.789  1.00  0.00     0.058 A 
ATOM     73  C   UNL A   1      43.952  27.770  36.694  1.00  0.00     0.135 A 
ATOM     74  C   UNL A   1      45.444  29.267  35.554  1.00  0.00     0.135 A 
ATOM     75  F   UNL A   1      42.716  27.318  36.958  1.00  0.00    -0.206 F 
ATOM     76  C   UNL A   1      45.025  27.187  37.360  1.00  0.00     0.059 A 
ATOM     77  C   UNL A   1      46.536  28.682  36.186  1.00  0.00     0.059 A 
ATOM     78  F   UNL A   1      45.675  30.262  34.683  1.00  0.00    -0.206 F 
ATOM     79  C   UNL A   1      46.315  27.651  37.098  1.00  0.00     0.060 A 
BRANCH  79  80
ATOM     80  S   UNL A   1      47.706  26.864  37.939  1.00  0.00     0.124 S 
ATOM     81  O   UNL A   1      48.803  27.760  37.592  1.00  0.00    -0.237 OA
ATOM     82  O   UNL A   1      47.274  26.890  39.333  1.00  0.00    -0.237 OA
ATOM     83  O   UNL A   1      47.757  25.537  37.332  1.00  0.00    -0.744 OA
ENDBRANCH  79  80
ENDBRANCH  47  72
BRANCH  59  84
ATOM     84  C   UNL A   1      39.687  33.906  37.555  1.00  0.00     0.058 A 
ATOM     85  C   UNL A   1      38.890  33.484  38.631  1.00  0.00     0.135 A 
ATOM     86  C   UNL A   1      40.388  35.116  37.695  1.00  0.00     0.135 A 
ATOM     87  F   UNL A   1      38.193  32.339  38.546  1.00  0.00    -0.206 F 
ATOM     88  C   UNL A   1      38.777  34.241  39.793  1.00  0.00     0.059 A 
ATOM     89  C   UNL A   1      40.313  35.874  38.860  1.00  0.00     0.059 A 
ATOM     90  F   UNL A   1      41.172  35.562  36.700  1.00  0.00    -0.206 F 
ATOM     91  C   UNL A   1      39.496  35.433  39.899  1.00  0.00     0.060 A 
BRANCH  91  92
ATOM     92  S   UNL A   1      39.370  36.385  41.427  1.00  0.00     0.124 S 
ATOM     93  O   UNL A   1      39.011  37.706  40.922  1.00  0.00    -0.237 OA
ATOM     94  O   UNL A   1      38.321  35.676  42.152  1.00  0.00    -0.237 OA
ATOM     95  O   UNL A   1      40.706  36.276  42.006  1.00  0.00    -0.744 OA
ENDBRANCH  91  92
ENDBRANCH  59  84
ENDBRANCH  33  34
ENDBRANCH  25  28
ENDBRANCH  23  24
ENDBRANCH   1  23
TORSDOF 17
ENDMDL
