MODEL 1
REMARK VINA RESULT:     -10.1      0.000      0.000
REMARK SMILES O=C(C[C@@H]1CN(C(=O)C[NH2+]CC2CC2)CCO1)NCCCNC(=O)c1ccc(-c2c3nc(c(-c4c(F)cc(S(=O)(=O)[O-])cc4F)c4ccc([nH]4)c(-c4c(F)cc(S(=O)(=O)[O-])cc4F)c4nc(c(-c5c(F)cc(S(=O)(=O)[O-])cc5F)c5ccc2[nH]5)C=C4)C=C3)cc1
REMARK SMILES IDX 1 1 2 2 18 3 3 5 4 6 5 7 17 8 6 9 16 10 15 11 7 12 8 13 9 14
REMARK SMILES IDX 10 15 11 18 12 19 13 20 14 21 19 22 20 23 21 24 22 25 23 26
REMARK SMILES IDX 24 28 25 29 26 30 90 31 27 32 89 33 28 34 29 35 30 36 83 37
REMARK SMILES IDX 31 38 88 39 82 40 84 41 32 42 87 43 81 44 80 45 33 47 67 48
REMARK SMILES IDX 46 49 66 50 47 51 50 52 65 53 85 54 48 55 49 56 64 58 86 59
REMARK SMILES IDX 51 60 34 61 35 62 44 63 36 64 37 65 43 66 45 67 38 68 39 69
REMARK SMILES IDX 40 70 41 71 42 72 68 73 69 74 78 75 70 76 71 77 77 78 79 79
REMARK SMILES IDX 72 80 73 81 74 82 75 83 76 84 52 85 53 86 62 87 54 88 55 89
REMARK SMILES IDX 61 90 63 91 56 92 57 93 58 94 59 95 60 96
REMARK H PARENT 18 4 10 16 10 17 22 27 84 46 50 57
REMARK Flexibility Score: inf
ROOT
ATOM      1  O   UNL A   1      30.693  26.312  26.496  1.00  0.00    -0.275 OA
ATOM      2  C   UNL A   1      30.851  26.303  25.279  1.00  0.00     0.222 C 
ATOM      3  N   UNL A   1      31.522  27.273  24.577  1.00  0.00    -0.356 N 
ATOM      4  H   UNL A   1      31.577  27.178  23.599  1.00  0.00     0.163 HD
ENDROOT
BRANCH   2   5
ATOM      5  C   UNL A   1      30.359  25.161  24.415  1.00  0.00     0.133 C 
BRANCH   5   6
ATOM      6  C   UNL A   1      31.493  24.217  24.024  1.00  0.00     0.147 C 
ATOM      7  C   UNL A   1      32.143  23.613  25.283  1.00  0.00     0.152 C 
ATOM      8  O   UNL A   1      32.484  24.964  23.274  1.00  0.00    -0.374 OA
ATOM      9  N   UNL A   1      33.314  22.805  24.923  1.00  0.00    -0.333 N 
ATOM     10  C   UNL A   1      33.555  24.101  22.849  1.00  0.00     0.182 C 
ATOM     11  C   UNL A   1      34.271  23.491  24.054  1.00  0.00     0.148 C 
BRANCH   9  12
ATOM     12  C   UNL A   1      33.628  21.559  25.442  1.00  0.00     0.277 C 
ATOM     13  O   UNL A   1      34.609  21.379  26.170  1.00  0.00    -0.268 OA
BRANCH  12  14
ATOM     14  C   UNL A   1      32.725  20.372  25.082  1.00  0.00     0.362 C 
BRANCH  14  15
ATOM     15  N   UNL A   1      32.710  19.408  26.193  1.00  0.00    -0.338 N 
ATOM     16  H   UNL A   1      31.818  19.485  26.682  1.00  0.00     0.346 HD
ATOM     17  H   UNL A   1      33.494  19.630  26.807  1.00  0.00     0.346 HD
BRANCH  15  18
ATOM     18  C   UNL A   1      32.878  18.033  25.739  1.00  0.00     0.264 C 
BRANCH  18  19
ATOM     19  C   UNL A   1      33.392  17.958  24.329  1.00  0.00     0.044 C 
ATOM     20  C   UNL A   1      34.758  17.377  24.054  1.00  0.00     0.010 C 
ATOM     21  C   UNL A   1      33.531  16.612  23.659  1.00  0.00     0.010 C 
ENDBRANCH  18  19
ENDBRANCH  15  18
ENDBRANCH  14  15
ENDBRANCH  12  14
ENDBRANCH   9  12
ENDBRANCH   5   6
ENDBRANCH   2   5
BRANCH   3  22
ATOM     22  C   UNL A   1      32.153  28.424  25.183  1.00  0.00     0.117 C 
BRANCH  22  23
ATOM     23  C   UNL A   1      33.613  28.159  25.540  1.00  0.00     0.042 C 
BRANCH  23  24
ATOM     24  C   UNL A   1      33.957  28.337  27.019  1.00  0.00     0.118 C 
BRANCH  24  25
ATOM     25  N   UNL A   1      33.811  29.708  27.485  1.00  0.00    -0.352 N 
ATOM     26  C   UNL A   1      34.685  30.517  28.168  1.00  0.00     0.251 C 
ATOM     27  H   UNL A   1      32.943  30.123  27.277  1.00  0.00     0.163 HD
ATOM     28  O   UNL A   1      34.287  31.611  28.568  1.00  0.00    -0.269 OA
BRANCH  26  29
ATOM     29  C   UNL A   1      36.078  30.095  28.449  1.00  0.00     0.039 A 
ATOM     30  C   UNL A   1      37.020  30.185  27.417  1.00  0.00     0.014 A 
ATOM     31  C   UNL A   1      36.462  29.570  29.685  1.00  0.00     0.014 A 
ATOM     32  C   UNL A   1      38.345  29.801  27.640  1.00  0.00     0.010 A 
ATOM     33  C   UNL A   1      37.800  29.252  29.929  1.00  0.00     0.010 A 
ATOM     34  C   UNL A   1      38.757  29.358  28.907  1.00  0.00    -0.014 A 
BRANCH  34  35
ATOM     35  C   UNL A   1      40.179  29.003  29.170  1.00  0.00     0.031 A 
ATOM     36  C   UNL A   1      41.110  29.996  29.815  1.00  0.00     0.074 A 
ATOM     37  C   UNL A   1      40.646  27.796  28.792  1.00  0.00     0.049 A 
ATOM     38  N   UNL A   1      42.384  29.875  30.092  1.00  0.00    -0.248 NA
ATOM     39  C   UNL A   1      40.543  31.307  30.169  1.00  0.00     0.031 C 
ATOM     40  C   UNL A   1      39.864  26.760  28.114  1.00  0.00     0.029 A 
ATOM     41  N   UNL A   1      41.894  27.237  28.920  1.00  0.00    -0.354 N 
ATOM     42  C   UNL A   1      42.772  31.091  30.643  1.00  0.00     0.074 A 
ATOM     43  C   UNL A   1      41.612  31.955  30.612  1.00  0.00     0.031 C 
ATOM     44  C   UNL A   1      40.641  25.684  27.907  1.00  0.00     0.029 A 
ATOM     45  C   UNL A   1      41.983  25.963  28.409  1.00  0.00     0.049 A 
ATOM     46  H   UNL A   1      42.653  27.704  29.337  1.00  0.00     0.167 HD
ATOM     47  C   UNL A   1      43.978  31.451  31.148  1.00  0.00     0.037 A 
ATOM     48  C   UNL A   1      43.026  25.112  28.351  1.00  0.00     0.037 A 
ATOM     49  C   UNL A   1      45.128  30.583  31.202  1.00  0.00     0.049 A 
ATOM     50  C   UNL A   1      44.349  25.525  28.938  1.00  0.00     0.074 A 
ATOM     51  C   UNL A   1      46.377  30.840  31.740  1.00  0.00     0.029 A 
ATOM     52  N   UNL A   1      45.168  29.290  30.703  1.00  0.00    -0.354 N 
ATOM     53  N   UNL A   1      44.681  26.661  29.505  1.00  0.00    -0.248 NA
ATOM     54  C   UNL A   1      45.434  24.536  28.891  1.00  0.00     0.031 C 
ATOM     55  C   UNL A   1      47.183  29.714  31.535  1.00  0.00     0.029 A 
ATOM     56  C   UNL A   1      46.423  28.740  30.911  1.00  0.00     0.049 A 
ATOM     57  H   UNL A   1      44.415  28.830  30.265  1.00  0.00     0.167 HD
ATOM     58  C   UNL A   1      46.004  26.511  29.909  1.00  0.00     0.074 A 
ATOM     59  C   UNL A   1      46.405  25.171  29.532  1.00  0.00     0.031 C 
ATOM     60  C   UNL A   1      46.811  27.402  30.537  1.00  0.00     0.037 A 
BRANCH  47  61
ATOM     61  C   UNL A   1      44.116  32.848  31.692  1.00  0.00     0.058 A 
ATOM     62  C   UNL A   1      43.834  33.145  33.035  1.00  0.00     0.135 A 
ATOM     63  C   UNL A   1      44.564  33.896  30.872  1.00  0.00     0.135 A 
ATOM     64  F   UNL A   1      43.388  32.185  33.861  1.00  0.00    -0.206 F 
ATOM     65  C   UNL A   1      43.959  34.437  33.537  1.00  0.00     0.059 A 
ATOM     66  C   UNL A   1      44.723  35.190  31.359  1.00  0.00     0.059 A 
ATOM     67  F   UNL A   1      44.850  33.668  29.580  1.00  0.00    -0.206 F 
ATOM     68  C   UNL A   1      44.402  35.454  32.690  1.00  0.00     0.060 A 
BRANCH  68  69
ATOM     69  S   UNL A   1      44.557  37.125  33.355  1.00  0.00     0.124 S 
ATOM     70  O   UNL A   1      43.399  37.783  32.758  1.00  0.00    -0.237 OA
ATOM     71  O   UNL A   1      44.484  36.898  34.795  1.00  0.00    -0.237 OA
ATOM     72  O   UNL A   1      45.855  37.569  32.859  1.00  0.00    -0.744 OA
ENDBRANCH  68  69
ENDBRANCH  47  61
BRANCH  48  73
ATOM     73  C   UNL A   1      42.854  23.766  27.742  1.00  0.00     0.058 A 
ATOM     74  C   UNL A   1      43.090  23.557  26.376  1.00  0.00     0.135 A 
ATOM     75  C   UNL A   1      42.461  22.662  28.514  1.00  0.00     0.135 A 
ATOM     76  F   UNL A   1      43.461  24.584  25.596  1.00  0.00    -0.206 F 
ATOM     77  C   UNL A   1      42.924  22.307  25.789  1.00  0.00     0.059 A 
ATOM     78  C   UNL A   1      42.313  21.396  27.956  1.00  0.00     0.059 A 
ATOM     79  F   UNL A   1      42.240  22.806  29.830  1.00  0.00    -0.206 F 
ATOM     80  C   UNL A   1      42.536  21.232  26.589  1.00  0.00     0.060 A 
BRANCH  80  81
ATOM     81  S   UNL A   1      42.369  19.602  25.829  1.00  0.00     0.124 S 
ATOM     82  O   UNL A   1      43.327  19.690  24.733  1.00  0.00    -0.237 OA
ATOM     83  O   UNL A   1      42.734  18.711  26.927  1.00  0.00    -0.237 OA
ATOM     84  O   UNL A   1      40.962  19.557  25.439  1.00  0.00    -0.744 OA
ENDBRANCH  80  81
ENDBRANCH  48  73
BRANCH  60  85
ATOM     85  C   UNL A   1      48.197  26.941  30.896  1.00  0.00     0.058 A 
ATOM     86  C   UNL A   1      48.440  26.121  32.010  1.00  0.00     0.135 A 
ATOM     87  C   UNL A   1      49.295  27.311  30.104  1.00  0.00     0.135 A 
ATOM     88  F   UNL A   1      47.425  25.741  32.803  1.00  0.00    -0.206 F 
ATOM     89  C   UNL A   1      49.727  25.716  32.347  1.00  0.00     0.059 A 
ATOM     90  C   UNL A   1      50.588  26.895  30.407  1.00  0.00     0.059 A 
ATOM     91  F   UNL A   1      49.117  28.082  29.019  1.00  0.00    -0.206 F 
ATOM     92  C   UNL A   1      50.797  26.113  31.542  1.00  0.00     0.060 A 
BRANCH  92  93
ATOM     93  S   UNL A   1      52.464  25.581  31.986  1.00  0.00     0.124 S 
ATOM     94  O   UNL A   1      52.815  26.549  33.019  1.00  0.00    -0.237 OA
ATOM     95  O   UNL A   1      52.246  24.214  32.448  1.00  0.00    -0.237 OA
ATOM     96  O   UNL A   1      53.202  25.702  30.733  1.00  0.00    -0.744 OA
ENDBRANCH  92  93
ENDBRANCH  60  85
ENDBRANCH  34  35
ENDBRANCH  26  29
ENDBRANCH  24  25
ENDBRANCH  23  24
ENDBRANCH  22  23
ENDBRANCH   3  22
TORSDOF 19
ENDMDL
MODEL 2
REMARK VINA RESULT:     -10.0      2.769      3.336
REMARK SMILES O=C(C[C@@H]1CN(C(=O)C[NH2+]CC2CC2)CCO1)NCCCNC(=O)c1ccc(-c2c3nc(c(-c4c(F)cc(S(=O)(=O)[O-])cc4F)c4ccc([nH]4)c(-c4c(F)cc(S(=O)(=O)[O-])cc4F)c4nc(c(-c5c(F)cc(S(=O)(=O)[O-])cc5F)c5ccc2[nH]5)C=C4)C=C3)cc1
REMARK SMILES IDX 1 1 2 2 18 3 3 5 4 6 5 7 17 8 6 9 16 10 15 11 7 12 8 13 9 14
REMARK SMILES IDX 10 15 11 18 12 19 13 20 14 21 19 22 20 23 21 24 22 25 23 26
REMARK SMILES IDX 24 28 25 29 26 30 90 31 27 32 89 33 28 34 29 35 30 36 83 37
REMARK SMILES IDX 31 38 88 39 82 40 84 41 32 42 87 43 81 44 80 45 33 47 67 48
REMARK SMILES IDX 46 49 66 50 47 51 50 52 65 53 85 54 48 55 49 56 64 58 86 59
REMARK SMILES IDX 51 60 34 61 35 62 44 63 36 64 37 65 43 66 45 67 38 68 39 69
REMARK SMILES IDX 40 70 41 71 42 72 68 73 69 74 78 75 70 76 71 77 77 78 79 79
REMARK SMILES IDX 72 80 73 81 74 82 75 83 76 84 52 85 53 86 62 87 54 88 55 89
REMARK SMILES IDX 61 90 63 91 56 92 57 93 58 94 59 95 60 96
REMARK H PARENT 18 4 10 16 10 17 22 27 84 46 50 57
REMARK Flexibility Score: inf
ROOT
ATOM      1  O   UNL A   1      31.316  27.322  27.990  1.00  0.00    -0.275 OA
ATOM      2  C   UNL A   1      31.459  27.492  26.782  1.00  0.00     0.222 C 
ATOM      3  N   UNL A   1      32.170  28.524  26.223  1.00  0.00    -0.356 N 
ATOM      4  H   UNL A   1      32.208  28.578  25.241  1.00  0.00     0.163 HD
ENDROOT
BRANCH   2   5
ATOM      5  C   UNL A   1      30.897  26.522  25.764  1.00  0.00     0.133 C 
BRANCH   5   6
ATOM      6  C   UNL A   1      31.959  25.541  25.272  1.00  0.00     0.147 C 
ATOM      7  C   UNL A   1      31.770  24.167  25.943  1.00  0.00     0.152 C 
ATOM      8  O   UNL A   1      33.269  26.069  25.600  1.00  0.00    -0.374 OA
ATOM      9  N   UNL A   1      32.860  23.257  25.574  1.00  0.00    -0.333 N 
ATOM     10  C   UNL A   1      34.304  25.193  25.116  1.00  0.00     0.182 C 
ATOM     11  C   UNL A   1      34.199  23.815  25.770  1.00  0.00     0.148 C 
BRANCH   9  12
ATOM     12  C   UNL A   1      32.716  21.928  25.212  1.00  0.00     0.277 C 
ATOM     13  O   UNL A   1      31.644  21.327  25.334  1.00  0.00    -0.268 OA
BRANCH  12  14
ATOM     14  C   UNL A   1      33.939  21.188  24.653  1.00  0.00     0.362 C 
BRANCH  14  15
ATOM     15  N   UNL A   1      34.186  19.973  25.444  1.00  0.00    -0.338 N 
ATOM     16  H   UNL A   1      33.318  19.700  25.905  1.00  0.00     0.346 HD
ATOM     17  H   UNL A   1      34.918  20.188  26.121  1.00  0.00     0.346 HD
BRANCH  15  18
ATOM     18  C   UNL A   1      34.651  18.861  24.625  1.00  0.00     0.264 C 
BRANCH  18  19
ATOM     19  C   UNL A   1      33.517  18.034  24.090  1.00  0.00     0.044 C 
ATOM     20  C   UNL A   1      33.755  16.598  23.688  1.00  0.00     0.010 C 
ATOM     21  C   UNL A   1      32.963  16.904  24.924  1.00  0.00     0.010 C 
ENDBRANCH  18  19
ENDBRANCH  15  18
ENDBRANCH  14  15
ENDBRANCH  12  14
ENDBRANCH   9  12
ENDBRANCH   5   6
ENDBRANCH   2   5
BRANCH   3  22
ATOM     22  C   UNL A   1      32.867  29.536  26.984  1.00  0.00     0.117 C 
BRANCH  22  23
ATOM     23  C   UNL A   1      34.307  29.138  27.289  1.00  0.00     0.042 C 
BRANCH  23  24
ATOM     24  C   UNL A   1      35.244  30.303  27.610  1.00  0.00     0.118 C 
BRANCH  24  25
ATOM     25  N   UNL A   1      35.244  30.672  29.018  1.00  0.00    -0.352 N 
ATOM     26  C   UNL A   1      36.224  30.552  29.972  1.00  0.00     0.251 C 
ATOM     27  H   UNL A   1      34.405  31.073  29.338  1.00  0.00     0.163 HD
ATOM     28  O   UNL A   1      35.946  30.823  31.141  1.00  0.00    -0.269 OA
BRANCH  26  29
ATOM     29  C   UNL A   1      37.590  30.088  29.632  1.00  0.00     0.039 A 
ATOM     30  C   UNL A   1      37.955  30.031  28.282  1.00  0.00     0.014 A 
ATOM     31  C   UNL A   1      38.495  29.662  30.607  1.00  0.00     0.014 A 
ATOM     32  C   UNL A   1      39.235  29.602  27.917  1.00  0.00     0.010 A 
ATOM     33  C   UNL A   1      39.796  29.300  30.248  1.00  0.00     0.010 A 
ATOM     34  C   UNL A   1      40.179  29.260  28.898  1.00  0.00    -0.014 A 
BRANCH  34  35
ATOM     35  C   UNL A   1      41.563  28.858  28.522  1.00  0.00     0.031 A 
ATOM     36  C   UNL A   1      42.673  29.876  28.487  1.00  0.00     0.074 A 
ATOM     37  C   UNL A   1      41.815  27.581  28.172  1.00  0.00     0.049 A 
ATOM     38  N   UNL A   1      43.930  29.717  28.155  1.00  0.00    -0.248 NA
ATOM     39  C   UNL A   1      42.321  31.258  28.846  1.00  0.00     0.031 C 
ATOM     40  C   UNL A   1      40.821  26.508  28.115  1.00  0.00     0.029 A 
ATOM     41  N   UNL A   1      42.984  26.969  27.792  1.00  0.00    -0.354 N 
ATOM     42  C   UNL A   1      44.513  30.975  28.254  1.00  0.00     0.074 A 
ATOM     43  C   UNL A   1      43.462  31.896  28.628  1.00  0.00     0.031 C 
ATOM     44  C   UNL A   1      41.426  25.365  27.748  1.00  0.00     0.029 A 
ATOM     45  C   UNL A   1      42.842  25.630  27.513  1.00  0.00     0.049 A 
ATOM     46  H   UNL A   1      43.844  27.445  27.725  1.00  0.00     0.167 HD
ATOM     47  C   UNL A   1      45.810  31.329  28.073  1.00  0.00     0.037 A 
ATOM     48  C   UNL A   1      43.748  24.715  27.115  1.00  0.00     0.037 A 
ATOM     49  C   UNL A   1      46.862  30.408  27.725  1.00  0.00     0.049 A 
ATOM     50  C   UNL A   1      45.185  25.127  26.942  1.00  0.00     0.074 A 
ATOM     51  C   UNL A   1      48.213  30.662  27.569  1.00  0.00     0.029 A 
ATOM     52  N   UNL A   1      46.682  29.054  27.483  1.00  0.00    -0.354 N 
ATOM     53  N   UNL A   1      45.727  26.312  27.096  1.00  0.00    -0.248 NA
ATOM     54  C   UNL A   1      46.134  24.075  26.557  1.00  0.00     0.031 C 
ATOM     55  C   UNL A   1      48.845  29.470  27.199  1.00  0.00     0.029 A 
ATOM     56  C   UNL A   1      47.895  28.463  27.168  1.00  0.00     0.049 A 
ATOM     57  H   UNL A   1      45.819  28.583  27.528  1.00  0.00     0.167 HD
ATOM     58  C   UNL A   1      47.087  26.140  26.855  1.00  0.00     0.074 A 
ATOM     59  C   UNL A   1      47.284  24.736  26.558  1.00  0.00     0.031 C 
ATOM     60  C   UNL A   1      48.081  27.062  26.880  1.00  0.00     0.037 A 
BRANCH  47  61
ATOM     61  C   UNL A   1      46.166  32.781  28.255  1.00  0.00     0.058 A 
ATOM     62  C   UNL A   1      46.573  33.288  29.500  1.00  0.00     0.135 A 
ATOM     63  C   UNL A   1      46.133  33.669  27.168  1.00  0.00     0.135 A 
ATOM     64  F   UNL A   1      46.609  32.487  30.577  1.00  0.00    -0.206 F 
ATOM     65  C   UNL A   1      46.900  34.629  29.668  1.00  0.00     0.059 A 
ATOM     66  C   UNL A   1      46.482  35.009  27.307  1.00  0.00     0.059 A 
ATOM     67  F   UNL A   1      45.754  33.238  25.954  1.00  0.00    -0.206 F 
ATOM     68  C   UNL A   1      46.849  35.483  28.565  1.00  0.00     0.060 A 
BRANCH  68  69
ATOM     69  S   UNL A   1      47.275  37.222  28.800  1.00  0.00     0.124 S 
ATOM     70  O   UNL A   1      46.574  37.527  30.044  1.00  0.00    -0.237 OA
ATOM     71  O   UNL A   1      48.730  37.180  28.888  1.00  0.00    -0.237 OA
ATOM     72  O   UNL A   1      46.740  37.867  27.605  1.00  0.00    -0.744 OA
ENDBRANCH  68  69
ENDBRANCH  47  61
BRANCH  48  73
ATOM     73  C   UNL A   1      43.329  23.306  26.885  1.00  0.00     0.058 A 
ATOM     74  C   UNL A   1      43.249  22.782  25.587  1.00  0.00     0.135 A 
ATOM     75  C   UNL A   1      43.012  22.457  27.955  1.00  0.00     0.135 A 
ATOM     76  F   UNL A   1      43.537  23.558  24.531  1.00  0.00    -0.206 F 
ATOM     77  C   UNL A   1      42.850  21.470  25.354  1.00  0.00     0.059 A 
ATOM     78  C   UNL A   1      42.635  21.133  27.750  1.00  0.00     0.059 A 
ATOM     79  F   UNL A   1      43.089  22.907  29.217  1.00  0.00    -0.206 F 
ATOM     80  C   UNL A   1      42.546  20.653  26.444  1.00  0.00     0.060 A 
BRANCH  80  81
ATOM     81  S   UNL A   1      42.075  18.937  26.135  1.00  0.00     0.124 S 
ATOM     82  O   UNL A   1      40.671  19.079  25.769  1.00  0.00    -0.237 OA
ATOM     83  O   UNL A   1      42.982  18.558  25.054  1.00  0.00    -0.237 OA
ATOM     84  O   UNL A   1      42.333  18.283  27.415  1.00  0.00    -0.744 OA
ENDBRANCH  80  81
ENDBRANCH  48  73
BRANCH  60  85
ATOM     85  C   UNL A   1      49.480  26.573  26.621  1.00  0.00     0.058 A 
ATOM     86  C   UNL A   1      50.325  26.160  27.664  1.00  0.00     0.135 A 
ATOM     87  C   UNL A   1      49.975  26.501  25.310  1.00  0.00     0.135 A 
ATOM     88  F   UNL A   1      49.902  26.212  28.937  1.00  0.00    -0.206 F 
ATOM     89  C   UNL A   1      51.624  25.728  27.419  1.00  0.00     0.059 A 
ATOM     90  C   UNL A   1      51.263  26.047  25.038  1.00  0.00     0.059 A 
ATOM     91  F   UNL A   1      49.205  26.871  24.275  1.00  0.00    -0.206 F 
ATOM     92  C   UNL A   1      52.087  25.680  26.101  1.00  0.00     0.060 A 
BRANCH  92  93
ATOM     93  S   UNL A   1      53.774  25.118  25.792  1.00  0.00     0.124 S 
ATOM     94  O   UNL A   1      54.220  26.070  24.781  1.00  0.00    -0.237 OA
ATOM     95  O   UNL A   1      54.397  25.251  27.106  1.00  0.00    -0.237 OA
ATOM     96  O   UNL A   1      53.593  23.745  25.328  1.00  0.00    -0.744 OA
ENDBRANCH  92  93
ENDBRANCH  60  85
ENDBRANCH  34  35
ENDBRANCH  26  29
ENDBRANCH  24  25
ENDBRANCH  23  24
ENDBRANCH  22  23
ENDBRANCH   3  22
TORSDOF 19
ENDMDL
MODEL 3
REMARK VINA RESULT:      -9.9      5.978     12.065
REMARK SMILES O=C(C[C@@H]1CN(C(=O)C[NH2+]CC2CC2)CCO1)NCCCNC(=O)c1ccc(-c2c3nc(c(-c4c(F)cc(S(=O)(=O)[O-])cc4F)c4ccc([nH]4)c(-c4c(F)cc(S(=O)(=O)[O-])cc4F)c4nc(c(-c5c(F)cc(S(=O)(=O)[O-])cc5F)c5ccc2[nH]5)C=C4)C=C3)cc1
REMARK SMILES IDX 1 1 2 2 18 3 3 5 4 6 5 7 17 8 6 9 16 10 15 11 7 12 8 13 9 14
REMARK SMILES IDX 10 15 11 18 12 19 13 20 14 21 19 22 20 23 21 24 22 25 23 26
REMARK SMILES IDX 24 28 25 29 26 30 90 31 27 32 89 33 28 34 29 35 30 36 83 37
REMARK SMILES IDX 31 38 88 39 82 40 84 41 32 42 87 43 81 44 80 45 33 47 67 48
REMARK SMILES IDX 46 49 66 50 47 51 50 52 65 53 85 54 48 55 49 56 64 58 86 59
REMARK SMILES IDX 51 60 34 61 35 62 44 63 36 64 37 65 43 66 45 67 38 68 39 69
REMARK SMILES IDX 40 70 41 71 42 72 68 73 69 74 78 75 70 76 71 77 77 78 79 79
REMARK SMILES IDX 72 80 73 81 74 82 75 83 76 84 52 85 53 86 62 87 54 88 55 89
REMARK SMILES IDX 61 90 63 91 56 92 57 93 58 94 59 95 60 96
REMARK H PARENT 18 4 10 16 10 17 22 27 84 46 50 57
REMARK Flexibility Score: inf
ROOT
ATOM      1  O   UNL A   1      43.127  22.371  24.594  1.00  0.00    -0.275 OA
ATOM      2  C   UNL A   1      43.819  21.669  25.325  1.00  0.00     0.222 C 
ATOM      3  N   UNL A   1      43.363  21.043  26.458  1.00  0.00    -0.356 N 
ATOM      4  H   UNL A   1      44.006  20.516  26.985  1.00  0.00     0.163 HD
ENDROOT
BRANCH   2   5
ATOM      5  C   UNL A   1      45.270  21.371  25.012  1.00  0.00     0.133 C 
BRANCH   5   6
ATOM      6  C   UNL A   1      46.161  22.590  25.243  1.00  0.00     0.147 C 
ATOM      7  C   UNL A   1      45.573  23.478  26.356  1.00  0.00     0.152 C 
ATOM      8  O   UNL A   1      46.247  23.345  24.009  1.00  0.00    -0.374 OA
ATOM      9  N   UNL A   1      46.352  24.713  26.497  1.00  0.00    -0.333 N 
ATOM     10  C   UNL A   1      47.113  24.484  24.171  1.00  0.00     0.182 C 
ATOM     11  C   UNL A   1      46.569  25.432  25.240  1.00  0.00     0.148 C 
BRANCH   9  12
ATOM     12  C   UNL A   1      46.748  25.288  27.694  1.00  0.00     0.277 C 
ATOM     13  O   UNL A   1      47.479  24.698  28.495  1.00  0.00    -0.268 OA
BRANCH  12  14
ATOM     14  C   UNL A   1      46.243  26.698  28.027  1.00  0.00     0.362 C 
BRANCH  14  15
ATOM     15  N   UNL A   1      45.349  26.641  29.193  1.00  0.00    -0.338 N 
ATOM     16  H   UNL A   1      45.086  27.592  29.452  1.00  0.00     0.346 HD
ATOM     17  H   UNL A   1      45.853  26.174  29.947  1.00  0.00     0.346 HD
BRANCH  15  18
ATOM     18  C   UNL A   1      44.137  25.877  28.929  1.00  0.00     0.264 C 
BRANCH  18  19
ATOM     19  C   UNL A   1      43.773  24.973  30.073  1.00  0.00     0.044 C 
ATOM     20  C   UNL A   1      44.380  23.594  30.168  1.00  0.00     0.010 C 
ATOM     21  C   UNL A   1      44.803  24.663  31.132  1.00  0.00     0.010 C 
ENDBRANCH  18  19
ENDBRANCH  15  18
ENDBRANCH  14  15
ENDBRANCH  12  14
ENDBRANCH   9  12
ENDBRANCH   5   6
ENDBRANCH   2   5
BRANCH   3  22
ATOM     22  C   UNL A   1      41.997  21.107  26.927  1.00  0.00     0.117 C 
BRANCH  22  23
ATOM     23  C   UNL A   1      41.780  22.247  27.919  1.00  0.00     0.042 C 
BRANCH  23  24
ATOM     24  C   UNL A   1      40.756  23.294  27.484  1.00  0.00     0.118 C 
BRANCH  24  25
ATOM     25  N   UNL A   1      41.173  24.061  26.318  1.00  0.00    -0.352 N 
ATOM     26  C   UNL A   1      41.289  25.416  26.136  1.00  0.00     0.251 C 
ATOM     27  H   UNL A   1      41.409  23.518  25.533  1.00  0.00     0.163 HD
ATOM     28  O   UNL A   1      41.544  25.841  25.009  1.00  0.00    -0.269 OA
BRANCH  26  29
ATOM     29  C   UNL A   1      41.095  26.371  27.253  1.00  0.00     0.039 A 
ATOM     30  C   UNL A   1      40.204  26.026  28.275  1.00  0.00     0.014 A 
ATOM     31  C   UNL A   1      41.732  27.615  27.288  1.00  0.00     0.014 A 
ATOM     32  C   UNL A   1      39.994  26.896  29.349  1.00  0.00     0.010 A 
ATOM     33  C   UNL A   1      41.576  28.453  28.394  1.00  0.00     0.010 A 
ATOM     34  C   UNL A   1      40.700  28.107  29.435  1.00  0.00    -0.014 A 
BRANCH  34  35
ATOM     35  C   UNL A   1      40.528  29.013  30.604  1.00  0.00     0.031 A 
ATOM     36  C   UNL A   1      41.390  28.856  31.829  1.00  0.00     0.074 A 
ATOM     37  C   UNL A   1      39.564  29.956  30.581  1.00  0.00     0.049 A 
ATOM     38  N   UNL A   1      41.363  29.530  32.951  1.00  0.00    -0.248 NA
ATOM     39  C   UNL A   1      42.398  27.784  31.801  1.00  0.00     0.031 C 
ATOM     40  C   UNL A   1      38.628  30.182  29.478  1.00  0.00     0.029 A 
ATOM     41  N   UNL A   1      39.209  30.898  31.514  1.00  0.00    -0.354 N 
ATOM     42  C   UNL A   1      42.337  28.961  33.763  1.00  0.00     0.074 A 
ATOM     43  C   UNL A   1      42.903  27.852  33.025  1.00  0.00     0.031 C 
ATOM     44  C   UNL A   1      37.823  31.212  29.787  1.00  0.00     0.029 A 
ATOM     45  C   UNL A   1      38.163  31.700  31.120  1.00  0.00     0.049 A 
ATOM     46  H   UNL A   1      39.661  30.992  32.384  1.00  0.00     0.167 HD
ATOM     47  C   UNL A   1      42.741  29.338  35.002  1.00  0.00     0.037 A 
ATOM     48  C   UNL A   1      37.546  32.714  31.757  1.00  0.00     0.037 A 
ATOM     49  C   UNL A   1      42.196  30.458  35.727  1.00  0.00     0.049 A 
ATOM     50  C   UNL A   1      38.026  33.129  33.122  1.00  0.00     0.074 A 
ATOM     51  C   UNL A   1      42.574  30.949  36.965  1.00  0.00     0.029 A 
ATOM     52  N   UNL A   1      41.159  31.263  35.280  1.00  0.00    -0.354 N 
ATOM     53  N   UNL A   1      38.987  32.612  33.850  1.00  0.00    -0.248 NA
ATOM     54  C   UNL A   1      37.348  34.274  33.743  1.00  0.00     0.031 C 
ATOM     55  C   UNL A   1      41.742  32.029  37.281  1.00  0.00     0.029 A 
ATOM     56  C   UNL A   1      40.877  32.240  36.221  1.00  0.00     0.049 A 
ATOM     57  H   UNL A   1      40.693  31.156  34.419  1.00  0.00     0.167 HD
ATOM     58  C   UNL A   1      39.049  33.388  35.003  1.00  0.00     0.074 A 
ATOM     59  C   UNL A   1      38.036  34.416  34.868  1.00  0.00     0.031 C 
ATOM     60  C   UNL A   1      39.871  33.263  36.074  1.00  0.00     0.037 A 
BRANCH  47  61
ATOM     61  C   UNL A   1      43.835  28.534  35.652  1.00  0.00     0.058 A 
ATOM     62  C   UNL A   1      43.549  27.457  36.507  1.00  0.00     0.135 A 
ATOM     63  C   UNL A   1      45.185  28.821  35.392  1.00  0.00     0.135 A 
ATOM     64  F   UNL A   1      42.277  27.147  36.802  1.00  0.00    -0.206 F 
ATOM     65  C   UNL A   1      44.561  26.716  37.108  1.00  0.00     0.059 A 
ATOM     66  C   UNL A   1      46.214  28.075  35.961  1.00  0.00     0.059 A 
ATOM     67  F   UNL A   1      45.517  29.837  34.580  1.00  0.00    -0.206 F 
ATOM     68  C   UNL A   1      45.892  27.034  36.831  1.00  0.00     0.060 A 
BRANCH  68  69
ATOM     69  S   UNL A   1      47.194  26.065  37.621  1.00  0.00     0.124 S 
ATOM     70  O   UNL A   1      46.706  25.989  38.995  1.00  0.00    -0.237 OA
ATOM     71  O   UNL A   1      47.158  24.817  36.866  1.00  0.00    -0.237 OA
ATOM     72  O   UNL A   1      48.389  26.879  37.425  1.00  0.00    -0.744 OA
ENDBRANCH  68  69
ENDBRANCH  47  61
BRANCH  48  73
ATOM     73  C   UNL A   1      36.425  33.434  31.096  1.00  0.00     0.058 A 
ATOM     74  C   UNL A   1      36.653  34.254  29.981  1.00  0.00     0.135 A 
ATOM     75  C   UNL A   1      35.107  33.310  31.558  1.00  0.00     0.135 A 
ATOM     76  F   UNL A   1      37.898  34.409  29.507  1.00  0.00    -0.206 F 
ATOM     77  C   UNL A   1      35.617  34.942  29.358  1.00  0.00     0.059 A 
ATOM     78  C   UNL A   1      34.049  33.967  30.936  1.00  0.00     0.059 A 
ATOM     79  F   UNL A   1      34.834  32.523  32.611  1.00  0.00    -0.206 F 
ATOM     80  C   UNL A   1      34.317  34.790  29.843  1.00  0.00     0.060 A 
BRANCH  80  81
ATOM     81  S   UNL A   1      32.972  35.649  28.998  1.00  0.00     0.124 S 
ATOM     82  O   UNL A   1      32.175  36.125  30.123  1.00  0.00    -0.237 OA
ATOM     83  O   UNL A   1      33.687  36.674  28.242  1.00  0.00    -0.237 OA
ATOM     84  O   UNL A   1      32.360  34.598  28.188  1.00  0.00    -0.744 OA
ENDBRANCH  80  81
ENDBRANCH  48  73
BRANCH  60  85
ATOM     85  C   UNL A   1      39.739  34.288  37.167  1.00  0.00     0.058 A 
ATOM     86  C   UNL A   1      40.305  35.569  37.054  1.00  0.00     0.135 A 
ATOM     87  C   UNL A   1      39.022  33.991  38.336  1.00  0.00     0.135 A 
ATOM     88  F   UNL A   1      41.004  35.903  35.957  1.00  0.00    -0.206 F 
ATOM     89  C   UNL A   1      40.197  36.504  38.077  1.00  0.00     0.059 A 
ATOM     90  C   UNL A   1      38.878  34.920  39.362  1.00  0.00     0.059 A 
ATOM     91  F   UNL A   1      38.450  32.786  38.491  1.00  0.00    -0.206 F 
ATOM     92  C   UNL A   1      39.486  36.168  39.231  1.00  0.00     0.060 A 
BRANCH  92  93
ATOM     93  S   UNL A   1      39.349  37.389  40.554  1.00  0.00     0.124 S 
ATOM     94  O   UNL A   1      38.910  36.562  41.672  1.00  0.00    -0.237 OA
ATOM     95  O   UNL A   1      40.710  37.908  40.646  1.00  0.00    -0.237 OA
ATOM     96  O   UNL A   1      38.360  38.333  40.042  1.00  0.00    -0.744 OA
ENDBRANCH  92  93
ENDBRANCH  60  85
ENDBRANCH  34  35
ENDBRANCH  26  29
ENDBRANCH  24  25
ENDBRANCH  23  24
ENDBRANCH  22  23
ENDBRANCH   3  22
TORSDOF 19
ENDMDL
