MODEL 1
REMARK VINA RESULT:     -10.5      0.000      0.000
REMARK SMILES Cn1cc(S(=O)(=O)N2CCC(C(=O)NCCCNC(=O)c3ccc(-c4c5nc(c(-c6c(F)cc(S(=O)(=O)[O-])cc6F)c6ccc([nH]6)c(-c6c(F)cc(S(=O)(=O)[O-])cc6F)c6nc(c(-c7c(F)cc(S(=O)(=O)[O-])cc7F)c7ccc4[nH]7)C=C6)C=C5)cc3)CC2)cc1C(=O)N1CCCCC1
REMARK SMILES IDX 16 1 15 2 14 3 12 4 13 5 11 7 8 8 9 9 88 10 10 11 87 12 5 13
REMARK SMILES IDX 6 14 7 15 4 16 1 17 2 18 3 19 90 20 89 21 91 22 92 23 93 24
REMARK SMILES IDX 94 25 98 26 95 27 97 28 96 29 17 30 18 31 19 32 20 34 21 35
REMARK SMILES IDX 22 36 86 37 23 38 85 39 24 40 25 41 26 42 79 43 27 44 84 45
REMARK SMILES IDX 78 46 80 47 28 48 83 49 77 50 76 51 29 53 63 54 42 55 62 56
REMARK SMILES IDX 43 57 46 58 61 59 81 60 44 61 45 62 60 64 82 65 47 66 30 67
REMARK SMILES IDX 31 68 40 69 32 70 33 71 39 72 41 73 34 74 35 75 36 76 37 77
REMARK SMILES IDX 38 78 64 79 65 80 74 81 66 82 67 83 73 84 75 85 68 86 69 87
REMARK SMILES IDX 70 88 71 89 72 90 48 91 49 92 58 93 50 94 51 95 57 96 59 97
REMARK SMILES IDX 52 98 53 99 54 100 55 101 56 102
REMARK H PARENT 14 6 18 33 80 52 46 63
REMARK Flexibility Score: inf
ROOT
ATOM      1  C   UNL A   1      34.786  34.382  28.914  1.00  0.00     0.042 C 
ENDROOT
BRANCH   1   2
ATOM      2  C   UNL A   1      34.308  33.930  30.287  1.00  0.00     0.117 C 
BRANCH   2   3
ATOM      3  N   UNL A   1      34.414  34.987  31.281  1.00  0.00    -0.356 N 
ATOM      4  C   UNL A   1      35.136  35.080  32.427  1.00  0.00     0.223 C 
ATOM      5  O   UNL A   1      35.019  36.112  33.094  1.00  0.00    -0.275 OA
ATOM      6  H   UNL A   1      33.863  35.780  31.086  1.00  0.00     0.163 HD
BRANCH   4   7
ATOM      7  C   UNL A   1      36.088  33.988  32.876  1.00  0.00     0.081 C 
ATOM      8  N   UNL A   1      38.429  33.023  34.230  1.00  0.00    -0.198 NA
ATOM      9  C   UNL A   1      38.407  33.017  32.746  1.00  0.00     0.103 C 
ATOM     10  C   UNL A   1      37.111  32.821  34.871  1.00  0.00     0.103 C 
ATOM     11  C   UNL A   1      37.473  34.103  32.237  1.00  0.00     0.030 C 
ATOM     12  C   UNL A   1      36.121  33.871  34.401  1.00  0.00     0.030 C 
BRANCH   8  13
ATOM     13  S   UNL A   1      39.724  32.169  34.946  1.00  0.00     0.244 S 
ATOM     14  O   UNL A   1      39.289  31.650  36.226  1.00  0.00    -0.207 OA
ATOM     15  O   UNL A   1      40.927  32.957  34.809  1.00  0.00    -0.207 OA
BRANCH  13  16
ATOM     16  C   UNL A   1      40.073  30.738  34.030  1.00  0.00     0.101 A 
ATOM     17  C   UNL A   1      39.059  27.633  32.503  1.00  0.00     0.150 C 
ATOM     18  N   UNL A   1      39.779  28.799  32.969  1.00  0.00    -0.345 N 
ATOM     19  C   UNL A   1      39.133  29.914  33.448  1.00  0.00     0.107 A 
ATOM     20  C   UNL A   1      41.142  28.919  33.169  1.00  0.00     0.108 A 
ATOM     21  C   UNL A   1      41.331  30.142  33.802  1.00  0.00     0.055 A 
BRANCH  20  22
ATOM     22  C   UNL A   1      42.186  27.919  33.000  1.00  0.00     0.270 C 
ATOM     23  O   UNL A   1      42.714  27.758  31.899  1.00  0.00    -0.267 OA
ATOM     24  N   UNL A   1      42.609  27.182  34.097  1.00  0.00    -0.337 N 
ATOM     25  C   UNL A   1      43.975  26.672  34.100  1.00  0.00     0.120 C 
ATOM     26  C   UNL A   1      41.745  26.749  35.193  1.00  0.00     0.120 C 
ATOM     27  C   UNL A   1      44.012  25.155  34.217  1.00  0.00     0.022 C 
ATOM     28  C   UNL A   1      41.771  25.225  35.343  1.00  0.00     0.022 C 
ATOM     29  C   UNL A   1      43.202  24.694  35.425  1.00  0.00     0.004 C 
ENDBRANCH  20  22
ENDBRANCH  13  16
ENDBRANCH   8  13
ENDBRANCH   4   7
ENDBRANCH   2   3
ENDBRANCH   1   2
BRANCH   1  30
ATOM     30  C   UNL A   1      35.291  33.244  28.038  1.00  0.00     0.118 C 
BRANCH  30  31
ATOM     31  N   UNL A   1      34.337  32.146  27.948  1.00  0.00    -0.352 N 
ATOM     32  C   UNL A   1      34.555  30.790  27.908  1.00  0.00     0.251 C 
ATOM     33  H   UNL A   1      33.391  32.417  27.910  1.00  0.00     0.163 HD
ATOM     34  O   UNL A   1      33.630  30.034  27.622  1.00  0.00    -0.269 OA
BRANCH  32  35
ATOM     35  C   UNL A   1      35.899  30.246  28.190  1.00  0.00     0.039 A 
ATOM     36  C   UNL A   1      36.840  30.189  27.159  1.00  0.00     0.014 A 
ATOM     37  C   UNL A   1      36.229  29.788  29.468  1.00  0.00     0.014 A 
ATOM     38  C   UNL A   1      38.139  29.751  27.432  1.00  0.00     0.010 A 
ATOM     39  C   UNL A   1      37.540  29.426  29.755  1.00  0.00     0.010 A 
ATOM     40  C   UNL A   1      38.509  29.407  28.741  1.00  0.00    -0.014 A 
BRANCH  40  41
ATOM     41  C   UNL A   1      39.903  29.030  29.088  1.00  0.00     0.031 A 
ATOM     42  C   UNL A   1      40.829  30.055  29.681  1.00  0.00     0.074 A 
ATOM     43  C   UNL A   1      40.360  27.802  28.774  1.00  0.00     0.049 A 
ATOM     44  N   UNL A   1      42.115  29.975  29.903  1.00  0.00    -0.248 NA
ATOM     45  C   UNL A   1      40.235  31.352  30.044  1.00  0.00     0.031 C 
ATOM     46  C   UNL A   1      39.571  26.735  28.154  1.00  0.00     0.029 A 
ATOM     47  N   UNL A   1      41.610  27.252  28.911  1.00  0.00    -0.354 N 
ATOM     48  C   UNL A   1      42.490  31.217  30.400  1.00  0.00     0.074 A 
ATOM     49  C   UNL A   1      41.302  32.043  30.417  1.00  0.00     0.031 C 
ATOM     50  C   UNL A   1      40.351  25.656  27.976  1.00  0.00     0.029 A 
ATOM     51  C   UNL A   1      41.702  25.967  28.429  1.00  0.00     0.049 A 
ATOM     52  H   UNL A   1      42.367  27.731  29.317  1.00  0.00     0.167 HD
ATOM     53  C   UNL A   1      43.712  31.626  30.819  1.00  0.00     0.037 A 
ATOM     54  C   UNL A   1      42.762  25.141  28.345  1.00  0.00     0.037 A 
ATOM     55  C   UNL A   1      44.880  30.787  30.843  1.00  0.00     0.049 A 
ATOM     56  C   UNL A   1      44.103  25.611  28.832  1.00  0.00     0.074 A 
ATOM     57  C   UNL A   1      46.145  31.086  31.317  1.00  0.00     0.029 A 
ATOM     58  N   UNL A   1      44.924  29.481  30.378  1.00  0.00    -0.354 N 
ATOM     59  N   UNL A   1      44.432  26.775  29.338  1.00  0.00    -0.248 NA
ATOM     60  C   UNL A   1      45.219  24.660  28.732  1.00  0.00     0.031 C 
ATOM     61  C   UNL A   1      46.962  29.967  31.116  1.00  0.00     0.029 A 
ATOM     62  C   UNL A   1      46.197  28.963  30.542  1.00  0.00     0.049 A 
ATOM     63  H   UNL A   1      44.162  28.994  29.989  1.00  0.00     0.167 HD
ATOM     64  C   UNL A   1      45.788  26.691  29.632  1.00  0.00     0.074 A 
ATOM     65  C   UNL A   1      46.217  25.360  29.255  1.00  0.00     0.031 C 
ATOM     66  C   UNL A   1      46.603  27.634  30.164  1.00  0.00     0.037 A 
BRANCH  53  67
ATOM     67  C   UNL A   1      43.840  33.045  31.292  1.00  0.00     0.058 A 
ATOM     68  C   UNL A   1      44.007  34.107  30.390  1.00  0.00     0.135 A 
ATOM     69  C   UNL A   1      43.776  33.351  32.660  1.00  0.00     0.135 A 
ATOM     70  F   UNL A   1      44.090  33.866  29.071  1.00  0.00    -0.206 F 
ATOM     71  C   UNL A   1      44.135  35.420  30.828  1.00  0.00     0.059 A 
ATOM     72  C   UNL A   1      43.880  34.660  33.121  1.00  0.00     0.059 A 
ATOM     73  F   UNL A   1      43.620  32.371  33.566  1.00  0.00    -0.206 F 
ATOM     74  C   UNL A   1      44.077  35.686  32.197  1.00  0.00     0.060 A 
BRANCH  74  75
ATOM     75  S   UNL A   1      44.253  37.394  32.756  1.00  0.00     0.124 S 
ATOM     76  O   UNL A   1      45.651  37.420  33.172  1.00  0.00    -0.237 OA
ATOM     77  O   UNL A   1      43.936  38.156  31.552  1.00  0.00    -0.237 OA
ATOM     78  O   UNL A   1      43.273  37.499  33.834  1.00  0.00    -0.744 OA
ENDBRANCH  74  75
ENDBRANCH  53  67
BRANCH  54  79
ATOM     79  C   UNL A   1      42.590  23.776  27.784  1.00  0.00     0.058 A 
ATOM     80  C   UNL A   1      42.469  22.665  28.631  1.00  0.00     0.135 A 
ATOM     81  C   UNL A   1      42.520  23.558  26.401  1.00  0.00     0.135 A 
ATOM     82  F   UNL A   1      42.536  22.826  29.962  1.00  0.00    -0.206 F 
ATOM     83  C   UNL A   1      42.294  21.381  28.127  1.00  0.00     0.059 A 
ATOM     84  C   UNL A   1      42.326  22.285  25.872  1.00  0.00     0.059 A 
ATOM     85  F   UNL A   1      42.615  24.592  25.551  1.00  0.00    -0.206 F 
ATOM     86  C   UNL A   1      42.223  21.201  26.744  1.00  0.00     0.060 A 
BRANCH  86  87
ATOM     87  S   UNL A   1      41.940  19.539  26.098  1.00  0.00     0.124 S 
ATOM     88  O   UNL A   1      42.378  18.712  27.217  1.00  0.00    -0.237 OA
ATOM     89  O   UNL A   1      40.504  19.548  25.835  1.00  0.00    -0.237 OA
ATOM     90  O   UNL A   1      42.786  19.495  24.908  1.00  0.00    -0.744 OA
ENDBRANCH  86  87
ENDBRANCH  54  79
BRANCH  66  91
ATOM     91  C   UNL A   1      48.038  27.256  30.389  1.00  0.00     0.058 A 
ATOM     92  C   UNL A   1      49.031  27.571  29.451  1.00  0.00     0.135 A 
ATOM     93  C   UNL A   1      48.431  26.631  31.583  1.00  0.00     0.135 A 
ATOM     94  F   UNL A   1      48.702  28.161  28.291  1.00  0.00    -0.206 F 
ATOM     95  C   UNL A   1      50.369  27.275  29.686  1.00  0.00     0.059 A 
ATOM     96  C   UNL A   1      49.765  26.341  31.847  1.00  0.00     0.059 A 
ATOM     97  F   UNL A   1      47.517  26.316  32.514  1.00  0.00    -0.206 F 
ATOM     98  C   UNL A   1      50.727  26.661  30.889  1.00  0.00     0.060 A 
BRANCH  98  99
ATOM     99  S   UNL A   1      52.473  26.329  31.209  1.00  0.00     0.124 S 
ATOM    100  O   UNL A   1      52.864  27.517  31.961  1.00  0.00    -0.237 OA
ATOM    101  O   UNL A   1      52.424  25.085  31.972  1.00  0.00    -0.237 OA
ATOM    102  O   UNL A   1      53.046  26.214  29.872  1.00  0.00    -0.744 OA
ENDBRANCH  98  99
ENDBRANCH  66  91
ENDBRANCH  40  41
ENDBRANCH  32  35
ENDBRANCH  30  31
ENDBRANCH   1  30
TORSDOF 16
ENDMDL
MODEL 2
REMARK VINA RESULT:     -10.3      1.137      2.018
REMARK SMILES Cn1cc(S(=O)(=O)N2CCC(C(=O)NCCCNC(=O)c3ccc(-c4c5nc(c(-c6c(F)cc(S(=O)(=O)[O-])cc6F)c6ccc([nH]6)c(-c6c(F)cc(S(=O)(=O)[O-])cc6F)c6nc(c(-c7c(F)cc(S(=O)(=O)[O-])cc7F)c7ccc4[nH]7)C=C6)C=C5)cc3)CC2)cc1C(=O)N1CCCCC1
REMARK SMILES IDX 16 1 15 2 14 3 12 4 13 5 11 7 8 8 9 9 88 10 10 11 87 12 5 13
REMARK SMILES IDX 6 14 7 15 4 16 1 17 2 18 3 19 90 20 89 21 91 22 92 23 93 24
REMARK SMILES IDX 94 25 98 26 95 27 97 28 96 29 17 30 18 31 19 32 20 34 21 35
REMARK SMILES IDX 22 36 86 37 23 38 85 39 24 40 25 41 26 42 79 43 27 44 84 45
REMARK SMILES IDX 78 46 80 47 28 48 83 49 77 50 76 51 29 53 63 54 42 55 62 56
REMARK SMILES IDX 43 57 46 58 61 59 81 60 44 61 45 62 60 64 82 65 47 66 30 67
REMARK SMILES IDX 31 68 40 69 32 70 33 71 39 72 41 73 34 74 35 75 36 76 37 77
REMARK SMILES IDX 38 78 64 79 65 80 74 81 66 82 67 83 73 84 75 85 68 86 69 87
REMARK SMILES IDX 70 88 71 89 72 90 48 91 49 92 58 93 50 94 51 95 57 96 59 97
REMARK SMILES IDX 52 98 53 99 54 100 55 101 56 102
REMARK H PARENT 14 6 18 33 80 52 46 63
REMARK Flexibility Score: inf
ROOT
ATOM      1  C   UNL A   1      34.380  32.758  29.867  1.00  0.00     0.042 C 
ENDROOT
BRANCH   1   2
ATOM      2  C   UNL A   1      34.985  34.102  30.247  1.00  0.00     0.117 C 
BRANCH   2   3
ATOM      3  N   UNL A   1      36.344  34.253  29.752  1.00  0.00    -0.356 N 
ATOM      4  C   UNL A   1      37.548  34.060  30.346  1.00  0.00     0.223 C 
ATOM      5  O   UNL A   1      38.560  34.281  29.674  1.00  0.00    -0.275 OA
ATOM      6  H   UNL A   1      36.400  34.549  28.814  1.00  0.00     0.163 HD
BRANCH   4   7
ATOM      7  C   UNL A   1      37.677  33.553  31.770  1.00  0.00     0.081 C 
ATOM      8  N   UNL A   1      38.897  31.962  33.826  1.00  0.00    -0.198 NA
ATOM      9  C   UNL A   1      37.546  31.588  33.337  1.00  0.00     0.103 C 
ATOM     10  C   UNL A   1      39.189  33.412  33.791  1.00  0.00     0.103 C 
ATOM     11  C   UNL A   1      37.364  32.063  31.904  1.00  0.00     0.030 C 
ATOM     12  C   UNL A   1      39.019  33.958  32.385  1.00  0.00     0.030 C 
BRANCH   8  13
ATOM     13  S   UNL A   1      39.415  31.150  35.237  1.00  0.00     0.244 S 
ATOM     14  O   UNL A   1      38.454  30.116  35.559  1.00  0.00    -0.207 OA
ATOM     15  O   UNL A   1      39.832  32.135  36.208  1.00  0.00    -0.207 OA
BRANCH  13  16
ATOM     16  C   UNL A   1      40.869  30.262  34.913  1.00  0.00     0.101 A 
ATOM     17  C   UNL A   1      44.463  30.015  34.785  1.00  0.00     0.150 C 
ATOM     18  N   UNL A   1      43.037  29.774  34.737  1.00  0.00    -0.345 N 
ATOM     19  C   UNL A   1      42.132  30.619  35.335  1.00  0.00     0.107 A 
ATOM     20  C   UNL A   1      42.373  28.824  33.984  1.00  0.00     0.108 A 
ATOM     21  C   UNL A   1      41.019  29.106  34.118  1.00  0.00     0.055 A 
BRANCH  20  22
ATOM     22  C   UNL A   1      42.913  27.858  33.039  1.00  0.00     0.270 C 
ATOM     23  O   UNL A   1      42.746  28.015  31.830  1.00  0.00    -0.267 OA
ATOM     24  N   UNL A   1      43.654  26.783  33.512  1.00  0.00    -0.337 N 
ATOM     25  C   UNL A   1      44.663  26.202  32.634  1.00  0.00     0.120 C 
ATOM     26  C   UNL A   1      43.403  26.088  34.772  1.00  0.00     0.120 C 
ATOM     27  C   UNL A   1      44.398  24.727  32.366  1.00  0.00     0.022 C 
ATOM     28  C   UNL A   1      43.144  24.597  34.536  1.00  0.00     0.022 C 
ATOM     29  C   UNL A   1      44.243  23.966  33.680  1.00  0.00     0.004 C 
ENDBRANCH  20  22
ENDBRANCH  13  16
ENDBRANCH   8  13
ENDBRANCH   4   7
ENDBRANCH   2   3
ENDBRANCH   1   2
BRANCH   1  30
ATOM     30  C   UNL A   1      34.333  32.512  28.365  1.00  0.00     0.118 C 
BRANCH  30  31
ATOM     31  N   UNL A   1      33.780  31.206  28.032  1.00  0.00    -0.352 N 
ATOM     32  C   UNL A   1      34.416  30.004  27.839  1.00  0.00     0.251 C 
ATOM     33  H   UNL A   1      32.801  31.181  27.931  1.00  0.00     0.163 HD
ATOM     34  O   UNL A   1      33.795  29.058  27.360  1.00  0.00    -0.269 OA
BRANCH  32  35
ATOM     35  C   UNL A   1      35.844  29.854  28.187  1.00  0.00     0.039 A 
ATOM     36  C   UNL A   1      36.190  29.444  29.477  1.00  0.00     0.014 A 
ATOM     37  C   UNL A   1      36.839  30.122  27.245  1.00  0.00     0.014 A 
ATOM     38  C   UNL A   1      37.532  29.222  29.795  1.00  0.00     0.010 A 
ATOM     39  C   UNL A   1      38.166  29.828  27.539  1.00  0.00     0.010 A 
ATOM     40  C   UNL A   1      38.526  29.372  28.815  1.00  0.00    -0.014 A 
BRANCH  40  41
ATOM     41  C   UNL A   1      39.950  29.051  29.088  1.00  0.00     0.031 A 
ATOM     42  C   UNL A   1      40.869  30.118  29.612  1.00  0.00     0.074 A 
ATOM     43  C   UNL A   1      40.433  27.835  28.767  1.00  0.00     0.049 A 
ATOM     44  N   UNL A   1      42.168  30.088  29.763  1.00  0.00    -0.248 NA
ATOM     45  C   UNL A   1      40.250  31.399  29.989  1.00  0.00     0.031 C 
ATOM     46  C   UNL A   1      39.650  26.730  28.209  1.00  0.00     0.029 A 
ATOM     47  N   UNL A   1      41.708  27.332  28.841  1.00  0.00    -0.354 N 
ATOM     48  C   UNL A   1      42.525  31.350  30.219  1.00  0.00     0.074 A 
ATOM     49  C   UNL A   1      41.310  32.134  30.290  1.00  0.00     0.031 C 
ATOM     50  C   UNL A   1      40.458  25.677  28.003  1.00  0.00     0.029 A 
ATOM     51  C   UNL A   1      41.820  26.043  28.374  1.00  0.00     0.049 A 
ATOM     52  H   UNL A   1      42.469  27.845  29.196  1.00  0.00     0.167 HD
ATOM     53  C   UNL A   1      43.752  31.810  30.562  1.00  0.00     0.037 A 
ATOM     54  C   UNL A   1      42.903  25.254  28.242  1.00  0.00     0.037 A 
ATOM     55  C   UNL A   1      44.950  31.014  30.532  1.00  0.00     0.049 A 
ATOM     56  C   UNL A   1      44.251  25.780  28.646  1.00  0.00     0.074 A 
ATOM     57  C   UNL A   1      46.228  31.365  30.929  1.00  0.00     0.029 A 
ATOM     58  N   UNL A   1      45.016  29.702  30.085  1.00  0.00    -0.354 N 
ATOM     59  N   UNL A   1      44.566  26.963  29.115  1.00  0.00    -0.248 NA
ATOM     60  C   UNL A   1      45.394  24.868  28.497  1.00  0.00     0.031 C 
ATOM     61  C   UNL A   1      47.073  30.274  30.699  1.00  0.00     0.029 A 
ATOM     62  C   UNL A   1      46.314  29.234  30.184  1.00  0.00     0.049 A 
ATOM     63  H   UNL A   1      44.252  29.182  29.747  1.00  0.00     0.167 HD
ATOM     64  C   UNL A   1      45.937  26.933  29.333  1.00  0.00     0.074 A 
ATOM     65  C   UNL A   1      46.394  25.612  28.952  1.00  0.00     0.031 C 
ATOM     66  C   UNL A   1      46.746  27.913  29.804  1.00  0.00     0.037 A 
BRANCH  53  67
ATOM     67  C   UNL A   1      43.855  33.241  31.006  1.00  0.00     0.058 A 
ATOM     68  C   UNL A   1      44.223  34.260  30.114  1.00  0.00     0.135 A 
ATOM     69  C   UNL A   1      43.564  33.600  32.331  1.00  0.00     0.135 A 
ATOM     70  F   UNL A   1      44.527  33.967  28.840  1.00  0.00    -0.206 F 
ATOM     71  C   UNL A   1      44.327  35.584  30.528  1.00  0.00     0.059 A 
ATOM     72  C   UNL A   1      43.640  34.921  32.762  1.00  0.00     0.059 A 
ATOM     73  F   UNL A   1      43.209  32.663  33.224  1.00  0.00    -0.206 F 
ATOM     74  C   UNL A   1      44.040  35.904  31.856  1.00  0.00     0.060 A 
BRANCH  74  75
ATOM     75  S   UNL A   1      44.186  37.625  32.384  1.00  0.00     0.124 S 
ATOM     76  O   UNL A   1      45.583  37.681  32.802  1.00  0.00    -0.237 OA
ATOM     77  O   UNL A   1      43.861  38.359  31.164  1.00  0.00    -0.237 OA
ATOM     78  O   UNL A   1      43.202  37.734  33.457  1.00  0.00    -0.744 OA
ENDBRANCH  74  75
ENDBRANCH  53  67
BRANCH  54  79
ATOM     79  C   UNL A   1      42.750  23.874  27.713  1.00  0.00     0.058 A 
ATOM     80  C   UNL A   1      42.807  23.627  26.334  1.00  0.00     0.135 A 
ATOM     81  C   UNL A   1      42.569  22.779  28.569  1.00  0.00     0.135 A 
ATOM     82  F   UNL A   1      42.974  24.646  25.476  1.00  0.00    -0.206 F 
ATOM     83  C   UNL A   1      42.680  22.342  25.819  1.00  0.00     0.059 A 
ATOM     84  C   UNL A   1      42.458  21.481  28.080  1.00  0.00     0.059 A 
ATOM     85  F   UNL A   1      42.524  22.964  29.898  1.00  0.00    -0.206 F 
ATOM     86  C   UNL A   1      42.506  21.273  26.701  1.00  0.00     0.060 A 
BRANCH  86  87
ATOM     87  S   UNL A   1      42.397  19.601  26.029  1.00  0.00     0.124 S 
ATOM     88  O   UNL A   1      43.296  19.687  24.884  1.00  0.00    -0.237 OA
ATOM     89  O   UNL A   1      42.863  18.786  27.147  1.00  0.00    -0.237 OA
ATOM     90  O   UNL A   1      40.978  19.462  25.711  1.00  0.00    -0.744 OA
ENDBRANCH  86  87
ENDBRANCH  54  79
BRANCH  66  91
ATOM     91  C   UNL A   1      48.205  27.590  29.953  1.00  0.00     0.058 A 
ATOM     92  C   UNL A   1      48.696  26.947  31.098  1.00  0.00     0.135 A 
ATOM     93  C   UNL A   1      49.105  27.871  28.913  1.00  0.00     0.135 A 
ATOM     94  F   UNL A   1      47.874  26.667  32.121  1.00  0.00    -0.206 F 
ATOM     95  C   UNL A   1      50.037  26.595  31.210  1.00  0.00     0.059 A 
ATOM     96  C   UNL A   1      50.446  27.512  28.997  1.00  0.00     0.059 A 
ATOM     97  F   UNL A   1      48.680  28.479  27.795  1.00  0.00    -0.206 F 
ATOM     98  C   UNL A   1      50.905  26.880  30.153  1.00  0.00     0.060 A 
BRANCH  98  99
ATOM     99  S   UNL A   1      52.632  26.371  30.286  1.00  0.00     0.124 S 
ATOM    100  O   UNL A   1      52.926  25.975  28.912  1.00  0.00    -0.237 OA
ATOM    101  O   UNL A   1      53.287  27.591  30.747  1.00  0.00    -0.237 OA
ATOM    102  O   UNL A   1      52.590  25.284  31.258  1.00  0.00    -0.744 OA
ENDBRANCH  98  99
ENDBRANCH  66  91
ENDBRANCH  40  41
ENDBRANCH  32  35
ENDBRANCH  30  31
ENDBRANCH   1  30
TORSDOF 16
ENDMDL
MODEL 3
REMARK VINA RESULT:     -10.2      4.750     10.819
REMARK SMILES Cn1cc(S(=O)(=O)N2CCC(C(=O)NCCCNC(=O)c3ccc(-c4c5nc(c(-c6c(F)cc(S(=O)(=O)[O-])cc6F)c6ccc([nH]6)c(-c6c(F)cc(S(=O)(=O)[O-])cc6F)c6nc(c(-c7c(F)cc(S(=O)(=O)[O-])cc7F)c7ccc4[nH]7)C=C6)C=C5)cc3)CC2)cc1C(=O)N1CCCCC1
REMARK SMILES IDX 16 1 15 2 14 3 12 4 13 5 11 7 8 8 9 9 88 10 10 11 87 12 5 13
REMARK SMILES IDX 6 14 7 15 4 16 1 17 2 18 3 19 90 20 89 21 91 22 92 23 93 24
REMARK SMILES IDX 94 25 98 26 95 27 97 28 96 29 17 30 18 31 19 32 20 34 21 35
REMARK SMILES IDX 22 36 86 37 23 38 85 39 24 40 25 41 26 42 79 43 27 44 84 45
REMARK SMILES IDX 78 46 80 47 28 48 83 49 77 50 76 51 29 53 63 54 42 55 62 56
REMARK SMILES IDX 43 57 46 58 61 59 81 60 44 61 45 62 60 64 82 65 47 66 30 67
REMARK SMILES IDX 31 68 40 69 32 70 33 71 39 72 41 73 34 74 35 75 36 76 37 77
REMARK SMILES IDX 38 78 64 79 65 80 74 81 66 82 67 83 73 84 75 85 68 86 69 87
REMARK SMILES IDX 70 88 71 89 72 90 48 91 49 92 58 93 50 94 51 95 57 96 59 97
REMARK SMILES IDX 52 98 53 99 54 100 55 101 56 102
REMARK H PARENT 14 6 18 33 80 52 46 63
REMARK Flexibility Score: inf
ROOT
ATOM      1  C   UNL A   1      35.812  32.272  27.997  1.00  0.00     0.042 C 
ENDROOT
BRANCH   1   2
ATOM      2  C   UNL A   1      34.702  31.232  27.940  1.00  0.00     0.117 C 
BRANCH   2   3
ATOM      3  N   UNL A   1      33.427  31.811  27.546  1.00  0.00    -0.356 N 
ATOM      4  C   UNL A   1      32.365  31.289  26.881  1.00  0.00     0.223 C 
ATOM      5  O   UNL A   1      31.400  32.030  26.671  1.00  0.00    -0.275 OA
ATOM      6  H   UNL A   1      33.313  32.753  27.811  1.00  0.00     0.163 HD
BRANCH   4   7
ATOM      7  C   UNL A   1      32.321  29.840  26.436  1.00  0.00     0.081 C 
ATOM      8  N   UNL A   1      30.959  27.399  25.775  1.00  0.00    -0.198 NA
ATOM      9  C   UNL A   1      31.753  27.460  27.028  1.00  0.00     0.103 C 
ATOM     10  C   UNL A   1      31.476  28.238  24.672  1.00  0.00     0.103 C 
ATOM     11  C   UNL A   1      31.822  28.894  27.529  1.00  0.00     0.030 C 
ATOM     12  C   UNL A   1      31.579  29.689  25.106  1.00  0.00     0.030 C 
BRANCH   8  13
ATOM     13  S   UNL A   1      30.433  25.840  25.317  1.00  0.00     0.244 S 
ATOM     14  O   UNL A   1      29.426  25.972  24.285  1.00  0.00    -0.207 OA
ATOM     15  O   UNL A   1      30.203  25.062  26.513  1.00  0.00    -0.207 OA
BRANCH  13  16
ATOM     16  C   UNL A   1      31.715  24.987  24.521  1.00  0.00     0.101 A 
ATOM     17  C   UNL A   1      33.281  23.692  21.543  1.00  0.00     0.150 C 
ATOM     18  N   UNL A   1      32.943  24.081  22.895  1.00  0.00    -0.345 N 
ATOM     19  C   UNL A   1      31.968  25.013  23.166  1.00  0.00     0.107 A 
ATOM     20  C   UNL A   1      33.379  23.496  24.070  1.00  0.00     0.108 A 
ATOM     21  C   UNL A   1      32.638  24.083  25.088  1.00  0.00     0.055 A 
BRANCH  20  22
ATOM     22  C   UNL A   1      34.247  22.343  24.255  1.00  0.00     0.270 C 
ATOM     23  O   UNL A   1      35.466  22.462  24.136  1.00  0.00    -0.267 OA
ATOM     24  N   UNL A   1      33.691  21.121  24.608  1.00  0.00    -0.337 N 
ATOM     25  C   UNL A   1      34.513  20.182  25.363  1.00  0.00     0.120 C 
ATOM     26  C   UNL A   1      32.389  20.636  24.156  1.00  0.00     0.120 C 
ATOM     27  C   UNL A   1      34.682  18.861  24.628  1.00  0.00     0.022 C 
ATOM     28  C   UNL A   1      32.526  19.299  23.421  1.00  0.00     0.022 C 
ATOM     29  C   UNL A   1      33.321  18.286  24.245  1.00  0.00     0.004 C 
ENDBRANCH  20  22
ENDBRANCH  13  16
ENDBRANCH   8  13
ENDBRANCH   4   7
ENDBRANCH   2   3
ENDBRANCH   1   2
BRANCH   1  30
ATOM     30  C   UNL A   1      36.357  32.507  29.399  1.00  0.00     0.118 C 
BRANCH  30  31
ATOM     31  N   UNL A   1      36.077  31.395  30.298  1.00  0.00    -0.352 N 
ATOM     32  C   UNL A   1      36.785  30.239  30.517  1.00  0.00     0.251 C 
ATOM     33  H   UNL A   1      35.255  31.487  30.831  1.00  0.00     0.163 HD
ATOM     34  O   UNL A   1      36.277  29.328  31.164  1.00  0.00    -0.269 OA
BRANCH  32  35
ATOM     35  C   UNL A   1      38.145  30.085  29.959  1.00  0.00     0.039 A 
ATOM     36  C   UNL A   1      39.245  30.161  30.818  1.00  0.00     0.014 A 
ATOM     37  C   UNL A   1      38.335  29.870  28.592  1.00  0.00     0.014 A 
ATOM     38  C   UNL A   1      40.530  29.938  30.317  1.00  0.00     0.010 A 
ATOM     39  C   UNL A   1      39.605  29.573  28.110  1.00  0.00     0.010 A 
ATOM     40  C   UNL A   1      40.714  29.600  28.967  1.00  0.00    -0.014 A 
BRANCH  40  41
ATOM     41  C   UNL A   1      42.052  29.261  28.421  1.00  0.00     0.031 A 
ATOM     42  C   UNL A   1      42.349  27.852  27.988  1.00  0.00     0.074 A 
ATOM     43  C   UNL A   1      43.025  30.193  28.410  1.00  0.00     0.049 A 
ATOM     44  N   UNL A   1      43.490  27.319  27.638  1.00  0.00    -0.248 NA
ATOM     45  C   UNL A   1      41.217  26.911  27.979  1.00  0.00     0.031 C 
ATOM     46  C   UNL A   1      42.873  31.583  28.846  1.00  0.00     0.029 A 
ATOM     47  N   UNL A   1      44.344  30.106  28.041  1.00  0.00    -0.354 N 
ATOM     48  C   UNL A   1      43.222  25.977  27.398  1.00  0.00     0.074 A 
ATOM     49  C   UNL A   1      41.817  25.770  27.674  1.00  0.00     0.031 C 
ATOM     50  C   UNL A   1      44.048  32.220  28.708  1.00  0.00     0.029 A 
ATOM     51  C   UNL A   1      45.045  31.276  28.214  1.00  0.00     0.049 A 
ATOM     52  H   UNL A   1      44.749  29.282  27.685  1.00  0.00     0.167 HD
ATOM     53  C   UNL A   1      44.068  25.009  26.971  1.00  0.00     0.037 A 
ATOM     54  C   UNL A   1      46.348  31.551  28.016  1.00  0.00     0.037 A 
ATOM     55  C   UNL A   1      45.454  25.230  26.655  1.00  0.00     0.049 A 
ATOM     56  C   UNL A   1      47.263  30.465  27.526  1.00  0.00     0.074 A 
ATOM     57  C   UNL A   1      46.375  24.331  26.146  1.00  0.00     0.029 A 
ATOM     58  N   UNL A   1      46.117  26.438  26.812  1.00  0.00    -0.354 N 
ATOM     59  N   UNL A   1      46.985  29.210  27.263  1.00  0.00    -0.248 NA
ATOM     60  C   UNL A   1      48.671  30.828  27.310  1.00  0.00     0.031 C 
ATOM     61  C   UNL A   1      47.603  24.989  26.018  1.00  0.00     0.029 A 
ATOM     62  C   UNL A   1      47.439  26.306  26.422  1.00  0.00     0.049 A 
ATOM     63  H   UNL A   1      45.708  27.267  27.150  1.00  0.00     0.167 HD
ATOM     64  C   UNL A   1      48.176  28.638  26.836  1.00  0.00     0.074 A 
ATOM     65  C   UNL A   1      49.178  29.684  26.867  1.00  0.00     0.031 C 
ATOM     66  C   UNL A   1      48.419  27.361  26.456  1.00  0.00     0.037 A 
BRANCH  53  67
ATOM     67  C   UNL A   1      43.510  23.623  26.816  1.00  0.00     0.058 A 
ATOM     68  C   UNL A   1      43.272  22.801  27.928  1.00  0.00     0.135 A 
ATOM     69  C   UNL A   1      43.193  23.119  25.546  1.00  0.00     0.135 A 
ATOM     70  F   UNL A   1      43.574  23.230  29.163  1.00  0.00    -0.206 F 
ATOM     71  C   UNL A   1      42.765  21.514  27.783  1.00  0.00     0.059 A 
ATOM     72  C   UNL A   1      42.664  21.843  25.378  1.00  0.00     0.059 A 
ATOM     73  F   UNL A   1      43.404  23.865  24.449  1.00  0.00    -0.206 F 
ATOM     74  C   UNL A   1      42.469  21.041  26.503  1.00  0.00     0.060 A 
BRANCH  74  75
ATOM     75  S   UNL A   1      41.818  19.366  26.327  1.00  0.00     0.124 S 
ATOM     76  O   UNL A   1      42.552  18.892  25.158  1.00  0.00    -0.237 OA
ATOM     77  O   UNL A   1      42.185  18.749  27.598  1.00  0.00    -0.237 OA
ATOM     78  O   UNL A   1      40.387  19.579  26.129  1.00  0.00    -0.744 OA
ENDBRANCH  74  75
ENDBRANCH  53  67
BRANCH  54  79
ATOM     79  C   UNL A   1      46.860  32.922  28.272  1.00  0.00     0.058 A 
ATOM     80  C   UNL A   1      47.427  33.254  29.511  1.00  0.00     0.135 A 
ATOM     81  C   UNL A   1      46.815  33.915  27.283  1.00  0.00     0.135 A 
ATOM     82  F   UNL A   1      47.485  32.336  30.489  1.00  0.00    -0.206 F 
ATOM     83  C   UNL A   1      47.924  34.527  29.766  1.00  0.00     0.059 A 
ATOM     84  C   UNL A   1      47.323  35.190  27.507  1.00  0.00     0.059 A 
ATOM     85  F   UNL A   1      46.296  33.639  26.076  1.00  0.00    -0.206 F 
ATOM     86  C   UNL A   1      47.868  35.490  28.756  1.00  0.00     0.060 A 
BRANCH  86  87
ATOM     87  S   UNL A   1      48.566  37.124  29.076  1.00  0.00     0.124 S 
ATOM     88  O   UNL A   1      47.907  37.484  30.326  1.00  0.00    -0.237 OA
ATOM     89  O   UNL A   1      49.995  36.840  29.166  1.00  0.00    -0.237 OA
ATOM     90  O   UNL A   1      48.162  37.895  27.903  1.00  0.00    -0.744 OA
ENDBRANCH  86  87
ENDBRANCH  54  79
BRANCH  66  91
ATOM     91  C   UNL A   1      49.816  27.024  26.023  1.00  0.00     0.058 A 
ATOM     92  C   UNL A   1      50.775  26.571  26.940  1.00  0.00     0.135 A 
ATOM     93  C   UNL A   1      50.178  27.095  24.668  1.00  0.00     0.135 A 
ATOM     94  F   UNL A   1      50.477  26.495  28.247  1.00  0.00    -0.206 F 
ATOM     95  C   UNL A   1      52.051  26.202  26.529  1.00  0.00     0.059 A 
ATOM     96  C   UNL A   1      51.443  26.714  24.233  1.00  0.00     0.059 A 
ATOM     97  F   UNL A   1      49.292  27.517  23.753  1.00  0.00    -0.206 F 
ATOM     98  C   UNL A   1      52.376  26.275  25.173  1.00  0.00     0.060 A 
BRANCH  98  99
ATOM     99  S   UNL A   1      54.017  25.743  24.642  1.00  0.00     0.124 S 
ATOM    100  O   UNL A   1      53.866  24.291  24.631  1.00  0.00    -0.237 OA
ATOM    101  O   UNL A   1      54.148  26.376  23.334  1.00  0.00    -0.237 OA
ATOM    102  O   UNL A   1      54.896  26.276  25.678  1.00  0.00    -0.744 OA
ENDBRANCH  98  99
ENDBRANCH  66  91
ENDBRANCH  40  41
ENDBRANCH  32  35
ENDBRANCH  30  31
ENDBRANCH   1  30
TORSDOF 16
ENDMDL
