MODEL 1
REMARK VINA RESULT:     -14.5      0.000      0.000
REMARK SMILES O=C(NC1(C(=O)NCCCNC(=O)c2ccc(-c3c4nc(c(-c5c(F)cc(S(=O)(=O)[O-])cc5F)c5ccc([nH]5)c(-c5c(F)cc(S(=O)(=O)[O-])cc5F)c5nc(c(-c6c(F)cc(S(=O)(=O)[O-])cc6F)c6ccc3[nH]6)C=C5)C=C4)cc2)Cc2ccccc2C1)OCC1c2ccccc2-c2ccccc21
REMARK SMILES IDX 8 1 7 2 5 3 6 4 4 6 80 7 87 8 81 9 86 10 82 11 85 12 83 13
REMARK SMILES IDX 84 14 3 15 1 16 2 17 88 19 89 20 90 21 91 22 102 23 92 24
REMARK SMILES IDX 96 25 97 26 101 27 93 28 95 29 98 30 100 31 94 32 99 33 9 34
REMARK SMILES IDX 10 35 11 36 12 37 13 39 14 40 15 41 79 42 16 43 78 44 17 45
REMARK SMILES IDX 18 46 19 47 72 48 20 49 77 50 71 51 73 52 21 53 76 54 70 55
REMARK SMILES IDX 69 56 22 58 56 59 35 60 55 61 36 62 39 63 54 64 74 65 37 66
REMARK SMILES IDX 38 67 53 69 75 70 40 71 23 72 24 73 33 74 25 75 26 76 32 77
REMARK SMILES IDX 34 78 27 79 28 80 29 81 30 82 31 83 57 84 58 85 67 86 59 87
REMARK SMILES IDX 60 88 66 89 68 90 61 91 62 92 63 93 64 94 65 95 41 96 42 97
REMARK SMILES IDX 51 98 43 99 44 100 50 101 52 102 45 103 46 104 47 105 48 106
REMARK SMILES IDX 49 107
REMARK H PARENT 7 5 3 18 11 38 73 57 39 68
REMARK Flexibility Score: inf
ROOT
ATOM      1  C   UNL A   1      34.013  28.438  27.177  1.00  0.00     0.117 C 
ENDROOT
BRANCH   1   2
ATOM      2  N   UNL A   1      32.633  27.491  27.341  1.00  0.00    -0.354 N 
ATOM      3  C   UNL A   1      31.129  26.727  26.355  1.00  0.00     0.246 C 
ATOM      4  O   UNL A   1      29.956  26.431  26.832  1.00  0.00    -0.272 OA
ATOM      5  H   UNL A   1      32.554  27.221  28.284  1.00  0.00     0.163 HD
BRANCH   3   6
ATOM      6  C   UNL A   1      30.850  26.257  24.586  1.00  0.00     0.130 C 
ATOM      7  C   UNL A   1      31.356  26.553  23.137  1.00  0.00     0.075 C 
ATOM      8  C   UNL A   1      29.277  26.363  24.300  1.00  0.00     0.075 C 
ATOM      9  C   UNL A   1      30.454  27.638  22.673  1.00  0.00    -0.042 A 
ATOM     10  C   UNL A   1      29.236  27.551  23.345  1.00  0.00    -0.042 A 
ATOM     11  C   UNL A   1      30.814  28.717  21.886  1.00  0.00     0.004 A 
ATOM     12  C   UNL A   1      28.342  28.606  23.257  1.00  0.00     0.004 A 
ATOM     13  C   UNL A   1      29.967  29.817  21.881  1.00  0.00     0.000 A 
ATOM     14  C   UNL A   1      28.743  29.763  22.565  1.00  0.00     0.000 A 
BRANCH   6  15
ATOM     15  N   UNL A   1      31.283  24.777  24.781  1.00  0.00    -0.306 N 
ATOM     16  O   UNL A   1      32.176  23.221  26.197  1.00  0.00    -0.225 OA
ATOM     17  C   UNL A   1      32.276  24.300  25.625  1.00  0.00     0.408 C 
ATOM     18  H   UNL A   1      30.799  24.104  24.249  1.00  0.00     0.168 HD
BRANCH  17  19
ATOM     19  O   UNL A   1      33.393  25.073  25.746  1.00  0.00    -0.449 OA
BRANCH  19  20
ATOM     20  C   UNL A   1      34.232  25.265  24.531  1.00  0.00     0.248 C 
BRANCH  20  21
ATOM     21  C   UNL A   1      35.009  23.951  24.276  1.00  0.00     0.088 C 
ATOM     22  C   UNL A   1      36.269  23.274  24.894  1.00  0.00    -0.029 A 
ATOM     23  C   UNL A   1      34.313  22.842  23.520  1.00  0.00    -0.029 A 
ATOM     24  C   UNL A   1      37.435  23.864  25.352  1.00  0.00     0.005 A 
ATOM     25  C   UNL A   1      36.078  21.844  25.063  1.00  0.00    -0.014 A 
ATOM     26  C   UNL A   1      34.719  21.459  24.625  1.00  0.00    -0.014 A 
ATOM     27  C   UNL A   1      33.001  22.728  22.299  1.00  0.00     0.005 A 
ATOM     28  C   UNL A   1      38.475  23.027  25.788  1.00  0.00     0.000 A 
ATOM     29  C   UNL A   1      37.143  21.030  25.418  1.00  0.00     0.009 A 
ATOM     30  C   UNL A   1      33.664  19.957  24.605  1.00  0.00     0.009 A 
ATOM     31  C   UNL A   1      32.015  21.184  22.167  1.00  0.00     0.000 A 
ATOM     32  C   UNL A   1      38.355  21.627  25.756  1.00  0.00     0.001 A 
ATOM     33  C   UNL A   1      32.306  19.832  23.366  1.00  0.00     0.001 A 
ENDBRANCH  20  21
ENDBRANCH  19  20
ENDBRANCH  17  19
ENDBRANCH   6  15
ENDBRANCH   3   6
ENDBRANCH   1   2
BRANCH   1  34
ATOM     34  C   UNL A   1      33.865  29.923  27.562  1.00  0.00     0.042 C 
BRANCH  34  35
ATOM     35  C   UNL A   1      35.210  30.544  27.818  1.00  0.00     0.118 C 
BRANCH  35  36
ATOM     36  N   UNL A   1      35.301  30.968  29.214  1.00  0.00    -0.352 N 
ATOM     37  C   UNL A   1      36.238  30.625  30.169  1.00  0.00     0.251 C 
ATOM     38  H   UNL A   1      34.596  31.586  29.515  1.00  0.00     0.163 HD
ATOM     39  O   UNL A   1      35.933  30.669  31.357  1.00  0.00    -0.269 OA
BRANCH  37  40
ATOM     40  C   UNL A   1      37.588  30.179  29.755  1.00  0.00     0.039 A 
ATOM     41  C   UNL A   1      37.988  30.220  28.416  1.00  0.00     0.014 A 
ATOM     42  C   UNL A   1      38.466  29.691  30.715  1.00  0.00     0.014 A 
ATOM     43  C   UNL A   1      39.284  29.820  28.069  1.00  0.00     0.010 A 
ATOM     44  C   UNL A   1      39.796  29.495  30.405  1.00  0.00     0.010 A 
ATOM     45  C   UNL A   1      40.210  29.490  29.070  1.00  0.00    -0.014 A 
BRANCH  45  46
ATOM     46  C   UNL A   1      41.597  29.037  28.795  1.00  0.00     0.031 A 
ATOM     47  C   UNL A   1      42.704  30.066  28.755  1.00  0.00     0.074 A 
ATOM     48  C   UNL A   1      41.839  27.758  28.454  1.00  0.00     0.049 A 
ATOM     49  N   UNL A   1      43.931  29.948  28.322  1.00  0.00    -0.248 NA
ATOM     50  C   UNL A   1      42.359  31.431  29.198  1.00  0.00     0.031 C 
ATOM     51  C   UNL A   1      40.838  26.691  28.398  1.00  0.00     0.029 A 
ATOM     52  N   UNL A   1      43.001  27.146  28.061  1.00  0.00    -0.354 N 
ATOM     53  C   UNL A   1      44.480  31.223  28.402  1.00  0.00     0.074 A 
ATOM     54  C   UNL A   1      43.429  32.115  28.826  1.00  0.00     0.031 C 
ATOM     55  C   UNL A   1      41.433  25.551  28.011  1.00  0.00     0.029 A 
ATOM     56  C   UNL A   1      42.841  25.819  27.735  1.00  0.00     0.049 A 
ATOM     57  H   UNL A   1      43.868  27.610  28.017  1.00  0.00     0.167 HD
ATOM     58  C   UNL A   1      45.757  31.613  28.180  1.00  0.00     0.037 A 
ATOM     59  C   UNL A   1      43.722  24.929  27.242  1.00  0.00     0.037 A 
ATOM     60  C   UNL A   1      46.800  30.701  27.797  1.00  0.00     0.049 A 
ATOM     61  C   UNL A   1      45.141  25.369  27.004  1.00  0.00     0.074 A 
ATOM     62  C   UNL A   1      48.144  30.958  27.613  1.00  0.00     0.029 A 
ATOM     63  N   UNL A   1      46.607  29.351  27.534  1.00  0.00    -0.354 N 
ATOM     64  N   UNL A   1      45.666  26.564  27.151  1.00  0.00    -0.248 NA
ATOM     65  C   UNL A   1      46.090  24.349  26.541  1.00  0.00     0.031 C 
ATOM     66  C   UNL A   1      48.753  29.780  27.173  1.00  0.00     0.029 A 
ATOM     67  C   UNL A   1      47.804  28.768  27.160  1.00  0.00     0.049 A 
ATOM     68  H   UNL A   1      45.746  28.878  27.604  1.00  0.00     0.167 HD
ATOM     69  C   UNL A   1      47.012  26.433  26.830  1.00  0.00     0.074 A 
ATOM     70  C   UNL A   1      47.220  25.042  26.481  1.00  0.00     0.031 C 
ATOM     71  C   UNL A   1      47.989  27.374  26.832  1.00  0.00     0.037 A 
BRANCH  58  72
ATOM     72  C   UNL A   1      46.082  33.075  28.349  1.00  0.00     0.058 A 
ATOM     73  C   UNL A   1      46.030  33.980  27.273  1.00  0.00     0.135 A 
ATOM     74  C   UNL A   1      46.466  33.580  29.601  1.00  0.00     0.135 A 
ATOM     75  F   UNL A   1      45.681  33.556  26.047  1.00  0.00    -0.206 F 
ATOM     76  C   UNL A   1      46.406  35.310  27.418  1.00  0.00     0.059 A 
ATOM     77  C   UNL A   1      46.804  34.919  29.780  1.00  0.00     0.059 A 
ATOM     78  F   UNL A   1      46.532  32.768  30.667  1.00  0.00    -0.206 F 
ATOM     79  C   UNL A   1      46.797  35.770  28.676  1.00  0.00     0.060 A 
BRANCH  79  80
ATOM     80  S   UNL A   1      47.311  37.491  28.839  1.00  0.00     0.124 S 
ATOM     81  O   UNL A   1      48.299  37.398  29.910  1.00  0.00    -0.237 OA
ATOM     82  O   UNL A   1      47.840  37.785  27.511  1.00  0.00    -0.237 OA
ATOM     83  O   UNL A   1      46.075  38.185  29.187  1.00  0.00    -0.744 OA
ENDBRANCH  79  80
ENDBRANCH  58  72
BRANCH  59  84
ATOM     84  C   UNL A   1      43.275  23.539  26.958  1.00  0.00     0.058 A 
ATOM     85  C   UNL A   1      43.074  23.095  25.643  1.00  0.00     0.135 A 
ATOM     86  C   UNL A   1      43.106  22.606  27.994  1.00  0.00     0.135 A 
ATOM     87  F   UNL A   1      43.220  23.947  24.616  1.00  0.00    -0.206 F 
ATOM     88  C   UNL A   1      42.718  21.779  25.364  1.00  0.00     0.059 A 
ATOM     89  C   UNL A   1      42.780  21.279  27.739  1.00  0.00     0.059 A 
ATOM     90  F   UNL A   1      43.307  22.975  29.269  1.00  0.00    -0.206 F 
ATOM     91  C   UNL A   1      42.585  20.875  26.420  1.00  0.00     0.060 A 
BRANCH  91  92
ATOM     92  S   UNL A   1      42.206  19.151  26.038  1.00  0.00     0.124 S 
ATOM     93  O   UNL A   1      42.631  18.478  27.260  1.00  0.00    -0.237 OA
ATOM     94  O   UNL A   1      40.766  19.203  25.805  1.00  0.00    -0.237 OA
ATOM     95  O   UNL A   1      43.016  18.882  24.853  1.00  0.00    -0.744 OA
ENDBRANCH  91  92
ENDBRANCH  59  84
BRANCH  71  96
ATOM     96  C   UNL A   1      49.387  26.939  26.496  1.00  0.00     0.058 A 
ATOM     97  C   UNL A   1      50.228  26.343  27.448  1.00  0.00     0.135 A 
ATOM     98  C   UNL A   1      49.841  27.011  25.169  1.00  0.00     0.135 A 
ATOM     99  F   UNL A   1      49.844  26.258  28.731  1.00  0.00    -0.206 F 
ATOM    100  C   UNL A   1      51.470  25.829  27.092  1.00  0.00     0.059 A 
ATOM    101  C   UNL A   1      51.064  26.475  24.786  1.00  0.00     0.059 A 
ATOM    102  F   UNL A   1      49.069  27.565  24.220  1.00  0.00    -0.206 F 
ATOM    103  C   UNL A   1      51.872  25.886  25.756  1.00  0.00     0.060 A 
BRANCH 103 104
ATOM    104  S   UNL A   1      53.448  25.135  25.296  1.00  0.00     0.124 S 
ATOM    105  O   UNL A   1      54.338  25.666  26.323  1.00  0.00    -0.237 OA
ATOM    106  O   UNL A   1      53.149  23.710  25.390  1.00  0.00    -0.237 OA
ATOM    107  O   UNL A   1      53.682  25.633  23.944  1.00  0.00    -0.744 OA
ENDBRANCH 103 104
ENDBRANCH  71  96
ENDBRANCH  45  46
ENDBRANCH  37  40
ENDBRANCH  35  36
ENDBRANCH  34  35
ENDBRANCH   1  34
TORSDOF 17
ENDMDL
MODEL 2
REMARK VINA RESULT:     -14.2      1.314      2.459
REMARK SMILES O=C(NC1(C(=O)NCCCNC(=O)c2ccc(-c3c4nc(c(-c5c(F)cc(S(=O)(=O)[O-])cc5F)c5ccc([nH]5)c(-c5c(F)cc(S(=O)(=O)[O-])cc5F)c5nc(c(-c6c(F)cc(S(=O)(=O)[O-])cc6F)c6ccc3[nH]6)C=C5)C=C4)cc2)Cc2ccccc2C1)OCC1c2ccccc2-c2ccccc21
REMARK SMILES IDX 8 1 7 2 5 3 6 4 4 6 80 7 87 8 81 9 86 10 82 11 85 12 83 13
REMARK SMILES IDX 84 14 3 15 1 16 2 17 88 19 89 20 90 21 91 22 102 23 92 24
REMARK SMILES IDX 96 25 97 26 101 27 93 28 95 29 98 30 100 31 94 32 99 33 9 34
REMARK SMILES IDX 10 35 11 36 12 37 13 39 14 40 15 41 79 42 16 43 78 44 17 45
REMARK SMILES IDX 18 46 19 47 72 48 20 49 77 50 71 51 73 52 21 53 76 54 70 55
REMARK SMILES IDX 69 56 22 58 56 59 35 60 55 61 36 62 39 63 54 64 74 65 37 66
REMARK SMILES IDX 38 67 53 69 75 70 40 71 23 72 24 73 33 74 25 75 26 76 32 77
REMARK SMILES IDX 34 78 27 79 28 80 29 81 30 82 31 83 57 84 58 85 67 86 59 87
REMARK SMILES IDX 60 88 66 89 68 90 61 91 62 92 63 93 64 94 65 95 41 96 42 97
REMARK SMILES IDX 51 98 43 99 44 100 50 101 52 102 45 103 46 104 47 105 48 106
REMARK SMILES IDX 49 107
REMARK H PARENT 7 5 3 18 11 38 73 57 39 68
REMARK Flexibility Score: inf
ROOT
ATOM      1  C   UNL A   1      32.826  29.587  26.684  1.00  0.00     0.117 C 
ENDROOT
BRANCH   1   2
ATOM      2  N   UNL A   1      33.214  29.805  25.062  1.00  0.00    -0.354 N 
ATOM      3  C   UNL A   1      32.629  29.401  23.241  1.00  0.00     0.246 C 
ATOM      4  O   UNL A   1      33.383  29.292  22.188  1.00  0.00    -0.272 OA
ATOM      5  H   UNL A   1      34.044  30.332  25.011  1.00  0.00     0.163 HD
BRANCH   3   6
ATOM      6  C   UNL A   1      30.991  29.021  22.466  1.00  0.00     0.130 C 
ATOM      7  C   UNL A   1      30.067  29.428  21.272  1.00  0.00     0.075 C 
ATOM      8  C   UNL A   1      29.887  29.055  23.626  1.00  0.00     0.075 C 
ATOM      9  C   UNL A   1      29.202  30.485  21.854  1.00  0.00    -0.042 A 
ATOM     10  C   UNL A   1      29.089  30.292  23.229  1.00  0.00    -0.042 A 
ATOM     11  C   UNL A   1      28.763  31.627  21.207  1.00  0.00     0.004 A 
ATOM     12  C   UNL A   1      28.541  31.298  24.008  1.00  0.00     0.004 A 
ATOM     13  C   UNL A   1      28.311  32.676  21.996  1.00  0.00     0.000 A 
ATOM     14  C   UNL A   1      28.206  32.515  23.386  1.00  0.00     0.000 A 
BRANCH   6  15
ATOM     15  N   UNL A   1      31.367  27.558  22.096  1.00  0.00    -0.306 N 
ATOM     16  O   UNL A   1      31.328  25.361  22.725  1.00  0.00    -0.225 OA
ATOM     17  C   UNL A   1      31.645  26.519  22.972  1.00  0.00     0.408 C 
ATOM     18  H   UNL A   1      31.411  27.346  21.136  1.00  0.00     0.168 HD
BRANCH  17  19
ATOM     19  O   UNL A   1      32.334  26.845  24.103  1.00  0.00    -0.449 OA
BRANCH  19  20
ATOM     20  C   UNL A   1      33.606  26.116  24.368  1.00  0.00     0.248 C 
BRANCH  20  21
ATOM     21  C   UNL A   1      33.292  24.949  25.336  1.00  0.00     0.088 C 
ATOM     22  C   UNL A   1      31.993  24.287  25.885  1.00  0.00    -0.029 A 
ATOM     23  C   UNL A   1      34.384  23.944  25.623  1.00  0.00    -0.029 A 
ATOM     24  C   UNL A   1      30.793  24.885  26.231  1.00  0.00     0.005 A 
ATOM     25  C   UNL A   1      32.107  22.839  25.920  1.00  0.00    -0.014 A 
ATOM     26  C   UNL A   1      33.421  22.421  25.389  1.00  0.00    -0.014 A 
ATOM     27  C   UNL A   1      36.179  23.941  25.625  1.00  0.00     0.005 A 
ATOM     28  C   UNL A   1      29.788  24.079  26.791  1.00  0.00     0.000 A 
ATOM     29  C   UNL A   1      31.137  22.074  26.551  1.00  0.00     0.009 A 
ATOM     30  C   UNL A   1      34.299  20.859  24.990  1.00  0.00     0.009 A 
ATOM     31  C   UNL A   1      37.086  22.365  25.360  1.00  0.00     0.000 A 
ATOM     32  C   UNL A   1      29.984  22.705  27.012  1.00  0.00     0.001 A 
ATOM     33  C   UNL A   1      36.142  20.845  24.976  1.00  0.00     0.001 A 
ENDBRANCH  20  21
ENDBRANCH  19  20
ENDBRANCH  17  19
ENDBRANCH   6  15
ENDBRANCH   3   6
ENDBRANCH   1   2
BRANCH   1  34
ATOM     34  C   UNL A   1      33.765  28.664  27.485  1.00  0.00     0.042 C 
BRANCH  34  35
ATOM     35  C   UNL A   1      35.145  29.257  27.576  1.00  0.00     0.118 C 
BRANCH  35  36
ATOM     36  N   UNL A   1      35.246  30.093  28.771  1.00  0.00    -0.352 N 
ATOM     37  C   UNL A   1      36.256  30.149  29.711  1.00  0.00     0.251 C 
ATOM     38  H   UNL A   1      34.488  30.701  28.928  1.00  0.00     0.163 HD
ATOM     39  O   UNL A   1      35.999  30.522  30.852  1.00  0.00    -0.269 OA
BRANCH  37  40
ATOM     40  C   UNL A   1      37.629  29.732  29.347  1.00  0.00     0.039 A 
ATOM     41  C   UNL A   1      38.111  29.877  28.043  1.00  0.00     0.014 A 
ATOM     42  C   UNL A   1      38.447  29.166  30.318  1.00  0.00     0.014 A 
ATOM     43  C   UNL A   1      39.427  29.501  27.746  1.00  0.00     0.010 A 
ATOM     44  C   UNL A   1      39.794  28.990  30.076  1.00  0.00     0.010 A 
ATOM     45  C   UNL A   1      40.290  29.089  28.774  1.00  0.00    -0.014 A 
BRANCH  45  46
ATOM     46  C   UNL A   1      41.692  28.654  28.549  1.00  0.00     0.031 A 
ATOM     47  C   UNL A   1      42.784  29.698  28.536  1.00  0.00     0.074 A 
ATOM     48  C   UNL A   1      41.963  27.375  28.230  1.00  0.00     0.049 A 
ATOM     49  N   UNL A   1      44.027  29.594  28.145  1.00  0.00    -0.248 NA
ATOM     50  C   UNL A   1      42.406  31.062  28.953  1.00  0.00     0.031 C 
ATOM     51  C   UNL A   1      40.980  26.293  28.151  1.00  0.00     0.029 A 
ATOM     52  N   UNL A   1      43.146  26.776  27.882  1.00  0.00    -0.354 N 
ATOM     53  C   UNL A   1      44.554  30.878  28.230  1.00  0.00     0.074 A 
ATOM     54  C   UNL A   1      43.477  31.758  28.610  1.00  0.00     0.031 C 
ATOM     55  C   UNL A   1      41.604  25.158  27.797  1.00  0.00     0.029 A 
ATOM     56  C   UNL A   1      43.016  25.444  27.564  1.00  0.00     0.049 A 
ATOM     57  H   UNL A   1      44.007  27.253  27.863  1.00  0.00     0.167 HD
ATOM     58  C   UNL A   1      45.833  31.284  28.047  1.00  0.00     0.037 A 
ATOM     59  C   UNL A   1      43.927  24.562  27.110  1.00  0.00     0.037 A 
ATOM     60  C   UNL A   1      46.900  30.384  27.708  1.00  0.00     0.049 A 
ATOM     61  C   UNL A   1      45.346  25.021  26.916  1.00  0.00     0.074 A 
ATOM     62  C   UNL A   1      48.247  30.659  27.567  1.00  0.00     0.029 A 
ATOM     63  N   UNL A   1      46.736  29.029  27.453  1.00  0.00    -0.354 N 
ATOM     64  N   UNL A   1      45.849  26.225  27.068  1.00  0.00    -0.248 NA
ATOM     65  C   UNL A   1      46.324  24.010  26.495  1.00  0.00     0.031 C 
ATOM     66  C   UNL A   1      48.886  29.486  27.160  1.00  0.00     0.029 A 
ATOM     67  C   UNL A   1      47.953  28.460  27.125  1.00  0.00     0.049 A 
ATOM     68  H   UNL A   1      45.880  28.544  27.499  1.00  0.00     0.167 HD
ATOM     69  C   UNL A   1      47.206  26.110  26.793  1.00  0.00     0.074 A 
ATOM     70  C   UNL A   1      47.446  24.719  26.466  1.00  0.00     0.031 C 
ATOM     71  C   UNL A   1      48.169  27.066  26.818  1.00  0.00     0.037 A 
BRANCH  58  72
ATOM     72  C   UNL A   1      46.131  32.753  28.211  1.00  0.00     0.058 A 
ATOM     73  C   UNL A   1      46.049  33.655  27.136  1.00  0.00     0.135 A 
ATOM     74  C   UNL A   1      46.519  33.266  29.459  1.00  0.00     0.135 A 
ATOM     75  F   UNL A   1      45.695  33.224  25.914  1.00  0.00    -0.206 F 
ATOM     76  C   UNL A   1      46.401  34.993  27.276  1.00  0.00     0.059 A 
ATOM     77  C   UNL A   1      46.832  34.612  29.633  1.00  0.00     0.059 A 
ATOM     78  F   UNL A   1      46.612  32.457  30.525  1.00  0.00    -0.206 F 
ATOM     79  C   UNL A   1      46.796  35.461  28.529  1.00  0.00     0.060 A 
BRANCH  79  80
ATOM     80  S   UNL A   1      47.278  37.192  28.686  1.00  0.00     0.124 S 
ATOM     81  O   UNL A   1      46.206  37.716  29.528  1.00  0.00    -0.237 OA
ATOM     82  O   UNL A   1      48.589  37.094  29.319  1.00  0.00    -0.237 OA
ATOM     83  O   UNL A   1      47.284  37.672  27.308  1.00  0.00    -0.744 OA
ENDBRANCH  79  80
ENDBRANCH  58  72
BRANCH  59  84
ATOM     84  C   UNL A   1      43.509  23.163  26.826  1.00  0.00     0.058 A 
ATOM     85  C   UNL A   1      43.500  22.659  25.517  1.00  0.00     0.135 A 
ATOM     86  C   UNL A   1      43.176  22.281  27.866  1.00  0.00     0.135 A 
ATOM     87  F   UNL A   1      43.807  23.463  24.487  1.00  0.00    -0.206 F 
ATOM     88  C   UNL A   1      43.173  21.334  25.248  1.00  0.00     0.059 A 
ATOM     89  C   UNL A   1      42.875  20.945  27.626  1.00  0.00     0.059 A 
ATOM     90  F   UNL A   1      43.190  22.707  29.139  1.00  0.00    -0.206 F 
ATOM     91  C   UNL A   1      42.874  20.481  26.312  1.00  0.00     0.060 A 
BRANCH  91  92
ATOM     92  S   UNL A   1      42.533  18.744  25.957  1.00  0.00     0.124 S 
ATOM     93  O   UNL A   1      42.934  18.103  27.204  1.00  0.00    -0.237 OA
ATOM     94  O   UNL A   1      41.101  18.767  25.681  1.00  0.00    -0.237 OA
ATOM     95  O   UNL A   1      43.382  18.464  24.801  1.00  0.00    -0.744 OA
ENDBRANCH  91  92
ENDBRANCH  59  84
BRANCH  71  96
ATOM     96  C   UNL A   1      49.584  26.648  26.534  1.00  0.00     0.058 A 
ATOM     97  C   UNL A   1      50.387  26.035  27.507  1.00  0.00     0.135 A 
ATOM     98  C   UNL A   1      50.095  26.754  25.229  1.00  0.00     0.135 A 
ATOM     99  F   UNL A   1      49.948  25.917  28.769  1.00  0.00    -0.206 F 
ATOM    100  C   UNL A   1      51.647  25.538  27.194  1.00  0.00     0.059 A 
ATOM    101  C   UNL A   1      51.337  26.236  24.888  1.00  0.00     0.059 A 
ATOM    102  F   UNL A   1      49.360  27.326  24.261  1.00  0.00    -0.206 F 
ATOM    103  C   UNL A   1      52.107  25.630  25.878  1.00  0.00     0.060 A 
BRANCH 103 104
ATOM    104  S   UNL A   1      53.706  24.899  25.471  1.00  0.00     0.124 S 
ATOM    105  O   UNL A   1      54.484  25.209  26.666  1.00  0.00    -0.237 OA
ATOM    106  O   UNL A   1      53.365  23.494  25.280  1.00  0.00    -0.237 OA
ATOM    107  O   UNL A   1      54.107  25.611  24.261  1.00  0.00    -0.744 OA
ENDBRANCH 103 104
ENDBRANCH  71  96
ENDBRANCH  45  46
ENDBRANCH  37  40
ENDBRANCH  35  36
ENDBRANCH  34  35
ENDBRANCH   1  34
TORSDOF 17
ENDMDL
MODEL 3
REMARK VINA RESULT:     -13.9      6.676     13.951
REMARK SMILES O=C(NC1(C(=O)NCCCNC(=O)c2ccc(-c3c4nc(c(-c5c(F)cc(S(=O)(=O)[O-])cc5F)c5ccc([nH]5)c(-c5c(F)cc(S(=O)(=O)[O-])cc5F)c5nc(c(-c6c(F)cc(S(=O)(=O)[O-])cc6F)c6ccc3[nH]6)C=C5)C=C4)cc2)Cc2ccccc2C1)OCC1c2ccccc2-c2ccccc21
REMARK SMILES IDX 8 1 7 2 5 3 6 4 4 6 80 7 87 8 81 9 86 10 82 11 85 12 83 13
REMARK SMILES IDX 84 14 3 15 1 16 2 17 88 19 89 20 90 21 91 22 102 23 92 24
REMARK SMILES IDX 96 25 97 26 101 27 93 28 95 29 98 30 100 31 94 32 99 33 9 34
REMARK SMILES IDX 10 35 11 36 12 37 13 39 14 40 15 41 79 42 16 43 78 44 17 45
REMARK SMILES IDX 18 46 19 47 72 48 20 49 77 50 71 51 73 52 21 53 76 54 70 55
REMARK SMILES IDX 69 56 22 58 56 59 35 60 55 61 36 62 39 63 54 64 74 65 37 66
REMARK SMILES IDX 38 67 53 69 75 70 40 71 23 72 24 73 33 74 25 75 26 76 32 77
REMARK SMILES IDX 34 78 27 79 28 80 29 81 30 82 31 83 57 84 58 85 67 86 59 87
REMARK SMILES IDX 60 88 66 89 68 90 61 91 62 92 63 93 64 94 65 95 41 96 42 97
REMARK SMILES IDX 51 98 43 99 44 100 50 101 52 102 45 103 46 104 47 105 48 106
REMARK SMILES IDX 49 107
REMARK H PARENT 7 5 3 18 11 38 73 57 39 68
REMARK Flexibility Score: inf
ROOT
ATOM      1  C   UNL A   1      44.508  22.749  27.338  1.00  0.00     0.117 C 
ENDROOT
BRANCH   1   2
ATOM      2  N   UNL A   1      45.589  22.779  26.051  1.00  0.00    -0.354 N 
ATOM      3  C   UNL A   1      46.635  23.971  24.908  1.00  0.00     0.246 C 
ATOM      4  O   UNL A   1      47.013  23.742  23.686  1.00  0.00    -0.272 OA
ATOM      5  H   UNL A   1      45.757  21.852  25.767  1.00  0.00     0.163 HD
BRANCH   3   6
ATOM      6  C   UNL A   1      47.332  25.673  25.115  1.00  0.00     0.130 C 
ATOM      7  C   UNL A   1      48.285  26.708  24.432  1.00  0.00     0.075 C 
ATOM      8  C   UNL A   1      47.916  25.780  26.603  1.00  0.00     0.075 C 
ATOM      9  C   UNL A   1      49.603  26.423  25.054  1.00  0.00    -0.042 A 
ATOM     10  C   UNL A   1      49.411  25.874  26.320  1.00  0.00    -0.042 A 
ATOM     11  C   UNL A   1      50.831  26.459  24.418  1.00  0.00     0.004 A 
ATOM     12  C   UNL A   1      50.489  25.300  26.975  1.00  0.00     0.004 A 
ATOM     13  C   UNL A   1      51.887  25.794  25.025  1.00  0.00     0.000 A 
ATOM     14  C   UNL A   1      51.716  25.215  26.292  1.00  0.00     0.000 A 
BRANCH   6  15
ATOM     15  N   UNL A   1      45.954  26.385  25.004  1.00  0.00    -0.306 N 
ATOM     16  O   UNL A   1      44.753  28.289  25.400  1.00  0.00    -0.225 OA
ATOM     17  C   UNL A   1      45.461  27.385  25.829  1.00  0.00     0.408 C 
ATOM     18  H   UNL A   1      45.369  26.096  24.268  1.00  0.00     0.168 HD
BRANCH  17  19
ATOM     19  O   UNL A   1      45.764  27.285  27.155  1.00  0.00    -0.449 OA
BRANCH  19  20
ATOM     20  C   UNL A   1      45.412  28.437  28.031  1.00  0.00     0.248 C 
BRANCH  20  21
ATOM     21  C   UNL A   1      45.302  27.914  29.484  1.00  0.00     0.088 C 
ATOM     22  C   UNL A   1      45.063  26.522  30.143  1.00  0.00    -0.029 A 
ATOM     23  C   UNL A   1      45.850  28.775  30.599  1.00  0.00    -0.029 A 
ATOM     24  C   UNL A   1      44.246  25.488  29.718  1.00  0.00     0.005 A 
ATOM     25  C   UNL A   1      45.921  26.326  31.299  1.00  0.00    -0.014 A 
ATOM     26  C   UNL A   1      46.795  27.504  31.488  1.00  0.00    -0.014 A 
ATOM     27  C   UNL A   1      46.131  30.528  30.867  1.00  0.00     0.005 A 
ATOM     28  C   UNL A   1      44.132  24.354  30.538  1.00  0.00     0.000 A 
ATOM     29  C   UNL A   1      45.732  25.236  32.136  1.00  0.00     0.009 A 
ATOM     30  C   UNL A   1      48.181  28.015  32.576  1.00  0.00     0.009 A 
ATOM     31  C   UNL A   1      47.425  31.069  32.054  1.00  0.00     0.000 A 
ATOM     32  C   UNL A   1      44.811  24.261  31.764  1.00  0.00     0.001 A 
ATOM     33  C   UNL A   1      48.489  29.812  32.850  1.00  0.00     0.001 A 
ENDBRANCH  20  21
ENDBRANCH  19  20
ENDBRANCH  17  19
ENDBRANCH   6  15
ENDBRANCH   3   6
ENDBRANCH   1   2
BRANCH   1  34
ATOM     34  C   UNL A   1      43.075  22.286  27.008  1.00  0.00     0.042 C 
BRANCH  34  35
ATOM     35  C   UNL A   1      42.084  23.382  27.288  1.00  0.00     0.118 C 
BRANCH  35  36
ATOM     36  N   UNL A   1      42.077  24.337  26.183  1.00  0.00    -0.352 N 
ATOM     37  C   UNL A   1      41.471  25.576  26.106  1.00  0.00     0.251 C 
ATOM     38  H   UNL A   1      42.576  24.059  25.380  1.00  0.00     0.163 HD
ATOM     39  O   UNL A   1      41.161  26.029  25.009  1.00  0.00    -0.269 OA
BRANCH  37  40
ATOM     40  C   UNL A   1      41.172  26.332  27.343  1.00  0.00     0.039 A 
ATOM     41  C   UNL A   1      40.196  25.895  28.244  1.00  0.00     0.014 A 
ATOM     42  C   UNL A   1      41.863  27.509  27.603  1.00  0.00     0.014 A 
ATOM     43  C   UNL A   1      39.966  26.619  29.420  1.00  0.00     0.010 A 
ATOM     44  C   UNL A   1      41.781  28.103  28.846  1.00  0.00     0.010 A 
ATOM     45  C   UNL A   1      40.786  27.711  29.746  1.00  0.00    -0.014 A 
BRANCH  45  46
ATOM     46  C   UNL A   1      40.603  28.547  30.959  1.00  0.00     0.031 A 
ATOM     47  C   UNL A   1      39.549  29.631  30.943  1.00  0.00     0.074 A 
ATOM     48  C   UNL A   1      41.449  28.430  31.998  1.00  0.00     0.049 A 
ATOM     49  N   UNL A   1      39.359  30.615  31.781  1.00  0.00    -0.248 NA
ATOM     50  C   UNL A   1      38.631  29.648  29.788  1.00  0.00     0.031 C 
ATOM     51  C   UNL A   1      42.543  27.463  32.098  1.00  0.00     0.029 A 
ATOM     52  N   UNL A   1      41.539  29.155  33.159  1.00  0.00    -0.354 N 
ATOM     53  C   UNL A   1      38.336  31.381  31.232  1.00  0.00     0.074 A 
ATOM     54  C   UNL A   1      38.017  30.809  29.946  1.00  0.00     0.031 C 
ATOM     55  C   UNL A   1      43.182  27.641  33.265  1.00  0.00     0.029 A 
ATOM     56  C   UNL A   1      42.584  28.772  33.967  1.00  0.00     0.049 A 
ATOM     57  H   UNL A   1      40.915  29.879  33.393  1.00  0.00     0.167 HD
ATOM     58  C   UNL A   1      37.690  32.444  31.767  1.00  0.00     0.037 A 
ATOM     59  C   UNL A   1      43.027  29.293  35.127  1.00  0.00     0.037 A 
ATOM     60  C   UNL A   1      37.996  32.973  33.067  1.00  0.00     0.049 A 
ATOM     61  C   UNL A   1      42.299  30.471  35.717  1.00  0.00     0.074 A 
ATOM     62  C   UNL A   1      37.368  33.998  33.749  1.00  0.00     0.029 A 
ATOM     63  N   UNL A   1      39.025  32.518  33.880  1.00  0.00    -0.354 N 
ATOM     64  N   UNL A   1      41.287  31.144  35.221  1.00  0.00    -0.248 NA
ATOM     65  C   UNL A   1      42.764  30.959  37.021  1.00  0.00     0.031 C 
ATOM     66  C   UNL A   1      38.060  34.207  34.945  1.00  0.00     0.029 A 
ATOM     67  C   UNL A   1      39.070  33.260  35.046  1.00  0.00     0.049 A 
ATOM     68  H   UNL A   1      39.634  31.775  33.660  1.00  0.00     0.167 HD
ATOM     69  C   UNL A   1      40.972  32.113  36.165  1.00  0.00     0.074 A 
ATOM     70  C   UNL A   1      41.903  31.939  37.263  1.00  0.00     0.031 C 
ATOM     71  C   UNL A   1      39.998  33.057  36.132  1.00  0.00     0.037 A 
BRANCH  58  72
ATOM     72  C   UNL A   1      36.603  33.088  30.945  1.00  0.00     0.058 A 
ATOM     73  C   UNL A   1      36.890  33.922  29.849  1.00  0.00     0.135 A 
ATOM     74  C   UNL A   1      35.252  32.882  31.265  1.00  0.00     0.135 A 
ATOM     75  F   UNL A   1      38.164  34.168  29.501  1.00  0.00    -0.206 F 
ATOM     76  C   UNL A   1      35.885  34.575  29.145  1.00  0.00     0.059 A 
ATOM     77  C   UNL A   1      34.226  33.490  30.545  1.00  0.00     0.059 A 
ATOM     78  F   UNL A   1      34.912  32.094  32.296  1.00  0.00    -0.206 F 
ATOM     79  C   UNL A   1      34.555  34.356  29.504  1.00  0.00     0.060 A 
BRANCH  79  80
ATOM     80  S   UNL A   1      33.266  35.235  28.599  1.00  0.00     0.124 S 
ATOM     81  O   UNL A   1      34.060  36.084  27.714  1.00  0.00    -0.237 OA
ATOM     82  O   UNL A   1      32.543  34.145  27.950  1.00  0.00    -0.237 OA
ATOM     83  O   UNL A   1      32.530  35.936  29.646  1.00  0.00    -0.744 OA
ENDBRANCH  79  80
ENDBRANCH  58  72
BRANCH  59  84
ATOM     84  C   UNL A   1      44.208  28.687  35.796  1.00  0.00     0.058 A 
ATOM     85  C   UNL A   1      44.067  27.611  36.686  1.00  0.00     0.135 A 
ATOM     86  C   UNL A   1      45.510  29.126  35.507  1.00  0.00     0.135 A 
ATOM     87  F   UNL A   1      42.844  27.156  36.999  1.00  0.00    -0.206 F 
ATOM     88  C   UNL A   1      45.171  26.996  37.267  1.00  0.00     0.059 A 
ATOM     89  C   UNL A   1      46.631  28.508  36.051  1.00  0.00     0.059 A 
ATOM     90  F   UNL A   1      45.702  30.137  34.645  1.00  0.00    -0.206 F 
ATOM     91  C   UNL A   1      46.451  27.444  36.933  1.00  0.00     0.060 A 
BRANCH  91  92
ATOM     92  S   UNL A   1      47.877  26.583  37.629  1.00  0.00     0.124 S 
ATOM     93  O   UNL A   1      48.954  27.527  37.356  1.00  0.00    -0.237 OA
ATOM     94  O   UNL A   1      47.491  26.440  39.029  1.00  0.00    -0.237 OA
ATOM     95  O   UNL A   1      47.921  25.337  36.868  1.00  0.00    -0.744 OA
ENDBRANCH  91  92
ENDBRANCH  59  84
BRANCH  71  96
ATOM     96  C   UNL A   1      39.840  33.949  37.331  1.00  0.00     0.058 A 
ATOM     97  C   UNL A   1      40.517  35.173  37.439  1.00  0.00     0.135 A 
ATOM     98  C   UNL A   1      38.901  33.625  38.324  1.00  0.00     0.135 A 
ATOM     99  F   UNL A   1      41.430  35.525  36.521  1.00  0.00    -0.206 F 
ATOM    100  C   UNL A   1      40.264  36.047  38.491  1.00  0.00     0.059 A 
ATOM    101  C   UNL A   1      38.610  34.498  39.365  1.00  0.00     0.059 A 
ATOM    102  F   UNL A   1      38.222  32.468  38.260  1.00  0.00    -0.206 F 
ATOM    103  C   UNL A   1      39.298  35.707  39.440  1.00  0.00     0.060 A 
BRANCH 103 104
ATOM    104  S   UNL A   1      38.918  36.892  40.748  1.00  0.00     0.124 S 
ATOM    105  O   UNL A   1      38.151  37.897  40.020  1.00  0.00    -0.237 OA
ATOM    106  O   UNL A   1      38.163  36.077  41.693  1.00  0.00    -0.237 OA
ATOM    107  O   UNL A   1      40.235  37.322  41.210  1.00  0.00    -0.744 OA
ENDBRANCH 103 104
ENDBRANCH  71  96
ENDBRANCH  45  46
ENDBRANCH  37  40
ENDBRANCH  35  36
ENDBRANCH  34  35
ENDBRANCH   1  34
TORSDOF 17
ENDMDL
