MODEL 1
REMARK VINA RESULT:     -11.2      0.000      0.000
REMARK SMILES COc1ccc(CC(=O)Nc2ccc(N3CC[NH+](C)CC3)cc2C(=O)NCCCNC(=O)c2ccc(-c3c4nc(c(-c5c(F)cc(S(=O)(=O)[O-])cc5F)c5ccc([nH]5)c(-c5c(F)cc(S(=O)(=O)[O-])cc5F)c5nc(c(-c6c(F)cc(S(=O)(=O)[O-])cc6F)c6ccc3[nH]6)C=C5)C=C4)cc2)cc1
REMARK SMILES IDX 27 1 26 2 24 3 25 4 23 6 11 7 12 8 13 9 22 10 14 11 10 12
REMARK SMILES IDX 8 13 9 14 7 16 6 17 3 18 4 19 100 20 5 21 99 22 2 23 1 24
REMARK SMILES IDX 15 25 16 26 21 27 17 28 20 29 18 30 19 31 28 33 29 34 30 35
REMARK SMILES IDX 31 36 32 38 33 39 34 40 98 41 35 42 97 43 36 44 37 45 38 46
REMARK SMILES IDX 91 47 39 48 96 49 90 50 92 51 40 52 95 53 89 54 88 55 41 57
REMARK SMILES IDX 75 58 54 59 74 60 55 61 58 62 73 63 93 64 56 65 57 66 72 68
REMARK SMILES IDX 94 69 59 70 42 71 43 72 52 73 44 74 45 75 51 76 53 77 46 78
REMARK SMILES IDX 47 79 48 80 49 81 50 82 76 83 77 84 86 85 78 86 79 87 85 88
REMARK SMILES IDX 87 89 80 90 81 91 82 92 83 93 84 94 60 95 61 96 70 97 62 98
REMARK SMILES IDX 63 99 69 100 71 101 64 102 65 103 66 104 67 105 68 106
REMARK H PARENT 26 5 10 15 18 32 30 37 92 56 58 67
REMARK Flexibility Score: inf
ROOT
ATOM      1  C   UNL A   1      44.321  39.446  26.789  1.00  0.00     0.118 C 
ENDROOT
BRANCH   1   2
ATOM      2  N   UNL A   1      42.985  39.843  26.384  1.00  0.00    -0.352 N 
ATOM      3  C   UNL A   1      42.476  40.927  25.721  1.00  0.00     0.253 C 
ATOM      4  O   UNL A   1      41.244  41.003  25.717  1.00  0.00    -0.269 OA
ATOM      5  H   UNL A   1      42.295  39.191  26.642  1.00  0.00     0.163 HD
BRANCH   3   6
ATOM      6  C   UNL A   1      43.273  42.048  25.127  1.00  0.00     0.065 A 
ATOM      7  C   UNL A   1      44.043  43.012  25.782  1.00  0.00     0.054 A 
ATOM      8  C   UNL A   1      44.320  44.205  25.112  1.00  0.00     0.029 A 
ATOM      9  C   UNL A   1      44.111  44.311  23.736  1.00  0.00     0.028 A 
ATOM     10  C   UNL A   1      43.141  42.159  23.715  1.00  0.00     0.042 A 
ATOM     11  C   UNL A   1      43.639  43.237  22.976  1.00  0.00     0.038 A 
BRANCH   7  12
ATOM     12  N   UNL A   1      44.596  42.933  27.065  1.00  0.00    -0.325 N 
ATOM     13  C   UNL A   1      45.898  42.824  27.477  1.00  0.00     0.228 C 
ATOM     14  O   UNL A   1      46.089  42.563  28.671  1.00  0.00    -0.274 OA
ATOM     15  H   UNL A   1      43.937  42.958  27.796  1.00  0.00     0.169 HD
BRANCH  13  16
ATOM     16  C   UNL A   1      47.068  43.238  26.608  1.00  0.00     0.135 C 
BRANCH  16  17
ATOM     17  C   UNL A   1      47.172  42.710  25.207  1.00  0.00    -0.038 A 
ATOM     18  C   UNL A   1      47.259  41.668  22.591  1.00  0.00     0.118 A 
ATOM     19  C   UNL A   1      47.536  43.017  22.829  1.00  0.00     0.047 A 
ATOM     20  C   UNL A   1      46.935  40.841  23.663  1.00  0.00     0.047 A 
ATOM     21  C   UNL A   1      47.483  43.542  24.126  1.00  0.00     0.008 A 
ATOM     22  C   UNL A   1      46.883  41.361  24.959  1.00  0.00     0.008 A 
BRANCH  18  23
ATOM     23  O   UNL A   1      47.363  41.275  21.285  1.00  0.00    -0.497 OA
ATOM     24  C   UNL A   1      47.874  42.235  20.371  1.00  0.00     0.278 C 
ENDBRANCH  18  23
ENDBRANCH  16  17
ENDBRANCH  13  16
ENDBRANCH   7  12
BRANCH  11  25
ATOM     25  N   UNL A   1      43.710  43.238  21.598  1.00  0.00    -0.360 N 
ATOM     26  C   UNL A   1      44.655  44.051  20.810  1.00  0.00     0.178 C 
ATOM     27  C   UNL A   1      42.892  42.313  20.794  1.00  0.00     0.178 C 
ATOM     28  C   UNL A   1      43.943  44.725  19.606  1.00  0.00     0.283 C 
ATOM     29  C   UNL A   1      42.219  43.052  19.617  1.00  0.00     0.283 C 
ATOM     30  N   UNL A   1      43.187  43.769  18.764  1.00  0.00    -0.334 N 
ATOM     31  C   UNL A   1      42.495  44.457  17.677  1.00  0.00     0.332 C 
ATOM     32  H   UNL A   1      43.837  43.105  18.342  1.00  0.00     0.347 HD
ENDBRANCH  11  25
ENDBRANCH   3   6
ENDBRANCH   1   2
BRANCH   1  33
ATOM     33  C   UNL A   1      44.398  37.978  27.176  1.00  0.00     0.042 C 
BRANCH  33  34
ATOM     34  C   UNL A   1      44.923  37.802  28.602  1.00  0.00     0.118 C 
BRANCH  34  35
ATOM     35  N   UNL A   1      46.349  38.085  28.746  1.00  0.00    -0.352 N 
ATOM     36  C   UNL A   1      47.438  37.238  28.749  1.00  0.00     0.251 C 
ATOM     37  H   UNL A   1      46.569  39.037  28.862  1.00  0.00     0.163 HD
ATOM     38  O   UNL A   1      48.559  37.673  28.969  1.00  0.00    -0.269 OA
BRANCH  36  39
ATOM     39  C   UNL A   1      47.244  35.783  28.548  1.00  0.00     0.039 A 
ATOM     40  C   UNL A   1      47.175  34.951  29.669  1.00  0.00     0.014 A 
ATOM     41  C   UNL A   1      47.098  35.244  27.273  1.00  0.00     0.014 A 
ATOM     42  C   UNL A   1      46.841  33.602  29.509  1.00  0.00     0.010 A 
ATOM     43  C   UNL A   1      46.643  33.939  27.126  1.00  0.00     0.010 A 
ATOM     44  C   UNL A   1      46.508  33.099  28.241  1.00  0.00    -0.014 A 
BRANCH  44  45
ATOM     45  C   UNL A   1      46.033  31.702  28.046  1.00  0.00     0.031 A 
ATOM     46  C   UNL A   1      44.614  31.339  28.404  1.00  0.00     0.074 A 
ATOM     47  C   UNL A   1      46.891  30.745  27.638  1.00  0.00     0.049 A 
ATOM     48  N   UNL A   1      44.051  30.160  28.467  1.00  0.00    -0.248 NA
ATOM     49  C   UNL A   1      43.722  32.447  28.790  1.00  0.00     0.031 C 
ATOM     50  C   UNL A   1      48.307  30.948  27.318  1.00  0.00     0.029 A 
ATOM     51  N   UNL A   1      46.700  29.401  27.431  1.00  0.00    -0.354 N 
ATOM     52  C   UNL A   1      42.762  30.381  28.939  1.00  0.00     0.074 A 
ATOM     53  C   UNL A   1      42.644  31.799  29.202  1.00  0.00     0.031 C 
ATOM     54  C   UNL A   1      48.842  29.782  26.918  1.00  0.00     0.029 A 
ATOM     55  C   UNL A   1      47.825  28.740  26.993  1.00  0.00     0.049 A 
ATOM     56  H   UNL A   1      45.837  28.952  27.581  1.00  0.00     0.167 HD
ATOM     57  C   UNL A   1      41.753  29.492  29.108  1.00  0.00     0.037 A 
ATOM     58  C   UNL A   1      48.013  27.443  26.688  1.00  0.00     0.037 A 
ATOM     59  C   UNL A   1      41.851  28.096  28.778  1.00  0.00     0.049 A 
ATOM     60  C   UNL A   1      46.860  26.486  26.822  1.00  0.00     0.074 A 
ATOM     61  C   UNL A   1      40.876  27.118  28.863  1.00  0.00     0.029 A 
ATOM     62  N   UNL A   1      42.988  27.485  28.270  1.00  0.00    -0.354 N 
ATOM     63  N   UNL A   1      45.642  26.719  27.248  1.00  0.00    -0.248 NA
ATOM     64  C   UNL A   1      47.104  25.091  26.428  1.00  0.00     0.031 C 
ATOM     65  C   UNL A   1      41.426  25.912  28.415  1.00  0.00     0.029 A 
ATOM     66  C   UNL A   1      42.735  26.146  28.025  1.00  0.00     0.049 A 
ATOM     67  H   UNL A   1      43.849  27.936  28.109  1.00  0.00     0.167 HD
ATOM     68  C   UNL A   1      44.966  25.509  27.142  1.00  0.00     0.074 A 
ATOM     69  C   UNL A   1      45.907  24.548  26.605  1.00  0.00     0.031 C 
ATOM     70  C   UNL A   1      43.681  25.216  27.462  1.00  0.00     0.037 A 
BRANCH  57  71
ATOM     71  C   UNL A   1      40.451  30.016  29.646  1.00  0.00     0.058 A 
ATOM     72  C   UNL A   1      40.317  30.401  30.991  1.00  0.00     0.135 A 
ATOM     73  C   UNL A   1      39.329  30.147  28.813  1.00  0.00     0.135 A 
ATOM     74  F   UNL A   1      41.352  30.279  31.835  1.00  0.00    -0.206 F 
ATOM     75  C   UNL A   1      39.106  30.861  31.499  1.00  0.00     0.059 A 
ATOM     76  C   UNL A   1      38.115  30.633  29.294  1.00  0.00     0.059 A 
ATOM     77  F   UNL A   1      39.401  29.796  27.520  1.00  0.00    -0.206 F 
ATOM     78  C   UNL A   1      38.010  30.971  30.643  1.00  0.00     0.060 A 
BRANCH  78  79
ATOM     79  S   UNL A   1      36.445  31.567  31.317  1.00  0.00     0.124 S 
ATOM     80  O   UNL A   1      36.907  32.503  32.338  1.00  0.00    -0.237 OA
ATOM     81  O   UNL A   1      35.808  32.168  30.149  1.00  0.00    -0.237 OA
ATOM     82  O   UNL A   1      35.809  30.354  31.818  1.00  0.00    -0.744 OA
ENDBRANCH  78  79
ENDBRANCH  57  71
BRANCH  58  83
ATOM     83  C   UNL A   1      49.331  26.974  26.181  1.00  0.00     0.058 A 
ATOM     84  C   UNL A   1      50.330  26.553  27.074  1.00  0.00     0.135 A 
ATOM     85  C   UNL A   1      49.625  26.943  24.810  1.00  0.00     0.135 A 
ATOM     86  F   UNL A   1      50.097  26.569  28.395  1.00  0.00    -0.206 F 
ATOM     87  C   UNL A   1      51.581  26.144  26.628  1.00  0.00     0.059 A 
ATOM     88  C   UNL A   1      50.862  26.516  24.338  1.00  0.00     0.059 A 
ATOM     89  F   UNL A   1      48.696  27.314  23.914  1.00  0.00    -0.206 F 
ATOM     90  C   UNL A   1      51.840  26.132  25.257  1.00  0.00     0.060 A 
BRANCH  90  91
ATOM     91  S   UNL A   1      53.459  25.572  24.683  1.00  0.00     0.124 S 
ATOM     92  O   UNL A   1      53.371  24.135  24.912  1.00  0.00    -0.237 OA
ATOM     93  O   UNL A   1      53.457  25.998  23.286  1.00  0.00    -0.237 OA
ATOM     94  O   UNL A   1      54.387  26.296  25.547  1.00  0.00    -0.744 OA
ENDBRANCH  90  91
ENDBRANCH  58  83
BRANCH  70  95
ATOM     95  C   UNL A   1      43.204  23.821  27.189  1.00  0.00     0.058 A 
ATOM     96  C   UNL A   1      42.794  23.420  25.909  1.00  0.00     0.135 A 
ATOM     97  C   UNL A   1      43.204  22.860  28.213  1.00  0.00     0.135 A 
ATOM     98  F   UNL A   1      42.772  24.304  24.899  1.00  0.00    -0.206 F 
ATOM     99  C   UNL A   1      42.378  22.116  25.657  1.00  0.00     0.059 A 
ATOM    100  C   UNL A   1      42.814  21.546  27.979  1.00  0.00     0.059 A 
ATOM    101  F   UNL A   1      43.596  23.194  29.453  1.00  0.00    -0.206 F 
ATOM    102  C   UNL A   1      42.392  21.187  26.699  1.00  0.00     0.060 A 
BRANCH 102 103
ATOM    103  S   UNL A   1      41.882  19.489  26.355  1.00  0.00     0.124 S 
ATOM    104  O   UNL A   1      42.302  18.806  27.573  1.00  0.00    -0.237 OA
ATOM    105  O   UNL A   1      40.440  19.625  26.170  1.00  0.00    -0.237 OA
ATOM    106  O   UNL A   1      42.633  19.148  25.151  1.00  0.00    -0.744 OA
ENDBRANCH 102 103
ENDBRANCH  70  95
ENDBRANCH  44  45
ENDBRANCH  36  39
ENDBRANCH  34  35
ENDBRANCH  33  34
ENDBRANCH   1  33
TORSDOF 18
ENDMDL
MODEL 2
REMARK VINA RESULT:     -11.1      7.227     12.598
REMARK SMILES COc1ccc(CC(=O)Nc2ccc(N3CC[NH+](C)CC3)cc2C(=O)NCCCNC(=O)c2ccc(-c3c4nc(c(-c5c(F)cc(S(=O)(=O)[O-])cc5F)c5ccc([nH]5)c(-c5c(F)cc(S(=O)(=O)[O-])cc5F)c5nc(c(-c6c(F)cc(S(=O)(=O)[O-])cc6F)c6ccc3[nH]6)C=C5)C=C4)cc2)cc1
REMARK SMILES IDX 27 1 26 2 24 3 25 4 23 6 11 7 12 8 13 9 22 10 14 11 10 12
REMARK SMILES IDX 8 13 9 14 7 16 6 17 3 18 4 19 100 20 5 21 99 22 2 23 1 24
REMARK SMILES IDX 15 25 16 26 21 27 17 28 20 29 18 30 19 31 28 33 29 34 30 35
REMARK SMILES IDX 31 36 32 38 33 39 34 40 98 41 35 42 97 43 36 44 37 45 38 46
REMARK SMILES IDX 91 47 39 48 96 49 90 50 92 51 40 52 95 53 89 54 88 55 41 57
REMARK SMILES IDX 75 58 54 59 74 60 55 61 58 62 73 63 93 64 56 65 57 66 72 68
REMARK SMILES IDX 94 69 59 70 42 71 43 72 52 73 44 74 45 75 51 76 53 77 46 78
REMARK SMILES IDX 47 79 48 80 49 81 50 82 76 83 77 84 86 85 78 86 79 87 85 88
REMARK SMILES IDX 87 89 80 90 81 91 82 92 83 93 84 94 60 95 61 96 70 97 62 98
REMARK SMILES IDX 63 99 69 100 71 101 64 102 65 103 66 104 67 105 68 106
REMARK H PARENT 26 5 10 15 18 32 30 37 92 56 58 67
REMARK Flexibility Score: inf
ROOT
ATOM      1  C   UNL A   1      36.381  31.952  32.311  1.00  0.00     0.118 C 
ENDROOT
BRANCH   1   2
ATOM      2  N   UNL A   1      36.574  30.568  32.701  1.00  0.00    -0.352 N 
ATOM      3  C   UNL A   1      37.539  29.908  33.413  1.00  0.00     0.253 C 
ATOM      4  O   UNL A   1      37.454  28.676  33.388  1.00  0.00    -0.269 OA
ATOM      5  H   UNL A   1      35.855  29.974  32.386  1.00  0.00     0.163 HD
BRANCH   3   6
ATOM      6  C   UNL A   1      38.715  30.539  34.094  1.00  0.00     0.065 A 
ATOM      7  C   UNL A   1      40.031  30.077  34.164  1.00  0.00     0.054 A 
ATOM      8  C   UNL A   1      40.844  30.549  35.197  1.00  0.00     0.029 A 
ATOM      9  C   UNL A   1      40.467  31.668  35.941  1.00  0.00     0.028 A 
ATOM     10  C   UNL A   1      38.393  31.721  34.816  1.00  0.00     0.042 A 
ATOM     11  C   UNL A   1      39.286  32.367  35.676  1.00  0.00     0.038 A 
BRANCH   7  12
ATOM     12  N   UNL A   1      40.664  29.175  33.302  1.00  0.00    -0.325 N 
ATOM     13  C   UNL A   1      41.412  28.057  33.564  1.00  0.00     0.228 C 
ATOM     14  O   UNL A   1      42.029  27.560  32.614  1.00  0.00    -0.274 OA
ATOM     15  H   UNL A   1      40.555  29.378  32.346  1.00  0.00     0.169 HD
BRANCH  13  16
ATOM     16  C   UNL A   1      41.319  27.298  34.871  1.00  0.00     0.135 C 
BRANCH  16  17
ATOM     17  C   UNL A   1      42.375  26.290  35.219  1.00  0.00    -0.038 A 
ATOM     18  C   UNL A   1      44.335  24.341  35.768  1.00  0.00     0.118 A 
ATOM     19  C   UNL A   1      44.633  25.702  35.880  1.00  0.00     0.047 A 
ATOM     20  C   UNL A   1      43.054  23.956  35.377  1.00  0.00     0.047 A 
ATOM     21  C   UNL A   1      43.666  26.675  35.597  1.00  0.00     0.008 A 
ATOM     22  C   UNL A   1      42.086  24.924  35.096  1.00  0.00     0.008 A 
BRANCH  18  23
ATOM     23  O   UNL A   1      45.358  23.493  36.089  1.00  0.00    -0.497 OA
ATOM     24  C   UNL A   1      45.200  22.134  35.705  1.00  0.00     0.278 C 
ENDBRANCH  18  23
ENDBRANCH  16  17
ENDBRANCH  13  16
ENDBRANCH   7  12
BRANCH  11  25
ATOM     25  N   UNL A   1      39.056  33.624  36.197  1.00  0.00    -0.360 N 
ATOM     26  C   UNL A   1      39.428  34.887  35.533  1.00  0.00     0.178 C 
ATOM     27  C   UNL A   1      38.300  33.801  37.450  1.00  0.00     0.178 C 
ATOM     28  C   UNL A   1      40.089  35.872  36.533  1.00  0.00     0.283 C 
ATOM     29  C   UNL A   1      39.015  34.794  38.391  1.00  0.00     0.283 C 
ATOM     30  N   UNL A   1      39.279  36.098  37.752  1.00  0.00    -0.334 N 
ATOM     31  C   UNL A   1      39.966  36.991  38.683  1.00  0.00     0.332 C 
ATOM     32  H   UNL A   1      38.398  36.544  37.494  1.00  0.00     0.347 HD
ENDBRANCH  11  25
ENDBRANCH   3   6
ENDBRANCH   1   2
BRANCH   1  33
ATOM     33  C   UNL A   1      35.049  32.177  31.612  1.00  0.00     0.042 C 
BRANCH  33  34
ATOM     34  C   UNL A   1      35.245  32.675  30.179  1.00  0.00     0.118 C 
BRANCH  34  35
ATOM     35  N   UNL A   1      34.462  31.945  29.186  1.00  0.00    -0.352 N 
ATOM     36  C   UNL A   1      34.787  30.849  28.412  1.00  0.00     0.251 C 
ATOM     37  H   UNL A   1      33.552  32.293  29.044  1.00  0.00     0.163 HD
ATOM     38  O   UNL A   1      34.006  30.434  27.569  1.00  0.00    -0.269 OA
BRANCH  36  39
ATOM     39  C   UNL A   1      36.115  30.210  28.557  1.00  0.00     0.039 A 
ATOM     40  C   UNL A   1      37.122  30.532  27.643  1.00  0.00     0.014 A 
ATOM     41  C   UNL A   1      36.382  29.328  29.602  1.00  0.00     0.014 A 
ATOM     42  C   UNL A   1      38.422  30.059  27.850  1.00  0.00     0.010 A 
ATOM     43  C   UNL A   1      37.694  28.965  29.876  1.00  0.00     0.010 A 
ATOM     44  C   UNL A   1      38.733  29.323  29.006  1.00  0.00    -0.014 A 
BRANCH  44  45
ATOM     45  C   UNL A   1      40.126  28.905  29.324  1.00  0.00     0.031 A 
ATOM     46  C   UNL A   1      41.052  29.864  30.027  1.00  0.00     0.074 A 
ATOM     47  C   UNL A   1      40.587  27.709  28.903  1.00  0.00     0.049 A 
ATOM     48  N   UNL A   1      42.337  29.763  30.248  1.00  0.00    -0.248 NA
ATOM     49  C   UNL A   1      40.463  31.128  30.502  1.00  0.00     0.031 C 
ATOM     50  C   UNL A   1      39.813  26.711  28.157  1.00  0.00     0.029 A 
ATOM     51  N   UNL A   1      41.824  27.130  29.035  1.00  0.00    -0.354 N 
ATOM     52  C   UNL A   1      42.714  30.961  30.845  1.00  0.00     0.074 A 
ATOM     53  C   UNL A   1      41.534  31.797  30.898  1.00  0.00     0.031 C 
ATOM     54  C   UNL A   1      40.582  25.631  27.935  1.00  0.00     0.029 A 
ATOM     55  C   UNL A   1      41.912  25.873  28.482  1.00  0.00     0.049 A 
ATOM     56  H   UNL A   1      42.579  27.573  29.486  1.00  0.00     0.167 HD
ATOM     57  C   UNL A   1      43.923  31.324  31.336  1.00  0.00     0.037 A 
ATOM     58  C   UNL A   1      42.948  25.015  28.422  1.00  0.00     0.037 A 
ATOM     59  C   UNL A   1      45.076  30.464  31.346  1.00  0.00     0.049 A 
ATOM     60  C   UNL A   1      44.264  25.415  29.032  1.00  0.00     0.074 A 
ATOM     61  C   UNL A   1      46.335  30.713  31.864  1.00  0.00     0.029 A 
ATOM     62  N   UNL A   1      45.099  29.173  30.839  1.00  0.00    -0.354 N 
ATOM     63  N   UNL A   1      44.594  26.544  29.612  1.00  0.00    -0.248 NA
ATOM     64  C   UNL A   1      45.348  24.423  28.985  1.00  0.00     0.031 C 
ATOM     65  C   UNL A   1      47.124  29.575  31.660  1.00  0.00     0.029 A 
ATOM     66  C   UNL A   1      46.347  28.608  31.042  1.00  0.00     0.049 A 
ATOM     67  H   UNL A   1      44.342  28.725  30.398  1.00  0.00     0.167 HD
ATOM     68  C   UNL A   1      45.911  26.385  30.028  1.00  0.00     0.074 A 
ATOM     69  C   UNL A   1      46.315  25.050  29.640  1.00  0.00     0.031 C 
ATOM     70  C   UNL A   1      46.716  27.266  30.672  1.00  0.00     0.037 A 
BRANCH  57  71
ATOM     71  C   UNL A   1      44.046  32.701  31.929  1.00  0.00     0.058 A 
ATOM     72  C   UNL A   1      43.860  32.924  33.303  1.00  0.00     0.135 A 
ATOM     73  C   UNL A   1      44.363  33.806  31.123  1.00  0.00     0.135 A 
ATOM     74  F   UNL A   1      43.538  31.906  34.116  1.00  0.00    -0.206 F 
ATOM     75  C   UNL A   1      43.947  34.200  33.851  1.00  0.00     0.059 A 
ATOM     76  C   UNL A   1      44.482  35.087  31.655  1.00  0.00     0.059 A 
ATOM     77  F   UNL A   1      44.552  33.649  29.803  1.00  0.00    -0.206 F 
ATOM     78  C   UNL A   1      44.255  35.276  33.018  1.00  0.00     0.060 A 
BRANCH  78  79
ATOM     79  S   UNL A   1      44.361  36.925  33.743  1.00  0.00     0.124 S 
ATOM     80  O   UNL A   1      42.978  37.380  33.634  1.00  0.00    -0.237 OA
ATOM     81  O   UNL A   1      44.829  36.644  35.097  1.00  0.00    -0.237 OA
ATOM     82  O   UNL A   1      45.318  37.612  32.883  1.00  0.00    -0.744 OA
ENDBRANCH  78  79
ENDBRANCH  57  71
BRANCH  58  83
ATOM     83  C   UNL A   1      42.777  23.674  27.802  1.00  0.00     0.058 A 
ATOM     84  C   UNL A   1      42.493  22.552  28.596  1.00  0.00     0.135 A 
ATOM     85  C   UNL A   1      42.902  23.480  26.418  1.00  0.00     0.135 A 
ATOM     86  F   UNL A   1      42.369  22.687  29.925  1.00  0.00    -0.206 F 
ATOM     87  C   UNL A   1      42.364  21.282  28.046  1.00  0.00     0.059 A 
ATOM     88  C   UNL A   1      42.754  22.222  25.841  1.00  0.00     0.059 A 
ATOM     89  F   UNL A   1      43.152  24.524  25.613  1.00  0.00    -0.206 F 
ATOM     90  C   UNL A   1      42.500  21.126  26.666  1.00  0.00     0.060 A 
BRANCH  90  91
ATOM     91  S   UNL A   1      42.303  19.477  25.955  1.00  0.00     0.124 S 
ATOM     92  O   UNL A   1      40.872  19.446  25.677  1.00  0.00    -0.237 OA
ATOM     93  O   UNL A   1      43.180  19.536  24.789  1.00  0.00    -0.237 OA
ATOM     94  O   UNL A   1      42.759  18.595  27.026  1.00  0.00    -0.744 OA
ENDBRANCH  90  91
ENDBRANCH  58  83
BRANCH  70  95
ATOM     95  C   UNL A   1      48.090  26.796  31.046  1.00  0.00     0.058 A 
ATOM     96  C   UNL A   1      48.346  26.173  32.276  1.00  0.00     0.135 A 
ATOM     97  C   UNL A   1      49.154  26.929  30.139  1.00  0.00     0.135 A 
ATOM     98  F   UNL A   1      47.363  26.028  33.178  1.00  0.00    -0.206 F 
ATOM     99  C   UNL A   1      49.619  25.715  32.605  1.00  0.00     0.059 A 
ATOM    100  C   UNL A   1      50.428  26.458  30.437  1.00  0.00     0.059 A 
ATOM    101  F   UNL A   1      48.956  27.510  28.946  1.00  0.00    -0.206 F 
ATOM    102  C   UNL A   1      50.653  25.863  31.679  1.00  0.00     0.060 A 
BRANCH 102 103
ATOM    103  S   UNL A   1      52.293  25.236  32.100  1.00  0.00     0.124 S 
ATOM    104  O   UNL A   1      52.561  25.935  33.351  1.00  0.00    -0.237 OA
ATOM    105  O   UNL A   1      52.061  23.799  32.214  1.00  0.00    -0.237 OA
ATOM    106  O   UNL A   1      53.112  25.643  30.963  1.00  0.00    -0.744 OA
ENDBRANCH 102 103
ENDBRANCH  70  95
ENDBRANCH  44  45
ENDBRANCH  36  39
ENDBRANCH  34  35
ENDBRANCH  33  34
ENDBRANCH   1  33
TORSDOF 18
ENDMDL
MODEL 3
REMARK VINA RESULT:     -11.0      0.793      7.935
REMARK SMILES COc1ccc(CC(=O)Nc2ccc(N3CC[NH+](C)CC3)cc2C(=O)NCCCNC(=O)c2ccc(-c3c4nc(c(-c5c(F)cc(S(=O)(=O)[O-])cc5F)c5ccc([nH]5)c(-c5c(F)cc(S(=O)(=O)[O-])cc5F)c5nc(c(-c6c(F)cc(S(=O)(=O)[O-])cc6F)c6ccc3[nH]6)C=C5)C=C4)cc2)cc1
REMARK SMILES IDX 27 1 26 2 24 3 25 4 23 6 11 7 12 8 13 9 22 10 14 11 10 12
REMARK SMILES IDX 8 13 9 14 7 16 6 17 3 18 4 19 100 20 5 21 99 22 2 23 1 24
REMARK SMILES IDX 15 25 16 26 21 27 17 28 20 29 18 30 19 31 28 33 29 34 30 35
REMARK SMILES IDX 31 36 32 38 33 39 34 40 98 41 35 42 97 43 36 44 37 45 38 46
REMARK SMILES IDX 91 47 39 48 96 49 90 50 92 51 40 52 95 53 89 54 88 55 41 57
REMARK SMILES IDX 75 58 54 59 74 60 55 61 58 62 73 63 93 64 56 65 57 66 72 68
REMARK SMILES IDX 94 69 59 70 42 71 43 72 52 73 44 74 45 75 51 76 53 77 46 78
REMARK SMILES IDX 47 79 48 80 49 81 50 82 76 83 77 84 86 85 78 86 79 87 85 88
REMARK SMILES IDX 87 89 80 90 81 91 82 92 83 93 84 94 60 95 61 96 70 97 62 98
REMARK SMILES IDX 63 99 69 100 71 101 64 102 65 103 66 104 67 105 68 106
REMARK H PARENT 26 5 10 15 18 32 30 37 92 56 58 67
REMARK Flexibility Score: inf
ROOT
ATOM      1  C   UNL A   1      44.238  39.191  26.822  1.00  0.00     0.118 C 
ENDROOT
BRANCH   1   2
ATOM      2  N   UNL A   1      42.912  39.626  26.425  1.00  0.00    -0.352 N 
ATOM      3  C   UNL A   1      42.426  40.741  25.798  1.00  0.00     0.253 C 
ATOM      4  O   UNL A   1      41.195  40.840  25.790  1.00  0.00    -0.269 OA
ATOM      5  H   UNL A   1      42.208  38.977  26.656  1.00  0.00     0.163 HD
BRANCH   3   6
ATOM      6  C   UNL A   1      43.245  41.868  25.248  1.00  0.00     0.065 A 
ATOM      7  C   UNL A   1      44.038  42.786  25.939  1.00  0.00     0.054 A 
ATOM      8  C   UNL A   1      44.340  44.000  25.318  1.00  0.00     0.029 A 
ATOM      9  C   UNL A   1      44.130  44.167  23.948  1.00  0.00     0.028 A 
ATOM     10  C   UNL A   1      43.113  42.039  23.842  1.00  0.00     0.042 A 
ATOM     11  C   UNL A   1      43.633  43.135  23.146  1.00  0.00     0.038 A 
BRANCH   7  12
ATOM     12  N   UNL A   1      44.592  42.643  27.216  1.00  0.00    -0.325 N 
ATOM     13  C   UNL A   1      45.893  42.482  27.618  1.00  0.00     0.228 C 
ATOM     14  O   UNL A   1      46.079  42.170  28.801  1.00  0.00    -0.274 OA
ATOM     15  H   UNL A   1      43.937  42.659  27.950  1.00  0.00     0.169 HD
BRANCH  13  16
ATOM     16  C   UNL A   1      47.071  42.895  26.762  1.00  0.00     0.135 C 
BRANCH  16  17
ATOM     17  C   UNL A   1      47.146  42.434  25.336  1.00  0.00    -0.038 A 
ATOM     18  C   UNL A   1      47.183  41.512  22.673  1.00  0.00     0.118 A 
ATOM     19  C   UNL A   1      47.426  42.857  22.964  1.00  0.00     0.047 A 
ATOM     20  C   UNL A   1      46.917  40.628  23.716  1.00  0.00     0.047 A 
ATOM     21  C   UNL A   1      47.398  43.323  24.285  1.00  0.00     0.008 A 
ATOM     22  C   UNL A   1      46.891  41.088  25.035  1.00  0.00     0.008 A 
BRANCH  18  23
ATOM     23  O   UNL A   1      47.257  41.181  21.348  1.00  0.00    -0.497 OA
ATOM     24  C   UNL A   1      47.677  42.207  20.460  1.00  0.00     0.278 C 
ENDBRANCH  18  23
ENDBRANCH  16  17
ENDBRANCH  13  16
ENDBRANCH   7  12
BRANCH  11  25
ATOM     25  N   UNL A   1      43.701  43.191  21.769  1.00  0.00    -0.360 N 
ATOM     26  C   UNL A   1      44.577  44.103  21.011  1.00  0.00     0.178 C 
ATOM     27  C   UNL A   1      42.956  42.234  20.932  1.00  0.00     0.178 C 
ATOM     28  C   UNL A   1      43.812  44.762  19.832  1.00  0.00     0.283 C 
ATOM     29  C   UNL A   1      42.225  42.960  19.781  1.00  0.00     0.283 C 
ATOM     30  N   UNL A   1      43.132  43.780  18.955  1.00  0.00    -0.334 N 
ATOM     31  C   UNL A   1      42.385  44.450  17.894  1.00  0.00     0.332 C 
ATOM     32  H   UNL A   1      43.831  43.185  18.510  1.00  0.00     0.347 HD
ENDBRANCH  11  25
ENDBRANCH   3   6
ENDBRANCH   1   2
BRANCH   1  33
ATOM     33  C   UNL A   1      44.292  37.704  27.134  1.00  0.00     0.042 C 
BRANCH  33  34
ATOM     34  C   UNL A   1      44.940  37.440  28.494  1.00  0.00     0.118 C 
BRANCH  34  35
ATOM     35  N   UNL A   1      46.365  37.758  28.542  1.00  0.00    -0.352 N 
ATOM     36  C   UNL A   1      47.473  36.937  28.487  1.00  0.00     0.251 C 
ATOM     37  H   UNL A   1      46.569  38.717  28.629  1.00  0.00     0.163 HD
ATOM     38  O   UNL A   1      48.594  37.401  28.628  1.00  0.00    -0.269 OA
BRANCH  36  39
ATOM     39  C   UNL A   1      47.301  35.475  28.320  1.00  0.00     0.039 A 
ATOM     40  C   UNL A   1      47.201  34.673  29.461  1.00  0.00     0.014 A 
ATOM     41  C   UNL A   1      47.206  34.899  27.056  1.00  0.00     0.014 A 
ATOM     42  C   UNL A   1      46.888  33.317  29.327  1.00  0.00     0.010 A 
ATOM     43  C   UNL A   1      46.770  33.585  26.930  1.00  0.00     0.010 A 
ATOM     44  C   UNL A   1      46.606  32.775  28.063  1.00  0.00    -0.014 A 
BRANCH  44  45
ATOM     45  C   UNL A   1      46.152  31.368  27.890  1.00  0.00     0.031 A 
ATOM     46  C   UNL A   1      47.130  30.319  27.424  1.00  0.00     0.074 A 
ATOM     47  C   UNL A   1      44.852  31.049  28.059  1.00  0.00     0.049 A 
ATOM     48  N   UNL A   1      46.907  29.085  27.055  1.00  0.00    -0.248 NA
ATOM     49  C   UNL A   1      48.540  30.730  27.313  1.00  0.00     0.031 C 
ATOM     50  C   UNL A   1      43.789  31.981  28.448  1.00  0.00     0.029 A 
ATOM     51  N   UNL A   1      44.198  29.851  27.917  1.00  0.00    -0.354 N 
ATOM     52  C   UNL A   1      48.135  28.590  26.629  1.00  0.00     0.074 A 
ATOM     53  C   UNL A   1      49.087  29.674  26.731  1.00  0.00     0.031 C 
ATOM     54  C   UNL A   1      42.629  31.311  28.551  1.00  0.00     0.029 A 
ATOM     55  C   UNL A   1      42.852  29.914  28.195  1.00  0.00     0.049 A 
ATOM     56  H   UNL A   1      44.652  29.021  27.641  1.00  0.00     0.167 HD
ATOM     57  C   UNL A   1      48.453  27.337  26.221  1.00  0.00     0.037 A 
ATOM     58  C   UNL A   1      41.907  28.956  28.166  1.00  0.00     0.037 A 
ATOM     59  C   UNL A   1      47.520  26.243  26.190  1.00  0.00     0.049 A 
ATOM     60  C   UNL A   1      42.297  27.557  27.773  1.00  0.00     0.074 A 
ATOM     61  C   UNL A   1      47.749  24.923  25.842  1.00  0.00     0.029 A 
ATOM     62  N   UNL A   1      46.184  26.337  26.549  1.00  0.00    -0.354 N 
ATOM     63  N   UNL A   1      43.469  27.104  27.396  1.00  0.00    -0.248 NA
ATOM     64  C   UNL A   1      41.240  26.537  27.807  1.00  0.00     0.031 C 
ATOM     65  C   UNL A   1      46.546  24.221  25.982  1.00  0.00     0.029 A 
ATOM     66  C   UNL A   1      45.578  25.097  26.444  1.00  0.00     0.049 A 
ATOM     67  H   UNL A   1      45.732  27.164  26.836  1.00  0.00     0.167 HD
ATOM     68  C   UNL A   1      43.297  25.742  27.179  1.00  0.00     0.074 A 
ATOM     69  C   UNL A   1      41.910  25.442  27.475  1.00  0.00     0.031 C 
ATOM     70  C   UNL A   1      44.203  24.819  26.771  1.00  0.00     0.037 A 
BRANCH  57  71
ATOM     71  C   UNL A   1      49.876  27.083  25.808  1.00  0.00     0.058 A 
ATOM     72  C   UNL A   1      50.274  27.169  24.463  1.00  0.00     0.135 A 
ATOM     73  C   UNL A   1      50.856  26.763  26.761  1.00  0.00     0.135 A 
ATOM     74  F   UNL A   1      49.374  27.454  23.509  1.00  0.00    -0.206 F 
ATOM     75  C   UNL A   1      51.583  26.909  24.074  1.00  0.00     0.059 A 
ATOM     76  C   UNL A   1      52.179  26.527  26.397  1.00  0.00     0.059 A 
ATOM     77  F   UNL A   1      50.532  26.669  28.060  1.00  0.00    -0.206 F 
ATOM     78  C   UNL A   1      52.528  26.586  25.048  1.00  0.00     0.060 A 
BRANCH  78  79
ATOM     79  S   UNL A   1      54.223  26.248  24.526  1.00  0.00     0.124 S 
ATOM     80  O   UNL A   1      54.164  26.587  23.107  1.00  0.00    -0.237 OA
ATOM     81  O   UNL A   1      54.997  27.161  25.362  1.00  0.00    -0.237 OA
ATOM     82  O   UNL A   1      54.394  24.831  24.827  1.00  0.00    -0.744 OA
ENDBRANCH  78  79
ENDBRANCH  57  71
BRANCH  58  83
ATOM     83  C   UNL A   1      40.508  29.268  28.563  1.00  0.00     0.058 A 
ATOM     84  C   UNL A   1      40.160  29.383  29.918  1.00  0.00     0.135 A 
ATOM     85  C   UNL A   1      39.495  29.448  27.610  1.00  0.00     0.135 A 
ATOM     86  F   UNL A   1      41.094  29.215  30.866  1.00  0.00    -0.206 F 
ATOM     87  C   UNL A   1      38.853  29.639  30.316  1.00  0.00     0.059 A 
ATOM     88  C   UNL A   1      38.183  29.728  27.983  1.00  0.00     0.059 A 
ATOM     89  F   UNL A   1      39.780  29.370  26.301  1.00  0.00    -0.206 F 
ATOM     90  C   UNL A   1      37.869  29.807  29.341  1.00  0.00     0.060 A 
BRANCH  90  91
ATOM     91  S   UNL A   1      36.178  30.167  29.865  1.00  0.00     0.124 S 
ATOM     92  O   UNL A   1      36.091  29.416  31.111  1.00  0.00    -0.237 OA
ATOM     93  O   UNL A   1      36.197  31.621  29.995  1.00  0.00    -0.237 OA
ATOM     94  O   UNL A   1      35.371  29.657  28.760  1.00  0.00    -0.744 OA
ENDBRANCH  90  91
ENDBRANCH  58  83
BRANCH  70  95
ATOM     95  C   UNL A   1      43.740  23.396  26.675  1.00  0.00     0.058 A 
ATOM     96  C   UNL A   1      43.560  22.600  27.816  1.00  0.00     0.135 A 
ATOM     97  C   UNL A   1      43.427  22.838  25.425  1.00  0.00     0.135 A 
ATOM     98  F   UNL A   1      43.852  23.088  29.032  1.00  0.00    -0.206 F 
ATOM     99  C   UNL A   1      43.105  21.289  27.720  1.00  0.00     0.059 A 
ATOM    100  C   UNL A   1      42.949  21.537  25.307  1.00  0.00     0.059 A 
ATOM    101  F   UNL A   1      43.574  23.563  24.305  1.00  0.00    -0.206 F 
ATOM    102  C   UNL A   1      42.802  20.767  26.461  1.00  0.00     0.060 A 
BRANCH 102 103
ATOM    103  S   UNL A   1      42.181  19.075  26.348  1.00  0.00     0.124 S 
ATOM    104  O   UNL A   1      42.281  18.633  27.734  1.00  0.00    -0.237 OA
ATOM    105  O   UNL A   1      40.825  19.272  25.842  1.00  0.00    -0.237 OA
ATOM    106  O   UNL A   1      43.104  18.437  25.415  1.00  0.00    -0.744 OA
ENDBRANCH 102 103
ENDBRANCH  70  95
ENDBRANCH  44  45
ENDBRANCH  36  39
ENDBRANCH  34  35
ENDBRANCH  33  34
ENDBRANCH   1  33
TORSDOF 18
ENDMDL
