MODEL 1
REMARK VINA RESULT:     -13.1      0.000      0.000
REMARK SMILES C[C@@H]1C[C@@H](C)CN(C(=O)CCn2cc(C(=O)NCCCNC(=O)c3ccc(-c4c5nc(c(-c6c(F)cc(S(=O)(=O)[O-])cc6F)c6ccc([nH]6)c(-c6c(F)cc(S(=O)(=O)[O-])cc6F)c6nc(c(-c7c(F)cc(S(=O)(=O)[O-])cc7F)c7ccc4[nH]7)C=C6)C=C5)cc3)cn2)C1
REMARK SMILES IDX 19 1 18 2 17 3 15 4 16 5 14 7 12 8 13 9 91 10 90 11 11 12
REMARK SMILES IDX 10 13 8 14 1 15 2 16 3 17 92 18 4 19 7 20 6 21 5 22 9 23
REMARK SMILES IDX 20 24 21 25 22 26 23 28 24 29 25 30 89 31 26 32 88 33 27 34
REMARK SMILES IDX 28 35 29 36 82 37 30 38 87 39 81 40 83 41 31 42 86 43 80 44
REMARK SMILES IDX 79 45 32 47 66 48 45 49 65 50 46 51 49 52 64 53 84 54 47 55
REMARK SMILES IDX 48 56 63 58 85 59 50 60 33 61 34 62 43 63 35 64 36 65 42 66
REMARK SMILES IDX 44 67 37 68 38 69 39 70 40 71 41 72 67 73 68 74 77 75 69 76
REMARK SMILES IDX 70 77 76 78 78 79 71 80 72 81 73 82 74 83 75 84 51 85 52 86
REMARK SMILES IDX 61 87 53 88 54 89 60 90 62 91 55 92 56 93 57 94 58 95 59 96
REMARK H PARENT 17 6 21 27 83 46 49 57
REMARK Flexibility Score: inf
ROOT
ATOM      1  C   UNL A   1      36.582  22.403  24.837  1.00  0.00     0.042 C 
ENDROOT
BRANCH   1   2
ATOM      2  C   UNL A   1      35.874  21.474  25.829  1.00  0.00     0.118 C 
BRANCH   2   3
ATOM      3  N   UNL A   1      35.482  20.232  25.187  1.00  0.00    -0.352 N 
ATOM      4  C   UNL A   1      34.261  19.775  24.748  1.00  0.00     0.254 C 
ATOM      5  O   UNL A   1      34.203  18.622  24.337  1.00  0.00    -0.269 OA
ATOM      6  H   UNL A   1      36.225  19.602  25.040  1.00  0.00     0.163 HD
BRANCH   4   7
ATOM      7  C   UNL A   1      33.120  20.668  24.643  1.00  0.00     0.077 A 
ATOM      8  N   UNL A   1      31.589  22.168  25.084  1.00  0.00    -0.271 N 
ATOM      9  C   UNL A   1      32.116  20.989  25.533  1.00  0.00     0.122 A 
ATOM     10  N   UNL A   1      31.900  22.427  23.808  1.00  0.00    -0.181 NA
ATOM     11  C   UNL A   1      32.832  21.505  23.533  1.00  0.00     0.149 A 
BRANCH   8  12
ATOM     12  C   UNL A   1      30.901  23.150  25.904  1.00  0.00     0.154 C 
BRANCH  12  13
ATOM     13  C   UNL A   1      31.812  24.308  26.319  1.00  0.00     0.124 C 
BRANCH  13  14
ATOM     14  C   UNL A   1      31.198  25.655  26.006  1.00  0.00     0.224 C 
ATOM     15  C   UNL A   1      28.958  26.976  23.628  1.00  0.00     0.009 C 
ATOM     16  C   UNL A   1      30.241  27.801  23.474  1.00  0.00     0.006 C 
ATOM     17  C   UNL A   1      31.070  27.355  22.260  1.00  0.00     0.010 C 
ATOM     18  C   UNL A   1      31.102  27.739  24.738  1.00  0.00     0.122 C 
ATOM     19  C   UNL A   1      31.779  26.006  22.481  1.00  0.00     0.006 C 
ATOM     20  N   UNL A   1      31.645  26.398  24.928  1.00  0.00    -0.342 N 
ATOM     21  C   UNL A   1      32.522  25.965  23.834  1.00  0.00     0.122 C 
ATOM     22  C   UNL A   1      32.712  25.697  21.303  1.00  0.00     0.009 C 
ATOM     23  O   UNL A   1      30.323  26.075  26.771  1.00  0.00    -0.275 OA
ENDBRANCH  13  14
ENDBRANCH  12  13
ENDBRANCH   8  12
ENDBRANCH   4   7
ENDBRANCH   2   3
ENDBRANCH   1   2
BRANCH   1  24
ATOM     24  C   UNL A   1      37.770  23.103  25.476  1.00  0.00     0.118 C 
BRANCH  24  25
ATOM     25  N   UNL A   1      38.575  22.178  26.272  1.00  0.00    -0.352 N 
ATOM     26  C   UNL A   1      39.736  22.444  26.973  1.00  0.00     0.251 C 
ATOM     27  H   UNL A   1      38.249  21.249  26.313  1.00  0.00     0.163 HD
ATOM     28  O   UNL A   1      40.505  21.544  27.258  1.00  0.00    -0.269 OA
BRANCH  26  29
ATOM     29  C   UNL A   1      40.018  23.839  27.358  1.00  0.00     0.039 A 
ATOM     30  C   UNL A   1      39.031  24.823  27.259  1.00  0.00     0.014 A 
ATOM     31  C   UNL A   1      41.280  24.138  27.861  1.00  0.00     0.014 A 
ATOM     32  C   UNL A   1      39.304  26.098  27.749  1.00  0.00     0.010 A 
ATOM     33  C   UNL A   1      41.495  25.347  28.476  1.00  0.00     0.010 A 
ATOM     34  C   UNL A   1      40.533  26.348  28.377  1.00  0.00    -0.014 A 
BRANCH  34  35
ATOM     35  C   UNL A   1      40.792  27.633  29.023  1.00  0.00     0.031 A 
ATOM     36  C   UNL A   1      41.923  28.413  28.449  1.00  0.00     0.074 A 
ATOM     37  C   UNL A   1      39.942  28.190  29.912  1.00  0.00     0.049 A 
ATOM     38  N   UNL A   1      43.067  28.671  28.991  1.00  0.00    -0.248 NA
ATOM     39  C   UNL A   1      41.821  28.846  27.047  1.00  0.00     0.031 C 
ATOM     40  C   UNL A   1      38.626  27.693  30.336  1.00  0.00     0.029 A 
ATOM     41  N   UNL A   1      40.029  29.390  30.549  1.00  0.00    -0.354 N 
ATOM     42  C   UNL A   1      43.736  29.503  28.094  1.00  0.00     0.074 A 
ATOM     43  C   UNL A   1      43.018  29.403  26.850  1.00  0.00     0.031 C 
ATOM     44  C   UNL A   1      37.950  28.676  30.965  1.00  0.00     0.029 A 
ATOM     45  C   UNL A   1      38.848  29.796  31.159  1.00  0.00     0.049 A 
ATOM     46  H   UNL A   1      40.856  29.924  30.577  1.00  0.00     0.167 HD
ATOM     47  C   UNL A   1      44.664  30.404  28.521  1.00  0.00     0.037 A 
ATOM     48  C   UNL A   1      38.615  30.972  31.787  1.00  0.00     0.037 A 
ATOM     49  C   UNL A   1      45.045  30.140  29.887  1.00  0.00     0.049 A 
ATOM     50  C   UNL A   1      39.932  31.512  32.194  1.00  0.00     0.074 A 
ATOM     51  C   UNL A   1      45.694  29.123  30.553  1.00  0.00     0.029 A 
ATOM     52  N   UNL A   1      44.387  30.881  30.837  1.00  0.00    -0.354 N 
ATOM     53  N   UNL A   1      40.716  30.930  33.063  1.00  0.00    -0.248 NA
ATOM     54  C   UNL A   1      40.573  32.516  31.358  1.00  0.00     0.031 C 
ATOM     55  C   UNL A   1      45.102  29.079  31.850  1.00  0.00     0.029 A 
ATOM     56  C   UNL A   1      44.149  30.096  31.936  1.00  0.00     0.049 A 
ATOM     57  H   UNL A   1      44.127  31.826  30.744  1.00  0.00     0.167 HD
ATOM     58  C   UNL A   1      41.998  31.176  32.600  1.00  0.00     0.074 A 
ATOM     59  C   UNL A   1      41.853  32.278  31.658  1.00  0.00     0.031 C 
ATOM     60  C   UNL A   1      43.002  30.273  32.806  1.00  0.00     0.037 A 
BRANCH  47  61
ATOM     61  C   UNL A   1      44.924  31.758  27.887  1.00  0.00     0.058 A 
ATOM     62  C   UNL A   1      46.193  32.022  27.324  1.00  0.00     0.135 A 
ATOM     63  C   UNL A   1      44.099  32.890  28.069  1.00  0.00     0.135 A 
ATOM     64  F   UNL A   1      47.066  31.025  27.105  1.00  0.00    -0.206 F 
ATOM     65  C   UNL A   1      46.636  33.317  27.043  1.00  0.00     0.059 A 
ATOM     66  C   UNL A   1      44.500  34.182  27.744  1.00  0.00     0.059 A 
ATOM     67  F   UNL A   1      42.905  32.818  28.666  1.00  0.00    -0.206 F 
ATOM     68  C   UNL A   1      45.786  34.393  27.275  1.00  0.00     0.060 A 
BRANCH  68  69
ATOM     69  S   UNL A   1      46.387  36.073  27.026  1.00  0.00     0.124 S 
ATOM     70  O   UNL A   1      47.625  36.054  27.798  1.00  0.00    -0.237 OA
ATOM     71  O   UNL A   1      46.537  36.131  25.577  1.00  0.00    -0.237 OA
ATOM     72  O   UNL A   1      45.314  36.897  27.574  1.00  0.00    -0.744 OA
ENDBRANCH  68  69
ENDBRANCH  47  61
BRANCH  48  73
ATOM     73  C   UNL A   1      37.356  31.754  31.832  1.00  0.00     0.058 A 
ATOM     74  C   UNL A   1      36.719  32.051  33.047  1.00  0.00     0.135 A 
ATOM     75  C   UNL A   1      36.900  32.458  30.697  1.00  0.00     0.135 A 
ATOM     76  F   UNL A   1      37.105  31.439  34.177  1.00  0.00    -0.206 F 
ATOM     77  C   UNL A   1      35.722  33.027  33.145  1.00  0.00     0.059 A 
ATOM     78  C   UNL A   1      35.903  33.430  30.769  1.00  0.00     0.059 A 
ATOM     79  F   UNL A   1      37.478  32.282  29.499  1.00  0.00    -0.206 F 
ATOM     80  C   UNL A   1      35.335  33.728  32.001  1.00  0.00     0.060 A 
BRANCH  80  81
ATOM     81  S   UNL A   1      34.176  35.106  32.158  1.00  0.00     0.124 S 
ATOM     82  O   UNL A   1      33.959  35.477  30.764  1.00  0.00    -0.237 OA
ATOM     83  O   UNL A   1      33.044  34.482  32.836  1.00  0.00    -0.237 OA
ATOM     84  O   UNL A   1      34.914  36.082  32.955  1.00  0.00    -0.744 OA
ENDBRANCH  80  81
ENDBRANCH  48  73
BRANCH  60  85
ATOM     85  C   UNL A   1      42.811  29.250  33.897  1.00  0.00     0.058 A 
ATOM     86  C   UNL A   1      42.956  29.508  35.271  1.00  0.00     0.135 A 
ATOM     87  C   UNL A   1      42.327  27.985  33.532  1.00  0.00     0.135 A 
ATOM     88  F   UNL A   1      43.328  30.718  35.710  1.00  0.00    -0.206 F 
ATOM     89  C   UNL A   1      42.659  28.544  36.237  1.00  0.00     0.059 A 
ATOM     90  C   UNL A   1      41.996  27.018  34.478  1.00  0.00     0.059 A 
ATOM     91  F   UNL A   1      42.117  27.695  32.237  1.00  0.00    -0.206 F 
ATOM     92  C   UNL A   1      42.173  27.302  35.830  1.00  0.00     0.060 A 
BRANCH  92  93
ATOM     93  S   UNL A   1      41.697  26.090  37.082  1.00  0.00     0.124 S 
ATOM     94  O   UNL A   1      41.487  24.888  36.284  1.00  0.00    -0.237 OA
ATOM     95  O   UNL A   1      42.860  26.070  37.965  1.00  0.00    -0.237 OA
ATOM     96  O   UNL A   1      40.490  26.667  37.671  1.00  0.00    -0.744 OA
ENDBRANCH  92  93
ENDBRANCH  60  85
ENDBRANCH  34  35
ENDBRANCH  26  29
ENDBRANCH  24  25
ENDBRANCH   1  24
TORSDOF 16
ENDMDL
MODEL 2
REMARK VINA RESULT:     -12.8      0.952      1.591
REMARK SMILES C[C@@H]1C[C@@H](C)CN(C(=O)CCn2cc(C(=O)NCCCNC(=O)c3ccc(-c4c5nc(c(-c6c(F)cc(S(=O)(=O)[O-])cc6F)c6ccc([nH]6)c(-c6c(F)cc(S(=O)(=O)[O-])cc6F)c6nc(c(-c7c(F)cc(S(=O)(=O)[O-])cc7F)c7ccc4[nH]7)C=C6)C=C5)cc3)cn2)C1
REMARK SMILES IDX 19 1 18 2 17 3 15 4 16 5 14 7 12 8 13 9 91 10 90 11 11 12
REMARK SMILES IDX 10 13 8 14 1 15 2 16 3 17 92 18 4 19 7 20 6 21 5 22 9 23
REMARK SMILES IDX 20 24 21 25 22 26 23 28 24 29 25 30 89 31 26 32 88 33 27 34
REMARK SMILES IDX 28 35 29 36 82 37 30 38 87 39 81 40 83 41 31 42 86 43 80 44
REMARK SMILES IDX 79 45 32 47 66 48 45 49 65 50 46 51 49 52 64 53 84 54 47 55
REMARK SMILES IDX 48 56 63 58 85 59 50 60 33 61 34 62 43 63 35 64 36 65 42 66
REMARK SMILES IDX 44 67 37 68 38 69 39 70 40 71 41 72 67 73 68 74 77 75 69 76
REMARK SMILES IDX 70 77 76 78 78 79 71 80 72 81 73 82 74 83 75 84 51 85 52 86
REMARK SMILES IDX 61 87 53 88 54 89 60 90 62 91 55 92 56 93 57 94 58 95 59 96
REMARK H PARENT 17 6 21 27 83 46 49 57
REMARK Flexibility Score: inf
ROOT
ATOM      1  C   UNL A   1      37.023  21.970  24.820  1.00  0.00     0.042 C 
ENDROOT
BRANCH   1   2
ATOM      2  C   UNL A   1      36.130  21.243  25.830  1.00  0.00     0.118 C 
BRANCH   2   3
ATOM      3  N   UNL A   1      35.368  20.189  25.184  1.00  0.00    -0.352 N 
ATOM      4  C   UNL A   1      34.063  20.135  24.754  1.00  0.00     0.254 C 
ATOM      5  O   UNL A   1      33.649  19.060  24.337  1.00  0.00    -0.269 OA
ATOM      6  H   UNL A   1      35.879  19.362  25.026  1.00  0.00     0.163 HD
BRANCH   4   7
ATOM      7  C   UNL A   1      33.252  21.338  24.666  1.00  0.00     0.077 A 
ATOM      8  N   UNL A   1      32.110  23.039  23.899  1.00  0.00    -0.271 N 
ATOM      9  C   UNL A   1      33.346  22.455  23.862  1.00  0.00     0.122 A 
ATOM     10  N   UNL A   1      31.366  22.622  24.931  1.00  0.00    -0.181 NA
ATOM     11  C   UNL A   1      32.066  21.585  25.407  1.00  0.00     0.149 A 
BRANCH   8  12
ATOM     12  C   UNL A   1      31.553  23.899  22.869  1.00  0.00     0.154 C 
BRANCH  12  13
ATOM     13  C   UNL A   1      30.669  25.006  23.446  1.00  0.00     0.124 C 
BRANCH  13  14
ATOM     14  C   UNL A   1      31.105  26.380  22.986  1.00  0.00     0.224 C 
ATOM     15  C   UNL A   1      33.919  28.461  23.397  1.00  0.00     0.009 C 
ATOM     16  C   UNL A   1      32.733  29.282  23.914  1.00  0.00     0.006 C 
ATOM     17  C   UNL A   1      32.662  29.287  25.449  1.00  0.00     0.010 C 
ATOM     18  C   UNL A   1      31.408  28.777  23.338  1.00  0.00     0.122 C 
ATOM     19  C   UNL A   1      32.186  27.943  26.032  1.00  0.00     0.006 C 
ATOM     20  N   UNL A   1      31.089  27.453  23.861  1.00  0.00    -0.342 N 
ATOM     21  C   UNL A   1      30.919  27.427  25.317  1.00  0.00     0.122 C 
ATOM     22  C   UNL A   1      31.984  28.063  27.548  1.00  0.00     0.009 C 
ATOM     23  O   UNL A   1      31.431  26.509  21.801  1.00  0.00    -0.275 OA
ENDBRANCH  13  14
ENDBRANCH  12  13
ENDBRANCH   8  12
ENDBRANCH   4   7
ENDBRANCH   2   3
ENDBRANCH   1   2
BRANCH   1  24
ATOM     24  C   UNL A   1      38.152  22.719  25.509  1.00  0.00     0.118 C 
BRANCH  24  25
ATOM     25  N   UNL A   1      38.912  21.844  26.401  1.00  0.00    -0.352 N 
ATOM     26  C   UNL A   1      40.014  22.162  27.172  1.00  0.00     0.251 C 
ATOM     27  H   UNL A   1      38.600  20.911  26.458  1.00  0.00     0.163 HD
ATOM     28  O   UNL A   1      40.776  21.290  27.550  1.00  0.00    -0.269 OA
BRANCH  26  29
ATOM     29  C   UNL A   1      40.244  23.577  27.515  1.00  0.00     0.039 A 
ATOM     30  C   UNL A   1      39.184  24.486  27.556  1.00  0.00     0.014 A 
ATOM     31  C   UNL A   1      41.539  23.972  27.838  1.00  0.00     0.014 A 
ATOM     32  C   UNL A   1      39.429  25.782  28.005  1.00  0.00     0.010 A 
ATOM     33  C   UNL A   1      41.748  25.198  28.419  1.00  0.00     0.010 A 
ATOM     34  C   UNL A   1      40.711  26.126  28.456  1.00  0.00    -0.014 A 
BRANCH  34  35
ATOM     35  C   UNL A   1      40.963  27.432  29.060  1.00  0.00     0.031 A 
ATOM     36  C   UNL A   1      42.079  28.207  28.453  1.00  0.00     0.074 A 
ATOM     37  C   UNL A   1      40.115  28.007  29.941  1.00  0.00     0.049 A 
ATOM     38  N   UNL A   1      43.226  28.492  28.975  1.00  0.00    -0.248 NA
ATOM     39  C   UNL A   1      41.959  28.597  27.039  1.00  0.00     0.031 C 
ATOM     40  C   UNL A   1      38.810  27.508  30.394  1.00  0.00     0.029 A 
ATOM     41  N   UNL A   1      40.196  29.226  30.542  1.00  0.00    -0.354 N 
ATOM     42  C   UNL A   1      43.877  29.304  28.047  1.00  0.00     0.074 A 
ATOM     43  C   UNL A   1      43.147  29.161  26.814  1.00  0.00     0.031 C 
ATOM     44  C   UNL A   1      38.129  28.502  31.000  1.00  0.00     0.029 A 
ATOM     45  C   UNL A   1      39.017  29.637  31.151  1.00  0.00     0.049 A 
ATOM     46  H   UNL A   1      41.017  29.768  30.546  1.00  0.00     0.167 HD
ATOM     47  C   UNL A   1      44.800  30.228  28.438  1.00  0.00     0.037 A 
ATOM     48  C   UNL A   1      38.777  30.829  31.747  1.00  0.00     0.037 A 
ATOM     49  C   UNL A   1      45.196  30.008  29.807  1.00  0.00     0.049 A 
ATOM     50  C   UNL A   1      40.093  31.394  32.125  1.00  0.00     0.074 A 
ATOM     51  C   UNL A   1      45.863  29.018  30.496  1.00  0.00     0.029 A 
ATOM     52  N   UNL A   1      44.540  30.770  30.742  1.00  0.00    -0.354 N 
ATOM     53  N   UNL A   1      40.891  30.847  33.002  1.00  0.00    -0.248 NA
ATOM     54  C   UNL A   1      40.714  32.380  31.253  1.00  0.00     0.031 C 
ATOM     55  C   UNL A   1      45.285  29.006  31.800  1.00  0.00     0.029 A 
ATOM     56  C   UNL A   1      44.322  30.016  31.866  1.00  0.00     0.049 A 
ATOM     57  H   UNL A   1      44.269  31.709  30.624  1.00  0.00     0.167 HD
ATOM     58  C   UNL A   1      42.166  31.092  32.520  1.00  0.00     0.074 A 
ATOM     59  C   UNL A   1      41.999  32.164  31.547  1.00  0.00     0.031 C 
ATOM     60  C   UNL A   1      43.182  30.206  32.742  1.00  0.00     0.037 A 
BRANCH  47  61
ATOM     61  C   UNL A   1      45.039  31.565  27.761  1.00  0.00     0.058 A 
ATOM     62  C   UNL A   1      46.263  31.789  27.093  1.00  0.00     0.135 A 
ATOM     63  C   UNL A   1      44.258  32.720  27.990  1.00  0.00     0.135 A 
ATOM     64  F   UNL A   1      47.092  30.768  26.822  1.00  0.00    -0.206 F 
ATOM     65  C   UNL A   1      46.712  33.068  26.755  1.00  0.00     0.059 A 
ATOM     66  C   UNL A   1      44.661  33.996  27.612  1.00  0.00     0.059 A 
ATOM     67  F   UNL A   1      43.115  32.686  28.684  1.00  0.00    -0.206 F 
ATOM     68  C   UNL A   1      45.909  34.168  27.037  1.00  0.00     0.060 A 
BRANCH  68  69
ATOM     69  S   UNL A   1      46.527  35.829  26.711  1.00  0.00     0.124 S 
ATOM     70  O   UNL A   1      47.364  35.600  25.538  1.00  0.00    -0.237 OA
ATOM     71  O   UNL A   1      45.294  36.573  26.483  1.00  0.00    -0.237 OA
ATOM     72  O   UNL A   1      47.240  36.167  27.939  1.00  0.00    -0.744 OA
ENDBRANCH  68  69
ENDBRANCH  47  61
BRANCH  48  73
ATOM     73  C   UNL A   1      37.510  31.598  31.782  1.00  0.00     0.058 A 
ATOM     74  C   UNL A   1      36.828  31.836  32.986  1.00  0.00     0.135 A 
ATOM     75  C   UNL A   1      37.088  32.348  30.664  1.00  0.00     0.135 A 
ATOM     76  F   UNL A   1      37.179  31.177  34.100  1.00  0.00    -0.206 F 
ATOM     77  C   UNL A   1      35.820  32.798  33.091  1.00  0.00     0.059 A 
ATOM     78  C   UNL A   1      36.080  33.309  30.743  1.00  0.00     0.059 A 
ATOM     79  F   UNL A   1      37.709  32.231  29.480  1.00  0.00    -0.206 F 
ATOM     80  C   UNL A   1      35.467  33.547  31.967  1.00  0.00     0.060 A 
BRANCH  80  81
ATOM     81  S   UNL A   1      34.290  34.908  32.143  1.00  0.00     0.124 S 
ATOM     82  O   UNL A   1      33.997  35.235  30.752  1.00  0.00    -0.237 OA
ATOM     83  O   UNL A   1      33.206  34.284  32.894  1.00  0.00    -0.237 OA
ATOM     84  O   UNL A   1      35.048  35.920  32.874  1.00  0.00    -0.744 OA
ENDBRANCH  80  81
ENDBRANCH  48  73
BRANCH  60  85
ATOM     85  C   UNL A   1      43.013  29.214  33.864  1.00  0.00     0.058 A 
ATOM     86  C   UNL A   1      43.203  29.505  35.226  1.00  0.00     0.135 A 
ATOM     87  C   UNL A   1      42.501  27.947  33.548  1.00  0.00     0.135 A 
ATOM     88  F   UNL A   1      43.604  30.720  35.622  1.00  0.00    -0.206 F 
ATOM     89  C   UNL A   1      42.925  28.570  36.225  1.00  0.00     0.059 A 
ATOM     90  C   UNL A   1      42.189  27.008  34.528  1.00  0.00     0.059 A 
ATOM     91  F   UNL A   1      42.247  27.626  32.268  1.00  0.00    -0.206 F 
ATOM     92  C   UNL A   1      42.412  27.324  35.866  1.00  0.00     0.060 A 
BRANCH  92  93
ATOM     93  S   UNL A   1      41.960  26.151  37.163  1.00  0.00     0.124 S 
ATOM     94  O   UNL A   1      40.657  26.649  37.589  1.00  0.00    -0.237 OA
ATOM     95  O   UNL A   1      41.950  24.876  36.451  1.00  0.00    -0.237 OA
ATOM     96  O   UNL A   1      43.035  26.298  38.143  1.00  0.00    -0.744 OA
ENDBRANCH  92  93
ENDBRANCH  60  85
ENDBRANCH  34  35
ENDBRANCH  26  29
ENDBRANCH  24  25
ENDBRANCH   1  24
TORSDOF 16
ENDMDL
MODEL 3
REMARK VINA RESULT:     -12.7      1.514      2.368
REMARK SMILES C[C@@H]1C[C@@H](C)CN(C(=O)CCn2cc(C(=O)NCCCNC(=O)c3ccc(-c4c5nc(c(-c6c(F)cc(S(=O)(=O)[O-])cc6F)c6ccc([nH]6)c(-c6c(F)cc(S(=O)(=O)[O-])cc6F)c6nc(c(-c7c(F)cc(S(=O)(=O)[O-])cc7F)c7ccc4[nH]7)C=C6)C=C5)cc3)cn2)C1
REMARK SMILES IDX 19 1 18 2 17 3 15 4 16 5 14 7 12 8 13 9 91 10 90 11 11 12
REMARK SMILES IDX 10 13 8 14 1 15 2 16 3 17 92 18 4 19 7 20 6 21 5 22 9 23
REMARK SMILES IDX 20 24 21 25 22 26 23 28 24 29 25 30 89 31 26 32 88 33 27 34
REMARK SMILES IDX 28 35 29 36 82 37 30 38 87 39 81 40 83 41 31 42 86 43 80 44
REMARK SMILES IDX 79 45 32 47 66 48 45 49 65 50 46 51 49 52 64 53 84 54 47 55
REMARK SMILES IDX 48 56 63 58 85 59 50 60 33 61 34 62 43 63 35 64 36 65 42 66
REMARK SMILES IDX 44 67 37 68 38 69 39 70 40 71 41 72 67 73 68 74 77 75 69 76
REMARK SMILES IDX 70 77 76 78 78 79 71 80 72 81 73 82 74 83 75 84 51 85 52 86
REMARK SMILES IDX 61 87 53 88 54 89 60 90 62 91 55 92 56 93 57 94 58 95 59 96
REMARK H PARENT 17 6 21 27 83 46 49 57
REMARK Flexibility Score: inf
ROOT
ATOM      1  C   UNL A   1      39.227  22.232  26.249  1.00  0.00     0.042 C 
ENDROOT
BRANCH   1   2
ATOM      2  C   UNL A   1      38.187  21.434  25.458  1.00  0.00     0.118 C 
BRANCH   2   3
ATOM      3  N   UNL A   1      37.664  22.216  24.351  1.00  0.00    -0.352 N 
ATOM      4  C   UNL A   1      36.391  22.354  23.850  1.00  0.00     0.254 C 
ATOM      5  O   UNL A   1      36.256  23.006  22.820  1.00  0.00    -0.269 OA
ATOM      6  H   UNL A   1      38.345  22.741  23.872  1.00  0.00     0.163 HD
BRANCH   4   7
ATOM      7  C   UNL A   1      35.237  21.870  24.588  1.00  0.00     0.077 A 
ATOM      8  N   UNL A   1      33.194  21.554  25.307  1.00  0.00    -0.271 N 
ATOM      9  C   UNL A   1      34.143  22.521  25.120  1.00  0.00     0.122 A 
ATOM     10  N   UNL A   1      33.703  20.316  25.302  1.00  0.00    -0.181 NA
ATOM     11  C   UNL A   1      34.955  20.506  24.869  1.00  0.00     0.149 A 
BRANCH   8  12
ATOM     12  C   UNL A   1      31.760  21.778  25.347  1.00  0.00     0.154 C 
BRANCH  12  13
ATOM     13  C   UNL A   1      31.400  23.181  25.839  1.00  0.00     0.124 C 
BRANCH  13  14
ATOM     14  C   UNL A   1      30.849  24.050  24.730  1.00  0.00     0.224 C 
ATOM     15  C   UNL A   1      31.971  26.768  22.788  1.00  0.00     0.009 C 
ATOM     16  C   UNL A   1      30.695  27.265  23.474  1.00  0.00     0.006 C 
ATOM     17  C   UNL A   1      31.003  28.162  24.682  1.00  0.00     0.010 C 
ATOM     18  C   UNL A   1      29.804  26.100  23.912  1.00  0.00     0.122 C 
ATOM     19  C   UNL A   1      31.535  27.376  25.895  1.00  0.00     0.006 C 
ATOM     20  N   UNL A   1      30.433  25.344  24.990  1.00  0.00    -0.342 N 
ATOM     21  C   UNL A   1      30.662  26.139  26.201  1.00  0.00     0.122 C 
ATOM     22  C   UNL A   1      31.670  28.301  27.111  1.00  0.00     0.009 C 
ATOM     23  O   UNL A   1      30.748  23.545  23.606  1.00  0.00    -0.275 OA
ENDBRANCH  13  14
ENDBRANCH  12  13
ENDBRANCH   8  12
ENDBRANCH   4   7
ENDBRANCH   2   3
ENDBRANCH   1   2
BRANCH   1  24
ATOM     24  C   UNL A   1      40.313  21.332  26.813  1.00  0.00     0.118 C 
BRANCH  24  25
ATOM     25  N   UNL A   1      41.560  21.457  26.060  1.00  0.00    -0.352 N 
ATOM     26  C   UNL A   1      42.253  22.611  25.745  1.00  0.00     0.251 C 
ATOM     27  H   UNL A   1      41.955  20.615  25.737  1.00  0.00     0.163 HD
ATOM     28  O   UNL A   1      43.033  22.627  24.810  1.00  0.00    -0.269 OA
BRANCH  26  29
ATOM     29  C   UNL A   1      42.019  23.815  26.563  1.00  0.00     0.039 A 
ATOM     30  C   UNL A   1      42.561  23.927  27.845  1.00  0.00     0.014 A 
ATOM     31  C   UNL A   1      41.277  24.852  26.006  1.00  0.00     0.014 A 
ATOM     32  C   UNL A   1      42.417  25.131  28.531  1.00  0.00     0.010 A 
ATOM     33  C   UNL A   1      41.265  26.081  26.618  1.00  0.00     0.010 A 
ATOM     34  C   UNL A   1      41.785  26.214  27.902  1.00  0.00    -0.014 A 
BRANCH  34  35
ATOM     35  C   UNL A   1      41.743  27.526  28.542  1.00  0.00     0.031 A 
ATOM     36  C   UNL A   1      42.902  28.412  28.247  1.00  0.00     0.074 A 
ATOM     37  C   UNL A   1      40.641  28.004  29.161  1.00  0.00     0.049 A 
ATOM     38  N   UNL A   1      43.837  28.793  29.054  1.00  0.00    -0.248 NA
ATOM     39  C   UNL A   1      43.126  28.815  26.850  1.00  0.00     0.031 C 
ATOM     40  C   UNL A   1      39.315  27.377  29.253  1.00  0.00     0.029 A 
ATOM     41  N   UNL A   1      40.444  29.214  29.753  1.00  0.00    -0.354 N 
ATOM     42  C   UNL A   1      44.631  29.679  28.327  1.00  0.00     0.074 A 
ATOM     43  C   UNL A   1      44.273  29.490  26.946  1.00  0.00     0.031 C 
ATOM     44  C   UNL A   1      38.408  28.293  29.649  1.00  0.00     0.029 A 
ATOM     45  C   UNL A   1      39.112  29.503  30.023  1.00  0.00     0.049 A 
ATOM     46  H   UNL A   1      41.180  29.830  29.970  1.00  0.00     0.167 HD
ATOM     47  C   UNL A   1      45.326  30.677  28.943  1.00  0.00     0.037 A 
ATOM     48  C   UNL A   1      38.611  30.656  30.524  1.00  0.00     0.037 A 
ATOM     49  C   UNL A   1      45.363  30.470  30.369  1.00  0.00     0.049 A 
ATOM     50  C   UNL A   1      39.720  31.334  31.234  1.00  0.00     0.074 A 
ATOM     51  C   UNL A   1      45.913  29.535  31.218  1.00  0.00     0.029 A 
ATOM     52  N   UNL A   1      44.414  31.151  31.090  1.00  0.00    -0.354 N 
ATOM     53  N   UNL A   1      40.305  30.848  32.297  1.00  0.00    -0.248 NA
ATOM     54  C   UNL A   1      40.455  32.389  30.552  1.00  0.00     0.031 C 
ATOM     55  C   UNL A   1      45.013  29.445  32.321  1.00  0.00     0.029 A 
ATOM     56  C   UNL A   1      43.976  30.360  32.121  1.00  0.00     0.049 A 
ATOM     57  H   UNL A   1      44.096  32.063  30.897  1.00  0.00     0.167 HD
ATOM     58  C   UNL A   1      41.633  31.219  32.169  1.00  0.00     0.074 A 
ATOM     59  C   UNL A   1      41.630  32.289  31.179  1.00  0.00     0.031 C 
ATOM     60  C   UNL A   1      42.632  30.427  32.660  1.00  0.00     0.037 A 
BRANCH  47  61
ATOM     61  C   UNL A   1      45.609  32.042  28.344  1.00  0.00     0.058 A 
ATOM     62  C   UNL A   1      46.936  32.525  28.328  1.00  0.00     0.135 A 
ATOM     63  C   UNL A   1      44.615  33.005  28.063  1.00  0.00     0.135 A 
ATOM     64  F   UNL A   1      47.967  31.702  28.583  1.00  0.00    -0.206 F 
ATOM     65  C   UNL A   1      47.244  33.874  28.131  1.00  0.00     0.059 A 
ATOM     66  C   UNL A   1      44.903  34.343  27.809  1.00  0.00     0.059 A 
ATOM     67  F   UNL A   1      43.309  32.726  28.122  1.00  0.00    -0.206 F 
ATOM     68  C   UNL A   1      46.215  34.778  27.890  1.00  0.00     0.060 A 
BRANCH  68  69
ATOM     69  S   UNL A   1      46.589  36.535  27.749  1.00  0.00     0.124 S 
ATOM     70  O   UNL A   1      45.308  37.132  28.108  1.00  0.00    -0.237 OA
ATOM     71  O   UNL A   1      47.665  36.695  28.721  1.00  0.00    -0.237 OA
ATOM     72  O   UNL A   1      46.986  36.682  26.352  1.00  0.00    -0.744 OA
ENDBRANCH  68  69
ENDBRANCH  47  61
BRANCH  48  73
ATOM     73  C   UNL A   1      37.314  31.304  30.214  1.00  0.00     0.058 A 
ATOM     74  C   UNL A   1      36.567  31.962  31.205  1.00  0.00     0.135 A 
ATOM     75  C   UNL A   1      36.915  31.523  28.879  1.00  0.00     0.135 A 
ATOM     76  F   UNL A   1      36.891  31.821  32.498  1.00  0.00    -0.206 F 
ATOM     77  C   UNL A   1      35.517  32.829  30.889  1.00  0.00     0.059 A 
ATOM     78  C   UNL A   1      35.867  32.378  28.541  1.00  0.00     0.059 A 
ATOM     79  F   UNL A   1      37.596  30.981  27.858  1.00  0.00    -0.206 F 
ATOM     80  C   UNL A   1      35.188  33.048  29.550  1.00  0.00     0.060 A 
BRANCH  80  81
ATOM     81  S   UNL A   1      33.949  34.299  29.136  1.00  0.00     0.124 S 
ATOM     82  O   UNL A   1      34.772  35.362  28.570  1.00  0.00    -0.237 OA
ATOM     83  O   UNL A   1      33.092  33.585  28.196  1.00  0.00    -0.237 OA
ATOM     84  O   UNL A   1      33.334  34.607  30.425  1.00  0.00    -0.744 OA
ENDBRANCH  80  81
ENDBRANCH  48  73
BRANCH  60  85
ATOM     85  C   UNL A   1      42.265  29.404  33.705  1.00  0.00     0.058 A 
ATOM     86  C   UNL A   1      41.917  28.070  33.431  1.00  0.00     0.135 A 
ATOM     87  C   UNL A   1      42.406  29.764  35.053  1.00  0.00     0.135 A 
ATOM     88  F   UNL A   1      41.847  27.620  32.172  1.00  0.00    -0.206 F 
ATOM     89  C   UNL A   1      41.693  27.143  34.452  1.00  0.00     0.059 A 
ATOM     90  C   UNL A   1      42.217  28.850  36.086  1.00  0.00     0.059 A 
ATOM     91  F   UNL A   1      42.789  31.010  35.378  1.00  0.00    -0.206 F 
ATOM     92  C   UNL A   1      41.851  27.542  35.778  1.00  0.00     0.060 A 
BRANCH  92  93
ATOM     93  S   UNL A   1      41.657  26.320  37.094  1.00  0.00     0.124 S 
ATOM     94  O   UNL A   1      40.362  26.678  37.659  1.00  0.00    -0.237 OA
ATOM     95  O   UNL A   1      41.703  25.056  36.363  1.00  0.00    -0.237 OA
ATOM     96  O   UNL A   1      42.807  26.568  37.961  1.00  0.00    -0.744 OA
ENDBRANCH  92  93
ENDBRANCH  60  85
ENDBRANCH  34  35
ENDBRANCH  26  29
ENDBRANCH  24  25
ENDBRANCH   1  24
TORSDOF 16
ENDMDL
