MODEL 1
REMARK VINA RESULT:     -12.1      0.000      0.000
REMARK SMILES CC(C)[NH2+][C@@]1(C(=O)NCCCNC(=O)c2ccc(-c3c4nc(c(-c5c(F)cc(S(=O)(=O)[O-])cc5F)c5ccc([nH]5)c(-c5c(F)cc(S(=O)(=O)[O-])cc5F)c5nc(c(-c6c(F)cc(S(=O)(=O)[O-])cc6F)c6ccc3[nH]6)C=C5)C=C4)cc2)CCC[C@@H]([NH+]2CCS(=O)CC2)C1
REMARK SMILES IDX 10 1 9 2 8 3 6 4 7 5 5 7 81 8 92 9 82 10 84 11 83 12 4 13
REMARK SMILES IDX 2 16 1 17 3 18 85 19 86 20 91 21 87 23 90 24 88 25 89 26
REMARK SMILES IDX 11 27 12 28 13 29 14 31 15 32 16 33 80 34 17 35 79 36 18 37
REMARK SMILES IDX 19 38 20 39 73 40 21 41 78 42 72 43 74 44 22 45 77 46 71 47
REMARK SMILES IDX 70 48 23 50 57 51 36 52 56 53 37 54 40 55 55 56 75 57 38 58
REMARK SMILES IDX 39 59 54 61 76 62 41 63 24 64 25 65 34 66 26 67 27 68 33 69
REMARK SMILES IDX 35 70 28 71 29 72 30 73 31 74 32 75 58 76 59 77 68 78 60 79
REMARK SMILES IDX 61 80 67 81 69 82 62 83 63 84 64 85 65 86 66 87 42 88 43 89
REMARK SMILES IDX 52 90 44 91 45 92 51 93 53 94 46 95 47 96 48 97 49 98 50 99
REMARK H PARENT 8 6 4 14 4 15 85 22 12 30 74 49 40 60
REMARK Flexibility Score: inf
ROOT
ATOM      1  C   UNL A   1      39.008  22.316  26.258  1.00  0.00     0.042 C 
ENDROOT
BRANCH   1   2
ATOM      2  C   UNL A   1      37.623  22.782  25.835  1.00  0.00     0.118 C 
BRANCH   2   3
ATOM      3  N   UNL A   1      37.426  22.798  24.409  1.00  0.00    -0.351 N 
ATOM      4  C   UNL A   1      36.348  23.046  23.618  1.00  0.00     0.281 C 
ATOM      5  O   UNL A   1      36.646  23.115  22.415  1.00  0.00    -0.268 OA
ATOM      6  H   UNL A   1      38.242  22.584  23.900  1.00  0.00     0.163 HD
BRANCH   4   7
ATOM      7  C   UNL A   1      34.826  23.150  24.119  1.00  0.00     0.181 C 
ATOM      8  C   UNL A   1      33.718  22.865  23.086  1.00  0.00     0.079 C 
ATOM      9  C   UNL A   1      34.645  24.510  24.848  1.00  0.00     0.144 C 
ATOM     10  C   UNL A   1      33.022  24.015  22.369  1.00  0.00     0.013 C 
ATOM     11  C   UNL A   1      34.072  25.679  24.034  1.00  0.00     0.190 C 
ATOM     12  C   UNL A   1      32.839  25.261  23.218  1.00  0.00     0.065 C 
BRANCH   7  13
ATOM     13  N   UNL A   1      34.674  22.143  25.243  1.00  0.00    -0.331 N 
ATOM     14  H   UNL A   1      34.875  21.225  24.847  1.00  0.00     0.347 HD
ATOM     15  H   UNL A   1      35.311  22.494  25.960  1.00  0.00     0.347 HD
BRANCH  13  16
ATOM     16  C   UNL A   1      33.394  22.027  25.956  1.00  0.00     0.176 C 
ATOM     17  C   UNL A   1      32.861  20.618  25.661  1.00  0.00     0.075 C 
ATOM     18  C   UNL A   1      33.526  22.167  27.478  1.00  0.00     0.075 C 
ENDBRANCH  13  16
ENDBRANCH   7  13
BRANCH  11  19
ATOM     19  N   UNL A   1      33.859  26.944  24.768  1.00  0.00    -0.331 N 
ATOM     20  C   UNL A   1      33.871  28.220  24.051  1.00  0.00     0.276 C 
ATOM     21  C   UNL A   1      32.846  26.952  25.833  1.00  0.00     0.276 C 
ATOM     22  H   UNL A   1      34.776  26.905  25.213  1.00  0.00     0.348 HD
ATOM     23  C   UNL A   1      32.584  28.544  23.312  1.00  0.00     0.166 C 
ATOM     24  C   UNL A   1      31.403  27.233  25.410  1.00  0.00     0.166 C 
ATOM     25  S   UNL A   1      31.177  28.743  24.434  1.00  0.00     0.032 S 
ATOM     26  O   UNL A   1      31.438  29.928  25.312  1.00  0.00    -0.259 OA
ENDBRANCH  11  19
ENDBRANCH   4   7
ENDBRANCH   2   3
ENDBRANCH   1   2
BRANCH   1  27
ATOM     27  C   UNL A   1      39.829  23.387  26.948  1.00  0.00     0.118 C 
BRANCH  27  28
ATOM     28  N   UNL A   1      40.845  23.956  26.069  1.00  0.00    -0.352 N 
ATOM     29  C   UNL A   1      41.397  25.211  26.033  1.00  0.00     0.251 C 
ATOM     30  H   UNL A   1      41.193  23.335  25.388  1.00  0.00     0.163 HD
ATOM     31  O   UNL A   1      42.080  25.534  25.057  1.00  0.00    -0.269 OA
BRANCH  29  32
ATOM     32  C   UNL A   1      41.174  26.175  27.132  1.00  0.00     0.039 A 
ATOM     33  C   UNL A   1      40.202  25.902  28.098  1.00  0.00     0.014 A 
ATOM     34  C   UNL A   1      41.901  27.364  27.202  1.00  0.00     0.014 A 
ATOM     35  C   UNL A   1      40.009  26.790  29.160  1.00  0.00     0.010 A 
ATOM     36  C   UNL A   1      41.802  28.176  28.324  1.00  0.00     0.010 A 
ATOM     37  C   UNL A   1      40.835  27.916  29.302  1.00  0.00    -0.014 A 
BRANCH  37  38
ATOM     38  C   UNL A   1      40.680  28.865  30.433  1.00  0.00     0.031 A 
ATOM     39  C   UNL A   1      41.554  28.719  31.654  1.00  0.00     0.074 A 
ATOM     40  C   UNL A   1      39.714  29.805  30.392  1.00  0.00     0.049 A 
ATOM     41  N   UNL A   1      41.514  29.378  32.783  1.00  0.00    -0.248 NA
ATOM     42  C   UNL A   1      42.585  27.665  31.619  1.00  0.00     0.031 C 
ATOM     43  C   UNL A   1      38.767  30.003  29.291  1.00  0.00     0.029 A 
ATOM     44  N   UNL A   1      39.360  30.767  31.305  1.00  0.00    -0.354 N 
ATOM     45  C   UNL A   1      42.488  28.804  33.591  1.00  0.00     0.074 A 
ATOM     46  C   UNL A   1      43.061  27.702  32.854  1.00  0.00     0.031 C 
ATOM     47  C   UNL A   1      37.963  31.038  29.579  1.00  0.00     0.029 A 
ATOM     48  C   UNL A   1      38.303  31.550  30.902  1.00  0.00     0.049 A 
ATOM     49  H   UNL A   1      39.819  30.885  32.168  1.00  0.00     0.167 HD
ATOM     50  C   UNL A   1      42.893  29.181  34.826  1.00  0.00     0.037 A 
ATOM     51  C   UNL A   1      37.676  32.561  31.532  1.00  0.00     0.037 A 
ATOM     52  C   UNL A   1      42.352  30.313  35.530  1.00  0.00     0.049 A 
ATOM     53  C   UNL A   1      38.160  32.973  32.899  1.00  0.00     0.074 A 
ATOM     54  C   UNL A   1      42.742  30.831  36.753  1.00  0.00     0.029 A 
ATOM     55  N   UNL A   1      41.311  31.106  35.071  1.00  0.00    -0.354 N 
ATOM     56  N   UNL A   1      39.134  32.466  33.617  1.00  0.00    -0.248 NA
ATOM     57  C   UNL A   1      37.465  34.100  33.538  1.00  0.00     0.031 C 
ATOM     58  C   UNL A   1      41.903  31.907  37.056  1.00  0.00     0.029 A 
ATOM     59  C   UNL A   1      41.030  32.096  35.997  1.00  0.00     0.049 A 
ATOM     60  H   UNL A   1      40.841  30.982  34.215  1.00  0.00     0.167 HD
ATOM     61  C   UNL A   1      39.189  33.230  34.776  1.00  0.00     0.074 A 
ATOM     62  C   UNL A   1      38.162  34.245  34.657  1.00  0.00     0.031 C 
ATOM     63  C   UNL A   1      40.014  33.107  35.846  1.00  0.00     0.037 A 
BRANCH  50  64
ATOM     64  C   UNL A   1      43.981  28.384  35.492  1.00  0.00     0.058 A 
ATOM     65  C   UNL A   1      43.692  27.307  36.347  1.00  0.00     0.135 A 
ATOM     66  C   UNL A   1      45.333  28.657  35.223  1.00  0.00     0.135 A 
ATOM     67  F   UNL A   1      42.419  27.013  36.657  1.00  0.00    -0.206 F 
ATOM     68  C   UNL A   1      44.700  26.541  36.921  1.00  0.00     0.059 A 
ATOM     69  C   UNL A   1      46.358  27.884  35.761  1.00  0.00     0.059 A 
ATOM     70  F   UNL A   1      45.668  29.679  34.419  1.00  0.00    -0.206 F 
ATOM     71  C   UNL A   1      46.030  26.832  36.615  1.00  0.00     0.060 A 
BRANCH  71  72
ATOM     72  S   UNL A   1      47.323  25.798  37.334  1.00  0.00     0.124 S 
ATOM     73  O   UNL A   1      46.852  24.460  36.990  1.00  0.00    -0.237 OA
ATOM     74  O   UNL A   1      48.514  26.252  36.622  1.00  0.00    -0.237 OA
ATOM     75  O   UNL A   1      47.279  26.132  38.754  1.00  0.00    -0.744 OA
ENDBRANCH  71  72
ENDBRANCH  50  64
BRANCH  51  76
ATOM     76  C   UNL A   1      36.537  33.266  30.882  1.00  0.00     0.058 A 
ATOM     77  C   UNL A   1      36.745  34.133  29.798  1.00  0.00     0.135 A 
ATOM     78  C   UNL A   1      35.220  33.102  31.340  1.00  0.00     0.135 A 
ATOM     79  F   UNL A   1      37.985  34.325  29.324  1.00  0.00    -0.206 F 
ATOM     80  C   UNL A   1      35.698  34.839  29.216  1.00  0.00     0.059 A 
ATOM     81  C   UNL A   1      34.151  33.773  30.753  1.00  0.00     0.059 A 
ATOM     82  F   UNL A   1      34.960  32.269  32.360  1.00  0.00    -0.206 F 
ATOM     83  C   UNL A   1      34.403  34.655  29.703  1.00  0.00     0.060 A 
BRANCH  83  84
ATOM     84  S   UNL A   1      33.050  35.568  28.931  1.00  0.00     0.124 S 
ATOM     85  O   UNL A   1      33.771  36.631  28.241  1.00  0.00    -0.237 OA
ATOM     86  O   UNL A   1      32.441  34.552  28.078  1.00  0.00    -0.237 OA
ATOM     87  O   UNL A   1      32.238  35.991  30.068  1.00  0.00    -0.744 OA
ENDBRANCH  83  84
ENDBRANCH  51  76
BRANCH  63  88
ATOM     88  C   UNL A   1      39.874  34.118  36.950  1.00  0.00     0.058 A 
ATOM     89  C   UNL A   1      40.531  35.356  36.908  1.00  0.00     0.135 A 
ATOM     90  C   UNL A   1      39.020  33.863  38.036  1.00  0.00     0.135 A 
ATOM     91  F   UNL A   1      41.362  35.647  35.895  1.00  0.00    -0.206 F 
ATOM     92  C   UNL A   1      40.368  36.297  37.919  1.00  0.00     0.059 A 
ATOM     93  C   UNL A   1      38.816  34.803  39.040  1.00  0.00     0.059 A 
ATOM     94  F   UNL A   1      38.356  32.698  38.117  1.00  0.00    -0.206 F 
ATOM     95  C   UNL A   1      39.505  36.013  38.978  1.00  0.00     0.060 A 
BRANCH  95  96
ATOM     96  S   UNL A   1      39.274  37.259  40.263  1.00  0.00     0.124 S 
ATOM     97  O   UNL A   1      38.476  38.259  39.562  1.00  0.00    -0.237 OA
ATOM     98  O   UNL A   1      38.577  36.508  41.303  1.00  0.00    -0.237 OA
ATOM     99  O   UNL A   1      40.637  37.662  40.596  1.00  0.00    -0.744 OA
ENDBRANCH  95  96
ENDBRANCH  63  88
ENDBRANCH  37  38
ENDBRANCH  29  32
ENDBRANCH  27  28
ENDBRANCH   1  27
TORSDOF 16
ENDMDL
MODEL 2
REMARK VINA RESULT:     -12.1      6.580     12.169
REMARK SMILES CC(C)[NH2+][C@@]1(C(=O)NCCCNC(=O)c2ccc(-c3c4nc(c(-c5c(F)cc(S(=O)(=O)[O-])cc5F)c5ccc([nH]5)c(-c5c(F)cc(S(=O)(=O)[O-])cc5F)c5nc(c(-c6c(F)cc(S(=O)(=O)[O-])cc6F)c6ccc3[nH]6)C=C5)C=C4)cc2)CCC[C@@H]([NH+]2CCS(=O)CC2)C1
REMARK SMILES IDX 10 1 9 2 8 3 6 4 7 5 5 7 81 8 92 9 82 10 84 11 83 12 4 13
REMARK SMILES IDX 2 16 1 17 3 18 85 19 86 20 91 21 87 23 90 24 88 25 89 26
REMARK SMILES IDX 11 27 12 28 13 29 14 31 15 32 16 33 80 34 17 35 79 36 18 37
REMARK SMILES IDX 19 38 20 39 73 40 21 41 78 42 72 43 74 44 22 45 77 46 71 47
REMARK SMILES IDX 70 48 23 50 57 51 36 52 56 53 37 54 40 55 55 56 75 57 38 58
REMARK SMILES IDX 39 59 54 61 76 62 41 63 24 64 25 65 34 66 26 67 27 68 33 69
REMARK SMILES IDX 35 70 28 71 29 72 30 73 31 74 32 75 58 76 59 77 68 78 60 79
REMARK SMILES IDX 61 80 67 81 69 82 62 83 63 84 64 85 65 86 66 87 42 88 43 89
REMARK SMILES IDX 52 90 44 91 45 92 51 93 53 94 46 95 47 96 48 97 49 98 50 99
REMARK H PARENT 8 6 4 14 4 15 85 22 12 30 74 49 40 60
REMARK Flexibility Score: inf
ROOT
ATOM      1  C   UNL A   1      33.902  29.176  27.380  1.00  0.00     0.042 C 
ENDROOT
BRANCH   1   2
ATOM      2  C   UNL A   1      33.091  29.736  26.221  1.00  0.00     0.118 C 
BRANCH   2   3
ATOM      3  N   UNL A   1      33.668  29.475  24.928  1.00  0.00    -0.351 N 
ATOM      4  C   UNL A   1      33.354  28.616  23.922  1.00  0.00     0.281 C 
ATOM      5  O   UNL A   1      34.020  28.823  22.895  1.00  0.00    -0.268 OA
ATOM      6  H   UNL A   1      34.455  30.034  24.733  1.00  0.00     0.163 HD
BRANCH   4   7
ATOM      7  C   UNL A   1      32.319  27.393  24.026  1.00  0.00     0.181 C 
ATOM      8  C   UNL A   1      31.593  27.191  25.370  1.00  0.00     0.079 C 
ATOM      9  C   UNL A   1      33.031  26.108  23.519  1.00  0.00     0.144 C 
ATOM     10  C   UNL A   1      32.108  26.171  26.377  1.00  0.00     0.013 C 
ATOM     11  C   UNL A   1      33.662  25.186  24.571  1.00  0.00     0.190 C 
ATOM     12  C   UNL A   1      32.712  24.925  25.751  1.00  0.00     0.065 C 
BRANCH   7  13
ATOM     13  N   UNL A   1      31.263  27.633  22.965  1.00  0.00    -0.331 N 
ATOM     14  H   UNL A   1      31.750  27.954  22.129  1.00  0.00     0.347 HD
ATOM     15  H   UNL A   1      30.779  26.736  22.909  1.00  0.00     0.347 HD
BRANCH  13  16
ATOM     16  C   UNL A   1      30.174  28.589  23.215  1.00  0.00     0.176 C 
ATOM     17  C   UNL A   1      30.218  29.604  22.064  1.00  0.00     0.075 C 
ATOM     18  C   UNL A   1      28.782  27.945  23.216  1.00  0.00     0.075 C 
ENDBRANCH  13  16
ENDBRANCH   7  13
BRANCH  11  19
ATOM     19  N   UNL A   1      34.283  23.945  24.064  1.00  0.00    -0.331 N 
ATOM     20  C   UNL A   1      35.706  23.690  24.291  1.00  0.00     0.276 C 
ATOM     21  C   UNL A   1      33.507  22.701  24.171  1.00  0.00     0.276 C 
ATOM     22  H   UNL A   1      34.241  24.254  23.093  1.00  0.00     0.348 HD
ATOM     23  C   UNL A   1      36.047  23.178  25.679  1.00  0.00     0.166 C 
ATOM     24  C   UNL A   1      33.612  21.932  25.489  1.00  0.00     0.166 C 
ATOM     25  S   UNL A   1      35.305  21.562  26.019  1.00  0.00     0.032 S 
ATOM     26  O   UNL A   1      35.899  20.563  25.073  1.00  0.00    -0.259 OA
ENDBRANCH  11  19
ENDBRANCH   4   7
ENDBRANCH   2   3
ENDBRANCH   1   2
BRANCH   1  27
ATOM     27  C   UNL A   1      35.209  29.904  27.620  1.00  0.00     0.118 C 
BRANCH  27  28
ATOM     28  N   UNL A   1      35.293  30.457  28.968  1.00  0.00    -0.352 N 
ATOM     29  C   UNL A   1      36.303  30.407  29.895  1.00  0.00     0.251 C 
ATOM     30  H   UNL A   1      34.492  30.949  29.261  1.00  0.00     0.163 HD
ATOM     31  O   UNL A   1      36.065  30.755  31.055  1.00  0.00    -0.269 OA
BRANCH  29  32
ATOM     32  C   UNL A   1      37.654  29.932  29.527  1.00  0.00     0.039 A 
ATOM     33  C   UNL A   1      38.036  29.922  28.183  1.00  0.00     0.014 A 
ATOM     34  C   UNL A   1      38.541  29.469  30.500  1.00  0.00     0.014 A 
ATOM     35  C   UNL A   1      39.323  29.508  27.830  1.00  0.00     0.010 A 
ATOM     36  C   UNL A   1      39.858  29.186  30.163  1.00  0.00     0.010 A 
ATOM     37  C   UNL A   1      40.258  29.173  28.822  1.00  0.00    -0.014 A 
BRANCH  37  38
ATOM     38  C   UNL A   1      41.644  28.758  28.486  1.00  0.00     0.031 A 
ATOM     39  C   UNL A   1      42.744  29.790  28.457  1.00  0.00     0.074 A 
ATOM     40  C   UNL A   1      41.896  27.479  28.141  1.00  0.00     0.049 A 
ATOM     41  N   UNL A   1      43.994  29.655  28.097  1.00  0.00    -0.248 NA
ATOM     42  C   UNL A   1      42.384  31.166  28.847  1.00  0.00     0.031 C 
ATOM     43  C   UNL A   1      40.900  26.406  28.072  1.00  0.00     0.029 A 
ATOM     44  N   UNL A   1      43.066  26.865  27.773  1.00  0.00    -0.354 N 
ATOM     45  C   UNL A   1      44.555  30.924  28.193  1.00  0.00     0.074 A 
ATOM     46  C   UNL A   1      43.499  31.829  28.581  1.00  0.00     0.031 C 
ATOM     47  C   UNL A   1      41.506  25.263  27.715  1.00  0.00     0.029 A 
ATOM     48  C   UNL A   1      42.922  25.527  27.486  1.00  0.00     0.049 A 
ATOM     49  H   UNL A   1      43.928  27.337  27.718  1.00  0.00     0.167 HD
ATOM     50  C   UNL A   1      45.842  31.296  28.005  1.00  0.00     0.037 A 
ATOM     51  C   UNL A   1      43.829  24.619  27.076  1.00  0.00     0.037 A 
ATOM     52  C   UNL A   1      46.896  30.377  27.670  1.00  0.00     0.049 A 
ATOM     53  C   UNL A   1      45.260  25.057  26.893  1.00  0.00     0.074 A 
ATOM     54  C   UNL A   1      48.249  30.633  27.533  1.00  0.00     0.029 A 
ATOM     55  N   UNL A   1      46.717  29.023  27.428  1.00  0.00    -0.354 N 
ATOM     56  N   UNL A   1      45.786  26.247  27.062  1.00  0.00    -0.248 NA
ATOM     57  C   UNL A   1      46.221  24.028  26.473  1.00  0.00     0.031 C 
ATOM     58  C   UNL A   1      48.881  29.444  27.158  1.00  0.00     0.029 A 
ATOM     59  C   UNL A   1      47.932  28.435  27.119  1.00  0.00     0.049 A 
ATOM     60  H   UNL A   1      45.855  28.550  27.468  1.00  0.00     0.167 HD
ATOM     61  C   UNL A   1      47.143  26.103  26.799  1.00  0.00     0.074 A 
ATOM     62  C   UNL A   1      47.360  24.707  26.477  1.00  0.00     0.031 C 
ATOM     63  C   UNL A   1      48.125  27.039  26.821  1.00  0.00     0.037 A 
BRANCH  50  64
ATOM     64  C   UNL A   1      46.193  32.749  28.174  1.00  0.00     0.058 A 
ATOM     65  C   UNL A   1      46.101  33.661  27.109  1.00  0.00     0.135 A 
ATOM     66  C   UNL A   1      46.566  33.252  29.432  1.00  0.00     0.135 A 
ATOM     67  F   UNL A   1      45.770  33.234  25.880  1.00  0.00    -0.206 F 
ATOM     68  C   UNL A   1      46.378  35.012  27.281  1.00  0.00     0.059 A 
ATOM     69  C   UNL A   1      46.818  34.606  29.634  1.00  0.00     0.059 A 
ATOM     70  F   UNL A   1      46.678  32.425  30.483  1.00  0.00    -0.206 F 
ATOM     71  C   UNL A   1      46.727  35.477  28.550  1.00  0.00     0.060 A 
BRANCH  71  72
ATOM     72  S   UNL A   1      47.039  37.242  28.763  1.00  0.00     0.124 S 
ATOM     73  O   UNL A   1      45.769  37.698  29.318  1.00  0.00    -0.237 OA
ATOM     74  O   UNL A   1      48.172  37.247  29.685  1.00  0.00    -0.237 OA
ATOM     75  O   UNL A   1      47.334  37.703  27.410  1.00  0.00    -0.744 OA
ENDBRANCH  71  72
ENDBRANCH  50  64
BRANCH  51  76
ATOM     76  C   UNL A   1      43.425  23.209  26.824  1.00  0.00     0.058 A 
ATOM     77  C   UNL A   1      43.131  22.339  27.885  1.00  0.00     0.135 A 
ATOM     78  C   UNL A   1      43.340  22.695  25.520  1.00  0.00     0.135 A 
ATOM     79  F   UNL A   1      43.198  22.780  29.150  1.00  0.00    -0.206 F 
ATOM     80  C   UNL A   1      42.805  21.004  27.668  1.00  0.00     0.059 A 
ATOM     81  C   UNL A   1      42.985  21.371  25.275  1.00  0.00     0.059 A 
ATOM     82  F   UNL A   1      43.591  23.488  24.466  1.00  0.00    -0.206 F 
ATOM     83  C   UNL A   1      42.738  20.528  26.357  1.00  0.00     0.060 A 
BRANCH  83  84
ATOM     84  S   UNL A   1      42.302  18.797  26.087  1.00  0.00     0.124 S 
ATOM     85  O   UNL A   1      43.239  18.421  25.035  1.00  0.00    -0.237 OA
ATOM     86  O   UNL A   1      42.549  18.210  27.401  1.00  0.00    -0.237 OA
ATOM     87  O   UNL A   1      40.899  18.862  25.691  1.00  0.00    -0.744 OA
ENDBRANCH  83  84
ENDBRANCH  51  76
BRANCH  63  88
ATOM     88  C   UNL A   1      49.528  26.579  26.534  1.00  0.00     0.058 A 
ATOM     89  C   UNL A   1      50.378  26.120  27.551  1.00  0.00     0.135 A 
ATOM     90  C   UNL A   1      50.003  26.543  25.213  1.00  0.00     0.135 A 
ATOM     91  F   UNL A   1      49.974  26.138  28.831  1.00  0.00    -0.206 F 
ATOM     92  C   UNL A   1      51.662  25.665  27.271  1.00  0.00     0.059 A 
ATOM     93  C   UNL A   1      51.270  26.061  24.907  1.00  0.00     0.059 A 
ATOM     94  F   UNL A   1      49.223  26.958  24.202  1.00  0.00    -0.206 F 
ATOM     95  C   UNL A   1      52.097  25.636  25.945  1.00  0.00     0.060 A 
BRANCH  95  96
ATOM     96  S   UNL A   1      53.752  25.009  25.592  1.00  0.00     0.124 S 
ATOM     97  O   UNL A   1      53.479  23.604  25.306  1.00  0.00    -0.237 OA
ATOM     98  O   UNL A   1      54.156  25.822  24.448  1.00  0.00    -0.237 OA
ATOM     99  O   UNL A   1      54.486  25.268  26.827  1.00  0.00    -0.744 OA
ENDBRANCH  95  96
ENDBRANCH  63  88
ENDBRANCH  37  38
ENDBRANCH  29  32
ENDBRANCH  27  28
ENDBRANCH   1  27
TORSDOF 16
ENDMDL
MODEL 3
REMARK VINA RESULT:     -12.1      1.082      2.147
REMARK SMILES CC(C)[NH2+][C@@]1(C(=O)NCCCNC(=O)c2ccc(-c3c4nc(c(-c5c(F)cc(S(=O)(=O)[O-])cc5F)c5ccc([nH]5)c(-c5c(F)cc(S(=O)(=O)[O-])cc5F)c5nc(c(-c6c(F)cc(S(=O)(=O)[O-])cc6F)c6ccc3[nH]6)C=C5)C=C4)cc2)CCC[C@@H]([NH+]2CCS(=O)CC2)C1
REMARK SMILES IDX 10 1 9 2 8 3 6 4 7 5 5 7 81 8 92 9 82 10 84 11 83 12 4 13
REMARK SMILES IDX 2 16 1 17 3 18 85 19 86 20 91 21 87 23 90 24 88 25 89 26
REMARK SMILES IDX 11 27 12 28 13 29 14 31 15 32 16 33 80 34 17 35 79 36 18 37
REMARK SMILES IDX 19 38 20 39 73 40 21 41 78 42 72 43 74 44 22 45 77 46 71 47
REMARK SMILES IDX 70 48 23 50 57 51 36 52 56 53 37 54 40 55 55 56 75 57 38 58
REMARK SMILES IDX 39 59 54 61 76 62 41 63 24 64 25 65 34 66 26 67 27 68 33 69
REMARK SMILES IDX 35 70 28 71 29 72 30 73 31 74 32 75 58 76 59 77 68 78 60 79
REMARK SMILES IDX 61 80 67 81 69 82 62 83 63 84 64 85 65 86 66 87 42 88 43 89
REMARK SMILES IDX 52 90 44 91 45 92 51 93 53 94 46 95 47 96 48 97 49 98 50 99
REMARK H PARENT 8 6 4 14 4 15 85 22 12 30 74 49 40 60
REMARK Flexibility Score: inf
ROOT
ATOM      1  C   UNL A   1      37.477  23.672  25.446  1.00  0.00     0.042 C 
ENDROOT
BRANCH   1   2
ATOM      2  C   UNL A   1      36.945  22.248  25.503  1.00  0.00     0.118 C 
BRANCH   2   3
ATOM      3  N   UNL A   1      35.944  22.042  26.517  1.00  0.00    -0.351 N 
ATOM      4  C   UNL A   1      34.596  21.871  26.476  1.00  0.00     0.281 C 
ATOM      5  O   UNL A   1      34.122  21.560  27.580  1.00  0.00    -0.268 OA
ATOM      6  H   UNL A   1      36.313  22.020  27.430  1.00  0.00     0.163 HD
BRANCH   4   7
ATOM      7  C   UNL A   1      33.660  22.127  25.197  1.00  0.00     0.181 C 
ATOM      8  C   UNL A   1      34.349  22.229  23.822  1.00  0.00     0.079 C 
ATOM      9  C   UNL A   1      32.734  23.337  25.505  1.00  0.00     0.144 C 
ATOM     10  C   UNL A   1      34.669  23.591  23.221  1.00  0.00     0.013 C 
ATOM     11  C   UNL A   1      33.178  24.716  24.998  1.00  0.00     0.190 C 
ATOM     12  C   UNL A   1      33.644  24.668  23.534  1.00  0.00     0.065 C 
BRANCH   7  13
ATOM     13  N   UNL A   1      32.687  20.966  25.137  1.00  0.00    -0.331 N 
ATOM     14  H   UNL A   1      32.454  20.725  26.100  1.00  0.00     0.347 HD
ATOM     15  H   UNL A   1      31.933  21.321  24.547  1.00  0.00     0.347 HD
BRANCH  13  16
ATOM     16  C   UNL A   1      33.076  19.715  24.470  1.00  0.00     0.176 C 
ATOM     17  C   UNL A   1      32.826  18.589  25.484  1.00  0.00     0.075 C 
ATOM     18  C   UNL A   1      32.248  19.406  23.216  1.00  0.00     0.075 C 
ENDBRANCH  13  16
ENDBRANCH   7  13
BRANCH  11  19
ATOM     19  N   UNL A   1      32.252  25.837  25.257  1.00  0.00    -0.331 N 
ATOM     20  C   UNL A   1      32.419  26.668  26.450  1.00  0.00     0.276 C 
ATOM     21  C   UNL A   1      31.829  26.651  24.109  1.00  0.00     0.276 C 
ATOM     22  H   UNL A   1      31.479  25.216  25.498  1.00  0.00     0.348 HD
ATOM     23  C   UNL A   1      33.509  27.721  26.343  1.00  0.00     0.166 C 
ATOM     24  C   UNL A   1      32.743  27.812  23.712  1.00  0.00     0.166 C 
ATOM     25  S   UNL A   1      33.156  28.950  25.061  1.00  0.00     0.032 S 
ATOM     26  O   UNL A   1      31.919  29.699  25.455  1.00  0.00    -0.259 OA
ENDBRANCH  11  19
ENDBRANCH   4   7
ENDBRANCH   2   3
ENDBRANCH   1   2
BRANCH   1  27
ATOM     27  C   UNL A   1      38.379  24.035  26.608  1.00  0.00     0.118 C 
BRANCH  27  28
ATOM     28  N   UNL A   1      39.792  23.986  26.246  1.00  0.00    -0.352 N 
ATOM     29  C   UNL A   1      40.829  24.823  26.572  1.00  0.00     0.251 C 
ATOM     30  H   UNL A   1      40.042  23.226  25.673  1.00  0.00     0.163 HD
ATOM     31  O   UNL A   1      41.899  24.709  25.967  1.00  0.00    -0.269 OA
BRANCH  29  32
ATOM     32  C   UNL A   1      40.677  25.856  27.619  1.00  0.00     0.039 A 
ATOM     33  C   UNL A   1      39.664  25.723  28.573  1.00  0.00     0.014 A 
ATOM     34  C   UNL A   1      41.512  26.973  27.651  1.00  0.00     0.014 A 
ATOM     35  C   UNL A   1      39.536  26.676  29.587  1.00  0.00     0.010 A 
ATOM     36  C   UNL A   1      41.469  27.845  28.731  1.00  0.00     0.010 A 
ATOM     37  C   UNL A   1      40.462  27.725  29.696  1.00  0.00    -0.014 A 
BRANCH  37  38
ATOM     38  C   UNL A   1      40.375  28.739  30.777  1.00  0.00     0.031 A 
ATOM     39  C   UNL A   1      41.257  28.608  31.994  1.00  0.00     0.074 A 
ATOM     40  C   UNL A   1      39.461  29.727  30.698  1.00  0.00     0.049 A 
ATOM     41  N   UNL A   1      41.269  29.326  33.087  1.00  0.00    -0.248 NA
ATOM     42  C   UNL A   1      42.228  27.498  32.003  1.00  0.00     0.031 C 
ATOM     43  C   UNL A   1      38.511  29.920  29.599  1.00  0.00     0.029 A 
ATOM     44  N   UNL A   1      39.173  30.753  31.563  1.00  0.00    -0.354 N 
ATOM     45  C   UNL A   1      42.223  28.742  33.913  1.00  0.00     0.074 A 
ATOM     46  C   UNL A   1      42.723  27.573  33.229  1.00  0.00     0.031 C 
ATOM     47  C   UNL A   1      37.769  31.012  29.841  1.00  0.00     0.029 A 
ATOM     48  C   UNL A   1      38.156  31.572  31.131  1.00  0.00     0.049 A 
ATOM     49  H   UNL A   1      39.651  30.890  32.413  1.00  0.00     0.167 HD
ATOM     50  C   UNL A   1      42.665  29.160  35.122  1.00  0.00     0.037 A 
ATOM     51  C   UNL A   1      37.594  32.648  31.715  1.00  0.00     0.037 A 
ATOM     52  C   UNL A   1      42.197  30.355  35.772  1.00  0.00     0.049 A 
ATOM     53  C   UNL A   1      38.119  33.103  33.052  1.00  0.00     0.074 A 
ATOM     54  C   UNL A   1      42.632  30.913  36.960  1.00  0.00     0.029 A 
ATOM     55  N   UNL A   1      41.194  31.179  35.283  1.00  0.00    -0.354 N 
ATOM     56  N   UNL A   1      39.074  32.580  33.784  1.00  0.00    -0.248 NA
ATOM     57  C   UNL A   1      37.496  34.297  33.639  1.00  0.00     0.031 C 
ATOM     58  C   UNL A   1      41.858  32.049  37.216  1.00  0.00     0.029 A 
ATOM     59  C   UNL A   1      40.981  32.230  36.159  1.00  0.00     0.049 A 
ATOM     60  H   UNL A   1      40.706  31.038  34.441  1.00  0.00     0.167 HD
ATOM     61  C   UNL A   1      39.188  33.400  34.902  1.00  0.00     0.074 A 
ATOM     62  C   UNL A   1      38.216  34.462  34.741  1.00  0.00     0.031 C 
ATOM     63  C   UNL A   1      40.020  33.287  35.967  1.00  0.00     0.037 A 
BRANCH  50  64
ATOM     64  C   UNL A   1      43.718  28.339  35.816  1.00  0.00     0.058 A 
ATOM     65  C   UNL A   1      45.088  28.570  35.613  1.00  0.00     0.135 A 
ATOM     66  C   UNL A   1      43.354  27.351  36.746  1.00  0.00     0.135 A 
ATOM     67  F   UNL A   1      45.495  29.487  34.720  1.00  0.00    -0.206 F 
ATOM     68  C   UNL A   1      46.058  27.843  36.294  1.00  0.00     0.059 A 
ATOM     69  C   UNL A   1      44.307  26.633  37.462  1.00  0.00     0.059 A 
ATOM     70  F   UNL A   1      42.058  27.083  36.975  1.00  0.00    -0.206 F 
ATOM     71  C   UNL A   1      45.658  26.882  37.223  1.00  0.00     0.060 A 
BRANCH  71  72
ATOM     72  S   UNL A   1      46.931  25.980  38.131  1.00  0.00     0.124 S 
ATOM     73  O   UNL A   1      46.303  25.826  39.439  1.00  0.00    -0.237 OA
ATOM     74  O   UNL A   1      47.064  24.757  37.344  1.00  0.00    -0.237 OA
ATOM     75  O   UNL A   1      48.081  26.878  38.089  1.00  0.00    -0.744 OA
ENDBRANCH  71  72
ENDBRANCH  50  64
BRANCH  51  76
ATOM     76  C   UNL A   1      36.486  33.380  31.042  1.00  0.00     0.058 A 
ATOM     77  C   UNL A   1      35.170  33.305  31.524  1.00  0.00     0.135 A 
ATOM     78  C   UNL A   1      36.714  34.156  29.894  1.00  0.00     0.135 A 
ATOM     79  F   UNL A   1      34.898  32.577  32.617  1.00  0.00    -0.206 F 
ATOM     80  C   UNL A   1      34.116  33.940  30.875  1.00  0.00     0.059 A 
ATOM     81  C   UNL A   1      35.681  34.826  29.245  1.00  0.00     0.059 A 
ATOM     82  F   UNL A   1      37.957  34.279  29.401  1.00  0.00    -0.206 F 
ATOM     83  C   UNL A   1      34.382  34.696  29.732  1.00  0.00     0.060 A 
BRANCH  83  84
ATOM     84  S   UNL A   1      33.007  35.525  28.905  1.00  0.00     0.124 S 
ATOM     85  O   UNL A   1      33.704  36.550  28.136  1.00  0.00    -0.237 OA
ATOM     86  O   UNL A   1      32.416  34.438  28.130  1.00  0.00    -0.237 OA
ATOM     87  O   UNL A   1      32.191  36.011  30.014  1.00  0.00    -0.744 OA
ENDBRANCH  83  84
ENDBRANCH  51  76
BRANCH  63  88
ATOM     88  C   UNL A   1      39.951  34.359  37.018  1.00  0.00     0.058 A 
ATOM     89  C   UNL A   1      39.147  34.226  38.159  1.00  0.00     0.135 A 
ATOM     90  C   UNL A   1      40.748  35.511  36.905  1.00  0.00     0.135 A 
ATOM     91  F   UNL A   1      38.363  33.147  38.313  1.00  0.00    -0.206 F 
ATOM     92  C   UNL A   1      39.116  35.209  39.142  1.00  0.00     0.059 A 
ATOM     93  C   UNL A   1      40.757  36.490  37.891  1.00  0.00     0.059 A 
ATOM     94  F   UNL A   1      41.545  35.680  35.838  1.00  0.00    -0.206 F 
ATOM     95  C   UNL A   1      39.927  36.336  39.001  1.00  0.00     0.060 A 
BRANCH  95  96
ATOM     96  S   UNL A   1      39.905  37.587  40.301  1.00  0.00     0.124 S 
ATOM     97  O   UNL A   1      40.123  36.775  41.494  1.00  0.00    -0.237 OA
ATOM     98  O   UNL A   1      41.012  38.458  39.916  1.00  0.00    -0.237 OA
ATOM     99  O   UNL A   1      38.577  38.181  40.180  1.00  0.00    -0.744 OA
ENDBRANCH  95  96
ENDBRANCH  63  88
ENDBRANCH  37  38
ENDBRANCH  29  32
ENDBRANCH  27  28
ENDBRANCH   1  27
TORSDOF 16
ENDMDL
