MODEL 1
REMARK VINA RESULT:     -13.5      0.000      0.000
REMARK SMILES O=C(NCCCNC(=O)c1cc(-c2ccccn2)nc2ccc(F)cc12)c1ccc(-c2c3nc(c(-c4c(F)cc(S(=O)(=O)[O-])cc4F)c4ccc([nH]4)c(-c4c(F)cc(S(=O)(=O)[O-])cc4F)c4nc(c(-c5c(F)cc(S(=O)(=O)[O-])cc5F)c5ccc2[nH]5)C=C4)C=C3)cc1
REMARK SMILES IDX 4 1 3 2 1 3 2 4 27 6 28 7 92 8 29 9 91 10 30 11 31 12 32 13
REMARK SMILES IDX 85 14 33 15 90 16 84 17 86 18 34 19 89 20 83 21 82 22 35 24
REMARK SMILES IDX 69 25 48 26 68 27 49 28 52 29 67 30 87 31 50 32 51 33 66 35
REMARK SMILES IDX 88 36 53 37 36 38 37 39 46 40 38 41 39 42 45 43 47 44 40 45
REMARK SMILES IDX 41 46 42 47 43 48 44 49 70 50 71 51 80 52 72 53 73 54 79 55
REMARK SMILES IDX 81 56 74 57 75 58 76 59 77 60 78 61 54 62 55 63 64 64 56 65
REMARK SMILES IDX 57 66 63 67 65 68 58 69 59 70 60 71 61 72 62 73 5 74 6 75
REMARK SMILES IDX 7 76 8 77 9 79 10 80 11 81 26 82 12 83 20 84 25 85 19 86
REMARK SMILES IDX 21 87 23 88 22 89 24 90 13 91 14 92 18 93 15 94 17 95 16 96
REMARK H PARENT 3 5 86 23 52 34 7 78
REMARK Flexibility Score: inf
ROOT
ATOM      1  C   UNL A   1      40.362  23.182  27.073  1.00  0.00     0.118 C 
ENDROOT
BRANCH   1   2
ATOM      2  N   UNL A   1      41.117  23.936  26.082  1.00  0.00    -0.352 N 
ATOM      3  O   UNL A   1      41.919  25.729  25.003  1.00  0.00    -0.269 OA
ATOM      4  C   UNL A   1      41.469  25.262  26.047  1.00  0.00     0.251 C 
ATOM      5  H   UNL A   1      41.424  23.408  25.311  1.00  0.00     0.163 HD
BRANCH   4   6
ATOM      6  C   UNL A   1      41.310  26.126  27.239  1.00  0.00     0.039 A 
ATOM      7  C   UNL A   1      40.229  25.904  28.095  1.00  0.00     0.014 A 
ATOM      8  C   UNL A   1      42.176  27.196  27.482  1.00  0.00     0.014 A 
ATOM      9  C   UNL A   1      40.032  26.736  29.200  1.00  0.00     0.010 A 
ATOM     10  C   UNL A   1      42.045  27.952  28.641  1.00  0.00     0.010 A 
ATOM     11  C   UNL A   1      40.947  27.761  29.489  1.00  0.00    -0.014 A 
BRANCH  11  12
ATOM     12  C   UNL A   1      40.721  28.710  30.608  1.00  0.00     0.031 A 
ATOM     13  C   UNL A   1      41.577  28.615  31.846  1.00  0.00     0.074 A 
ATOM     14  C   UNL A   1      39.742  29.632  30.531  1.00  0.00     0.049 A 
ATOM     15  N   UNL A   1      41.503  29.297  32.959  1.00  0.00    -0.248 NA
ATOM     16  C   UNL A   1      42.643  27.597  31.840  1.00  0.00     0.031 C 
ATOM     17  C   UNL A   1      38.835  29.811  29.397  1.00  0.00     0.029 A 
ATOM     18  N   UNL A   1      39.348  30.595  31.427  1.00  0.00    -0.354 N 
ATOM     19  C   UNL A   1      42.496  28.782  33.785  1.00  0.00     0.074 A 
ATOM     20  C   UNL A   1      43.112  27.685  33.075  1.00  0.00     0.031 C 
ATOM     21  C   UNL A   1      38.016  30.845  29.648  1.00  0.00     0.029 A 
ATOM     22  C   UNL A   1      38.308  31.374  30.978  1.00  0.00     0.049 A 
ATOM     23  H   UNL A   1      39.771  30.717  32.307  1.00  0.00     0.167 HD
ATOM     24  C   UNL A   1      42.887  29.208  35.009  1.00  0.00     0.037 A 
ATOM     25  C   UNL A   1      37.661  32.395  31.573  1.00  0.00     0.037 A 
ATOM     26  C   UNL A   1      42.294  30.324  35.695  1.00  0.00     0.049 A 
ATOM     27  C   UNL A   1      38.088  32.831  32.949  1.00  0.00     0.074 A 
ATOM     28  C   UNL A   1      42.643  30.863  36.920  1.00  0.00     0.029 A 
ATOM     29  N   UNL A   1      41.230  31.074  35.215  1.00  0.00    -0.354 N 
ATOM     30  N   UNL A   1      39.054  32.358  33.701  1.00  0.00    -0.248 NA
ATOM     31  C   UNL A   1      37.340  33.938  33.559  1.00  0.00     0.031 C 
ATOM     32  C   UNL A   1      41.757  31.907  37.204  1.00  0.00     0.029 A 
ATOM     33  C   UNL A   1      40.892  32.056  36.130  1.00  0.00     0.049 A 
ATOM     34  H   UNL A   1      40.782  30.930  34.350  1.00  0.00     0.167 HD
ATOM     35  C   UNL A   1      39.042  33.122  34.863  1.00  0.00     0.074 A 
ATOM     36  C   UNL A   1      37.984  34.099  34.708  1.00  0.00     0.031 C 
ATOM     37  C   UNL A   1      39.835  33.022  35.959  1.00  0.00     0.037 A 
BRANCH  24  38
ATOM     38  C   UNL A   1      44.017  28.472  35.677  1.00  0.00     0.058 A 
ATOM     39  C   UNL A   1      43.783  27.396  36.549  1.00  0.00     0.135 A 
ATOM     40  C   UNL A   1      45.352  28.823  35.419  1.00  0.00     0.135 A 
ATOM     41  F   UNL A   1      42.527  27.027  36.847  1.00  0.00    -0.206 F 
ATOM     42  C   UNL A   1      44.828  26.714  37.164  1.00  0.00     0.059 A 
ATOM     43  C   UNL A   1      46.414  28.135  35.998  1.00  0.00     0.059 A 
ATOM     44  F   UNL A   1      45.636  29.845  34.596  1.00  0.00    -0.206 F 
ATOM     45  C   UNL A   1      46.142  27.090  36.879  1.00  0.00     0.060 A 
BRANCH  45  46
ATOM     46  S   UNL A   1      47.483  26.190  37.683  1.00  0.00     0.124 S 
ATOM     47  O   UNL A   1      47.355  26.646  39.064  1.00  0.00    -0.237 OA
ATOM     48  O   UNL A   1      47.113  24.800  37.439  1.00  0.00    -0.237 OA
ATOM     49  O   UNL A   1      48.675  26.653  36.979  1.00  0.00    -0.744 OA
ENDBRANCH  45  46
ENDBRANCH  24  38
BRANCH  25  50
ATOM     50  C   UNL A   1      36.564  33.093  30.850  1.00  0.00     0.058 A 
ATOM     51  C   UNL A   1      35.226  32.912  31.226  1.00  0.00     0.135 A 
ATOM     52  C   UNL A   1      36.833  33.987  29.800  1.00  0.00     0.135 A 
ATOM     53  F   UNL A   1      34.918  32.061  32.216  1.00  0.00    -0.206 F 
ATOM     54  C   UNL A   1      34.191  33.592  30.592  1.00  0.00     0.059 A 
ATOM     55  C   UNL A   1      35.817  34.699  29.167  1.00  0.00     0.059 A 
ATOM     56  F   UNL A   1      38.097  34.205  29.409  1.00  0.00    -0.206 F 
ATOM     57  C   UNL A   1      34.498  34.492  29.570  1.00  0.00     0.060 A 
BRANCH  57  58
ATOM     58  S   UNL A   1      33.151  35.423  28.809  1.00  0.00     0.124 S 
ATOM     59  O   UNL A   1      32.435  35.917  29.980  1.00  0.00    -0.237 OA
ATOM     60  O   UNL A   1      33.874  36.424  28.032  1.00  0.00    -0.237 OA
ATOM     61  O   UNL A   1      32.448  34.414  28.021  1.00  0.00    -0.744 OA
ENDBRANCH  57  58
ENDBRANCH  25  50
BRANCH  37  62
ATOM     62  C   UNL A   1      39.605  33.999  37.080  1.00  0.00     0.058 A 
ATOM     63  C   UNL A   1      38.816  33.668  38.191  1.00  0.00     0.135 A 
ATOM     64  C   UNL A   1      40.251  35.246  37.083  1.00  0.00     0.135 A 
ATOM     65  F   UNL A   1      38.173  32.490  38.237  1.00  0.00    -0.206 F 
ATOM     66  C   UNL A   1      38.663  34.545  39.260  1.00  0.00     0.059 A 
ATOM     67  C   UNL A   1      40.137  36.126  38.154  1.00  0.00     0.059 A 
ATOM     68  F   UNL A   1      41.028  35.607  36.049  1.00  0.00    -0.206 F 
ATOM     69  C   UNL A   1      39.334  35.769  39.236  1.00  0.00     0.060 A 
BRANCH  69  70
ATOM     70  S   UNL A   1      39.162  36.873  40.653  1.00  0.00     0.124 S 
ATOM     71  O   UNL A   1      40.554  37.206  40.938  1.00  0.00    -0.237 OA
ATOM     72  O   UNL A   1      38.351  37.957  40.103  1.00  0.00    -0.237 OA
ATOM     73  O   UNL A   1      38.497  36.045  41.654  1.00  0.00    -0.744 OA
ENDBRANCH  69  70
ENDBRANCH  37  62
ENDBRANCH  11  12
ENDBRANCH   4   6
ENDBRANCH   1   2
BRANCH   1  74
ATOM     74  C   UNL A   1      39.295  22.300  26.446  1.00  0.00     0.042 C 
BRANCH  74  75
ATOM     75  C   UNL A   1      37.996  23.027  26.145  1.00  0.00     0.118 C 
BRANCH  75  76
ATOM     76  N   UNL A   1      37.772  23.225  24.715  1.00  0.00    -0.352 N 
ATOM     77  C   UNL A   1      36.672  22.933  23.946  1.00  0.00     0.252 C 
ATOM     78  H   UNL A   1      38.525  23.628  24.228  1.00  0.00     0.163 HD
ATOM     79  O   UNL A   1      36.700  23.111  22.731  1.00  0.00    -0.269 OA
BRANCH  77  80
ATOM     80  C   UNL A   1      35.442  22.439  24.596  1.00  0.00     0.051 A 
ATOM     81  C   UNL A   1      35.272  21.061  24.644  1.00  0.00     0.045 A 
ATOM     82  C   UNL A   1      34.469  23.303  25.136  1.00  0.00     0.016 A 
ATOM     83  C   UNL A   1      34.063  20.552  25.075  1.00  0.00     0.090 A 
ATOM     84  C   UNL A   1      33.291  22.686  25.611  1.00  0.00     0.072 A 
ATOM     85  C   UNL A   1      34.599  24.712  25.226  1.00  0.00     0.050 A 
ATOM     86  N   UNL A   1      33.086  21.356  25.559  1.00  0.00    -0.246 NA
ATOM     87  C   UNL A   1      32.292  23.488  26.152  1.00  0.00     0.032 A 
ATOM     88  C   UNL A   1      33.590  25.474  25.797  1.00  0.00     0.123 A 
ATOM     89  C   UNL A   1      32.432  24.874  26.260  1.00  0.00     0.041 A 
ATOM     90  F   UNL A   1      33.741  26.800  25.911  1.00  0.00    -0.207 F 
BRANCH  83  91
ATOM     91  C   UNL A   1      33.791  19.112  24.923  1.00  0.00     0.089 A 
ATOM     92  C   UNL A   1      34.775  18.234  24.465  1.00  0.00     0.030 A 
ATOM     93  N   UNL A   1      32.498  18.722  25.074  1.00  0.00    -0.255 NA
ATOM     94  C   UNL A   1      34.425  16.927  24.140  1.00  0.00     0.004 A 
ATOM     95  C   UNL A   1      32.188  17.446  24.760  1.00  0.00     0.112 A 
ATOM     96  C   UNL A   1      33.105  16.524  24.285  1.00  0.00     0.020 A 
ENDBRANCH  83  91
ENDBRANCH  77  80
ENDBRANCH  75  76
ENDBRANCH  74  75
ENDBRANCH   1  74
TORSDOF 14
ENDMDL
MODEL 2
REMARK VINA RESULT:     -13.2      6.923     12.565
REMARK SMILES O=C(NCCCNC(=O)c1cc(-c2ccccn2)nc2ccc(F)cc12)c1ccc(-c2c3nc(c(-c4c(F)cc(S(=O)(=O)[O-])cc4F)c4ccc([nH]4)c(-c4c(F)cc(S(=O)(=O)[O-])cc4F)c4nc(c(-c5c(F)cc(S(=O)(=O)[O-])cc5F)c5ccc2[nH]5)C=C4)C=C3)cc1
REMARK SMILES IDX 4 1 3 2 1 3 2 4 27 6 28 7 92 8 29 9 91 10 30 11 31 12 32 13
REMARK SMILES IDX 85 14 33 15 90 16 84 17 86 18 34 19 89 20 83 21 82 22 35 24
REMARK SMILES IDX 69 25 48 26 68 27 49 28 52 29 67 30 87 31 50 32 51 33 66 35
REMARK SMILES IDX 88 36 53 37 36 38 37 39 46 40 38 41 39 42 45 43 47 44 40 45
REMARK SMILES IDX 41 46 42 47 43 48 44 49 70 50 71 51 80 52 72 53 73 54 79 55
REMARK SMILES IDX 81 56 74 57 75 58 76 59 77 60 78 61 54 62 55 63 64 64 56 65
REMARK SMILES IDX 57 66 63 67 65 68 58 69 59 70 60 71 61 72 62 73 5 74 6 75
REMARK SMILES IDX 7 76 8 77 9 79 10 80 11 81 26 82 12 83 20 84 25 85 19 86
REMARK SMILES IDX 21 87 23 88 22 89 24 90 13 91 14 92 18 93 15 94 17 95 16 96
REMARK H PARENT 3 5 86 23 52 34 7 78
REMARK Flexibility Score: inf
ROOT
ATOM      1  C   UNL A   1      35.555  31.226  28.272  1.00  0.00     0.118 C 
ENDROOT
BRANCH   1   2
ATOM      2  N   UNL A   1      35.547  31.108  29.723  1.00  0.00    -0.352 N 
ATOM      3  O   UNL A   1      36.087  30.311  31.747  1.00  0.00    -0.269 OA
ATOM      4  C   UNL A   1      36.412  30.465  30.572  1.00  0.00     0.251 C 
ATOM      5  H   UNL A   1      34.797  31.563  30.167  1.00  0.00     0.163 HD
BRANCH   4   6
ATOM      6  C   UNL A   1      37.718  29.958  30.091  1.00  0.00     0.039 A 
ATOM      7  C   UNL A   1      38.547  29.274  30.984  1.00  0.00     0.014 A 
ATOM      8  C   UNL A   1      38.162  30.210  28.791  1.00  0.00     0.014 A 
ATOM      9  C   UNL A   1      39.803  28.827  30.566  1.00  0.00     0.010 A 
ATOM     10  C   UNL A   1      39.362  29.669  28.343  1.00  0.00     0.010 A 
ATOM     11  C   UNL A   1      40.216  29.011  29.237  1.00  0.00    -0.014 A 
BRANCH  11  12
ATOM     12  C   UNL A   1      41.576  28.620  28.785  1.00  0.00     0.031 A 
ATOM     13  C   UNL A   1      42.675  29.652  28.761  1.00  0.00     0.074 A 
ATOM     14  C   UNL A   1      41.820  27.361  28.374  1.00  0.00     0.049 A 
ATOM     15  N   UNL A   1      43.908  29.540  28.340  1.00  0.00    -0.248 NA
ATOM     16  C   UNL A   1      42.333  30.999  29.251  1.00  0.00     0.031 C 
ATOM     17  C   UNL A   1      40.836  26.278  28.333  1.00  0.00     0.029 A 
ATOM     18  N   UNL A   1      42.975  26.778  27.916  1.00  0.00    -0.354 N 
ATOM     19  C   UNL A   1      44.478  30.798  28.500  1.00  0.00     0.074 A 
ATOM     20  C   UNL A   1      43.440  31.676  28.988  1.00  0.00     0.031 C 
ATOM     21  C   UNL A   1      41.438  25.154  27.910  1.00  0.00     0.029 A 
ATOM     22  C   UNL A   1      42.837  25.445  27.607  1.00  0.00     0.049 A 
ATOM     23  H   UNL A   1      43.823  27.268  27.817  1.00  0.00     0.167 HD
ATOM     24  C   UNL A   1      45.760  31.180  28.296  1.00  0.00     0.037 A 
ATOM     25  C   UNL A   1      43.735  24.561  27.131  1.00  0.00     0.037 A 
ATOM     26  C   UNL A   1      46.798  30.292  27.845  1.00  0.00     0.049 A 
ATOM     27  C   UNL A   1      45.147  25.015  26.877  1.00  0.00     0.074 A 
ATOM     28  C   UNL A   1      48.138  30.569  27.645  1.00  0.00     0.029 A 
ATOM     29  N   UNL A   1      46.612  28.955  27.525  1.00  0.00    -0.354 N 
ATOM     30  N   UNL A   1      45.680  26.199  27.070  1.00  0.00    -0.248 NA
ATOM     31  C   UNL A   1      46.082  24.015  26.344  1.00  0.00     0.031 C 
ATOM     32  C   UNL A   1      48.753  29.412  27.157  1.00  0.00     0.029 A 
ATOM     33  C   UNL A   1      47.808  28.399  27.105  1.00  0.00     0.049 A 
ATOM     34  H   UNL A   1      45.756  28.473  27.588  1.00  0.00     0.167 HD
ATOM     35  C   UNL A   1      47.015  26.081  26.699  1.00  0.00     0.074 A 
ATOM     36  C   UNL A   1      47.213  24.706  26.287  1.00  0.00     0.031 C 
ATOM     37  C   UNL A   1      47.988  27.027  26.698  1.00  0.00     0.037 A 
BRANCH  24  38
ATOM     38  C   UNL A   1      46.114  32.617  28.572  1.00  0.00     0.058 A 
ATOM     39  C   UNL A   1      46.041  33.599  27.571  1.00  0.00     0.135 A 
ATOM     40  C   UNL A   1      46.498  33.025  29.859  1.00  0.00     0.135 A 
ATOM     41  F   UNL A   1      45.696  33.264  26.317  1.00  0.00    -0.206 F 
ATOM     42  C   UNL A   1      46.365  34.927  27.827  1.00  0.00     0.059 A 
ATOM     43  C   UNL A   1      46.796  34.354  30.147  1.00  0.00     0.059 A 
ATOM     44  F   UNL A   1      46.588  32.128  30.855  1.00  0.00    -0.206 F 
ATOM     45  C   UNL A   1      46.739  35.295  29.121  1.00  0.00     0.060 A 
BRANCH  45  46
ATOM     46  S   UNL A   1      47.151  37.024  29.434  1.00  0.00     0.124 S 
ATOM     47  O   UNL A   1      48.348  36.895  30.260  1.00  0.00    -0.237 OA
ATOM     48  O   UNL A   1      47.365  37.540  28.086  1.00  0.00    -0.237 OA
ATOM     49  O   UNL A   1      45.969  37.538  30.120  1.00  0.00    -0.744 OA
ENDBRANCH  45  46
ENDBRANCH  24  38
BRANCH  25  50
ATOM     50  C   UNL A   1      43.325  23.150  26.898  1.00  0.00     0.058 A 
ATOM     51  C   UNL A   1      43.169  22.653  25.596  1.00  0.00     0.135 A 
ATOM     52  C   UNL A   1      43.126  22.259  27.965  1.00  0.00     0.135 A 
ATOM     53  F   UNL A   1      43.339  23.467  24.543  1.00  0.00    -0.206 F 
ATOM     54  C   UNL A   1      42.833  21.324  25.357  1.00  0.00     0.059 A 
ATOM     55  C   UNL A   1      42.814  20.919  27.752  1.00  0.00     0.059 A 
ATOM     56  F   UNL A   1      43.275  22.681  29.230  1.00  0.00    -0.206 F 
ATOM     57  C   UNL A   1      42.667  20.462  26.443  1.00  0.00     0.060 A 
BRANCH  57  58
ATOM     58  S   UNL A   1      42.306  18.724  26.114  1.00  0.00     0.124 S 
ATOM     59  O   UNL A   1      42.617  18.108  27.399  1.00  0.00    -0.237 OA
ATOM     60  O   UNL A   1      40.892  18.771  25.753  1.00  0.00    -0.237 OA
ATOM     61  O   UNL A   1      43.214  18.392  25.019  1.00  0.00    -0.744 OA
ENDBRANCH  57  58
ENDBRANCH  25  50
BRANCH  37  62
ATOM     62  C   UNL A   1      49.364  26.614  26.251  1.00  0.00     0.058 A 
ATOM     63  C   UNL A   1      49.803  26.826  24.936  1.00  0.00     0.135 A 
ATOM     64  C   UNL A   1      50.282  26.080  27.171  1.00  0.00     0.135 A 
ATOM     65  F   UNL A   1      48.964  27.329  24.017  1.00  0.00    -0.206 F 
ATOM     66  C   UNL A   1      51.099  26.510  24.543  1.00  0.00     0.059 A 
ATOM     67  C   UNL A   1      51.593  25.785  26.808  1.00  0.00     0.059 A 
ATOM     68  F   UNL A   1      49.918  25.869  28.446  1.00  0.00    -0.206 F 
ATOM     69  C   UNL A   1      51.989  25.997  25.489  1.00  0.00     0.060 A 
BRANCH  69  70
ATOM     70  S   UNL A   1      53.681  25.638  24.973  1.00  0.00     0.124 S 
ATOM     71  O   UNL A   1      53.839  26.535  23.833  1.00  0.00    -0.237 OA
ATOM     72  O   UNL A   1      54.448  25.987  26.165  1.00  0.00    -0.237 OA
ATOM     73  O   UNL A   1      53.645  24.215  24.650  1.00  0.00    -0.744 OA
ENDBRANCH  69  70
ENDBRANCH  37  62
ENDBRANCH  11  12
ENDBRANCH   4   6
ENDBRANCH   1   2
BRANCH   1  74
ATOM     74  C   UNL A   1      35.020  29.983  27.581  1.00  0.00     0.042 C 
BRANCH  74  75
ATOM     75  C   UNL A   1      33.593  30.123  27.083  1.00  0.00     0.118 C 
BRANCH  75  76
ATOM     76  N   UNL A   1      32.701  29.094  27.611  1.00  0.00    -0.352 N 
ATOM     77  C   UNL A   1      31.815  28.273  26.956  1.00  0.00     0.252 C 
ATOM     78  H   UNL A   1      32.741  28.970  28.586  1.00  0.00     0.163 HD
ATOM     79  O   UNL A   1      31.093  27.508  27.590  1.00  0.00    -0.269 OA
BRANCH  77  80
ATOM     80  C   UNL A   1      31.765  28.289  25.480  1.00  0.00     0.051 A 
ATOM     81  C   UNL A   1      30.968  29.266  24.895  1.00  0.00     0.045 A 
ATOM     82  C   UNL A   1      32.471  27.364  24.686  1.00  0.00     0.016 A 
ATOM     83  C   UNL A   1      30.742  29.214  23.533  1.00  0.00     0.090 A 
ATOM     84  C   UNL A   1      32.223  27.428  23.297  1.00  0.00     0.072 A 
ATOM     85  C   UNL A   1      33.385  26.403  25.184  1.00  0.00     0.050 A 
ATOM     86  N   UNL A   1      31.368  28.309  22.744  1.00  0.00    -0.246 NA
ATOM     87  C   UNL A   1      32.888  26.538  22.462  1.00  0.00     0.032 A 
ATOM     88  C   UNL A   1      34.047  25.549  24.314  1.00  0.00     0.123 A 
ATOM     89  C   UNL A   1      33.805  25.605  22.953  1.00  0.00     0.041 A 
ATOM     90  F   UNL A   1      34.937  24.669  24.793  1.00  0.00    -0.207 F 
BRANCH  83  91
ATOM     91  C   UNL A   1      29.730  30.102  22.936  1.00  0.00     0.089 A 
ATOM     92  C   UNL A   1      29.060  31.057  23.705  1.00  0.00     0.030 A 
ATOM     93  N   UNL A   1      29.357  29.822  21.660  1.00  0.00    -0.255 NA
ATOM     94  C   UNL A   1      27.972  31.732  23.158  1.00  0.00     0.004 A 
ATOM     95  C   UNL A   1      28.304  30.498  21.152  1.00  0.00     0.112 A 
ATOM     96  C   UNL A   1      27.582  31.445  21.857  1.00  0.00     0.020 A 
ENDBRANCH  83  91
ENDBRANCH  77  80
ENDBRANCH  75  76
ENDBRANCH  74  75
ENDBRANCH   1  74
TORSDOF 14
ENDMDL
MODEL 3
REMARK VINA RESULT:     -13.1      4.302     10.121
REMARK SMILES O=C(NCCCNC(=O)c1cc(-c2ccccn2)nc2ccc(F)cc12)c1ccc(-c2c3nc(c(-c4c(F)cc(S(=O)(=O)[O-])cc4F)c4ccc([nH]4)c(-c4c(F)cc(S(=O)(=O)[O-])cc4F)c4nc(c(-c5c(F)cc(S(=O)(=O)[O-])cc5F)c5ccc2[nH]5)C=C4)C=C3)cc1
REMARK SMILES IDX 4 1 3 2 1 3 2 4 27 6 28 7 92 8 29 9 91 10 30 11 31 12 32 13
REMARK SMILES IDX 85 14 33 15 90 16 84 17 86 18 34 19 89 20 83 21 82 22 35 24
REMARK SMILES IDX 69 25 48 26 68 27 49 28 52 29 67 30 87 31 50 32 51 33 66 35
REMARK SMILES IDX 88 36 53 37 36 38 37 39 46 40 38 41 39 42 45 43 47 44 40 45
REMARK SMILES IDX 41 46 42 47 43 48 44 49 70 50 71 51 80 52 72 53 73 54 79 55
REMARK SMILES IDX 81 56 74 57 75 58 76 59 77 60 78 61 54 62 55 63 64 64 56 65
REMARK SMILES IDX 57 66 63 67 65 68 58 69 59 70 60 71 61 72 62 73 5 74 6 75
REMARK SMILES IDX 7 76 8 77 9 79 10 80 11 81 26 82 12 83 20 84 25 85 19 86
REMARK SMILES IDX 21 87 23 88 22 89 24 90 13 91 14 92 18 93 15 94 17 95 16 96
REMARK H PARENT 3 5 86 23 52 34 7 78
REMARK Flexibility Score: inf
ROOT
ATOM      1  C   UNL A   1      34.068  28.763  25.694  1.00  0.00     0.118 C 
ENDROOT
BRANCH   1   2
ATOM      2  N   UNL A   1      33.766  30.066  26.269  1.00  0.00    -0.352 N 
ATOM      3  O   UNL A   1      33.772  31.725  27.776  1.00  0.00    -0.269 OA
ATOM      4  C   UNL A   1      34.334  30.729  27.328  1.00  0.00     0.251 C 
ATOM      5  H   UNL A   1      33.034  30.551  25.825  1.00  0.00     0.163 HD
BRANCH   4   6
ATOM      6  C   UNL A   1      35.601  30.258  27.932  1.00  0.00     0.039 A 
ATOM      7  C   UNL A   1      35.569  29.679  29.204  1.00  0.00     0.014 A 
ATOM      8  C   UNL A   1      36.827  30.445  27.289  1.00  0.00     0.014 A 
ATOM      9  C   UNL A   1      36.758  29.270  29.814  1.00  0.00     0.010 A 
ATOM     10  C   UNL A   1      37.995  29.938  27.847  1.00  0.00     0.010 A 
ATOM     11  C   UNL A   1      37.981  29.386  29.134  1.00  0.00    -0.014 A 
BRANCH  11  12
ATOM     12  C   UNL A   1      39.268  29.035  29.787  1.00  0.00     0.031 A 
ATOM     13  C   UNL A   1      39.707  29.794  31.014  1.00  0.00     0.074 A 
ATOM     14  C   UNL A   1      40.050  28.067  29.272  1.00  0.00     0.049 A 
ATOM     15  N   UNL A   1      40.820  29.695  31.695  1.00  0.00    -0.248 NA
ATOM     16  C   UNL A   1      38.783  30.819  31.529  1.00  0.00     0.031 C 
ATOM     17  C   UNL A   1      39.744  27.277  28.080  1.00  0.00     0.029 A 
ATOM     18  N   UNL A   1      41.264  27.582  29.691  1.00  0.00    -0.354 N 
ATOM     19  C   UNL A   1      40.733  30.651  32.701  1.00  0.00     0.074 A 
ATOM     20  C   UNL A   1      39.495  31.367  32.502  1.00  0.00     0.031 C 
ATOM     21  C   UNL A   1      40.725  26.380  27.884  1.00  0.00     0.029 A 
ATOM     22  C   UNL A   1      41.750  26.561  28.909  1.00  0.00     0.049 A 
ATOM     23  H   UNL A   1      41.741  27.931  30.478  1.00  0.00     0.167 HD
ATOM     24  C   UNL A   1      41.589  30.886  33.724  1.00  0.00     0.037 A 
ATOM     25  C   UNL A   1      42.893  25.855  29.005  1.00  0.00     0.037 A 
ATOM     26  C   UNL A   1      42.803  30.145  33.937  1.00  0.00     0.049 A 
ATOM     27  C   UNL A   1      43.848  26.156  30.129  1.00  0.00     0.074 A 
ATOM     28  C   UNL A   1      43.719  30.275  34.965  1.00  0.00     0.029 A 
ATOM     29  N   UNL A   1      43.269  29.131  33.111  1.00  0.00    -0.354 N 
ATOM     30  N   UNL A   1      43.734  27.037  31.094  1.00  0.00    -0.248 NA
ATOM     31  C   UNL A   1      45.087  25.368  30.179  1.00  0.00     0.031 C 
ATOM     32  C   UNL A   1      44.765  29.377  34.733  1.00  0.00     0.029 A 
ATOM     33  C   UNL A   1      44.472  28.646  33.592  1.00  0.00     0.049 A 
ATOM     34  H   UNL A   1      42.810  28.806  32.303  1.00  0.00     0.167 HD
ATOM     35  C   UNL A   1      44.875  26.896  31.876  1.00  0.00     0.074 A 
ATOM     36  C   UNL A   1      45.659  25.833  31.281  1.00  0.00     0.031 C 
ATOM     37  C   UNL A   1      45.241  27.586  32.986  1.00  0.00     0.037 A 
BRANCH  24  38
ATOM     38  C   UNL A   1      41.235  31.980  34.694  1.00  0.00     0.058 A 
ATOM     39  C   UNL A   1      41.701  33.295  34.524  1.00  0.00     0.135 A 
ATOM     40  C   UNL A   1      40.393  31.723  35.787  1.00  0.00     0.135 A 
ATOM     41  F   UNL A   1      42.524  33.595  33.507  1.00  0.00    -0.206 F 
ATOM     42  C   UNL A   1      41.371  34.306  35.420  1.00  0.00     0.059 A 
ATOM     43  C   UNL A   1      40.024  32.727  36.678  1.00  0.00     0.059 A 
ATOM     44  F   UNL A   1      39.920  30.485  36.000  1.00  0.00    -0.206 F 
ATOM     45  C   UNL A   1      40.528  34.012  36.494  1.00  0.00     0.060 A 
BRANCH  45  46
ATOM     46  S   UNL A   1      40.108  35.340  37.640  1.00  0.00     0.124 S 
ATOM     47  O   UNL A   1      39.814  36.437  36.724  1.00  0.00    -0.237 OA
ATOM     48  O   UNL A   1      38.961  34.785  38.350  1.00  0.00    -0.237 OA
ATOM     49  O   UNL A   1      41.320  35.498  38.438  1.00  0.00    -0.744 OA
ENDBRANCH  45  46
ENDBRANCH  24  38
BRANCH  25  50
ATOM     50  C   UNL A   1      43.174  24.772  28.024  1.00  0.00     0.058 A 
ATOM     51  C   UNL A   1      43.796  25.056  26.800  1.00  0.00     0.135 A 
ATOM     52  C   UNL A   1      42.870  23.430  28.307  1.00  0.00     0.135 A 
ATOM     53  F   UNL A   1      44.098  26.323  26.479  1.00  0.00    -0.206 F 
ATOM     54  C   UNL A   1      44.109  24.051  25.890  1.00  0.00     0.059 A 
ATOM     55  C   UNL A   1      43.196  22.404  27.424  1.00  0.00     0.059 A 
ATOM     56  F   UNL A   1      42.285  23.104  29.469  1.00  0.00    -0.206 F 
ATOM     57  C   UNL A   1      43.814  22.725  26.217  1.00  0.00     0.060 A 
BRANCH  57  58
ATOM     58  S   UNL A   1      44.296  21.426  25.059  1.00  0.00     0.124 S 
ATOM     59  O   UNL A   1      45.639  21.099  25.523  1.00  0.00    -0.237 OA
ATOM     60  O   UNL A   1      43.272  20.414  25.296  1.00  0.00    -0.237 OA
ATOM     61  O   UNL A   1      44.222  22.089  23.760  1.00  0.00    -0.744 OA
ENDBRANCH  57  58
ENDBRANCH  25  50
BRANCH  37  62
ATOM     62  C   UNL A   1      46.540  27.212  33.645  1.00  0.00     0.058 A 
ATOM     63  C   UNL A   1      46.606  26.202  34.616  1.00  0.00     0.135 A 
ATOM     64  C   UNL A   1      47.744  27.809  33.239  1.00  0.00     0.135 A 
ATOM     65  F   UNL A   1      45.484  25.601  35.044  1.00  0.00    -0.206 F 
ATOM     66  C   UNL A   1      47.818  25.807  35.172  1.00  0.00     0.059 A 
ATOM     67  C   UNL A   1      48.971  27.409  33.758  1.00  0.00     0.059 A 
ATOM     68  F   UNL A   1      47.739  28.773  32.303  1.00  0.00    -0.206 F 
ATOM     69  C   UNL A   1      48.997  26.411  34.731  1.00  0.00     0.060 A 
BRANCH  69  70
ATOM     70  S   UNL A   1      50.565  25.853  35.429  1.00  0.00     0.124 S 
ATOM     71  O   UNL A   1      51.181  27.117  35.820  1.00  0.00    -0.237 OA
ATOM     72  O   UNL A   1      50.126  24.996  36.527  1.00  0.00    -0.237 OA
ATOM     73  O   UNL A   1      51.207  25.160  34.317  1.00  0.00    -0.744 OA
ENDBRANCH  69  70
ENDBRANCH  37  62
ENDBRANCH  11  12
ENDBRANCH   4   6
ENDBRANCH   1   2
BRANCH   1  74
ATOM     74  C   UNL A   1      33.466  27.619  26.493  1.00  0.00     0.042 C 
BRANCH  74  75
ATOM     75  C   UNL A   1      32.124  27.947  27.122  1.00  0.00     0.118 C 
BRANCH  75  76
ATOM     76  N   UNL A   1      31.188  26.827  27.084  1.00  0.00    -0.352 N 
ATOM     77  C   UNL A   1      30.487  26.298  26.027  1.00  0.00     0.252 C 
ATOM     78  H   UNL A   1      31.035  26.383  27.948  1.00  0.00     0.163 HD
ATOM     79  O   UNL A   1      29.684  25.387  26.209  1.00  0.00    -0.269 OA
BRANCH  77  80
ATOM     80  C   UNL A   1      30.734  26.809  24.664  1.00  0.00     0.051 A 
ATOM     81  C   UNL A   1      30.234  28.072  24.371  1.00  0.00     0.045 A 
ATOM     82  C   UNL A   1      31.429  26.066  23.689  1.00  0.00     0.016 A 
ATOM     83  C   UNL A   1      30.278  28.521  23.066  1.00  0.00     0.090 A 
ATOM     84  C   UNL A   1      31.475  26.635  22.398  1.00  0.00     0.072 A 
ATOM     85  C   UNL A   1      32.062  24.820  23.921  1.00  0.00     0.050 A 
ATOM     86  N   UNL A   1      30.898  27.812  22.092  1.00  0.00    -0.246 NA
ATOM     87  C   UNL A   1      32.144  25.947  21.392  1.00  0.00     0.032 A 
ATOM     88  C   UNL A   1      32.741  24.176  22.897  1.00  0.00     0.123 A 
ATOM     89  C   UNL A   1      32.786  24.728  21.628  1.00  0.00     0.041 A 
ATOM     90  F   UNL A   1      33.367  23.017  23.138  1.00  0.00    -0.207 F 
BRANCH  83  91
ATOM     91  C   UNL A   1      29.557  29.754  22.702  1.00  0.00     0.089 A 
ATOM     92  C   UNL A   1      28.941  30.545  23.674  1.00  0.00     0.030 A 
ATOM     93  N   UNL A   1      29.372  29.976  21.375  1.00  0.00    -0.255 NA
ATOM     94  C   UNL A   1      28.102  31.582  23.277  1.00  0.00     0.004 A 
ATOM     95  C   UNL A   1      28.559  30.994  21.018  1.00  0.00     0.112 A 
ATOM     96  C   UNL A   1      27.902  31.810  21.923  1.00  0.00     0.020 A 
ENDBRANCH  83  91
ENDBRANCH  77  80
ENDBRANCH  75  76
ENDBRANCH  74  75
ENDBRANCH   1  74
TORSDOF 14
ENDMDL
