MODEL 1
REMARK VINA RESULT:     -13.6      0.000      0.000
REMARK SMILES Cc1ccc(S(=O)(=O)n2cc(C(=O)C(=O)NCC(=O)NCCCNC(=O)c3ccc(-c4c5nc(c(-c6c(F)cc(S(=O)(=O)[O-])cc6F)c6ccc([nH]6)c(-c6c(F)cc(S(=O)(=O)[O-])cc6F)c6nc(c(-c7c(F)cc(S(=O)(=O)[O-])cc7F)c7ccc4[nH]7)C=C6)C=C5)cc3)c3ccccc32)cc1
REMARK SMILES IDX 21 1 20 2 18 3 19 4 17 6 16 7 14 8 15 9 12 11 13 12 11 13
REMARK SMILES IDX 9 14 10 15 98 16 93 17 97 18 94 19 96 20 95 21 6 22 7 23
REMARK SMILES IDX 8 24 5 25 1 26 2 27 3 28 100 29 4 30 99 31 22 32 23 33 24 34
REMARK SMILES IDX 25 35 26 37 27 38 28 39 92 40 29 41 91 42 30 43 31 44 32 45
REMARK SMILES IDX 85 46 33 47 90 48 84 49 86 50 34 51 89 52 83 53 82 54 35 56
REMARK SMILES IDX 69 57 48 58 68 59 49 60 52 61 67 62 87 63 50 64 51 65 66 67
REMARK SMILES IDX 88 68 53 69 36 70 37 71 46 72 38 73 39 74 45 75 47 76 40 77
REMARK SMILES IDX 41 78 42 79 43 80 44 81 70 82 71 83 80 84 72 85 73 86 79 87
REMARK SMILES IDX 81 88 74 89 75 90 76 91 77 92 78 93 54 94 55 95 64 96 56 97
REMARK SMILES IDX 57 98 63 99 65 100 58 101 59 102 60 103 61 104 62 105
REMARK H PARENT 20 5 16 10 24 36 86 55 52 66
REMARK Flexibility Score: inf
ROOT
ATOM      1  C   UNL A   1      36.172  22.950  26.491  1.00  0.00     0.117 C 
ENDROOT
BRANCH   1   2
ATOM      2  N   UNL A   1      36.848  21.726  26.083  1.00  0.00    -0.355 N 
ATOM      3  C   UNL A   1      36.438  20.783  25.183  1.00  0.00     0.239 C 
ATOM      4  O   UNL A   1      37.157  19.808  24.958  1.00  0.00    -0.273 OA
ATOM      5  H   UNL A   1      37.716  21.554  26.515  1.00  0.00     0.163 HD
BRANCH   3   6
ATOM      6  C   UNL A   1      35.118  20.981  24.431  1.00  0.00     0.216 C 
BRANCH   6   7
ATOM      7  N   UNL A   1      34.070  20.071  24.879  1.00  0.00    -0.340 N 
ATOM      8  C   UNL A   1      32.781  19.889  24.424  1.00  0.00     0.292 C 
ATOM      9  O   UNL A   1      32.089  19.021  24.947  1.00  0.00    -0.265 OA
ATOM     10  H   UNL A   1      34.325  19.491  25.632  1.00  0.00     0.164 HD
BRANCH   8  11
ATOM     11  C   UNL A   1      32.211  20.751  23.272  1.00  0.00     0.252 C 
ATOM     12  O   UNL A   1      31.913  20.186  22.222  1.00  0.00    -0.283 OA
BRANCH  11  13
ATOM     13  C   UNL A   1      31.976  22.197  23.423  1.00  0.00     0.054 A 
ATOM     14  N   UNL A   1      32.044  24.414  23.138  1.00  0.00    -0.240 N 
ATOM     15  C   UNL A   1      32.382  23.210  22.574  1.00  0.00     0.117 A 
ATOM     16  C   UNL A   1      31.384  24.235  24.335  1.00  0.00     0.065 A 
ATOM     17  C   UNL A   1      31.322  22.848  24.534  1.00  0.00     0.012 A 
ATOM     18  C   UNL A   1      30.868  25.145  25.277  1.00  0.00     0.028 A 
ATOM     19  C   UNL A   1      30.692  22.369  25.704  1.00  0.00     0.011 A 
ATOM     20  C   UNL A   1      30.280  24.638  26.437  1.00  0.00     0.002 A 
ATOM     21  C   UNL A   1      30.182  23.269  26.645  1.00  0.00     0.001 A 
BRANCH  14  22
ATOM     22  S   UNL A   1      32.535  25.921  22.514  1.00  0.00     0.268 S 
ATOM     23  O   UNL A   1      31.333  26.560  22.029  1.00  0.00    -0.201 OA
ATOM     24  O   UNL A   1      33.672  25.646  21.648  1.00  0.00    -0.201 OA
BRANCH  22  25
ATOM     25  C   UNL A   1      33.152  26.909  23.857  1.00  0.00     0.088 A 
ATOM     26  C   UNL A   1      34.269  29.456  27.142  1.00  0.00     0.044 C 
ATOM     27  C   UNL A   1      33.901  28.569  25.989  1.00  0.00    -0.051 A 
ATOM     28  C   UNL A   1      33.137  29.078  24.933  1.00  0.00     0.005 A 
ATOM     29  C   UNL A   1      34.311  27.230  25.950  1.00  0.00     0.005 A 
ATOM     30  C   UNL A   1      32.758  28.252  23.874  1.00  0.00     0.022 A 
ATOM     31  C   UNL A   1      33.951  26.402  24.882  1.00  0.00     0.022 A 
ENDBRANCH  22  25
ENDBRANCH  14  22
ENDBRANCH  11  13
ENDBRANCH   8  11
ENDBRANCH   6   7
ENDBRANCH   3   6
ENDBRANCH   1   2
BRANCH   1  32
ATOM     32  C   UNL A   1      37.070  24.166  26.316  1.00  0.00     0.042 C 
BRANCH  32  33
ATOM     33  C   UNL A   1      38.502  23.785  25.979  1.00  0.00     0.118 C 
BRANCH  33  34
ATOM     34  N   UNL A   1      39.305  23.482  27.159  1.00  0.00    -0.352 N 
ATOM     35  C   UNL A   1      40.127  24.350  27.863  1.00  0.00     0.251 C 
ATOM     36  H   UNL A   1      39.258  22.558  27.493  1.00  0.00     0.163 HD
ATOM     37  O   UNL A   1      41.085  23.977  28.529  1.00  0.00    -0.269 OA
BRANCH  35  38
ATOM     38  C   UNL A   1      39.665  25.749  27.950  1.00  0.00     0.039 A 
ATOM     39  C   UNL A   1      40.197  26.643  27.008  1.00  0.00     0.014 A 
ATOM     40  C   UNL A   1      39.112  26.192  29.143  1.00  0.00     0.014 A 
ATOM     41  C   UNL A   1      40.407  27.962  27.373  1.00  0.00     0.010 A 
ATOM     42  C   UNL A   1      39.458  27.447  29.562  1.00  0.00     0.010 A 
ATOM     43  C   UNL A   1      40.145  28.305  28.690  1.00  0.00    -0.014 A 
BRANCH  43  44
ATOM     44  C   UNL A   1      40.423  29.594  29.274  1.00  0.00     0.031 A 
ATOM     45  C   UNL A   1      39.352  30.594  29.171  1.00  0.00     0.074 A 
ATOM     46  C   UNL A   1      41.483  29.701  30.103  1.00  0.00     0.049 A 
ATOM     47  N   UNL A   1      39.474  31.813  29.538  1.00  0.00    -0.248 NA
ATOM     48  C   UNL A   1      38.037  30.299  28.591  1.00  0.00     0.031 C 
ATOM     49  C   UNL A   1      41.719  30.683  31.153  1.00  0.00     0.029 A 
ATOM     50  N   UNL A   1      42.694  29.004  30.010  1.00  0.00    -0.354 N 
ATOM     51  C   UNL A   1      38.208  32.346  29.584  1.00  0.00     0.074 A 
ATOM     52  C   UNL A   1      37.386  31.440  28.830  1.00  0.00     0.031 C 
ATOM     53  C   UNL A   1      43.039  30.734  31.409  1.00  0.00     0.029 A 
ATOM     54  C   UNL A   1      43.698  29.921  30.399  1.00  0.00     0.049 A 
ATOM     55  H   UNL A   1      42.820  28.068  29.730  1.00  0.00     0.167 HD
ATOM     56  C   UNL A   1      38.009  33.413  30.405  1.00  0.00     0.037 A 
ATOM     57  C   UNL A   1      44.555  30.406  29.446  1.00  0.00     0.037 A 
ATOM     58  C   UNL A   1      39.301  33.927  30.867  1.00  0.00     0.049 A 
ATOM     59  C   UNL A   1      44.367  31.889  29.151  1.00  0.00     0.074 A 
ATOM     60  C   UNL A   1      40.035  33.847  32.036  1.00  0.00     0.029 A 
ATOM     61  N   UNL A   1      40.179  34.375  29.900  1.00  0.00    -0.354 N 
ATOM     62  N   UNL A   1      43.405  32.622  29.649  1.00  0.00    -0.248 NA
ATOM     63  C   UNL A   1      45.219  32.657  28.245  1.00  0.00     0.031 C 
ATOM     64  C   UNL A   1      41.395  34.170  31.715  1.00  0.00     0.029 A 
ATOM     65  C   UNL A   1      41.469  34.486  30.369  1.00  0.00     0.049 A 
ATOM     66  H   UNL A   1      39.913  34.589  28.978  1.00  0.00     0.167 HD
ATOM     67  C   UNL A   1      43.447  33.883  29.119  1.00  0.00     0.074 A 
ATOM     68  C   UNL A   1      44.605  33.856  28.241  1.00  0.00     0.031 C 
ATOM     69  C   UNL A   1      42.515  34.841  29.414  1.00  0.00     0.037 A 
BRANCH  56  70
ATOM     70  C   UNL A   1      36.682  33.916  30.922  1.00  0.00     0.058 A 
ATOM     71  C   UNL A   1      35.711  34.356  29.997  1.00  0.00     0.135 A 
ATOM     72  C   UNL A   1      36.333  34.105  32.278  1.00  0.00     0.135 A 
ATOM     73  F   UNL A   1      35.903  34.233  28.676  1.00  0.00    -0.206 F 
ATOM     74  C   UNL A   1      34.514  34.964  30.381  1.00  0.00     0.059 A 
ATOM     75  C   UNL A   1      35.122  34.671  32.686  1.00  0.00     0.059 A 
ATOM     76  F   UNL A   1      37.159  33.806  33.284  1.00  0.00    -0.206 F 
ATOM     77  C   UNL A   1      34.229  35.122  31.729  1.00  0.00     0.060 A 
BRANCH  77  78
ATOM     78  S   UNL A   1      32.700  35.940  32.210  1.00  0.00     0.124 S 
ATOM     79  O   UNL A   1      32.263  36.525  30.946  1.00  0.00    -0.237 OA
ATOM     80  O   UNL A   1      31.899  34.828  32.710  1.00  0.00    -0.237 OA
ATOM     81  O   UNL A   1      33.131  36.901  33.223  1.00  0.00    -0.744 OA
ENDBRANCH  77  78
ENDBRANCH  56  70
BRANCH  57  82
ATOM     82  C   UNL A   1      44.918  29.337  28.457  1.00  0.00     0.058 A 
ATOM     83  C   UNL A   1      45.831  28.347  28.884  1.00  0.00     0.135 A 
ATOM     84  C   UNL A   1      44.054  28.997  27.407  1.00  0.00     0.135 A 
ATOM     85  F   UNL A   1      46.699  28.617  29.872  1.00  0.00    -0.206 F 
ATOM     86  C   UNL A   1      45.752  27.030  28.437  1.00  0.00     0.059 A 
ATOM     87  C   UNL A   1      43.973  27.684  26.928  1.00  0.00     0.059 A 
ATOM     88  F   UNL A   1      43.169  29.894  26.942  1.00  0.00    -0.206 F 
ATOM     89  C   UNL A   1      44.771  26.695  27.509  1.00  0.00     0.060 A 
BRANCH  89  90
ATOM     90  S   UNL A   1      44.455  24.936  27.210  1.00  0.00     0.124 S 
ATOM     91  O   UNL A   1      44.274  24.429  28.564  1.00  0.00    -0.237 OA
ATOM     92  O   UNL A   1      43.246  24.973  26.382  1.00  0.00    -0.237 OA
ATOM     93  O   UNL A   1      45.665  24.492  26.528  1.00  0.00    -0.744 OA
ENDBRANCH  89  90
ENDBRANCH  57  82
BRANCH  69  94
ATOM     94  C   UNL A   1      42.494  36.216  28.790  1.00  0.00     0.058 A 
ATOM     95  C   UNL A   1      41.955  36.458  27.519  1.00  0.00     0.135 A 
ATOM     96  C   UNL A   1      43.133  37.320  29.406  1.00  0.00     0.135 A 
ATOM     97  F   UNL A   1      41.378  35.470  26.818  1.00  0.00    -0.206 F 
ATOM     98  C   UNL A   1      42.005  37.720  26.920  1.00  0.00     0.059 A 
ATOM     99  C   UNL A   1      43.264  38.561  28.797  1.00  0.00     0.059 A 
ATOM    100  F   UNL A   1      43.619  37.252  30.653  1.00  0.00    -0.206 F 
ATOM    101  C   UNL A   1      42.669  38.762  27.565  1.00  0.00     0.060 A 
BRANCH 101 102
ATOM    102  S   UNL A   1      42.749  40.386  26.791  1.00  0.00     0.124 S 
ATOM    103  O   UNL A   1      43.141  41.245  27.903  1.00  0.00    -0.237 OA
ATOM    104  O   UNL A   1      43.768  40.168  25.769  1.00  0.00    -0.237 OA
ATOM    105  O   UNL A   1      41.394  40.594  26.292  1.00  0.00    -0.744 OA
ENDBRANCH 101 102
ENDBRANCH  69  94
ENDBRANCH  43  44
ENDBRANCH  35  38
ENDBRANCH  33  34
ENDBRANCH  32  33
ENDBRANCH   1  32
TORSDOF 18
ENDMDL
MODEL 2
REMARK VINA RESULT:     -13.2      2.323      3.896
REMARK SMILES Cc1ccc(S(=O)(=O)n2cc(C(=O)C(=O)NCC(=O)NCCCNC(=O)c3ccc(-c4c5nc(c(-c6c(F)cc(S(=O)(=O)[O-])cc6F)c6ccc([nH]6)c(-c6c(F)cc(S(=O)(=O)[O-])cc6F)c6nc(c(-c7c(F)cc(S(=O)(=O)[O-])cc7F)c7ccc4[nH]7)C=C6)C=C5)cc3)c3ccccc32)cc1
REMARK SMILES IDX 21 1 20 2 18 3 19 4 17 6 16 7 14 8 15 9 12 11 13 12 11 13
REMARK SMILES IDX 9 14 10 15 98 16 93 17 97 18 94 19 96 20 95 21 6 22 7 23
REMARK SMILES IDX 8 24 5 25 1 26 2 27 3 28 100 29 4 30 99 31 22 32 23 33 24 34
REMARK SMILES IDX 25 35 26 37 27 38 28 39 92 40 29 41 91 42 30 43 31 44 32 45
REMARK SMILES IDX 85 46 33 47 90 48 84 49 86 50 34 51 89 52 83 53 82 54 35 56
REMARK SMILES IDX 69 57 48 58 68 59 49 60 52 61 67 62 87 63 50 64 51 65 66 67
REMARK SMILES IDX 88 68 53 69 36 70 37 71 46 72 38 73 39 74 45 75 47 76 40 77
REMARK SMILES IDX 41 78 42 79 43 80 44 81 70 82 71 83 80 84 72 85 73 86 79 87
REMARK SMILES IDX 81 88 74 89 75 90 76 91 77 92 78 93 54 94 55 95 64 96 56 97
REMARK SMILES IDX 57 98 63 99 65 100 58 101 59 102 60 103 61 104 62 105
REMARK H PARENT 20 5 16 10 24 36 86 55 52 66
REMARK Flexibility Score: inf
ROOT
ATOM      1  C   UNL A   1      34.964  23.196  25.556  1.00  0.00     0.117 C 
ENDROOT
BRANCH   1   2
ATOM      2  N   UNL A   1      35.095  23.095  24.109  1.00  0.00    -0.355 N 
ATOM      3  C   UNL A   1      34.211  23.485  23.142  1.00  0.00     0.239 C 
ATOM      4  O   UNL A   1      34.503  23.327  21.955  1.00  0.00    -0.273 OA
ATOM      5  H   UNL A   1      35.931  22.691  23.784  1.00  0.00     0.163 HD
BRANCH   3   6
ATOM      6  C   UNL A   1      32.897  24.159  23.548  1.00  0.00     0.216 C 
BRANCH   6   7
ATOM      7  N   UNL A   1      32.119  24.618  22.403  1.00  0.00    -0.340 N 
ATOM      8  C   UNL A   1      32.109  25.832  21.749  1.00  0.00     0.292 C 
ATOM      9  O   UNL A   1      31.381  25.968  20.771  1.00  0.00    -0.265 OA
ATOM     10  H   UNL A   1      31.497  23.949  22.036  1.00  0.00     0.164 HD
BRANCH   8  11
ATOM     11  C   UNL A   1      33.000  27.004  22.227  1.00  0.00     0.252 C 
ATOM     12  O   UNL A   1      34.050  27.213  21.625  1.00  0.00    -0.283 OA
BRANCH  11  13
ATOM     13  C   UNL A   1      32.597  27.887  23.335  1.00  0.00     0.054 A 
ATOM     14  N   UNL A   1      32.385  28.815  25.359  1.00  0.00    -0.240 N 
ATOM     15  C   UNL A   1      33.108  27.913  24.620  1.00  0.00     0.117 A 
ATOM     16  C   UNL A   1      31.418  29.426  24.590  1.00  0.00     0.065 A 
ATOM     17  C   UNL A   1      31.535  28.865  23.310  1.00  0.00     0.012 A 
ATOM     18  C   UNL A   1      30.433  30.386  24.894  1.00  0.00     0.028 A 
ATOM     19  C   UNL A   1      30.651  29.312  22.302  1.00  0.00     0.011 A 
ATOM     20  C   UNL A   1      29.556  30.781  23.882  1.00  0.00     0.002 A 
ATOM     21  C   UNL A   1      29.669  30.260  22.599  1.00  0.00     0.001 A 
BRANCH  14  22
ATOM     22  S   UNL A   1      32.557  29.012  27.042  1.00  0.00     0.268 S 
ATOM     23  O   UNL A   1      33.691  28.201  27.421  1.00  0.00    -0.201 OA
ATOM     24  O   UNL A   1      31.232  28.807  27.608  1.00  0.00    -0.201 OA
BRANCH  22  25
ATOM     25  C   UNL A   1      32.989  30.705  27.367  1.00  0.00     0.088 A 
ATOM     26  C   UNL A   1      34.383  34.735  27.953  1.00  0.00     0.044 C 
ATOM     27  C   UNL A   1      33.885  33.332  27.768  1.00  0.00    -0.051 A 
ATOM     28  C   UNL A   1      34.745  32.251  27.993  1.00  0.00     0.005 A 
ATOM     29  C   UNL A   1      32.565  33.081  27.371  1.00  0.00     0.005 A 
ATOM     30  C   UNL A   1      34.303  30.943  27.788  1.00  0.00     0.022 A 
ATOM     31  C   UNL A   1      32.110  31.773  27.182  1.00  0.00     0.022 A 
ENDBRANCH  22  25
ENDBRANCH  14  22
ENDBRANCH  11  13
ENDBRANCH   8  11
ENDBRANCH   6   7
ENDBRANCH   3   6
ENDBRANCH   1   2
BRANCH   1  32
ATOM     32  C   UNL A   1      36.324  23.262  26.234  1.00  0.00     0.042 C 
BRANCH  32  33
ATOM     33  C   UNL A   1      37.405  22.551  25.437  1.00  0.00     0.118 C 
BRANCH  33  34
ATOM     34  N   UNL A   1      38.542  22.144  26.253  1.00  0.00    -0.352 N 
ATOM     35  C   UNL A   1      39.664  22.897  26.569  1.00  0.00     0.251 C 
ATOM     36  H   UNL A   1      38.511  21.232  26.622  1.00  0.00     0.163 HD
ATOM     37  O   UNL A   1      40.747  22.402  26.855  1.00  0.00    -0.269 OA
BRANCH  35  38
ATOM     38  C   UNL A   1      39.439  24.343  26.758  1.00  0.00     0.039 A 
ATOM     39  C   UNL A   1      40.266  25.206  26.023  1.00  0.00     0.014 A 
ATOM     40  C   UNL A   1      38.775  24.768  27.900  1.00  0.00     0.014 A 
ATOM     41  C   UNL A   1      40.632  26.422  26.575  1.00  0.00     0.010 A 
ATOM     42  C   UNL A   1      39.253  25.891  28.517  1.00  0.00     0.010 A 
ATOM     43  C   UNL A   1      40.213  26.683  27.870  1.00  0.00    -0.014 A 
BRANCH  43  44
ATOM     44  C   UNL A   1      40.604  27.836  28.643  1.00  0.00     0.031 A 
ATOM     45  C   UNL A   1      39.677  28.975  28.615  1.00  0.00     0.074 A 
ATOM     46  C   UNL A   1      41.600  27.691  29.542  1.00  0.00     0.049 A 
ATOM     47  N   UNL A   1      39.921  30.109  29.155  1.00  0.00    -0.248 NA
ATOM     48  C   UNL A   1      38.384  28.937  27.921  1.00  0.00     0.031 C 
ATOM     49  C   UNL A   1      41.874  28.488  30.730  1.00  0.00     0.029 A 
ATOM     50  N   UNL A   1      42.718  26.857  29.426  1.00  0.00    -0.354 N 
ATOM     51  C   UNL A   1      38.731  30.797  29.198  1.00  0.00     0.074 A 
ATOM     52  C   UNL A   1      37.864  30.114  28.277  1.00  0.00     0.031 C 
ATOM     53  C   UNL A   1      43.166  28.328  31.070  1.00  0.00     0.029 A 
ATOM     54  C   UNL A   1      43.795  27.573  29.999  1.00  0.00     0.049 A 
ATOM     55  H   UNL A   1      42.748  25.956  29.027  1.00  0.00     0.167 HD
ATOM     56  C   UNL A   1      38.603  31.764  30.145  1.00  0.00     0.037 A 
ATOM     57  C   UNL A   1      44.778  28.057  29.176  1.00  0.00     0.037 A 
ATOM     58  C   UNL A   1      39.908  32.036  30.752  1.00  0.00     0.049 A 
ATOM     59  C   UNL A   1      44.800  29.578  29.079  1.00  0.00     0.074 A 
ATOM     60  C   UNL A   1      40.533  31.708  31.940  1.00  0.00     0.029 A 
ATOM     61  N   UNL A   1      40.909  32.484  29.912  1.00  0.00    -0.354 N 
ATOM     62  N   UNL A   1      43.901  30.362  29.615  1.00  0.00    -0.248 NA
ATOM     63  C   UNL A   1      45.810  30.336  28.342  1.00  0.00     0.031 C 
ATOM     64  C   UNL A   1      41.944  31.884  31.751  1.00  0.00     0.029 A 
ATOM     65  C   UNL A   1      42.162  32.360  30.469  1.00  0.00     0.049 A 
ATOM     66  H   UNL A   1      40.744  32.850  29.013  1.00  0.00     0.167 HD
ATOM     67  C   UNL A   1      44.141  31.665  29.269  1.00  0.00     0.074 A 
ATOM     68  C   UNL A   1      45.351  31.597  28.467  1.00  0.00     0.031 C 
ATOM     69  C   UNL A   1      43.315  32.692  29.638  1.00  0.00     0.037 A 
BRANCH  56  70
ATOM     70  C   UNL A   1      37.313  32.370  30.646  1.00  0.00     0.058 A 
ATOM     71  C   UNL A   1      37.150  33.771  30.593  1.00  0.00     0.135 A 
ATOM     72  C   UNL A   1      36.258  31.678  31.282  1.00  0.00     0.135 A 
ATOM     73  F   UNL A   1      38.068  34.556  30.011  1.00  0.00    -0.206 F 
ATOM     74  C   UNL A   1      36.057  34.432  31.155  1.00  0.00     0.059 A 
ATOM     75  C   UNL A   1      35.134  32.315  31.814  1.00  0.00     0.059 A 
ATOM     76  F   UNL A   1      36.277  30.356  31.478  1.00  0.00    -0.206 F 
ATOM     77  C   UNL A   1      35.054  33.695  31.769  1.00  0.00     0.060 A 
BRANCH  77  78
ATOM     78  S   UNL A   1      33.668  34.563  32.522  1.00  0.00     0.124 S 
ATOM     79  O   UNL A   1      32.966  35.080  31.351  1.00  0.00    -0.237 OA
ATOM     80  O   UNL A   1      32.994  33.495  33.251  1.00  0.00    -0.237 OA
ATOM     81  O   UNL A   1      34.312  35.575  33.356  1.00  0.00    -0.744 OA
ENDBRANCH  77  78
ENDBRANCH  56  70
BRANCH  57  82
ATOM     82  C   UNL A   1      45.081  27.087  28.072  1.00  0.00     0.058 A 
ATOM     83  C   UNL A   1      44.654  27.437  26.771  1.00  0.00     0.135 A 
ATOM     84  C   UNL A   1      46.150  26.186  28.172  1.00  0.00     0.135 A 
ATOM     85  F   UNL A   1      43.621  28.280  26.608  1.00  0.00    -0.206 F 
ATOM     86  C   UNL A   1      45.378  27.077  25.637  1.00  0.00     0.059 A 
ATOM     87  C   UNL A   1      46.877  25.795  27.042  1.00  0.00     0.059 A 
ATOM     88  F   UNL A   1      46.598  25.800  29.377  1.00  0.00    -0.206 F 
ATOM     89  C   UNL A   1      46.530  26.312  25.791  1.00  0.00     0.060 A 
BRANCH  89  90
ATOM     90  S   UNL A   1      47.638  26.154  24.367  1.00  0.00     0.124 S 
ATOM     91  O   UNL A   1      47.324  24.813  23.889  1.00  0.00    -0.237 OA
ATOM     92  O   UNL A   1      47.195  27.252  23.503  1.00  0.00    -0.237 OA
ATOM     93  O   UNL A   1      48.962  26.318  24.956  1.00  0.00    -0.744 OA
ENDBRANCH  89  90
ENDBRANCH  57  82
BRANCH  69  94
ATOM     94  C   UNL A   1      43.515  34.127  29.210  1.00  0.00     0.058 A 
ATOM     95  C   UNL A   1      43.652  35.175  30.131  1.00  0.00     0.135 A 
ATOM     96  C   UNL A   1      43.450  34.511  27.848  1.00  0.00     0.135 A 
ATOM     97  F   UNL A   1      43.665  34.932  31.451  1.00  0.00    -0.206 F 
ATOM     98  C   UNL A   1      43.764  36.508  29.726  1.00  0.00     0.059 A 
ATOM     99  C   UNL A   1      43.480  35.834  27.427  1.00  0.00     0.059 A 
ATOM    100  F   UNL A   1      43.402  33.608  26.859  1.00  0.00    -0.206 F 
ATOM    101  C   UNL A   1      43.669  36.827  28.372  1.00  0.00     0.060 A 
BRANCH 101 102
ATOM    102  S   UNL A   1      43.797  38.544  27.847  1.00  0.00     0.124 S 
ATOM    103  O   UNL A   1      43.465  39.271  29.067  1.00  0.00    -0.237 OA
ATOM    104  O   UNL A   1      45.194  38.614  27.429  1.00  0.00    -0.237 OA
ATOM    105  O   UNL A   1      42.814  38.648  26.774  1.00  0.00    -0.744 OA
ENDBRANCH 101 102
ENDBRANCH  69  94
ENDBRANCH  43  44
ENDBRANCH  35  38
ENDBRANCH  33  34
ENDBRANCH  32  33
ENDBRANCH   1  32
TORSDOF 18
ENDMDL
MODEL 3
REMARK VINA RESULT:     -13.1      2.368      3.421
REMARK SMILES Cc1ccc(S(=O)(=O)n2cc(C(=O)C(=O)NCC(=O)NCCCNC(=O)c3ccc(-c4c5nc(c(-c6c(F)cc(S(=O)(=O)[O-])cc6F)c6ccc([nH]6)c(-c6c(F)cc(S(=O)(=O)[O-])cc6F)c6nc(c(-c7c(F)cc(S(=O)(=O)[O-])cc7F)c7ccc4[nH]7)C=C6)C=C5)cc3)c3ccccc32)cc1
REMARK SMILES IDX 21 1 20 2 18 3 19 4 17 6 16 7 14 8 15 9 12 11 13 12 11 13
REMARK SMILES IDX 9 14 10 15 98 16 93 17 97 18 94 19 96 20 95 21 6 22 7 23
REMARK SMILES IDX 8 24 5 25 1 26 2 27 3 28 100 29 4 30 99 31 22 32 23 33 24 34
REMARK SMILES IDX 25 35 26 37 27 38 28 39 92 40 29 41 91 42 30 43 31 44 32 45
REMARK SMILES IDX 85 46 33 47 90 48 84 49 86 50 34 51 89 52 83 53 82 54 35 56
REMARK SMILES IDX 69 57 48 58 68 59 49 60 52 61 67 62 87 63 50 64 51 65 66 67
REMARK SMILES IDX 88 68 53 69 36 70 37 71 46 72 38 73 39 74 45 75 47 76 40 77
REMARK SMILES IDX 41 78 42 79 43 80 44 81 70 82 71 83 80 84 72 85 73 86 79 87
REMARK SMILES IDX 81 88 74 89 75 90 76 91 77 92 78 93 54 94 55 95 64 96 56 97
REMARK SMILES IDX 57 98 63 99 65 100 58 101 59 102 60 103 61 104 62 105
REMARK H PARENT 20 5 16 10 24 36 86 55 52 66
REMARK Flexibility Score: inf
ROOT
ATOM      1  C   UNL A   1      35.004  21.855  24.372  1.00  0.00     0.117 C 
ENDROOT
BRANCH   1   2
ATOM      2  N   UNL A   1      34.432  20.661  24.980  1.00  0.00    -0.355 N 
ATOM      3  C   UNL A   1      33.121  20.378  25.237  1.00  0.00     0.239 C 
ATOM      4  O   UNL A   1      32.823  19.299  25.752  1.00  0.00    -0.273 OA
ATOM      5  H   UNL A   1      35.078  19.965  25.240  1.00  0.00     0.163 HD
BRANCH   3   6
ATOM      6  C   UNL A   1      32.038  21.384  24.832  1.00  0.00     0.216 C 
BRANCH   6   7
ATOM      7  N   UNL A   1      31.185  21.776  25.948  1.00  0.00    -0.340 N 
ATOM      8  C   UNL A   1      31.194  22.909  26.735  1.00  0.00     0.292 C 
ATOM      9  O   UNL A   1      30.336  23.031  27.603  1.00  0.00    -0.265 OA
ATOM     10  H   UNL A   1      30.485  21.124  26.178  1.00  0.00     0.164 HD
BRANCH   8  11
ATOM     11  C   UNL A   1      32.257  24.015  26.529  1.00  0.00     0.252 C 
ATOM     12  O   UNL A   1      33.371  23.843  27.018  1.00  0.00    -0.283 OA
BRANCH  11  13
ATOM     13  C   UNL A   1      31.980  25.223  25.733  1.00  0.00     0.054 A 
ATOM     14  N   UNL A   1      31.630  26.620  24.022  1.00  0.00    -0.240 N 
ATOM     15  C   UNL A   1      31.743  25.299  24.372  1.00  0.00     0.117 A 
ATOM     16  C   UNL A   1      31.751  27.439  25.124  1.00  0.00     0.065 A 
ATOM     17  C   UNL A   1      31.964  26.584  26.215  1.00  0.00     0.012 A 
ATOM     18  C   UNL A   1      31.730  28.840  25.270  1.00  0.00     0.028 A 
ATOM     19  C   UNL A   1      32.129  27.162  27.494  1.00  0.00     0.011 A 
ATOM     20  C   UNL A   1      31.926  29.377  26.543  1.00  0.00     0.002 A 
ATOM     21  C   UNL A   1      32.113  28.551  27.644  1.00  0.00     0.001 A 
BRANCH  14  22
ATOM     22  S   UNL A   1      31.530  27.166  22.411  1.00  0.00     0.268 S 
ATOM     23  O   UNL A   1      31.021  26.050  21.647  1.00  0.00    -0.201 OA
ATOM     24  O   UNL A   1      32.814  27.786  22.117  1.00  0.00    -0.201 OA
BRANCH  22  25
ATOM     25  C   UNL A   1      30.314  28.459  22.332  1.00  0.00     0.088 A 
ATOM     26  C   UNL A   1      27.284  31.510  22.532  1.00  0.00     0.044 C 
ATOM     27  C   UNL A   1      28.337  30.444  22.440  1.00  0.00    -0.051 A 
ATOM     28  C   UNL A   1      28.090  29.173  22.971  1.00  0.00     0.005 A 
ATOM     29  C   UNL A   1      29.570  30.699  21.827  1.00  0.00     0.005 A 
ATOM     30  C   UNL A   1      29.075  28.185  22.924  1.00  0.00     0.022 A 
ATOM     31  C   UNL A   1      30.555  29.708  21.760  1.00  0.00     0.022 A 
ENDBRANCH  22  25
ENDBRANCH  14  22
ENDBRANCH  11  13
ENDBRANCH   8  11
ENDBRANCH   6   7
ENDBRANCH   3   6
ENDBRANCH   1   2
BRANCH   1  32
ATOM     32  C   UNL A   1      35.956  22.562  25.326  1.00  0.00     0.042 C 
BRANCH  32  33
ATOM     33  C   UNL A   1      37.406  22.456  24.882  1.00  0.00     0.118 C 
BRANCH  33  34
ATOM     34  N   UNL A   1      38.280  21.911  25.915  1.00  0.00    -0.352 N 
ATOM     35  C   UNL A   1      39.377  22.528  26.500  1.00  0.00     0.251 C 
ATOM     36  H   UNL A   1      38.068  21.005  26.233  1.00  0.00     0.163 HD
ATOM     37  O   UNL A   1      40.308  21.909  27.000  1.00  0.00    -0.269 OA
BRANCH  35  38
ATOM     38  C   UNL A   1      39.273  23.988  26.688  1.00  0.00     0.039 A 
ATOM     39  C   UNL A   1      40.149  24.779  25.929  1.00  0.00     0.014 A 
ATOM     40  C   UNL A   1      38.674  24.467  27.843  1.00  0.00     0.014 A 
ATOM     41  C   UNL A   1      40.625  25.963  26.467  1.00  0.00     0.010 A 
ATOM     42  C   UNL A   1      39.256  25.549  28.444  1.00  0.00     0.010 A 
ATOM     43  C   UNL A   1      40.260  26.260  27.771  1.00  0.00    -0.014 A 
BRANCH  43  44
ATOM     44  C   UNL A   1      40.761  27.380  28.529  1.00  0.00     0.031 A 
ATOM     45  C   UNL A   1      39.873  28.546  28.619  1.00  0.00     0.074 A 
ATOM     46  C   UNL A   1      41.834  27.181  29.323  1.00  0.00     0.049 A 
ATOM     47  N   UNL A   1      40.205  29.658  29.159  1.00  0.00    -0.248 NA
ATOM     48  C   UNL A   1      38.519  28.566  28.054  1.00  0.00     0.031 C 
ATOM     49  C   UNL A   1      42.248  27.937  30.497  1.00  0.00     0.029 A 
ATOM     50  N   UNL A   1      42.908  26.317  29.079  1.00  0.00    -0.354 N 
ATOM     51  C   UNL A   1      39.048  30.379  29.334  1.00  0.00     0.074 A 
ATOM     52  C   UNL A   1      38.074  29.748  28.486  1.00  0.00     0.031 C 
ATOM     53  C   UNL A   1      43.561  27.729  30.706  1.00  0.00     0.029 A 
ATOM     54  C   UNL A   1      44.059  26.984  29.561  1.00  0.00     0.049 A 
ATOM     55  H   UNL A   1      42.870  25.427  28.658  1.00  0.00     0.167 HD
ATOM     56  C   UNL A   1      39.043  31.325  30.312  1.00  0.00     0.037 A 
ATOM     57  C   UNL A   1      44.972  27.462  28.658  1.00  0.00     0.037 A 
ATOM     58  C   UNL A   1      40.410  31.541  30.795  1.00  0.00     0.049 A 
ATOM     59  C   UNL A   1      45.034  28.983  28.596  1.00  0.00     0.074 A 
ATOM     60  C   UNL A   1      41.136  31.162  31.909  1.00  0.00     0.029 A 
ATOM     61  N   UNL A   1      41.338  31.981  29.872  1.00  0.00    -0.354 N 
ATOM     62  N   UNL A   1      44.217  29.779  29.235  1.00  0.00    -0.248 NA
ATOM     63  C   UNL A   1      45.992  29.730  27.781  1.00  0.00     0.031 C 
ATOM     64  C   UNL A   1      42.527  31.301  31.587  1.00  0.00     0.029 A 
ATOM     65  C   UNL A   1      42.634  31.804  30.302  1.00  0.00     0.049 A 
ATOM     66  H   UNL A   1      41.100  32.376  29.003  1.00  0.00     0.167 HD
ATOM     67  C   UNL A   1      44.465  31.082  28.898  1.00  0.00     0.074 A 
ATOM     68  C   UNL A   1      45.589  31.000  27.981  1.00  0.00     0.031 C 
ATOM     69  C   UNL A   1      43.712  32.124  29.370  1.00  0.00     0.037 A 
BRANCH  56  70
ATOM     70  C   UNL A   1      37.828  31.955  30.951  1.00  0.00     0.058 A 
ATOM     71  C   UNL A   1      37.204  33.043  30.304  1.00  0.00     0.135 A 
ATOM     72  C   UNL A   1      37.293  31.637  32.219  1.00  0.00     0.135 A 
ATOM     73  F   UNL A   1      37.602  33.453  29.091  1.00  0.00    -0.206 F 
ATOM     74  C   UNL A   1      36.165  33.777  30.880  1.00  0.00     0.059 A 
ATOM     75  C   UNL A   1      36.225  32.329  32.795  1.00  0.00     0.059 A 
ATOM     76  F   UNL A   1      37.803  30.678  32.998  1.00  0.00    -0.206 F 
ATOM     77  C   UNL A   1      35.684  33.415  32.130  1.00  0.00     0.060 A 
BRANCH  77  78
ATOM     78  S   UNL A   1      34.368  34.391  32.876  1.00  0.00     0.124 S 
ATOM     79  O   UNL A   1      33.340  33.382  33.108  1.00  0.00    -0.237 OA
ATOM     80  O   UNL A   1      35.018  34.926  34.067  1.00  0.00    -0.237 OA
ATOM     81  O   UNL A   1      34.050  35.378  31.846  1.00  0.00    -0.744 OA
ENDBRANCH  77  78
ENDBRANCH  56  70
BRANCH  57  82
ATOM     82  C   UNL A   1      45.135  26.512  27.507  1.00  0.00     0.058 A 
ATOM     83  C   UNL A   1      45.912  25.354  27.732  1.00  0.00     0.135 A 
ATOM     84  C   UNL A   1      44.188  26.455  26.475  1.00  0.00     0.135 A 
ATOM     85  F   UNL A   1      46.851  25.352  28.693  1.00  0.00    -0.206 F 
ATOM     86  C   UNL A   1      45.625  24.142  27.108  1.00  0.00     0.059 A 
ATOM     87  C   UNL A   1      43.899  25.251  25.821  1.00  0.00     0.059 A 
ATOM     88  F   UNL A   1      43.425  27.523  26.198  1.00  0.00    -0.206 F 
ATOM     89  C   UNL A   1      44.569  24.087  26.204  1.00  0.00     0.060 A 
BRANCH  89  90
ATOM     90  S   UNL A   1      43.989  22.452  25.679  1.00  0.00     0.124 S 
ATOM     91  O   UNL A   1      43.047  22.794  24.620  1.00  0.00    -0.237 OA
ATOM     92  O   UNL A   1      45.229  21.808  25.237  1.00  0.00    -0.237 OA
ATOM     93  O   UNL A   1      43.398  21.903  26.893  1.00  0.00    -0.744 OA
ENDBRANCH  89  90
ENDBRANCH  57  82
BRANCH  69  94
ATOM     94  C   UNL A   1      43.916  33.563  28.959  1.00  0.00     0.058 A 
ATOM     95  C   UNL A   1      43.777  33.995  27.633  1.00  0.00     0.135 A 
ATOM     96  C   UNL A   1      44.382  34.537  29.876  1.00  0.00     0.135 A 
ATOM     97  F   UNL A   1      43.399  33.141  26.669  1.00  0.00    -0.206 F 
ATOM     98  C   UNL A   1      44.038  35.314  27.252  1.00  0.00     0.059 A 
ATOM     99  C   UNL A   1      44.722  35.831  29.506  1.00  0.00     0.059 A 
ATOM    100  F   UNL A   1      44.482  34.284  31.189  1.00  0.00    -0.206 F 
ATOM    101  C   UNL A   1      44.517  36.222  28.195  1.00  0.00     0.060 A 
BRANCH 101 102
ATOM    102  S   UNL A   1      44.869  37.918  27.704  1.00  0.00     0.124 S 
ATOM    103  O   UNL A   1      44.850  38.624  28.981  1.00  0.00    -0.237 OA
ATOM    104  O   UNL A   1      46.180  37.772  27.081  1.00  0.00    -0.237 OA
ATOM    105  O   UNL A   1      43.775  38.246  26.797  1.00  0.00    -0.744 OA
ENDBRANCH 101 102
ENDBRANCH  69  94
ENDBRANCH  43  44
ENDBRANCH  35  38
ENDBRANCH  33  34
ENDBRANCH  32  33
ENDBRANCH   1  32
TORSDOF 18
ENDMDL
