MODEL 1
REMARK VINA RESULT:     -11.0      0.000      0.000
REMARK SMILES [NH3+][C@]1(C(=O)NCCCNC(=O)c2ccc(-c3c4nc(c(-c5c(F)cc(S(=O)(=O)[O-])cc5F)c5ccc([nH]5)c(-c5c(F)cc(S(=O)(=O)[O-])cc5F)c5nc(c(-c6c(F)cc(S(=O)(=O)[O-])cc6F)c6ccc3[nH]6)C=C5)C=C4)cc2)CC[C@H](Oc2ccccc2[N+](=O)[O-])C1
REMARK SMILES IDX 7 1 6 2 5 3 3 4 4 5 2 7 78 8 91 9 79 10 80 11 1 12 81 16
REMARK SMILES IDX 82 17 83 18 87 19 84 20 86 21 85 22 88 23 89 24 90 25 8 26
REMARK SMILES IDX 9 27 10 28 11 30 12 31 13 32 77 33 14 34 76 35 15 36 16 37
REMARK SMILES IDX 17 38 70 39 18 40 75 41 69 42 71 43 19 44 74 45 68 46 67 47
REMARK SMILES IDX 20 49 54 50 33 51 53 52 34 53 37 54 52 55 72 56 35 57 36 58
REMARK SMILES IDX 51 60 73 61 38 62 21 63 22 64 31 65 23 66 24 67 30 68 32 69
REMARK SMILES IDX 25 70 26 71 27 72 28 73 29 74 55 75 56 76 65 77 57 78 58 79
REMARK SMILES IDX 64 80 66 81 59 82 60 83 61 84 62 85 63 86 39 87 40 88 49 89
REMARK SMILES IDX 41 90 42 91 48 92 50 93 43 94 44 95 45 96 46 97 47 98
REMARK H PARENT 5 6 1 13 1 14 1 15 9 29 71 48 37 59
REMARK Flexibility Score: inf
ROOT
ATOM      1  C   UNL A   1      35.273  34.056  28.821  1.00  0.00     0.042 C 
ENDROOT
BRANCH   1   2
ATOM      2  C   UNL A   1      33.928  33.769  29.480  1.00  0.00     0.118 C 
BRANCH   2   3
ATOM      3  N   UNL A   1      33.282  34.980  29.941  1.00  0.00    -0.351 N 
ATOM      4  C   UNL A   1      33.205  35.629  31.123  1.00  0.00     0.281 C 
ATOM      5  O   UNL A   1      32.498  36.650  31.107  1.00  0.00    -0.268 OA
ATOM      6  H   UNL A   1      32.781  35.436  29.226  1.00  0.00     0.163 HD
BRANCH   4   7
ATOM      7  C   UNL A   1      33.932  35.245  32.445  1.00  0.00     0.177 C 
ATOM      8  C   UNL A   1      33.811  33.863  33.081  1.00  0.00     0.083 C 
ATOM      9  C   UNL A   1      35.459  35.430  32.259  1.00  0.00     0.124 C 
ATOM     10  C   UNL A   1      35.030  33.785  33.990  1.00  0.00     0.052 C 
ATOM     11  C   UNL A   1      36.143  34.326  33.085  1.00  0.00     0.180 C 
BRANCH   7  12
ATOM     12  N   UNL A   1      33.467  36.210  33.486  1.00  0.00    -0.345 N 
ATOM     13  H   UNL A   1      34.241  36.431  34.114  1.00  0.00     0.345 HD
ATOM     14  H   UNL A   1      32.704  35.793  34.020  1.00  0.00     0.345 HD
ATOM     15  H   UNL A   1      33.141  37.065  33.035  1.00  0.00     0.345 HD
ENDBRANCH   7  12
BRANCH  11  16
ATOM     16  O   UNL A   1      37.267  34.877  33.771  1.00  0.00    -0.483 OA
BRANCH  16  17
ATOM     17  C   UNL A   1      38.513  34.584  33.290  1.00  0.00     0.197 A 
ATOM     18  C   UNL A   1      38.706  34.152  31.969  1.00  0.00     0.054 A 
ATOM     19  C   UNL A   1      39.638  34.743  34.116  1.00  0.00     0.310 A 
ATOM     20  C   UNL A   1      39.978  33.811  31.502  1.00  0.00     0.004 A 
ATOM     21  C   UNL A   1      40.919  34.406  33.638  1.00  0.00     0.090 A 
ATOM     22  C   UNL A   1      41.083  33.929  32.337  1.00  0.00     0.007 A 
BRANCH  19  23
ATOM     23  N   UNL A   1      39.538  35.256  35.495  1.00  0.00     0.066 N 
ATOM     24  O   UNL A   1      39.555  36.490  35.637  1.00  0.00    -0.258 OA
ATOM     25  O   UNL A   1      39.448  34.464  36.440  1.00  0.00    -0.258 OA
ENDBRANCH  19  23
ENDBRANCH  16  17
ENDBRANCH  11  16
ENDBRANCH   4   7
ENDBRANCH   2   3
ENDBRANCH   1   2
BRANCH   1  26
ATOM     26  C   UNL A   1      36.343  33.036  29.204  1.00  0.00     0.118 C 
BRANCH  26  27
ATOM     27  N   UNL A   1      36.019  32.348  30.451  1.00  0.00    -0.352 N 
ATOM     28  C   UNL A   1      36.552  31.214  31.012  1.00  0.00     0.251 C 
ATOM     29  H   UNL A   1      35.298  32.767  30.977  1.00  0.00     0.163 HD
ATOM     30  O   UNL A   1      35.941  30.644  31.911  1.00  0.00    -0.269 OA
BRANCH  28  31
ATOM     31  C   UNL A   1      37.848  30.688  30.540  1.00  0.00     0.039 A 
ATOM     32  C   UNL A   1      38.063  30.525  29.169  1.00  0.00     0.014 A 
ATOM     33  C   UNL A   1      38.839  30.321  31.453  1.00  0.00     0.014 A 
ATOM     34  C   UNL A   1      39.297  30.056  28.715  1.00  0.00     0.010 A 
ATOM     35  C   UNL A   1      40.097  29.951  30.997  1.00  0.00     0.010 A 
ATOM     36  C   UNL A   1      40.337  29.803  29.624  1.00  0.00    -0.014 A 
BRANCH  36  37
ATOM     37  C   UNL A   1      41.682  29.370  29.169  1.00  0.00     0.031 A 
ATOM     38  C   UNL A   1      42.802  30.373  29.077  1.00  0.00     0.074 A 
ATOM     39  C   UNL A   1      41.869  28.099  28.761  1.00  0.00     0.049 A 
ATOM     40  N   UNL A   1      44.015  30.215  28.612  1.00  0.00    -0.248 NA
ATOM     41  C   UNL A   1      42.512  31.741  29.536  1.00  0.00     0.031 C 
ATOM     42  C   UNL A   1      40.842  27.054  28.752  1.00  0.00     0.029 A 
ATOM     43  N   UNL A   1      42.983  27.471  28.265  1.00  0.00    -0.354 N 
ATOM     44  C   UNL A   1      44.620  31.463  28.704  1.00  0.00     0.074 A 
ATOM     45  C   UNL A   1      43.624  32.381  29.211  1.00  0.00     0.031 C 
ATOM     46  C   UNL A   1      41.380  25.911  28.298  1.00  0.00     0.029 A 
ATOM     47  C   UNL A   1      42.775  26.150  27.943  1.00  0.00     0.049 A 
ATOM     48  H   UNL A   1      43.850  27.924  28.151  1.00  0.00     0.167 HD
ATOM     49  C   UNL A   1      45.899  31.806  28.418  1.00  0.00     0.037 A 
ATOM     50  C   UNL A   1      43.612  25.238  27.412  1.00  0.00     0.037 A 
ATOM     51  C   UNL A   1      46.890  30.877  27.944  1.00  0.00     0.049 A 
ATOM     52  C   UNL A   1      45.029  25.642  27.108  1.00  0.00     0.074 A 
ATOM     53  C   UNL A   1      48.229  31.106  27.683  1.00  0.00     0.029 A 
ATOM     54  N   UNL A   1      46.649  29.540  27.659  1.00  0.00    -0.354 N 
ATOM     55  N   UNL A   1      45.605  26.812  27.262  1.00  0.00    -0.248 NA
ATOM     56  C   UNL A   1      45.913  24.604  26.563  1.00  0.00     0.031 C 
ATOM     57  C   UNL A   1      48.786  29.920  27.194  1.00  0.00     0.029 A 
ATOM     58  C   UNL A   1      47.810  28.936  27.205  1.00  0.00     0.049 A 
ATOM     59  H   UNL A   1      45.781  29.087  27.764  1.00  0.00     0.167 HD
ATOM     60  C   UNL A   1      46.925  26.642  26.865  1.00  0.00     0.074 A 
ATOM     61  C   UNL A   1      47.066  25.254  26.472  1.00  0.00     0.031 C 
ATOM     62  C   UNL A   1      47.932  27.549  26.830  1.00  0.00     0.037 A 
BRANCH  49  63
ATOM     63  C   UNL A   1      46.299  33.243  28.619  1.00  0.00     0.058 A 
ATOM     64  C   UNL A   1      46.835  33.699  29.836  1.00  0.00     0.135 A 
ATOM     65  C   UNL A   1      46.178  34.172  27.573  1.00  0.00     0.135 A 
ATOM     66  F   UNL A   1      46.957  32.860  30.876  1.00  0.00    -0.206 F 
ATOM     67  C   UNL A   1      47.205  35.028  30.018  1.00  0.00     0.059 A 
ATOM     68  C   UNL A   1      46.572  35.499  27.721  1.00  0.00     0.059 A 
ATOM     69  F   UNL A   1      45.673  33.794  26.388  1.00  0.00    -0.206 F 
ATOM     70  C   UNL A   1      47.070  35.921  28.953  1.00  0.00     0.060 A 
BRANCH  70  71
ATOM     71  S   UNL A   1      47.563  37.638  29.205  1.00  0.00     0.124 S 
ATOM     72  O   UNL A   1      47.272  37.819  30.624  1.00  0.00    -0.237 OA
ATOM     73  O   UNL A   1      48.978  37.612  28.847  1.00  0.00    -0.237 OA
ATOM     74  O   UNL A   1      46.701  38.378  28.289  1.00  0.00    -0.744 OA
ENDBRANCH  70  71
ENDBRANCH  49  63
BRANCH  50  75
ATOM     75  C   UNL A   1      43.138  23.851  27.161  1.00  0.00     0.058 A 
ATOM     76  C   UNL A   1      42.859  23.409  25.859  1.00  0.00     0.135 A 
ATOM     77  C   UNL A   1      42.970  22.935  28.211  1.00  0.00     0.135 A 
ATOM     78  F   UNL A   1      43.000  24.248  24.822  1.00  0.00    -0.206 F 
ATOM     79  C   UNL A   1      42.414  22.116  25.607  1.00  0.00     0.059 A 
ATOM     80  C   UNL A   1      42.553  21.627  27.982  1.00  0.00     0.059 A 
ATOM     81  F   UNL A   1      43.243  23.300  29.474  1.00  0.00    -0.206 F 
ATOM     82  C   UNL A   1      42.267  21.230  26.676  1.00  0.00     0.060 A 
BRANCH  82  83
ATOM     83  S   UNL A   1      41.734  19.538  26.332  1.00  0.00     0.124 S 
ATOM     84  O   UNL A   1      42.253  18.826  27.494  1.00  0.00    -0.237 OA
ATOM     85  O   UNL A   1      40.283  19.683  26.266  1.00  0.00    -0.237 OA
ATOM     86  O   UNL A   1      42.385  19.235  25.061  1.00  0.00    -0.744 OA
ENDBRANCH  82  83
ENDBRANCH  50  75
BRANCH  62  87
ATOM     87  C   UNL A   1      49.287  27.066  26.392  1.00  0.00     0.058 A 
ATOM     88  C   UNL A   1      50.230  26.575  27.308  1.00  0.00     0.135 A 
ATOM     89  C   UNL A   1      49.623  27.042  25.028  1.00  0.00     0.135 A 
ATOM     90  F   UNL A   1      49.962  26.582  28.624  1.00  0.00    -0.206 F 
ATOM     91  C   UNL A   1      51.467  26.097  26.890  1.00  0.00     0.059 A 
ATOM     92  C   UNL A   1      50.841  26.540  24.585  1.00  0.00     0.059 A 
ATOM     93  F   UNL A   1      48.752  27.491  24.110  1.00  0.00    -0.206 F 
ATOM     94  C   UNL A   1      51.762  26.080  25.524  1.00  0.00     0.060 A 
BRANCH  94  95
ATOM     95  S   UNL A   1      53.356  25.421  24.992  1.00  0.00     0.124 S 
ATOM     96  O   UNL A   1      53.382  25.814  23.588  1.00  0.00    -0.237 OA
ATOM     97  O   UNL A   1      54.290  26.125  25.866  1.00  0.00    -0.237 OA
ATOM     98  O   UNL A   1      53.232  23.988  25.243  1.00  0.00    -0.744 OA
ENDBRANCH  94  95
ENDBRANCH  62  87
ENDBRANCH  36  37
ENDBRANCH  28  31
ENDBRANCH  26  27
ENDBRANCH   1  26
TORSDOF 17
ENDMDL
MODEL 2
REMARK VINA RESULT:     -10.8      6.454     13.205
REMARK SMILES [NH3+][C@]1(C(=O)NCCCNC(=O)c2ccc(-c3c4nc(c(-c5c(F)cc(S(=O)(=O)[O-])cc5F)c5ccc([nH]5)c(-c5c(F)cc(S(=O)(=O)[O-])cc5F)c5nc(c(-c6c(F)cc(S(=O)(=O)[O-])cc6F)c6ccc3[nH]6)C=C5)C=C4)cc2)CC[C@H](Oc2ccccc2[N+](=O)[O-])C1
REMARK SMILES IDX 7 1 6 2 5 3 3 4 4 5 2 7 78 8 91 9 79 10 80 11 1 12 81 16
REMARK SMILES IDX 82 17 83 18 87 19 84 20 86 21 85 22 88 23 89 24 90 25 8 26
REMARK SMILES IDX 9 27 10 28 11 30 12 31 13 32 77 33 14 34 76 35 15 36 16 37
REMARK SMILES IDX 17 38 70 39 18 40 75 41 69 42 71 43 19 44 74 45 68 46 67 47
REMARK SMILES IDX 20 49 54 50 33 51 53 52 34 53 37 54 52 55 72 56 35 57 36 58
REMARK SMILES IDX 51 60 73 61 38 62 21 63 22 64 31 65 23 66 24 67 30 68 32 69
REMARK SMILES IDX 25 70 26 71 27 72 28 73 29 74 55 75 56 76 65 77 57 78 58 79
REMARK SMILES IDX 64 80 66 81 59 82 60 83 61 84 62 85 63 86 39 87 40 88 49 89
REMARK SMILES IDX 41 90 42 91 48 92 50 93 43 94 44 95 45 96 46 97 47 98
REMARK H PARENT 5 6 1 13 1 14 1 15 9 29 71 48 37 59
REMARK Flexibility Score: inf
ROOT
ATOM      1  C   UNL A   1      38.876  22.513  26.240  1.00  0.00     0.042 C 
ENDROOT
BRANCH   1   2
ATOM      2  C   UNL A   1      37.875  23.563  25.768  1.00  0.00     0.118 C 
BRANCH   2   3
ATOM      3  N   UNL A   1      37.447  23.327  24.405  1.00  0.00    -0.351 N 
ATOM      4  C   UNL A   1      36.251  23.255  23.780  1.00  0.00     0.281 C 
ATOM      5  O   UNL A   1      36.317  22.992  22.568  1.00  0.00    -0.268 OA
ATOM      6  H   UNL A   1      38.203  23.186  23.791  1.00  0.00     0.163 HD
BRANCH   4   7
ATOM      7  C   UNL A   1      34.852  23.504  24.416  1.00  0.00     0.177 C 
ATOM      8  C   UNL A   1      34.567  23.272  25.897  1.00  0.00     0.083 C 
ATOM      9  C   UNL A   1      34.446  24.982  24.192  1.00  0.00     0.124 C 
ATOM     10  C   UNL A   1      33.315  24.101  26.149  1.00  0.00     0.052 C 
ATOM     11  C   UNL A   1      33.649  25.415  25.435  1.00  0.00     0.180 C 
BRANCH   7  12
ATOM     12  N   UNL A   1      33.886  22.635  23.679  1.00  0.00    -0.345 N 
ATOM     13  H   UNL A   1      33.594  21.865  24.281  1.00  0.00     0.345 HD
ATOM     14  H   UNL A   1      34.334  22.262  22.842  1.00  0.00     0.345 HD
ATOM     15  H   UNL A   1      33.070  23.185  23.412  1.00  0.00     0.345 HD
ENDBRANCH   7  12
BRANCH  11  16
ATOM     16  O   UNL A   1      32.519  26.187  25.026  1.00  0.00    -0.483 OA
BRANCH  16  17
ATOM     17  C   UNL A   1      32.333  27.406  25.617  1.00  0.00     0.197 A 
ATOM     18  C   UNL A   1      31.899  27.517  26.947  1.00  0.00     0.054 A 
ATOM     19  C   UNL A   1      32.607  28.582  24.899  1.00  0.00     0.310 A 
ATOM     20  C   UNL A   1      31.667  28.767  27.526  1.00  0.00     0.004 A 
ATOM     21  C   UNL A   1      32.380  29.839  25.491  1.00  0.00     0.090 A 
ATOM     22  C   UNL A   1      31.898  29.928  26.797  1.00  0.00     0.007 A 
BRANCH  19  23
ATOM     23  N   UNL A   1      33.131  28.561  23.521  1.00  0.00     0.066 N 
ATOM     24  O   UNL A   1      32.298  28.465  22.604  1.00  0.00    -0.258 OA
ATOM     25  O   UNL A   1      34.350  28.636  23.327  1.00  0.00    -0.258 OA
ENDBRANCH  19  23
ENDBRANCH  16  17
ENDBRANCH  11  16
ENDBRANCH   4   7
ENDBRANCH   2   3
ENDBRANCH   1   2
BRANCH   1  26
ATOM     26  C   UNL A   1      40.004  23.114  27.077  1.00  0.00     0.118 C 
BRANCH  26  27
ATOM     27  N   UNL A   1      41.095  23.611  26.243  1.00  0.00    -0.352 N 
ATOM     28  C   UNL A   1      41.657  24.861  26.156  1.00  0.00     0.251 C 
ATOM     29  H   UNL A   1      41.495  22.939  25.644  1.00  0.00     0.163 HD
ATOM     30  O   UNL A   1      42.360  25.138  25.190  1.00  0.00    -0.269 OA
BRANCH  28  31
ATOM     31  C   UNL A   1      41.420  25.859  27.218  1.00  0.00     0.039 A 
ATOM     32  C   UNL A   1      40.384  25.653  28.132  1.00  0.00     0.014 A 
ATOM     33  C   UNL A   1      42.196  27.018  27.288  1.00  0.00     0.014 A 
ATOM     34  C   UNL A   1      40.173  26.579  29.156  1.00  0.00     0.010 A 
ATOM     35  C   UNL A   1      42.051  27.884  28.363  1.00  0.00     0.010 A 
ATOM     36  C   UNL A   1      41.030  27.682  29.302  1.00  0.00    -0.014 A 
BRANCH  36  37
ATOM     37  C   UNL A   1      40.876  28.646  30.420  1.00  0.00     0.031 A 
ATOM     38  C   UNL A   1      41.737  28.516  31.649  1.00  0.00     0.074 A 
ATOM     39  C   UNL A   1      39.908  29.583  30.361  1.00  0.00     0.049 A 
ATOM     40  N   UNL A   1      41.688  29.193  32.766  1.00  0.00    -0.248 NA
ATOM     41  C   UNL A   1      42.765  27.462  31.633  1.00  0.00     0.031 C 
ATOM     42  C   UNL A   1      38.976  29.767  29.246  1.00  0.00     0.029 A 
ATOM     43  N   UNL A   1      39.537  30.546  31.264  1.00  0.00    -0.354 N 
ATOM     44  C   UNL A   1      42.661  28.636  33.589  1.00  0.00     0.074 A 
ATOM     45  C   UNL A   1      43.242  27.527  32.867  1.00  0.00     0.031 C 
ATOM     46  C   UNL A   1      38.160  30.797  29.519  1.00  0.00     0.029 A 
ATOM     47  C   UNL A   1      38.478  31.317  30.845  1.00  0.00     0.049 A 
ATOM     48  H   UNL A   1      39.987  30.675  32.130  1.00  0.00     0.167 HD
ATOM     49  C   UNL A   1      43.052  29.032  34.823  1.00  0.00     0.037 A 
ATOM     50  C   UNL A   1      37.830  32.323  31.464  1.00  0.00     0.037 A 
ATOM     51  C   UNL A   1      42.488  30.158  35.519  1.00  0.00     0.049 A 
ATOM     52  C   UNL A   1      38.287  32.748  32.834  1.00  0.00     0.074 A 
ATOM     53  C   UNL A   1      42.853  30.683  36.746  1.00  0.00     0.029 A 
ATOM     54  N   UNL A   1      41.437  30.933  35.050  1.00  0.00    -0.354 N 
ATOM     55  N   UNL A   1      39.253  32.252  33.571  1.00  0.00    -0.248 NA
ATOM     56  C   UNL A   1      37.573  33.872  33.453  1.00  0.00     0.031 C 
ATOM     57  C   UNL A   1      41.992  31.745  37.040  1.00  0.00     0.029 A 
ATOM     58  C   UNL A   1      41.127  31.920  35.971  1.00  0.00     0.049 A 
ATOM     59  H   UNL A   1      40.979  30.802  34.187  1.00  0.00     0.167 HD
ATOM     60  C   UNL A   1      39.283  33.023  34.727  1.00  0.00     0.074 A 
ATOM     61  C   UNL A   1      38.246  34.024  34.586  1.00  0.00     0.031 C 
ATOM     62  C   UNL A   1      40.097  32.916  35.806  1.00  0.00     0.037 A 
BRANCH  49  63
ATOM     63  C   UNL A   1      44.148  28.248  35.495  1.00  0.00     0.058 A 
ATOM     64  C   UNL A   1      45.504  28.564  35.309  1.00  0.00     0.135 A 
ATOM     65  C   UNL A   1      43.839  27.187  36.362  1.00  0.00     0.135 A 
ATOM     66  F   UNL A   1      45.859  29.557  34.478  1.00  0.00    -0.206 F 
ATOM     67  C   UNL A   1      46.514  27.838  35.932  1.00  0.00     0.059 A 
ATOM     68  C   UNL A   1      44.832  26.467  37.022  1.00  0.00     0.059 A 
ATOM     69  F   UNL A   1      42.561  26.840  36.578  1.00  0.00    -0.206 F 
ATOM     70  C   UNL A   1      46.168  26.792  36.788  1.00  0.00     0.060 A 
BRANCH  70  71
ATOM     71  S   UNL A   1      47.491  25.866  37.593  1.00  0.00     0.124 S 
ATOM     72  O   UNL A   1      46.807  25.353  38.776  1.00  0.00    -0.237 OA
ATOM     73  O   UNL A   1      47.837  24.873  36.582  1.00  0.00    -0.237 OA
ATOM     74  O   UNL A   1      48.510  26.879  37.848  1.00  0.00    -0.744 OA
ENDBRANCH  70  71
ENDBRANCH  49  63
BRANCH  50  75
ATOM     75  C   UNL A   1      36.701  33.011  30.784  1.00  0.00     0.058 A 
ATOM     76  C   UNL A   1      35.378  32.816  31.207  1.00  0.00     0.135 A 
ATOM     77  C   UNL A   1      36.920  33.888  29.710  1.00  0.00     0.135 A 
ATOM     78  F   UNL A   1      35.116  31.984  32.226  1.00  0.00    -0.206 F 
ATOM     79  C   UNL A   1      34.310  33.450  30.580  1.00  0.00     0.059 A 
ATOM     80  C   UNL A   1      35.872  34.557  29.085  1.00  0.00     0.059 A 
ATOM     81  F   UNL A   1      38.169  34.126  29.279  1.00  0.00    -0.206 F 
ATOM     82  C   UNL A   1      34.569  34.323  29.521  1.00  0.00     0.060 A 
BRANCH  82  83
ATOM     83  S   UNL A   1      33.179  35.179  28.746  1.00  0.00     0.124 S 
ATOM     84  O   UNL A   1      33.858  36.251  28.029  1.00  0.00    -0.237 OA
ATOM     85  O   UNL A   1      32.594  34.126  27.921  1.00  0.00    -0.237 OA
ATOM     86  O   UNL A   1      32.366  35.596  29.885  1.00  0.00    -0.744 OA
ENDBRANCH  82  83
ENDBRANCH  50  75
BRANCH  62  87
ATOM     87  C   UNL A   1      39.931  33.929  36.905  1.00  0.00     0.058 A 
ATOM     88  C   UNL A   1      40.582  35.172  36.871  1.00  0.00     0.135 A 
ATOM     89  C   UNL A   1      39.060  33.673  37.977  1.00  0.00     0.135 A 
ATOM     90  F   UNL A   1      41.430  35.464  35.871  1.00  0.00    -0.206 F 
ATOM     91  C   UNL A   1      40.394  36.117  37.873  1.00  0.00     0.059 A 
ATOM     92  C   UNL A   1      38.834  34.616  38.974  1.00  0.00     0.059 A 
ATOM     93  F   UNL A   1      38.405  32.504  38.052  1.00  0.00    -0.206 F 
ATOM     94  C   UNL A   1      39.514  35.831  38.920  1.00  0.00     0.060 A 
BRANCH  94  95
ATOM     95  S   UNL A   1      39.249  37.082  40.193  1.00  0.00     0.124 S 
ATOM     96  O   UNL A   1      38.506  38.098  39.457  1.00  0.00    -0.237 OA
ATOM     97  O   UNL A   1      38.490  36.345  41.200  1.00  0.00    -0.237 OA
ATOM     98  O   UNL A   1      40.604  37.456  40.589  1.00  0.00    -0.744 OA
ENDBRANCH  94  95
ENDBRANCH  62  87
ENDBRANCH  36  37
ENDBRANCH  28  31
ENDBRANCH  26  27
ENDBRANCH   1  26
TORSDOF 17
ENDMDL
MODEL 3
REMARK VINA RESULT:     -10.8      2.706      3.460
REMARK SMILES [NH3+][C@]1(C(=O)NCCCNC(=O)c2ccc(-c3c4nc(c(-c5c(F)cc(S(=O)(=O)[O-])cc5F)c5ccc([nH]5)c(-c5c(F)cc(S(=O)(=O)[O-])cc5F)c5nc(c(-c6c(F)cc(S(=O)(=O)[O-])cc6F)c6ccc3[nH]6)C=C5)C=C4)cc2)CC[C@H](Oc2ccccc2[N+](=O)[O-])C1
REMARK SMILES IDX 7 1 6 2 5 3 3 4 4 5 2 7 78 8 91 9 79 10 80 11 1 12 81 16
REMARK SMILES IDX 82 17 83 18 87 19 84 20 86 21 85 22 88 23 89 24 90 25 8 26
REMARK SMILES IDX 9 27 10 28 11 30 12 31 13 32 77 33 14 34 76 35 15 36 16 37
REMARK SMILES IDX 17 38 70 39 18 40 75 41 69 42 71 43 19 44 74 45 68 46 67 47
REMARK SMILES IDX 20 49 54 50 33 51 53 52 34 53 37 54 52 55 72 56 35 57 36 58
REMARK SMILES IDX 51 60 73 61 38 62 21 63 22 64 31 65 23 66 24 67 30 68 32 69
REMARK SMILES IDX 25 70 26 71 27 72 28 73 29 74 55 75 56 76 65 77 57 78 58 79
REMARK SMILES IDX 64 80 66 81 59 82 60 83 61 84 62 85 63 86 39 87 40 88 49 89
REMARK SMILES IDX 41 90 42 91 48 92 50 93 43 94 44 95 45 96 46 97 47 98
REMARK H PARENT 5 6 1 13 1 14 1 15 9 29 71 48 37 59
REMARK Flexibility Score: inf
ROOT
ATOM      1  C   UNL A   1      34.455  34.150  28.936  1.00  0.00     0.042 C 
ENDROOT
BRANCH   1   2
ATOM      2  C   UNL A   1      33.082  34.573  29.445  1.00  0.00     0.118 C 
BRANCH   2   3
ATOM      3  N   UNL A   1      33.117  35.874  30.080  1.00  0.00    -0.351 N 
ATOM      4  C   UNL A   1      33.437  36.325  31.313  1.00  0.00     0.281 C 
ATOM      5  O   UNL A   1      33.297  37.550  31.467  1.00  0.00    -0.268 OA
ATOM      6  H   UNL A   1      32.844  36.599  29.472  1.00  0.00     0.163 HD
BRANCH   4   7
ATOM      7  C   UNL A   1      33.984  35.481  32.500  1.00  0.00     0.177 C 
ATOM      8  C   UNL A   1      33.412  34.115  32.873  1.00  0.00     0.083 C 
ATOM      9  C   UNL A   1      35.490  35.197  32.273  1.00  0.00     0.124 C 
ATOM     10  C   UNL A   1      34.529  33.476  33.687  1.00  0.00     0.052 C 
ATOM     11  C   UNL A   1      35.768  33.795  32.842  1.00  0.00     0.180 C 
BRANCH   7  12
ATOM     12  N   UNL A   1      33.846  36.324  33.725  1.00  0.00    -0.345 N 
ATOM     13  H   UNL A   1      34.771  36.518  34.110  1.00  0.00     0.345 HD
ATOM     14  H   UNL A   1      33.287  35.827  34.419  1.00  0.00     0.345 HD
ATOM     15  H   UNL A   1      33.388  37.202  33.484  1.00  0.00     0.345 HD
ENDBRANCH   7  12
BRANCH  11  16
ATOM     16  O   UNL A   1      37.003  33.812  33.559  1.00  0.00    -0.483 OA
BRANCH  16  17
ATOM     17  C   UNL A   1      37.762  32.675  33.549  1.00  0.00     0.197 A 
ATOM     18  C   UNL A   1      37.187  31.411  33.345  1.00  0.00     0.054 A 
ATOM     19  C   UNL A   1      39.154  32.761  33.714  1.00  0.00     0.310 A 
ATOM     20  C   UNL A   1      37.965  30.252  33.382  1.00  0.00     0.004 A 
ATOM     21  C   UNL A   1      39.935  31.590  33.742  1.00  0.00     0.090 A 
ATOM     22  C   UNL A   1      39.337  30.339  33.589  1.00  0.00     0.007 A 
BRANCH  19  23
ATOM     23  N   UNL A   1      39.853  34.051  33.866  1.00  0.00     0.066 N 
ATOM     24  O   UNL A   1      39.946  34.506  35.018  1.00  0.00    -0.258 OA
ATOM     25  O   UNL A   1      40.309  34.623  32.869  1.00  0.00    -0.258 OA
ENDBRANCH  19  23
ENDBRANCH  16  17
ENDBRANCH  11  16
ENDBRANCH   4   7
ENDBRANCH   2   3
ENDBRANCH   1   2
BRANCH   1  26
ATOM     26  C   UNL A   1      34.875  32.776  29.454  1.00  0.00     0.118 C 
BRANCH  26  27
ATOM     27  N   UNL A   1      34.157  31.696  28.780  1.00  0.00    -0.352 N 
ATOM     28  C   UNL A   1      34.622  30.563  28.160  1.00  0.00     0.251 C 
ATOM     29  H   UNL A   1      33.177  31.798  28.769  1.00  0.00     0.163 HD
ATOM     30  O   UNL A   1      33.879  29.942  27.407  1.00  0.00    -0.269 OA
BRANCH  28  31
ATOM     31  C   UNL A   1      36.001  30.095  28.401  1.00  0.00     0.039 A 
ATOM     32  C   UNL A   1      36.928  30.128  27.356  1.00  0.00     0.014 A 
ATOM     33  C   UNL A   1      36.371  29.590  29.650  1.00  0.00     0.014 A 
ATOM     34  C   UNL A   1      38.241  29.714  27.586  1.00  0.00     0.010 A 
ATOM     35  C   UNL A   1      37.698  29.275  29.903  1.00  0.00     0.010 A 
ATOM     36  C   UNL A   1      38.647  29.322  28.872  1.00  0.00    -0.014 A 
BRANCH  36  37
ATOM     37  C   UNL A   1      40.052  28.943  29.165  1.00  0.00     0.031 A 
ATOM     38  C   UNL A   1      40.993  29.955  29.764  1.00  0.00     0.074 A 
ATOM     39  C   UNL A   1      40.497  27.719  28.816  1.00  0.00     0.049 A 
ATOM     40  N   UNL A   1      42.275  29.850  30.001  1.00  0.00    -0.248 NA
ATOM     41  C   UNL A   1      40.427  31.269  30.109  1.00  0.00     0.031 C 
ATOM     42  C   UNL A   1      39.691  26.676  28.178  1.00  0.00     0.029 A 
ATOM     43  N   UNL A   1      41.739  27.150  28.936  1.00  0.00    -0.354 N 
ATOM     44  C   UNL A   1      42.669  31.086  30.502  1.00  0.00     0.074 A 
ATOM     45  C   UNL A   1      41.505  31.943  30.477  1.00  0.00     0.031 C 
ATOM     46  C   UNL A   1      40.451  25.587  27.986  1.00  0.00     0.029 A 
ATOM     47  C   UNL A   1      41.807  25.867  28.445  1.00  0.00     0.049 A 
ATOM     48  H   UNL A   1      42.508  27.615  29.336  1.00  0.00     0.167 HD
ATOM     49  C   UNL A   1      43.884  31.462  30.966  1.00  0.00     0.037 A 
ATOM     50  C   UNL A   1      42.849  25.016  28.366  1.00  0.00     0.037 A 
ATOM     51  C   UNL A   1      45.027  30.589  31.015  1.00  0.00     0.049 A 
ATOM     52  C   UNL A   1      44.188  25.455  28.893  1.00  0.00     0.074 A 
ATOM     53  C   UNL A   1      46.287  30.849  31.523  1.00  0.00     0.029 A 
ATOM     54  N   UNL A   1      45.050  29.286  30.537  1.00  0.00    -0.354 N 
ATOM     55  N   UNL A   1      44.528  26.606  29.425  1.00  0.00    -0.248 NA
ATOM     56  C   UNL A   1      45.284  24.480  28.817  1.00  0.00     0.031 C 
ATOM     57  C   UNL A   1      47.085  29.721  31.309  1.00  0.00     0.029 A 
ATOM     58  C   UNL A   1      46.307  28.736  30.719  1.00  0.00     0.049 A 
ATOM     59  H   UNL A   1      44.283  28.821  30.128  1.00  0.00     0.167 HD
ATOM     60  C   UNL A   1      45.867  26.483  29.775  1.00  0.00     0.074 A 
ATOM     61  C   UNL A   1      46.272  25.142  29.404  1.00  0.00     0.031 C 
ATOM     62  C   UNL A   1      46.688  27.394  30.354  1.00  0.00     0.037 A 
BRANCH  49  63
ATOM     63  C   UNL A   1      44.036  32.873  31.466  1.00  0.00     0.058 A 
ATOM     64  C   UNL A   1      43.701  33.232  32.783  1.00  0.00     0.135 A 
ATOM     65  C   UNL A   1      44.554  33.876  30.630  1.00  0.00     0.135 A 
ATOM     66  F   UNL A   1      43.186  32.319  33.621  1.00  0.00    -0.206 F 
ATOM     67  C   UNL A   1      43.844  34.538  33.242  1.00  0.00     0.059 A 
ATOM     68  C   UNL A   1      44.736  35.182  31.077  1.00  0.00     0.059 A 
ATOM     69  F   UNL A   1      44.891  33.592  29.362  1.00  0.00    -0.206 F 
ATOM     70  C   UNL A   1      44.364  35.506  32.381  1.00  0.00     0.060 A 
BRANCH  70  71
ATOM     71  S   UNL A   1      44.549  37.192  32.996  1.00  0.00     0.124 S 
ATOM     72  O   UNL A   1      45.594  37.021  34.001  1.00  0.00    -0.237 OA
ATOM     73  O   UNL A   1      44.941  37.921  31.794  1.00  0.00    -0.237 OA
ATOM     74  O   UNL A   1      43.224  37.513  33.517  1.00  0.00    -0.744 OA
ENDBRANCH  70  71
ENDBRANCH  49  63
BRANCH  50  75
ATOM     75  C   UNL A   1      42.658  23.659  27.789  1.00  0.00     0.058 A 
ATOM     76  C   UNL A   1      42.710  23.451  26.402  1.00  0.00     0.135 A 
ATOM     77  C   UNL A   1      42.438  22.540  28.608  1.00  0.00     0.135 A 
ATOM     78  F   UNL A   1      42.913  24.488  25.577  1.00  0.00    -0.206 F 
ATOM     79  C   UNL A   1      42.532  22.189  25.846  1.00  0.00     0.059 A 
ATOM     80  C   UNL A   1      42.286  21.263  28.078  1.00  0.00     0.059 A 
ATOM     81  F   UNL A   1      42.400  22.680  29.943  1.00  0.00    -0.206 F 
ATOM     82  C   UNL A   1      42.324  21.099  26.694  1.00  0.00     0.060 A 
BRANCH  82  83
ATOM     83  S   UNL A   1      42.143  19.457  25.963  1.00  0.00     0.124 S 
ATOM     84  O   UNL A   1      42.957  19.579  24.760  1.00  0.00    -0.237 OA
ATOM     85  O   UNL A   1      42.678  18.595  27.013  1.00  0.00    -0.237 OA
ATOM     86  O   UNL A   1      40.704  19.344  25.744  1.00  0.00    -0.744 OA
ENDBRANCH  82  83
ENDBRANCH  50  75
BRANCH  62  87
ATOM     87  C   UNL A   1      48.095  26.964  30.663  1.00  0.00     0.058 A 
ATOM     88  C   UNL A   1      49.160  27.227  29.787  1.00  0.00     0.135 A 
ATOM     89  C   UNL A   1      48.389  26.330  31.882  1.00  0.00     0.135 A 
ATOM     90  F   UNL A   1      48.932  27.824  28.607  1.00  0.00    -0.206 F 
ATOM     91  C   UNL A   1      50.463  26.858  30.100  1.00  0.00     0.059 A 
ATOM     92  C   UNL A   1      49.689  25.980  32.228  1.00  0.00     0.059 A 
ATOM     93  F   UNL A   1      47.408  26.065  32.759  1.00  0.00    -0.206 F 
ATOM     94  C   UNL A   1      50.719  26.237  31.325  1.00  0.00     0.060 A 
BRANCH  94  95
ATOM     95  S   UNL A   1      52.421  25.798  31.734  1.00  0.00     0.124 S 
ATOM     96  O   UNL A   1      52.269  24.418  32.181  1.00  0.00    -0.237 OA
ATOM     97  O   UNL A   1      53.104  25.979  30.456  1.00  0.00    -0.237 OA
ATOM     98  O   UNL A   1      52.781  26.760  32.771  1.00  0.00    -0.744 OA
ENDBRANCH  94  95
ENDBRANCH  62  87
ENDBRANCH  36  37
ENDBRANCH  28  31
ENDBRANCH  26  27
ENDBRANCH   1  26
TORSDOF 17
ENDMDL
