MODEL 1
REMARK VINA RESULT:     -12.3      0.000      0.000
REMARK SMILES C[C@]12CCC(=O)N1[C@H](C(=O)N1CCC[C@@H]1C(=O)NCCCNC(=O)c1ccc(-c3c4nc(c(-c5c(F)cc(S(=O)(=O)[O-])cc5F)c5ccc([nH]5)c(-c5c(F)cc(S(=O)(=O)[O-])cc5F)c5nc(c(-c6c(F)cc(S(=O)(=O)[O-])cc6F)c6ccc3[nH]6)C=C5)C=C4)cc1)CS2
REMARK SMILES IDX 20 1 19 2 18 3 16 4 17 5 15 7 11 8 12 9 13 10 14 11 9 12
REMARK SMILES IDX 10 13 8 14 1 15 2 16 3 17 7 18 92 19 4 20 5 21 91 22 6 23
REMARK SMILES IDX 21 24 22 25 23 26 24 28 25 29 26 30 90 31 27 32 89 33 28 34
REMARK SMILES IDX 29 35 30 36 83 37 31 38 88 39 82 40 84 41 32 42 87 43 81 44
REMARK SMILES IDX 80 45 33 47 67 48 46 49 66 50 47 51 50 52 65 53 85 54 48 55
REMARK SMILES IDX 49 56 64 58 86 59 51 60 34 61 35 62 44 63 36 64 37 65 43 66
REMARK SMILES IDX 45 67 38 68 39 69 40 70 41 71 42 72 68 73 69 74 78 75 70 76
REMARK SMILES IDX 71 77 77 78 79 79 72 80 73 81 74 82 75 83 76 84 52 85 53 86
REMARK SMILES IDX 62 87 54 88 55 89 61 90 63 91 56 92 57 93 58 94 59 95 60 96
REMARK H PARENT 18 6 22 27 84 46 50 57
REMARK Flexibility Score: inf
ROOT
ATOM      1  C   UNL A   1      38.277  23.681  26.116  1.00  0.00     0.042 C 
ENDROOT
BRANCH   1   2
ATOM      2  C   UNL A   1      37.324  22.595  25.608  1.00  0.00     0.117 C 
BRANCH   2   3
ATOM      3  N   UNL A   1      36.062  22.479  26.324  1.00  0.00    -0.354 N 
ATOM      4  C   UNL A   1      34.912  21.797  26.030  1.00  0.00     0.242 C 
ATOM      5  O   UNL A   1      34.096  21.659  26.943  1.00  0.00    -0.273 OA
ATOM      6  H   UNL A   1      36.031  22.978  27.172  1.00  0.00     0.163 HD
BRANCH   4   7
ATOM      7  C   UNL A   1      34.691  21.186  24.625  1.00  0.00     0.174 C 
ATOM      8  N   UNL A   1      33.886  22.034  23.708  1.00  0.00    -0.329 N 
ATOM      9  C   UNL A   1      32.544  21.501  23.546  1.00  0.00     0.120 C 
ATOM     10  C   UNL A   1      32.396  20.442  24.619  1.00  0.00     0.024 C 
ATOM     11  C   UNL A   1      33.822  19.928  24.800  1.00  0.00     0.037 C 
BRANCH   8  12
ATOM     12  C   UNL A   1      34.153  23.317  23.261  1.00  0.00     0.246 C 
ATOM     13  O   UNL A   1      35.314  23.744  23.286  1.00  0.00    -0.272 OA
BRANCH  12  14
ATOM     14  C   UNL A   1      33.001  24.311  22.947  1.00  0.00     0.186 C 
ATOM     15  C   UNL A   1      33.756  25.461  25.886  1.00  0.00     0.047 C 
ATOM     16  C   UNL A   1      32.774  25.889  24.801  1.00  0.00     0.087 C 
ATOM     17  C   UNL A   1      31.597  26.639  25.412  1.00  0.00     0.049 C 
ATOM     18  N   UNL A   1      32.206  24.780  24.090  1.00  0.00    -0.315 N 
ATOM     19  S   UNL A   1      33.595  26.844  23.461  1.00  0.00    -0.131 SA
ATOM     20  C   UNL A   1      30.406  26.238  24.564  1.00  0.00     0.103 C 
ATOM     21  C   UNL A   1      30.826  24.931  23.934  1.00  0.00     0.224 C 
ATOM     22  C   UNL A   1      33.339  25.572  22.171  1.00  0.00     0.107 C 
ATOM     23  O   UNL A   1      30.105  24.231  23.241  1.00  0.00    -0.275 OA
ENDBRANCH  12  14
ENDBRANCH   8  12
ENDBRANCH   4   7
ENDBRANCH   2   3
ENDBRANCH   1   2
BRANCH   1  24
ATOM     24  C   UNL A   1      39.526  23.217  26.867  1.00  0.00     0.118 C 
BRANCH  24  25
ATOM     25  N   UNL A   1      40.752  23.620  26.201  1.00  0.00    -0.352 N 
ATOM     26  C   UNL A   1      41.493  24.774  26.324  1.00  0.00     0.251 C 
ATOM     27  H   UNL A   1      41.110  22.965  25.559  1.00  0.00     0.163 HD
ATOM     28  O   UNL A   1      42.374  24.995  25.496  1.00  0.00    -0.269 OA
BRANCH  26  29
ATOM     29  C   UNL A   1      41.253  25.758  27.414  1.00  0.00     0.039 A 
ATOM     30  C   UNL A   1      42.136  26.837  27.540  1.00  0.00     0.014 A 
ATOM     31  C   UNL A   1      40.245  25.587  28.367  1.00  0.00     0.014 A 
ATOM     32  C   UNL A   1      41.989  27.757  28.586  1.00  0.00     0.010 A 
ATOM     33  C   UNL A   1      40.069  26.534  29.386  1.00  0.00     0.010 A 
ATOM     34  C   UNL A   1      40.942  27.625  29.513  1.00  0.00    -0.014 A 
BRANCH  34  35
ATOM     35  C   UNL A   1      40.771  28.610  30.620  1.00  0.00     0.031 A 
ATOM     36  C   UNL A   1      41.624  28.529  31.861  1.00  0.00     0.074 A 
ATOM     37  C   UNL A   1      39.825  29.567  30.531  1.00  0.00     0.049 A 
ATOM     38  N   UNL A   1      41.584  29.266  32.942  1.00  0.00    -0.248 NA
ATOM     39  C   UNL A   1      42.643  27.468  31.897  1.00  0.00     0.031 C 
ATOM     40  C   UNL A   1      38.909  29.747  29.403  1.00  0.00     0.029 A 
ATOM     41  N   UNL A   1      39.470  30.563  31.408  1.00  0.00    -0.354 N 
ATOM     42  C   UNL A   1      42.556  28.752  33.793  1.00  0.00     0.074 A 
ATOM     43  C   UNL A   1      43.145  27.616  33.115  1.00  0.00     0.031 C 
ATOM     44  C   UNL A   1      38.108  30.797  29.650  1.00  0.00     0.029 A 
ATOM     45  C   UNL A   1      38.430  31.346  30.964  1.00  0.00     0.049 A 
ATOM     46  H   UNL A   1      39.918  30.703  32.274  1.00  0.00     0.167 HD
ATOM     47  C   UNL A   1      42.937  29.193  35.017  1.00  0.00     0.037 A 
ATOM     48  C   UNL A   1      37.800  32.386  31.548  1.00  0.00     0.037 A 
ATOM     49  C   UNL A   1      42.378  30.342  35.683  1.00  0.00     0.049 A 
ATOM     50  C   UNL A   1      38.244  32.862  32.905  1.00  0.00     0.074 A 
ATOM     51  C   UNL A   1      42.743  30.893  36.899  1.00  0.00     0.029 A 
ATOM     52  N   UNL A   1      41.338  31.116  35.192  1.00  0.00    -0.354 N 
ATOM     53  N   UNL A   1      39.198  32.390  33.671  1.00  0.00    -0.248 NA
ATOM     54  C   UNL A   1      37.528  34.013  33.475  1.00  0.00     0.031 C 
ATOM     55  C   UNL A   1      41.904  31.983  37.159  1.00  0.00     0.029 A 
ATOM     56  C   UNL A   1      41.039  32.131  36.086  1.00  0.00     0.049 A 
ATOM     57  H   UNL A   1      40.881  30.968  34.333  1.00  0.00     0.167 HD
ATOM     58  C   UNL A   1      39.212  33.200  34.801  1.00  0.00     0.074 A 
ATOM     59  C   UNL A   1      38.178  34.197  34.616  1.00  0.00     0.031 C 
ATOM     60  C   UNL A   1      40.012  33.123  35.893  1.00  0.00     0.037 A 
BRANCH  47  61
ATOM     61  C   UNL A   1      44.022  28.427  35.725  1.00  0.00     0.058 A 
ATOM     62  C   UNL A   1      45.379  28.725  35.527  1.00  0.00     0.135 A 
ATOM     63  C   UNL A   1      43.700  27.411  36.638  1.00  0.00     0.135 A 
ATOM     64  F   UNL A   1      45.742  29.680  34.656  1.00  0.00    -0.206 F 
ATOM     65  C   UNL A   1      46.381  28.020  36.186  1.00  0.00     0.059 A 
ATOM     66  C   UNL A   1      44.685  26.709  37.327  1.00  0.00     0.059 A 
ATOM     67  F   UNL A   1      42.417  27.089  36.867  1.00  0.00    -0.206 F 
ATOM     68  C   UNL A   1      46.024  27.011  37.081  1.00  0.00     0.060 A 
BRANCH  68  69
ATOM     69  S   UNL A   1      47.334  26.099  37.925  1.00  0.00     0.124 S 
ATOM     70  O   UNL A   1      47.946  27.153  38.729  1.00  0.00    -0.237 OA
ATOM     71  O   UNL A   1      46.588  25.089  38.668  1.00  0.00    -0.237 OA
ATOM     72  O   UNL A   1      48.154  25.590  36.829  1.00  0.00    -0.744 OA
ENDBRANCH  68  69
ENDBRANCH  47  61
BRANCH  48  73
ATOM     73  C   UNL A   1      36.682  33.063  30.839  1.00  0.00     0.058 A 
ATOM     74  C   UNL A   1      35.351  32.844  31.219  1.00  0.00     0.135 A 
ATOM     75  C   UNL A   1      36.926  33.952  29.780  1.00  0.00     0.135 A 
ATOM     76  F   UNL A   1      35.071  31.994  32.220  1.00  0.00    -0.206 F 
ATOM     77  C   UNL A   1      34.295  33.475  30.570  1.00  0.00     0.059 A 
ATOM     78  C   UNL A   1      35.888  34.611  29.130  1.00  0.00     0.059 A 
ATOM     79  F   UNL A   1      38.184  34.204  29.390  1.00  0.00    -0.206 F 
ATOM     80  C   UNL A   1      34.574  34.361  29.527  1.00  0.00     0.060 A 
BRANCH  80  81
ATOM     81  S   UNL A   1      33.204  35.229  28.733  1.00  0.00     0.124 S 
ATOM     82  O   UNL A   1      32.441  35.691  29.887  1.00  0.00    -0.237 OA
ATOM     83  O   UNL A   1      33.895  36.263  27.969  1.00  0.00    -0.237 OA
ATOM     84  O   UNL A   1      32.571  34.187  27.931  1.00  0.00    -0.744 OA
ENDBRANCH  80  81
ENDBRANCH  48  73
BRANCH  60  85
ATOM     85  C   UNL A   1      39.823  34.158  36.966  1.00  0.00     0.058 A 
ATOM     86  C   UNL A   1      39.048  33.900  38.108  1.00  0.00     0.135 A 
ATOM     87  C   UNL A   1      40.465  35.404  36.876  1.00  0.00     0.135 A 
ATOM     88  F   UNL A   1      38.408  32.728  38.238  1.00  0.00    -0.206 F 
ATOM     89  C   UNL A   1      38.904  34.849  39.116  1.00  0.00     0.059 A 
ATOM     90  C   UNL A   1      40.351  36.359  37.882  1.00  0.00     0.059 A 
ATOM     91  F   UNL A   1      41.223  35.697  35.808  1.00  0.00    -0.206 F 
ATOM     92  C   UNL A   1      39.559  36.075  38.994  1.00  0.00     0.060 A 
BRANCH  92  93
ATOM     93  S   UNL A   1      39.395  37.285  40.325  1.00  0.00     0.124 S 
ATOM     94  O   UNL A   1      38.726  38.386  39.640  1.00  0.00    -0.237 OA
ATOM     95  O   UNL A   1      38.589  36.566  41.307  1.00  0.00    -0.237 OA
ATOM     96  O   UNL A   1      40.776  37.539  40.724  1.00  0.00    -0.744 OA
ENDBRANCH  92  93
ENDBRANCH  60  85
ENDBRANCH  34  35
ENDBRANCH  26  29
ENDBRANCH  24  25
ENDBRANCH   1  24
TORSDOF 15
ENDMDL
MODEL 2
REMARK VINA RESULT:     -12.3      6.489     11.945
REMARK SMILES C[C@]12CCC(=O)N1[C@H](C(=O)N1CCC[C@@H]1C(=O)NCCCNC(=O)c1ccc(-c3c4nc(c(-c5c(F)cc(S(=O)(=O)[O-])cc5F)c5ccc([nH]5)c(-c5c(F)cc(S(=O)(=O)[O-])cc5F)c5nc(c(-c6c(F)cc(S(=O)(=O)[O-])cc6F)c6ccc3[nH]6)C=C5)C=C4)cc1)CS2
REMARK SMILES IDX 20 1 19 2 18 3 16 4 17 5 15 7 11 8 12 9 13 10 14 11 9 12
REMARK SMILES IDX 10 13 8 14 1 15 2 16 3 17 7 18 92 19 4 20 5 21 91 22 6 23
REMARK SMILES IDX 21 24 22 25 23 26 24 28 25 29 26 30 90 31 27 32 89 33 28 34
REMARK SMILES IDX 29 35 30 36 83 37 31 38 88 39 82 40 84 41 32 42 87 43 81 44
REMARK SMILES IDX 80 45 33 47 67 48 46 49 66 50 47 51 50 52 65 53 85 54 48 55
REMARK SMILES IDX 49 56 64 58 86 59 51 60 34 61 35 62 44 63 36 64 37 65 43 66
REMARK SMILES IDX 45 67 38 68 39 69 40 70 41 71 42 72 68 73 69 74 78 75 70 76
REMARK SMILES IDX 71 77 77 78 79 79 72 80 73 81 74 82 75 83 76 84 52 85 53 86
REMARK SMILES IDX 62 87 54 88 55 89 61 90 63 91 56 92 57 93 58 94 59 95 60 96
REMARK H PARENT 18 6 22 27 84 46 50 57
REMARK Flexibility Score: inf
ROOT
ATOM      1  C   UNL A   1      33.898  30.379  27.288  1.00  0.00     0.042 C 
ENDROOT
BRANCH   1   2
ATOM      2  C   UNL A   1      33.919  28.987  26.649  1.00  0.00     0.117 C 
BRANCH   2   3
ATOM      3  N   UNL A   1      34.223  28.953  25.225  1.00  0.00    -0.354 N 
ATOM      4  C   UNL A   1      33.447  28.646  24.139  1.00  0.00     0.242 C 
ATOM      5  O   UNL A   1      33.890  28.957  23.032  1.00  0.00    -0.273 OA
ATOM      6  H   UNL A   1      35.152  29.194  25.004  1.00  0.00     0.163 HD
BRANCH   4   7
ATOM      7  C   UNL A   1      32.056  27.993  24.320  1.00  0.00     0.174 C 
ATOM      8  N   UNL A   1      31.648  27.104  23.201  1.00  0.00    -0.329 N 
ATOM      9  C   UNL A   1      30.633  27.737  22.375  1.00  0.00     0.120 C 
ATOM     10  C   UNL A   1      30.603  29.188  22.809  1.00  0.00     0.024 C 
ATOM     11  C   UNL A   1      31.008  29.119  24.280  1.00  0.00     0.037 C 
BRANCH   8  12
ATOM     12  C   UNL A   1      32.277  25.965  22.730  1.00  0.00     0.246 C 
ATOM     13  O   UNL A   1      33.031  26.044  21.751  1.00  0.00    -0.272 OA
BRANCH  12  14
ATOM     14  C   UNL A   1      31.881  24.557  23.252  1.00  0.00     0.186 C 
ATOM     15  C   UNL A   1      34.367  25.068  25.273  1.00  0.00     0.047 C 
ATOM     16  C   UNL A   1      33.336  23.955  25.122  1.00  0.00     0.087 C 
ATOM     17  C   UNL A   1      33.893  22.637  25.646  1.00  0.00     0.049 C 
ATOM     18  N   UNL A   1      32.971  23.711  23.756  1.00  0.00    -0.315 N 
ATOM     19  S   UNL A   1      31.725  24.393  25.894  1.00  0.00    -0.131 SA
ATOM     20  C   UNL A   1      33.305  21.582  24.729  1.00  0.00     0.103 C 
ATOM     21  C   UNL A   1      32.948  22.343  23.475  1.00  0.00     0.224 C 
ATOM     22  C   UNL A   1      30.801  24.469  24.317  1.00  0.00     0.107 C 
ATOM     23  O   UNL A   1      32.523  21.831  22.451  1.00  0.00    -0.275 OA
ENDBRANCH  12  14
ENDBRANCH   8  12
ENDBRANCH   4   7
ENDBRANCH   2   3
ENDBRANCH   1   2
BRANCH   1  24
ATOM     24  C   UNL A   1      35.228  30.929  27.807  1.00  0.00     0.118 C 
BRANCH  24  25
ATOM     25  N   UNL A   1      35.258  31.019  29.257  1.00  0.00    -0.352 N 
ATOM     26  C   UNL A   1      36.210  30.590  30.155  1.00  0.00     0.251 C 
ATOM     27  H   UNL A   1      34.475  31.457  29.662  1.00  0.00     0.163 HD
ATOM     28  O   UNL A   1      35.920  30.572  31.349  1.00  0.00    -0.269 OA
BRANCH  26  29
ATOM     29  C   UNL A   1      37.560  30.140  29.724  1.00  0.00     0.039 A 
ATOM     30  C   UNL A   1      38.513  29.860  30.711  1.00  0.00     0.014 A 
ATOM     31  C   UNL A   1      37.937  30.085  28.379  1.00  0.00     0.014 A 
ATOM     32  C   UNL A   1      39.817  29.492  30.356  1.00  0.00     0.010 A 
ATOM     33  C   UNL A   1      39.227  29.670  28.023  1.00  0.00     0.010 A 
ATOM     34  C   UNL A   1      40.186  29.376  29.006  1.00  0.00    -0.014 A 
BRANCH  34  35
ATOM     35  C   UNL A   1      41.568  28.969  28.622  1.00  0.00     0.031 A 
ATOM     36  C   UNL A   1      42.684  29.982  28.580  1.00  0.00     0.074 A 
ATOM     37  C   UNL A   1      41.824  27.691  28.278  1.00  0.00     0.049 A 
ATOM     38  N   UNL A   1      43.934  29.821  28.224  1.00  0.00    -0.248 NA
ATOM     39  C   UNL A   1      42.346  31.359  28.972  1.00  0.00     0.031 C 
ATOM     40  C   UNL A   1      40.835  26.610  28.246  1.00  0.00     0.029 A 
ATOM     41  N   UNL A   1      42.990  27.083  27.881  1.00  0.00    -0.354 N 
ATOM     42  C   UNL A   1      44.528  31.074  28.332  1.00  0.00     0.074 A 
ATOM     43  C   UNL A   1      43.490  31.992  28.753  1.00  0.00     0.031 C 
ATOM     44  C   UNL A   1      41.439  25.473  27.864  1.00  0.00     0.029 A 
ATOM     45  C   UNL A   1      42.849  25.746  27.595  1.00  0.00     0.049 A 
ATOM     46  H   UNL A   1      43.848  27.561  27.807  1.00  0.00     0.167 HD
ATOM     47  C   UNL A   1      45.819  31.427  28.119  1.00  0.00     0.037 A 
ATOM     48  C   UNL A   1      43.747  24.838  27.160  1.00  0.00     0.037 A 
ATOM     49  C   UNL A   1      46.863  30.512  27.732  1.00  0.00     0.049 A 
ATOM     50  C   UNL A   1      45.176  25.251  26.936  1.00  0.00     0.074 A 
ATOM     51  C   UNL A   1      48.211  30.773  27.550  1.00  0.00     0.029 A 
ATOM     52  N   UNL A   1      46.680  29.163  27.469  1.00  0.00    -0.354 N 
ATOM     53  N   UNL A   1      45.726  26.432  27.091  1.00  0.00    -0.248 NA
ATOM     54  C   UNL A   1      46.108  24.209  26.481  1.00  0.00     0.031 C 
ATOM     55  C   UNL A   1      48.838  29.588  27.146  1.00  0.00     0.029 A 
ATOM     56  C   UNL A   1      47.886  28.582  27.112  1.00  0.00     0.049 A 
ATOM     57  H   UNL A   1      45.820  28.689  27.529  1.00  0.00     0.167 HD
ATOM     58  C   UNL A   1      47.070  26.268  26.775  1.00  0.00     0.074 A 
ATOM     59  C   UNL A   1      47.254  24.874  26.429  1.00  0.00     0.031 C 
ATOM     60  C   UNL A   1      48.062  27.192  26.773  1.00  0.00     0.037 A 
BRANCH  47  61
ATOM     61  C   UNL A   1      46.183  32.875  28.303  1.00  0.00     0.058 A 
ATOM     62  C   UNL A   1      46.080  33.797  27.251  1.00  0.00     0.135 A 
ATOM     63  C   UNL A   1      46.603  33.352  29.555  1.00  0.00     0.135 A 
ATOM     64  F   UNL A   1      45.695  33.390  26.030  1.00  0.00    -0.206 F 
ATOM     65  C   UNL A   1      46.412  35.137  27.423  1.00  0.00     0.059 A 
ATOM     66  C   UNL A   1      46.916  34.694  29.757  1.00  0.00     0.059 A 
ATOM     67  F   UNL A   1      46.715  32.513  30.596  1.00  0.00    -0.206 F 
ATOM     68  C   UNL A   1      46.833  35.575  28.679  1.00  0.00     0.060 A 
BRANCH  68  69
ATOM     69  S   UNL A   1      47.266  37.316  28.889  1.00  0.00     0.124 S 
ATOM     70  O   UNL A   1      46.849  37.552  30.268  1.00  0.00    -0.237 OA
ATOM     71  O   UNL A   1      48.707  37.313  28.655  1.00  0.00    -0.237 OA
ATOM     72  O   UNL A   1      46.469  37.989  27.867  1.00  0.00    -0.744 OA
ENDBRANCH  68  69
ENDBRANCH  47  61
BRANCH  48  73
ATOM     73  C   UNL A   1      43.320  23.434  26.921  1.00  0.00     0.058 A 
ATOM     74  C   UNL A   1      43.070  22.970  25.622  1.00  0.00     0.135 A 
ATOM     75  C   UNL A   1      43.169  22.530  27.983  1.00  0.00     0.135 A 
ATOM     76  F   UNL A   1      43.191  23.803  24.577  1.00  0.00    -0.206 F 
ATOM     77  C   UNL A   1      42.677  21.658  25.381  1.00  0.00     0.059 A 
ATOM     78  C   UNL A   1      42.798  21.207  27.765  1.00  0.00     0.059 A 
ATOM     79  F   UNL A   1      43.410  22.925  29.242  1.00  0.00    -0.206 F 
ATOM     80  C   UNL A   1      42.547  20.781  26.461  1.00  0.00     0.060 A 
BRANCH  80  81
ATOM     81  S   UNL A   1      42.102  19.062  26.136  1.00  0.00     0.124 S 
ATOM     82  O   UNL A   1      40.700  19.189  25.752  1.00  0.00    -0.237 OA
ATOM     83  O   UNL A   1      43.026  18.699  25.067  1.00  0.00    -0.237 OA
ATOM     84  O   UNL A   1      42.350  18.406  27.417  1.00  0.00    -0.744 OA
ENDBRANCH  80  81
ENDBRANCH  48  73
BRANCH  60  85
ATOM     85  C   UNL A   1      49.444  26.727  26.411  1.00  0.00     0.058 A 
ATOM     86  C   UNL A   1      50.304  26.164  27.366  1.00  0.00     0.135 A 
ATOM     87  C   UNL A   1      49.894  26.797  25.082  1.00  0.00     0.135 A 
ATOM     88  F   UNL A   1      49.924  26.080  28.650  1.00  0.00    -0.206 F 
ATOM     89  C   UNL A   1      51.571  25.702  27.020  1.00  0.00     0.059 A 
ATOM     90  C   UNL A   1      51.149  26.323  24.710  1.00  0.00     0.059 A 
ATOM     91  F   UNL A   1      49.107  27.320  24.129  1.00  0.00    -0.206 F 
ATOM     92  C   UNL A   1      51.984  25.786  25.690  1.00  0.00     0.060 A 
BRANCH  92  93
ATOM     93  S   UNL A   1      53.615  25.150  25.244  1.00  0.00     0.124 S 
ATOM     94  O   UNL A   1      53.762  25.649  23.881  1.00  0.00    -0.237 OA
ATOM     95  O   UNL A   1      54.480  25.771  26.243  1.00  0.00    -0.237 OA
ATOM     96  O   UNL A   1      53.461  23.704  25.371  1.00  0.00    -0.744 OA
ENDBRANCH  92  93
ENDBRANCH  60  85
ENDBRANCH  34  35
ENDBRANCH  26  29
ENDBRANCH  24  25
ENDBRANCH   1  24
TORSDOF 15
ENDMDL
MODEL 3
REMARK VINA RESULT:     -12.2      0.810      1.718
REMARK SMILES C[C@]12CCC(=O)N1[C@H](C(=O)N1CCC[C@@H]1C(=O)NCCCNC(=O)c1ccc(-c3c4nc(c(-c5c(F)cc(S(=O)(=O)[O-])cc5F)c5ccc([nH]5)c(-c5c(F)cc(S(=O)(=O)[O-])cc5F)c5nc(c(-c6c(F)cc(S(=O)(=O)[O-])cc6F)c6ccc3[nH]6)C=C5)C=C4)cc1)CS2
REMARK SMILES IDX 20 1 19 2 18 3 16 4 17 5 15 7 11 8 12 9 13 10 14 11 9 12
REMARK SMILES IDX 10 13 8 14 1 15 2 16 3 17 7 18 92 19 4 20 5 21 91 22 6 23
REMARK SMILES IDX 21 24 22 25 23 26 24 28 25 29 26 30 90 31 27 32 89 33 28 34
REMARK SMILES IDX 29 35 30 36 83 37 31 38 88 39 82 40 84 41 32 42 87 43 81 44
REMARK SMILES IDX 80 45 33 47 67 48 46 49 66 50 47 51 50 52 65 53 85 54 48 55
REMARK SMILES IDX 49 56 64 58 86 59 51 60 34 61 35 62 44 63 36 64 37 65 43 66
REMARK SMILES IDX 45 67 38 68 39 69 40 70 41 71 42 72 68 73 69 74 78 75 70 76
REMARK SMILES IDX 71 77 77 78 79 79 72 80 73 81 74 82 75 83 76 84 52 85 53 86
REMARK SMILES IDX 62 87 54 88 55 89 61 90 63 91 56 92 57 93 58 94 59 95 60 96
REMARK H PARENT 18 6 22 27 84 46 50 57
REMARK Flexibility Score: inf
ROOT
ATOM      1  C   UNL A   1      38.702  22.208  25.984  1.00  0.00     0.042 C 
ENDROOT
BRANCH   1   2
ATOM      2  C   UNL A   1      37.307  22.679  25.561  1.00  0.00     0.117 C 
BRANCH   2   3
ATOM      3  N   UNL A   1      36.271  22.570  26.577  1.00  0.00    -0.354 N 
ATOM      4  C   UNL A   1      34.959  22.185  26.497  1.00  0.00     0.242 C 
ATOM      5  O   UNL A   1      34.386  21.932  27.558  1.00  0.00    -0.273 OA
ATOM      6  H   UNL A   1      36.565  22.817  27.483  1.00  0.00     0.163 HD
BRANCH   4   7
ATOM      7  C   UNL A   1      34.264  22.025  25.123  1.00  0.00     0.174 C 
ATOM      8  N   UNL A   1      32.793  22.233  25.154  1.00  0.00    -0.329 N 
ATOM      9  C   UNL A   1      32.083  20.970  25.042  1.00  0.00     0.120 C 
ATOM     10  C   UNL A   1      33.134  19.896  25.239  1.00  0.00     0.024 C 
ATOM     11  C   UNL A   1      34.405  20.551  24.704  1.00  0.00     0.037 C 
BRANCH   8  12
ATOM     12  C   UNL A   1      32.088  23.362  25.536  1.00  0.00     0.246 C 
ATOM     13  O   UNL A   1      31.747  23.498  26.718  1.00  0.00    -0.272 OA
BRANCH  12  14
ATOM     14  C   UNL A   1      31.517  24.346  24.478  1.00  0.00     0.186 C 
ATOM     15  C   UNL A   1      33.818  26.301  25.669  1.00  0.00     0.047 C 
ATOM     16  C   UNL A   1      32.811  26.420  24.530  1.00  0.00     0.087 C 
ATOM     17  C   UNL A   1      32.473  27.883  24.268  1.00  0.00     0.049 C 
ATOM     18  N   UNL A   1      31.562  25.775  24.817  1.00  0.00    -0.315 N 
ATOM     19  S   UNL A   1      33.373  25.546  23.013  1.00  0.00    -0.131 SA
ATOM     20  C   UNL A   1      31.008  27.873  23.878  1.00  0.00     0.103 C 
ATOM     21  C   UNL A   1      30.480  26.585  24.463  1.00  0.00     0.224 C 
ATOM     22  C   UNL A   1      32.065  24.269  23.064  1.00  0.00     0.107 C 
ATOM     23  O   UNL A   1      29.308  26.243  24.444  1.00  0.00    -0.275 OA
ENDBRANCH  12  14
ENDBRANCH   8  12
ENDBRANCH   4   7
ENDBRANCH   2   3
ENDBRANCH   1   2
BRANCH   1  24
ATOM     24  C   UNL A   1      39.543  23.179  26.815  1.00  0.00     0.118 C 
BRANCH  24  25
ATOM     25  N   UNL A   1      40.744  23.603  26.117  1.00  0.00    -0.352 N 
ATOM     26  C   UNL A   1      41.472  24.767  26.226  1.00  0.00     0.251 C 
ATOM     27  H   UNL A   1      41.094  22.957  25.462  1.00  0.00     0.163 HD
ATOM     28  O   UNL A   1      42.326  25.005  25.374  1.00  0.00    -0.269 OA
BRANCH  26  29
ATOM     29  C   UNL A   1      41.248  25.742  27.327  1.00  0.00     0.039 A 
ATOM     30  C   UNL A   1      42.145  26.809  27.461  1.00  0.00     0.014 A 
ATOM     31  C   UNL A   1      40.241  25.574  28.282  1.00  0.00     0.014 A 
ATOM     32  C   UNL A   1      42.013  27.719  28.518  1.00  0.00     0.010 A 
ATOM     33  C   UNL A   1      40.079  26.512  29.310  1.00  0.00     0.010 A 
ATOM     34  C   UNL A   1      40.967  27.590  29.447  1.00  0.00    -0.014 A 
BRANCH  34  35
ATOM     35  C   UNL A   1      40.812  28.566  30.565  1.00  0.00     0.031 A 
ATOM     36  C   UNL A   1      41.681  28.472  31.793  1.00  0.00     0.074 A 
ATOM     37  C   UNL A   1      39.866  29.524  30.497  1.00  0.00     0.049 A 
ATOM     38  N   UNL A   1      41.656  29.199  32.882  1.00  0.00    -0.248 NA
ATOM     39  C   UNL A   1      42.699  27.410  31.807  1.00  0.00     0.031 C 
ATOM     40  C   UNL A   1      38.935  29.716  29.383  1.00  0.00     0.029 A 
ATOM     41  N   UNL A   1      39.524  30.513  31.388  1.00  0.00    -0.354 N 
ATOM     42  C   UNL A   1      42.639  28.677  33.715  1.00  0.00     0.074 A 
ATOM     43  C   UNL A   1      43.218  27.547  33.019  1.00  0.00     0.031 C 
ATOM     44  C   UNL A   1      38.139  30.764  29.650  1.00  0.00     0.029 A 
ATOM     45  C   UNL A   1      38.479  31.301  30.965  1.00  0.00     0.049 A 
ATOM     46  H   UNL A   1      39.983  30.644  32.249  1.00  0.00     0.167 HD
ATOM     47  C   UNL A   1      43.037  29.106  34.938  1.00  0.00     0.037 A 
ATOM     48  C   UNL A   1      37.858  32.337  31.567  1.00  0.00     0.037 A 
ATOM     49  C   UNL A   1      42.488  30.249  35.621  1.00  0.00     0.049 A 
ATOM     50  C   UNL A   1      38.321  32.799  32.922  1.00  0.00     0.074 A 
ATOM     51  C   UNL A   1      42.871  30.790  36.838  1.00  0.00     0.029 A 
ATOM     52  N   UNL A   1      41.443  31.030  35.151  1.00  0.00    -0.354 N 
ATOM     53  N   UNL A   1      39.285  32.320  33.671  1.00  0.00    -0.248 NA
ATOM     54  C   UNL A   1      37.614  33.946  33.512  1.00  0.00     0.031 C 
ATOM     55  C   UNL A   1      42.036  31.878  37.118  1.00  0.00     0.029 A 
ATOM     56  C   UNL A   1      41.157  32.036  36.059  1.00  0.00     0.049 A 
ATOM     57  H   UNL A   1      40.974  30.889  34.297  1.00  0.00     0.167 HD
ATOM     58  C   UNL A   1      39.314  33.119  34.808  1.00  0.00     0.074 A 
ATOM     59  C   UNL A   1      38.279  34.118  34.646  1.00  0.00     0.031 C 
ATOM     60  C   UNL A   1      40.129  33.031  35.888  1.00  0.00     0.037 A 
BRANCH  47  61
ATOM     61  C   UNL A   1      44.130  28.333  35.624  1.00  0.00     0.058 A 
ATOM     62  C   UNL A   1      43.842  27.280  36.505  1.00  0.00     0.135 A 
ATOM     63  C   UNL A   1      45.480  28.623  35.367  1.00  0.00     0.135 A 
ATOM     64  F   UNL A   1      42.568  26.969  36.794  1.00  0.00    -0.206 F 
ATOM     65  C   UNL A   1      44.854  26.561  37.135  1.00  0.00     0.059 A 
ATOM     66  C   UNL A   1      46.509  27.902  35.967  1.00  0.00     0.059 A 
ATOM     67  F   UNL A   1      45.810  29.618  34.529  1.00  0.00    -0.206 F 
ATOM     68  C   UNL A   1      46.184  26.883  36.863  1.00  0.00     0.060 A 
BRANCH  68  69
ATOM     69  S   UNL A   1      47.488  25.947  37.690  1.00  0.00     0.124 S 
ATOM     70  O   UNL A   1      46.768  24.743  38.092  1.00  0.00    -0.237 OA
ATOM     71  O   UNL A   1      48.473  25.771  36.628  1.00  0.00    -0.237 OA
ATOM     72  O   UNL A   1      47.897  26.827  38.781  1.00  0.00    -0.744 OA
ENDBRANCH  68  69
ENDBRANCH  47  61
BRANCH  48  73
ATOM     73  C   UNL A   1      36.732  33.021  30.878  1.00  0.00     0.058 A 
ATOM     74  C   UNL A   1      35.407  32.817  31.289  1.00  0.00     0.135 A 
ATOM     75  C   UNL A   1      36.961  33.902  29.810  1.00  0.00     0.135 A 
ATOM     76  F   UNL A   1      35.141  31.975  32.299  1.00  0.00    -0.206 F 
ATOM     77  C   UNL A   1      34.344  33.455  30.660  1.00  0.00     0.059 A 
ATOM     78  C   UNL A   1      35.916  34.568  29.179  1.00  0.00     0.059 A 
ATOM     79  F   UNL A   1      38.213  34.139  29.391  1.00  0.00    -0.206 F 
ATOM     80  C   UNL A   1      34.609  34.334  29.607  1.00  0.00     0.060 A 
BRANCH  80  81
ATOM     81  S   UNL A   1      33.230  35.211  28.838  1.00  0.00     0.124 S 
ATOM     82  O   UNL A   1      33.922  36.288  28.139  1.00  0.00    -0.237 OA
ATOM     83  O   UNL A   1      32.639  34.178  27.993  1.00  0.00    -0.237 OA
ATOM     84  O   UNL A   1      32.417  35.617  29.979  1.00  0.00    -0.744 OA
ENDBRANCH  80  81
ENDBRANCH  48  73
BRANCH  60  85
ATOM     85  C   UNL A   1      39.955  34.056  36.973  1.00  0.00     0.058 A 
ATOM     86  C   UNL A   1      40.561  35.320  36.895  1.00  0.00     0.135 A 
ATOM     87  C   UNL A   1      39.132  33.790  38.080  1.00  0.00     0.135 A 
ATOM     88  F   UNL A   1      41.362  35.621  35.861  1.00  0.00    -0.206 F 
ATOM     89  C   UNL A   1      40.370  36.279  37.885  1.00  0.00     0.059 A 
ATOM     90  C   UNL A   1      38.911  34.742  39.071  1.00  0.00     0.059 A 
ATOM     91  F   UNL A   1      38.524  32.600  38.199  1.00  0.00    -0.206 F 
ATOM     92  C   UNL A   1      39.543  35.981  38.969  1.00  0.00     0.060 A 
BRANCH  92  93
ATOM     93  S   UNL A   1      39.273  37.246  40.230  1.00  0.00     0.124 S 
ATOM     94  O   UNL A   1      40.641  37.630  40.559  1.00  0.00    -0.237 OA
ATOM     95  O   UNL A   1      38.488  38.245  39.512  1.00  0.00    -0.237 OA
ATOM     96  O   UNL A   1      38.552  36.529  41.278  1.00  0.00    -0.744 OA
ENDBRANCH  92  93
ENDBRANCH  60  85
ENDBRANCH  34  35
ENDBRANCH  26  29
ENDBRANCH  24  25
ENDBRANCH   1  24
TORSDOF 15
ENDMDL
