MODEL 1
REMARK VINA RESULT:     -11.9      0.000      0.000
REMARK SMILES O=C(NCCCNC(=O)c1ccc(-n2cc(CSc3nc4ccccc4c(=O)n3-c3ccc(Cl)cc3)nn2)cc1)c1ccc(-c2c3nc(c(-c4c(F)cc(S(=O)(=O)[O-])cc4F)c4ccc([nH]4)c(-c4c(F)cc(S(=O)(=O)[O-])cc4F)c4nc(c(-c5c(F)cc(S(=O)(=O)[O-])cc5F)c5ccc2[nH]5)C=C4)C=C3)cc1
REMARK SMILES IDX 6 1 5 2 4 3 3 4 1 5 2 6 41 8 42 9 106 10 43 11 105 12 44 13
REMARK SMILES IDX 45 14 46 15 99 16 47 17 104 18 98 19 100 20 48 21 103 22
REMARK SMILES IDX 97 23 96 24 49 26 83 27 62 28 82 29 63 30 66 31 81 32 101 33
REMARK SMILES IDX 64 34 65 35 80 37 102 38 67 39 50 40 51 41 60 42 52 43 53 44
REMARK SMILES IDX 59 45 61 46 54 47 55 48 56 49 57 50 58 51 84 52 85 53 94 54
REMARK SMILES IDX 86 55 87 56 93 57 95 58 88 59 89 60 90 61 91 62 92 63 68 64
REMARK SMILES IDX 69 65 78 66 70 67 71 68 77 69 79 70 72 71 73 72 74 73 75 74
REMARK SMILES IDX 76 75 7 76 8 77 9 79 10 80 11 81 40 82 12 83 39 84 13 85
REMARK SMILES IDX 14 86 15 87 38 88 16 89 37 90 17 91 18 92 19 93 20 94 29 95
REMARK SMILES IDX 21 96 27 97 22 98 26 99 28 100 23 101 25 102 24 103 30 104
REMARK SMILES IDX 31 105 36 106 32 107 35 108 33 109 34 110
REMARK H PARENT 3 7 100 25 66 36 7 78
REMARK Flexibility Score: inf
ROOT
ATOM      1  C   UNL A   1      35.267  33.828  33.138  1.00  0.00     0.118 C 
ENDROOT
BRANCH   1   2
ATOM      2  C   UNL A   1      34.800  32.976  31.957  1.00  0.00     0.042 C 
BRANCH   2   3
ATOM      3  C   UNL A   1      34.525  33.752  30.671  1.00  0.00     0.118 C 
BRANCH   3   4
ATOM      4  N   UNL A   1      34.132  32.930  29.545  1.00  0.00    -0.352 N 
ATOM      5  O   UNL A   1      33.933  31.377  28.005  1.00  0.00    -0.269 OA
ATOM      6  C   UNL A   1      34.677  31.884  28.851  1.00  0.00     0.251 C 
ATOM      7  H   UNL A   1      33.252  33.188  29.187  1.00  0.00     0.163 HD
BRANCH   6   8
ATOM      8  C   UNL A   1      36.060  31.345  29.001  1.00  0.00     0.039 A 
ATOM      9  C   UNL A   1      37.237  32.090  29.066  1.00  0.00     0.014 A 
ATOM     10  C   UNL A   1      36.164  29.938  29.056  1.00  0.00     0.014 A 
ATOM     11  C   UNL A   1      38.479  31.449  29.141  1.00  0.00     0.010 A 
ATOM     12  C   UNL A   1      37.399  29.296  29.139  1.00  0.00     0.010 A 
ATOM     13  C   UNL A   1      38.568  30.050  29.157  1.00  0.00    -0.014 A 
BRANCH  13  14
ATOM     14  C   UNL A   1      39.888  29.428  29.308  1.00  0.00     0.031 A 
ATOM     15  C   UNL A   1      40.392  29.291  30.710  1.00  0.00     0.074 A 
ATOM     16  C   UNL A   1      40.583  28.836  28.314  1.00  0.00     0.049 A 
ATOM     17  N   UNL A   1      41.458  29.796  31.242  1.00  0.00    -0.248 NA
ATOM     18  C   UNL A   1      39.562  28.524  31.653  1.00  0.00     0.031 C 
ATOM     19  C   UNL A   1      40.143  28.540  26.948  1.00  0.00     0.029 A 
ATOM     20  N   UNL A   1      41.831  28.279  28.361  1.00  0.00    -0.354 N 
ATOM     21  C   UNL A   1      41.534  29.277  32.536  1.00  0.00     0.074 A 
ATOM     22  C   UNL A   1      40.287  28.591  32.769  1.00  0.00     0.031 C 
ATOM     23  C   UNL A   1      41.024  27.691  26.369  1.00  0.00     0.029 A 
ATOM     24  C   UNL A   1      42.154  27.495  27.262  1.00  0.00     0.049 A 
ATOM     25  H   UNL A   1      42.451  28.423  29.114  1.00  0.00     0.167 HD
ATOM     26  C   UNL A   1      42.677  29.308  33.279  1.00  0.00     0.037 A 
ATOM     27  C   UNL A   1      43.247  26.705  27.115  1.00  0.00     0.037 A 
ATOM     28  C   UNL A   1      43.628  30.254  32.764  1.00  0.00     0.049 A 
ATOM     29  C   UNL A   1      44.280  27.179  28.071  1.00  0.00     0.074 A 
ATOM     30  C   UNL A   1      43.624  31.618  32.548  1.00  0.00     0.029 A 
ATOM     31  N   UNL A   1      44.714  29.778  32.073  1.00  0.00    -0.354 N 
ATOM     32  N   UNL A   1      44.899  28.324  27.986  1.00  0.00    -0.248 NA
ATOM     33  C   UNL A   1      44.368  26.517  29.363  1.00  0.00     0.031 C 
ATOM     34  C   UNL A   1      44.382  31.807  31.356  1.00  0.00     0.029 A 
ATOM     35  C   UNL A   1      44.830  30.550  30.945  1.00  0.00     0.049 A 
ATOM     36  H   UNL A   1      45.296  29.028  32.335  1.00  0.00     0.167 HD
ATOM     37  C   UNL A   1      45.100  28.717  29.299  1.00  0.00     0.074 A 
ATOM     38  C   UNL A   1      44.849  27.521  30.097  1.00  0.00     0.031 C 
ATOM     39  C   UNL A   1      45.190  30.036  29.641  1.00  0.00     0.037 A 
BRANCH  26  40
ATOM     40  C   UNL A   1      43.051  28.282  34.324  1.00  0.00     0.058 A 
ATOM     41  C   UNL A   1      43.245  28.676  35.665  1.00  0.00     0.135 A 
ATOM     42  C   UNL A   1      43.486  26.978  34.004  1.00  0.00     0.135 A 
ATOM     43  F   UNL A   1      42.886  29.902  36.078  1.00  0.00    -0.206 F 
ATOM     44  C   UNL A   1      43.877  27.855  36.602  1.00  0.00     0.059 A 
ATOM     45  C   UNL A   1      44.069  26.124  34.934  1.00  0.00     0.059 A 
ATOM     46  F   UNL A   1      43.451  26.511  32.749  1.00  0.00    -0.206 F 
ATOM     47  C   UNL A   1      44.300  26.585  36.221  1.00  0.00     0.060 A 
BRANCH  47  48
ATOM     48  S   UNL A   1      45.215  25.567  37.394  1.00  0.00     0.124 S 
ATOM     49  O   UNL A   1      46.586  25.993  37.141  1.00  0.00    -0.237 OA
ATOM     50  O   UNL A   1      44.642  25.981  38.672  1.00  0.00    -0.237 OA
ATOM     51  O   UNL A   1      44.889  24.205  36.981  1.00  0.00    -0.744 OA
ENDBRANCH  47  48
ENDBRANCH  26  40
BRANCH  27  52
ATOM     52  C   UNL A   1      43.356  25.391  26.429  1.00  0.00     0.058 A 
ATOM     53  C   UNL A   1      44.209  25.209  25.325  1.00  0.00     0.135 A 
ATOM     54  C   UNL A   1      42.849  24.218  27.022  1.00  0.00     0.135 A 
ATOM     55  F   UNL A   1      44.758  26.269  24.713  1.00  0.00    -0.206 F 
ATOM     56  C   UNL A   1      44.578  23.938  24.868  1.00  0.00     0.059 A 
ATOM     57  C   UNL A   1      43.193  22.942  26.578  1.00  0.00     0.059 A 
ATOM     58  F   UNL A   1      42.075  24.278  28.117  1.00  0.00    -0.206 F 
ATOM     59  C   UNL A   1      44.079  22.808  25.516  1.00  0.00     0.060 A 
BRANCH  59  60
ATOM     60  S   UNL A   1      44.691  21.172  25.049  1.00  0.00     0.124 S 
ATOM     61  O   UNL A   1      43.707  20.294  25.671  1.00  0.00    -0.237 OA
ATOM     62  O   UNL A   1      44.658  21.235  23.590  1.00  0.00    -0.237 OA
ATOM     63  O   UNL A   1      46.028  21.129  25.637  1.00  0.00    -0.744 OA
ENDBRANCH  59  60
ENDBRANCH  27  52
BRANCH  39  64
ATOM     64  C   UNL A   1      45.404  31.053  28.552  1.00  0.00     0.058 A 
ATOM     65  C   UNL A   1      44.378  31.583  27.752  1.00  0.00     0.135 A 
ATOM     66  C   UNL A   1      46.675  31.641  28.437  1.00  0.00     0.135 A 
ATOM     67  F   UNL A   1      43.115  31.148  27.871  1.00  0.00    -0.206 F 
ATOM     68  C   UNL A   1      44.610  32.630  26.857  1.00  0.00     0.059 A 
ATOM     69  C   UNL A   1      46.921  32.707  27.575  1.00  0.00     0.059 A 
ATOM     70  F   UNL A   1      47.685  31.219  29.217  1.00  0.00    -0.206 F 
ATOM     71  C   UNL A   1      45.884  33.192  26.782  1.00  0.00     0.060 A 
BRANCH  71  72
ATOM     72  S   UNL A   1      46.151  34.624  25.713  1.00  0.00     0.124 S 
ATOM     73  O   UNL A   1      45.229  34.362  24.612  1.00  0.00    -0.237 OA
ATOM     74  O   UNL A   1      45.793  35.742  26.582  1.00  0.00    -0.237 OA
ATOM     75  O   UNL A   1      47.569  34.539  25.375  1.00  0.00    -0.744 OA
ENDBRANCH  71  72
ENDBRANCH  39  64
ENDBRANCH  13  14
ENDBRANCH   6   8
ENDBRANCH   3   4
ENDBRANCH   2   3
ENDBRANCH   1   2
BRANCH   1  76
ATOM     76  N   UNL A   1      35.770  33.051  34.261  1.00  0.00    -0.352 N 
ATOM     77  C   UNL A   1      37.061  32.689  34.585  1.00  0.00     0.251 C 
ATOM     78  H   UNL A   1      35.080  32.734  34.889  1.00  0.00     0.163 HD
ATOM     79  O   UNL A   1      37.289  31.993  35.554  1.00  0.00    -0.269 OA
BRANCH  77  80
ATOM     80  C   UNL A   1      38.176  33.127  33.717  1.00  0.00     0.039 A 
ATOM     81  C   UNL A   1      38.699  34.412  33.900  1.00  0.00     0.016 A 
ATOM     82  C   UNL A   1      38.689  32.284  32.731  1.00  0.00     0.016 A 
ATOM     83  C   UNL A   1      39.812  34.825  33.162  1.00  0.00     0.029 A 
ATOM     84  C   UNL A   1      39.780  32.704  31.970  1.00  0.00     0.029 A 
ATOM     85  C   UNL A   1      40.350  33.971  32.195  1.00  0.00     0.066 A 
BRANCH  85  86
ATOM     86  N   UNL A   1      41.448  34.389  31.410  1.00  0.00    -0.220 N 
ATOM     87  C   UNL A   1      42.450  35.229  31.812  1.00  0.00     0.141 A 
ATOM     88  N   UNL A   1      41.662  34.020  30.129  1.00  0.00    -0.062 NA
ATOM     89  C   UNL A   1      43.252  35.418  30.713  1.00  0.00     0.093 A 
ATOM     90  N   UNL A   1      42.721  34.695  29.676  1.00  0.00    -0.134 NA
BRANCH  89  91
ATOM     91  C   UNL A   1      44.340  36.406  30.533  1.00  0.00     0.138 C 
BRANCH  91  92
ATOM     92  S   UNL A   1      44.275  37.721  29.308  1.00  0.00    -0.081 SA
BRANCH  92  93
ATOM     93  C   UNL A   1      43.710  39.219  29.998  1.00  0.00     0.176 A 
ATOM     94  N   UNL A   1      44.230  39.434  31.171  1.00  0.00    -0.223 NA
ATOM     95  N   UNL A   1      42.857  40.134  29.387  1.00  0.00    -0.255 N 
ATOM     96  C   UNL A   1      43.837  40.567  31.886  1.00  0.00     0.079 A 
ATOM     97  C   UNL A   1      42.039  40.839  30.286  1.00  0.00     0.266 A 
ATOM     98  C   UNL A   1      44.567  41.009  32.990  1.00  0.00     0.029 A 
ATOM     99  C   UNL A   1      42.657  41.215  31.566  1.00  0.00     0.066 A 
ATOM    100  O   UNL A   1      40.865  41.159  30.110  1.00  0.00    -0.268 OA
ATOM    101  C   UNL A   1      44.079  42.050  33.791  1.00  0.00     0.002 A 
ATOM    102  C   UNL A   1      42.129  42.222  32.381  1.00  0.00     0.016 A 
ATOM    103  C   UNL A   1      42.844  42.633  33.505  1.00  0.00     0.001 A 
BRANCH  95 104
ATOM    104  C   UNL A   1      42.681  40.377  27.961  1.00  0.00     0.051 A 
ATOM    105  C   UNL A   1      43.669  41.075  27.233  1.00  0.00     0.028 A 
ATOM    106  C   UNL A   1      41.573  39.961  27.207  1.00  0.00     0.028 A 
ATOM    107  C   UNL A   1      43.459  41.547  25.931  1.00  0.00     0.022 A 
ATOM    108  C   UNL A   1      41.327  40.465  25.917  1.00  0.00     0.022 A 
ATOM    109  C   UNL A   1      42.253  41.294  25.302  1.00  0.00     0.041 A 
ATOM    110  Cl  UNL A   1      41.906  42.014  23.784  1.00  0.00    -0.084 Cl
ENDBRANCH  95 104
ENDBRANCH  92  93
ENDBRANCH  91  92
ENDBRANCH  89  91
ENDBRANCH  85  86
ENDBRANCH  77  80
ENDBRANCH   1  76
TORSDOF 18
ENDMDL
MODEL 2
REMARK VINA RESULT:     -11.4      5.315     11.070
REMARK SMILES O=C(NCCCNC(=O)c1ccc(-n2cc(CSc3nc4ccccc4c(=O)n3-c3ccc(Cl)cc3)nn2)cc1)c1ccc(-c2c3nc(c(-c4c(F)cc(S(=O)(=O)[O-])cc4F)c4ccc([nH]4)c(-c4c(F)cc(S(=O)(=O)[O-])cc4F)c4nc(c(-c5c(F)cc(S(=O)(=O)[O-])cc5F)c5ccc2[nH]5)C=C4)C=C3)cc1
REMARK SMILES IDX 6 1 5 2 4 3 3 4 1 5 2 6 41 8 42 9 106 10 43 11 105 12 44 13
REMARK SMILES IDX 45 14 46 15 99 16 47 17 104 18 98 19 100 20 48 21 103 22
REMARK SMILES IDX 97 23 96 24 49 26 83 27 62 28 82 29 63 30 66 31 81 32 101 33
REMARK SMILES IDX 64 34 65 35 80 37 102 38 67 39 50 40 51 41 60 42 52 43 53 44
REMARK SMILES IDX 59 45 61 46 54 47 55 48 56 49 57 50 58 51 84 52 85 53 94 54
REMARK SMILES IDX 86 55 87 56 93 57 95 58 88 59 89 60 90 61 91 62 92 63 68 64
REMARK SMILES IDX 69 65 78 66 70 67 71 68 77 69 79 70 72 71 73 72 74 73 75 74
REMARK SMILES IDX 76 75 7 76 8 77 9 79 10 80 11 81 40 82 12 83 39 84 13 85
REMARK SMILES IDX 14 86 15 87 38 88 16 89 37 90 17 91 18 92 19 93 20 94 29 95
REMARK SMILES IDX 21 96 27 97 22 98 26 99 28 100 23 101 25 102 24 103 30 104
REMARK SMILES IDX 31 105 36 106 32 107 35 108 33 109 34 110
REMARK H PARENT 3 7 100 25 66 36 7 78
REMARK Flexibility Score: inf
ROOT
ATOM      1  C   UNL A   1      34.448  31.066  27.598  1.00  0.00     0.118 C 
ENDROOT
BRANCH   1   2
ATOM      2  C   UNL A   1      35.241  31.480  28.838  1.00  0.00     0.042 C 
BRANCH   2   3
ATOM      3  C   UNL A   1      34.679  32.684  29.590  1.00  0.00     0.118 C 
BRANCH   3   4
ATOM      4  N   UNL A   1      34.684  32.549  31.033  1.00  0.00    -0.352 N 
ATOM      5  O   UNL A   1      35.215  32.328  33.152  1.00  0.00    -0.269 OA
ATOM      6  C   UNL A   1      35.598  32.190  31.986  1.00  0.00     0.251 C 
ATOM      7  H   UNL A   1      33.809  32.769  31.428  1.00  0.00     0.163 HD
BRANCH   6   8
ATOM      8  C   UNL A   1      36.960  31.633  31.742  1.00  0.00     0.039 A 
ATOM      9  C   UNL A   1      38.129  32.364  31.536  1.00  0.00     0.014 A 
ATOM     10  C   UNL A   1      37.044  30.225  31.696  1.00  0.00     0.014 A 
ATOM     11  C   UNL A   1      39.334  31.710  31.251  1.00  0.00     0.010 A 
ATOM     12  C   UNL A   1      38.244  29.569  31.420  1.00  0.00     0.010 A 
ATOM     13  C   UNL A   1      39.393  30.312  31.172  1.00  0.00    -0.014 A 
BRANCH  13  14
ATOM     14  C   UNL A   1      40.693  29.672  30.941  1.00  0.00     0.031 A 
ATOM     15  C   UNL A   1      41.506  29.379  32.162  1.00  0.00     0.074 A 
ATOM     16  C   UNL A   1      41.120  29.191  29.753  1.00  0.00     0.049 A 
ATOM     17  N   UNL A   1      42.681  29.819  32.479  1.00  0.00    -0.248 NA
ATOM     18  C   UNL A   1      40.897  28.516  33.186  1.00  0.00     0.031 C 
ATOM     19  C   UNL A   1      40.365  29.050  28.506  1.00  0.00     0.029 A 
ATOM     20  N   UNL A   1      42.328  28.628  29.447  1.00  0.00    -0.354 N 
ATOM     21  C   UNL A   1      43.041  29.160  33.656  1.00  0.00     0.074 A 
ATOM     22  C   UNL A   1      41.864  28.456  34.101  1.00  0.00     0.031 C 
ATOM     23  C   UNL A   1      41.060  28.267  27.649  1.00  0.00     0.029 A 
ATOM     24  C   UNL A   1      42.361  27.970  28.225  1.00  0.00     0.049 A 
ATOM     25  H   UNL A   1      43.109  28.686  30.043  1.00  0.00     0.167 HD
ATOM     26  C   UNL A   1      44.326  29.104  34.109  1.00  0.00     0.037 A 
ATOM     27  C   UNL A   1      43.367  27.196  27.742  1.00  0.00     0.037 A 
ATOM     28  C   UNL A   1      45.158  30.098  33.488  1.00  0.00     0.049 A 
ATOM     29  C   UNL A   1      44.607  27.558  28.473  1.00  0.00     0.074 A 
ATOM     30  C   UNL A   1      45.145  31.477  33.426  1.00  0.00     0.029 A 
ATOM     31  N   UNL A   1      46.039  29.697  32.515  1.00  0.00    -0.354 N 
ATOM     32  N   UNL A   1      45.223  28.703  28.368  1.00  0.00    -0.248 NA
ATOM     33  C   UNL A   1      44.974  26.757  29.630  1.00  0.00     0.031 C 
ATOM     34  C   UNL A   1      45.609  31.794  32.116  1.00  0.00     0.029 A 
ATOM     35  C   UNL A   1      45.912  30.589  31.480  1.00  0.00     0.049 A 
ATOM     36  H   UNL A   1      46.644  28.921  32.551  1.00  0.00     0.167 HD
ATOM     37  C   UNL A   1      45.736  28.948  29.631  1.00  0.00     0.074 A 
ATOM     38  C   UNL A   1      45.643  27.672  30.333  1.00  0.00     0.031 C 
ATOM     39  C   UNL A   1      45.943  30.220  30.081  1.00  0.00     0.037 A 
BRANCH  26  40
ATOM     40  C   UNL A   1      44.904  27.968  34.921  1.00  0.00     0.058 A 
ATOM     41  C   UNL A   1      45.015  26.679  34.356  1.00  0.00     0.135 A 
ATOM     42  C   UNL A   1      45.103  28.040  36.316  1.00  0.00     0.135 A 
ATOM     43  F   UNL A   1      44.827  26.489  33.041  1.00  0.00    -0.206 F 
ATOM     44  C   UNL A   1      45.249  25.540  35.131  1.00  0.00     0.059 A 
ATOM     45  C   UNL A   1      45.390  26.926  37.100  1.00  0.00     0.059 A 
ATOM     46  F   UNL A   1      44.933  29.182  36.994  1.00  0.00    -0.206 F 
ATOM     47  C   UNL A   1      45.419  25.674  36.505  1.00  0.00     0.060 A 
BRANCH  47  48
ATOM     48  S   UNL A   1      45.609  24.197  37.522  1.00  0.00     0.124 S 
ATOM     49  O   UNL A   1      44.903  24.588  38.736  1.00  0.00    -0.237 OA
ATOM     50  O   UNL A   1      44.959  23.177  36.705  1.00  0.00    -0.237 OA
ATOM     51  O   UNL A   1      47.057  24.061  37.649  1.00  0.00    -0.744 OA
ENDBRANCH  47  48
ENDBRANCH  26  40
BRANCH  27  52
ATOM     52  C   UNL A   1      43.273  25.966  26.913  1.00  0.00     0.058 A 
ATOM     53  C   UNL A   1      43.891  25.883  25.652  1.00  0.00     0.135 A 
ATOM     54  C   UNL A   1      42.826  24.750  27.467  1.00  0.00     0.135 A 
ATOM     55  F   UNL A   1      44.370  26.988  25.060  1.00  0.00    -0.206 F 
ATOM     56  C   UNL A   1      44.099  24.662  25.001  1.00  0.00     0.059 A 
ATOM     57  C   UNL A   1      43.012  23.522  26.833  1.00  0.00     0.059 A 
ATOM     58  F   UNL A   1      42.279  24.710  28.691  1.00  0.00    -0.206 F 
ATOM     59  C   UNL A   1      43.672  23.482  25.611  1.00  0.00     0.060 A 
BRANCH  59  60
ATOM     60  S   UNL A   1      44.097  21.890  24.864  1.00  0.00     0.124 S 
ATOM     61  O   UNL A   1      45.381  21.597  25.491  1.00  0.00    -0.237 OA
ATOM     62  O   UNL A   1      42.978  21.048  25.276  1.00  0.00    -0.237 OA
ATOM     63  O   UNL A   1      44.153  22.191  23.435  1.00  0.00    -0.744 OA
ENDBRANCH  59  60
ENDBRANCH  27  52
BRANCH  39  64
ATOM     64  C   UNL A   1      45.927  31.351  29.087  1.00  0.00     0.058 A 
ATOM     65  C   UNL A   1      47.054  31.793  28.374  1.00  0.00     0.135 A 
ATOM     66  C   UNL A   1      44.684  31.890  28.718  1.00  0.00     0.135 A 
ATOM     67  F   UNL A   1      48.264  31.259  28.593  1.00  0.00    -0.206 F 
ATOM     68  C   UNL A   1      46.954  32.748  27.359  1.00  0.00     0.059 A 
ATOM     69  C   UNL A   1      44.556  32.818  27.687  1.00  0.00     0.059 A 
ATOM     70  F   UNL A   1      43.560  31.465  29.322  1.00  0.00    -0.206 F 
ATOM     71  C   UNL A   1      45.697  33.248  27.016  1.00  0.00     0.060 A 
BRANCH  71  72
ATOM     72  S   UNL A   1      45.557  34.390  25.624  1.00  0.00     0.124 S 
ATOM     73  O   UNL A   1      44.711  33.644  24.698  1.00  0.00    -0.237 OA
ATOM     74  O   UNL A   1      44.940  35.565  26.235  1.00  0.00    -0.237 OA
ATOM     75  O   UNL A   1      46.941  34.578  25.195  1.00  0.00    -0.744 OA
ENDBRANCH  71  72
ENDBRANCH  39  64
ENDBRANCH  13  14
ENDBRANCH   6   8
ENDBRANCH   3   4
ENDBRANCH   2   3
ENDBRANCH   1   2
BRANCH   1  76
ATOM     76  N   UNL A   1      33.359  31.973  27.266  1.00  0.00    -0.352 N 
ATOM     77  C   UNL A   1      32.127  31.715  26.701  1.00  0.00     0.251 C 
ATOM     78  H   UNL A   1      33.527  32.920  27.479  1.00  0.00     0.163 HD
ATOM     79  O   UNL A   1      31.352  32.616  26.456  1.00  0.00    -0.269 OA
BRANCH  77  80
ATOM     80  C   UNL A   1      31.765  30.322  26.358  1.00  0.00     0.039 A 
ATOM     81  C   UNL A   1      31.399  30.033  25.038  1.00  0.00     0.016 A 
ATOM     82  C   UNL A   1      31.778  29.319  27.328  1.00  0.00     0.016 A 
ATOM     83  C   UNL A   1      31.141  28.713  24.658  1.00  0.00     0.029 A 
ATOM     84  C   UNL A   1      31.491  28.006  26.959  1.00  0.00     0.029 A 
ATOM     85  C   UNL A   1      31.184  27.700  25.620  1.00  0.00     0.066 A 
BRANCH  85  86
ATOM     86  N   UNL A   1      30.885  26.366  25.262  1.00  0.00    -0.220 N 
ATOM     87  C   UNL A   1      30.705  25.322  26.126  1.00  0.00     0.141 A 
ATOM     88  N   UNL A   1      30.741  25.926  23.993  1.00  0.00    -0.062 NA
ATOM     89  C   UNL A   1      30.513  24.209  25.344  1.00  0.00     0.093 A 
ATOM     90  N   UNL A   1      30.581  24.601  24.031  1.00  0.00    -0.134 NA
BRANCH  89  91
ATOM     91  C   UNL A   1      30.495  22.789  25.761  1.00  0.00     0.138 C 
BRANCH  91  92
ATOM     92  S   UNL A   1      31.823  22.031  26.708  1.00  0.00    -0.081 SA
BRANCH  92  93
ATOM     93  C   UNL A   1      32.771  20.940  25.734  1.00  0.00     0.176 A 
ATOM     94  N   UNL A   1      32.375  19.707  25.870  1.00  0.00    -0.223 NA
ATOM     95  N   UNL A   1      33.794  21.298  24.859  1.00  0.00    -0.255 N 
ATOM     96  C   UNL A   1      33.069  18.699  25.199  1.00  0.00     0.079 A 
ATOM     97  C   UNL A   1      34.801  20.326  24.733  1.00  0.00     0.266 A 
ATOM     98  C   UNL A   1      32.522  17.422  25.059  1.00  0.00     0.029 A 
ATOM     99  C   UNL A   1      34.356  18.925  24.743  1.00  0.00     0.066 A 
ATOM    100  O   UNL A   1      36.008  20.534  24.626  1.00  0.00    -0.268 OA
ATOM    101  C   UNL A   1      33.288  16.379  24.523  1.00  0.00     0.002 A 
ATOM    102  C   UNL A   1      35.153  17.886  24.251  1.00  0.00     0.016 A 
ATOM    103  C   UNL A   1      34.615  16.604  24.151  1.00  0.00     0.001 A 
BRANCH  95 104
ATOM    104  C   UNL A   1      33.957  22.556  24.142  1.00  0.00     0.051 A 
ATOM    105  C   UNL A   1      34.446  23.698  24.814  1.00  0.00     0.028 A 
ATOM    106  C   UNL A   1      33.666  22.748  22.783  1.00  0.00     0.028 A 
ATOM    107  C   UNL A   1      34.403  24.981  24.255  1.00  0.00     0.022 A 
ATOM    108  C   UNL A   1      33.573  24.034  22.223  1.00  0.00     0.022 A 
ATOM    109  C   UNL A   1      33.899  25.150  22.978  1.00  0.00     0.041 A 
ATOM    110  Cl  UNL A   1      33.669  26.728  22.345  1.00  0.00    -0.084 Cl
ENDBRANCH  95 104
ENDBRANCH  92  93
ENDBRANCH  91  92
ENDBRANCH  89  91
ENDBRANCH  85  86
ENDBRANCH  77  80
ENDBRANCH   1  76
TORSDOF 18
ENDMDL
MODEL 3
REMARK VINA RESULT:     -11.3      5.446     11.766
REMARK SMILES O=C(NCCCNC(=O)c1ccc(-n2cc(CSc3nc4ccccc4c(=O)n3-c3ccc(Cl)cc3)nn2)cc1)c1ccc(-c2c3nc(c(-c4c(F)cc(S(=O)(=O)[O-])cc4F)c4ccc([nH]4)c(-c4c(F)cc(S(=O)(=O)[O-])cc4F)c4nc(c(-c5c(F)cc(S(=O)(=O)[O-])cc5F)c5ccc2[nH]5)C=C4)C=C3)cc1
REMARK SMILES IDX 6 1 5 2 4 3 3 4 1 5 2 6 41 8 42 9 106 10 43 11 105 12 44 13
REMARK SMILES IDX 45 14 46 15 99 16 47 17 104 18 98 19 100 20 48 21 103 22
REMARK SMILES IDX 97 23 96 24 49 26 83 27 62 28 82 29 63 30 66 31 81 32 101 33
REMARK SMILES IDX 64 34 65 35 80 37 102 38 67 39 50 40 51 41 60 42 52 43 53 44
REMARK SMILES IDX 59 45 61 46 54 47 55 48 56 49 57 50 58 51 84 52 85 53 94 54
REMARK SMILES IDX 86 55 87 56 93 57 95 58 88 59 89 60 90 61 91 62 92 63 68 64
REMARK SMILES IDX 69 65 78 66 70 67 71 68 77 69 79 70 72 71 73 72 74 73 75 74
REMARK SMILES IDX 76 75 7 76 8 77 9 79 10 80 11 81 40 82 12 83 39 84 13 85
REMARK SMILES IDX 14 86 15 87 38 88 16 89 37 90 17 91 18 92 19 93 20 94 29 95
REMARK SMILES IDX 21 96 27 97 22 98 26 99 28 100 23 101 25 102 24 103 30 104
REMARK SMILES IDX 31 105 36 106 32 107 35 108 33 109 34 110
REMARK H PARENT 3 7 100 25 66 36 7 78
REMARK Flexibility Score: inf
ROOT
ATOM      1  C   UNL A   1      43.415  40.823  30.374  1.00  0.00     0.118 C 
ENDROOT
BRANCH   1   2
ATOM      2  C   UNL A   1      42.537  41.129  31.587  1.00  0.00     0.042 C 
BRANCH   2   3
ATOM      3  C   UNL A   1      43.298  41.533  32.848  1.00  0.00     0.118 C 
BRANCH   3   4
ATOM      4  N   UNL A   1      44.579  40.876  33.014  1.00  0.00    -0.352 N 
ATOM      5  O   UNL A   1      46.241  39.447  33.150  1.00  0.00    -0.269 OA
ATOM      6  C   UNL A   1      45.014  39.587  33.162  1.00  0.00     0.251 C 
ATOM      7  H   UNL A   1      45.325  41.518  33.024  1.00  0.00     0.163 HD
BRANCH   6   8
ATOM      8  C   UNL A   1      44.159  38.380  33.363  1.00  0.00     0.039 A 
ATOM      9  C   UNL A   1      43.947  37.353  32.445  1.00  0.00     0.014 A 
ATOM     10  C   UNL A   1      43.489  38.308  34.604  1.00  0.00     0.014 A 
ATOM     11  C   UNL A   1      43.063  36.309  32.740  1.00  0.00     0.010 A 
ATOM     12  C   UNL A   1      42.613  37.265  34.905  1.00  0.00     0.010 A 
ATOM     13  C   UNL A   1      42.377  36.270  33.962  1.00  0.00    -0.014 A 
BRANCH  13  14
ATOM     14  C   UNL A   1      41.516  35.118  34.253  1.00  0.00     0.031 A 
ATOM     15  C   UNL A   1      41.897  33.831  33.591  1.00  0.00     0.074 A 
ATOM     16  C   UNL A   1      40.534  35.099  35.179  1.00  0.00     0.049 A 
ATOM     17  N   UNL A   1      41.214  33.113  32.758  1.00  0.00    -0.248 NA
ATOM     18  C   UNL A   1      43.245  33.306  33.864  1.00  0.00     0.031 C 
ATOM     19  C   UNL A   1      40.212  36.116  36.182  1.00  0.00     0.029 A 
ATOM     20  N   UNL A   1      39.662  34.088  35.475  1.00  0.00    -0.354 N 
ATOM     21  C   UNL A   1      41.964  31.958  32.530  1.00  0.00     0.074 A 
ATOM     22  C   UNL A   1      43.248  32.182  33.148  1.00  0.00     0.031 C 
ATOM     23  C   UNL A   1      39.359  35.591  37.093  1.00  0.00     0.029 A 
ATOM     24  C   UNL A   1      38.966  34.259  36.664  1.00  0.00     0.049 A 
ATOM     25  H   UNL A   1      39.537  33.304  34.893  1.00  0.00     0.167 HD
ATOM     26  C   UNL A   1      41.433  30.827  31.984  1.00  0.00     0.037 A 
ATOM     27  C   UNL A   1      38.163  33.353  37.278  1.00  0.00     0.037 A 
ATOM     28  C   UNL A   1      40.182  31.085  31.326  1.00  0.00     0.049 A 
ATOM     29  C   UNL A   1      37.744  32.357  36.260  1.00  0.00     0.074 A 
ATOM     30  C   UNL A   1      39.782  31.889  30.276  1.00  0.00     0.029 A 
ATOM     31  N   UNL A   1      39.023  30.698  31.950  1.00  0.00    -0.354 N 
ATOM     32  N   UNL A   1      36.955  32.613  35.253  1.00  0.00    -0.248 NA
ATOM     33  C   UNL A   1      38.513  31.128  36.152  1.00  0.00     0.031 C 
ATOM     34  C   UNL A   1      38.478  32.342  30.631  1.00  0.00     0.029 A 
ATOM     35  C   UNL A   1      38.153  31.755  31.855  1.00  0.00     0.049 A 
ATOM     36  H   UNL A   1      38.849  29.830  32.383  1.00  0.00     0.167 HD
ATOM     37  C   UNL A   1      37.423  31.814  34.223  1.00  0.00     0.074 A 
ATOM     38  C   UNL A   1      38.311  30.849  34.864  1.00  0.00     0.031 C 
ATOM     39  C   UNL A   1      37.260  32.170  32.915  1.00  0.00     0.037 A 
BRANCH  26  40
ATOM     40  C   UNL A   1      41.910  29.424  32.277  1.00  0.00     0.058 A 
ATOM     41  C   UNL A   1      41.795  28.894  33.579  1.00  0.00     0.135 A 
ATOM     42  C   UNL A   1      42.719  28.683  31.388  1.00  0.00     0.135 A 
ATOM     43  F   UNL A   1      41.066  29.525  34.513  1.00  0.00    -0.206 F 
ATOM     44  C   UNL A   1      42.479  27.745  33.984  1.00  0.00     0.059 A 
ATOM     45  C   UNL A   1      43.366  27.507  31.754  1.00  0.00     0.059 A 
ATOM     46  F   UNL A   1      42.992  29.120  30.152  1.00  0.00    -0.206 F 
ATOM     47  C   UNL A   1      43.275  27.068  33.066  1.00  0.00     0.060 A 
BRANCH  47  48
ATOM     48  S   UNL A   1      44.247  25.651  33.612  1.00  0.00     0.124 S 
ATOM     49  O   UNL A   1      44.400  24.906  32.368  1.00  0.00    -0.237 OA
ATOM     50  O   UNL A   1      45.454  26.288  34.128  1.00  0.00    -0.237 OA
ATOM     51  O   UNL A   1      43.394  25.028  34.621  1.00  0.00    -0.744 OA
ENDBRANCH  47  48
ENDBRANCH  26  40
BRANCH  27  52
ATOM     52  C   UNL A   1      37.977  33.115  38.733  1.00  0.00     0.058 A 
ATOM     53  C   UNL A   1      36.715  32.797  39.268  1.00  0.00     0.135 A 
ATOM     54  C   UNL A   1      39.082  32.908  39.582  1.00  0.00     0.135 A 
ATOM     55  F   UNL A   1      35.609  32.939  38.522  1.00  0.00    -0.206 F 
ATOM     56  C   UNL A   1      36.563  32.256  40.550  1.00  0.00     0.059 A 
ATOM     57  C   UNL A   1      38.954  32.381  40.867  1.00  0.00     0.059 A 
ATOM     58  F   UNL A   1      40.334  33.122  39.150  1.00  0.00    -0.206 F 
ATOM     59  C   UNL A   1      37.693  32.033  41.336  1.00  0.00     0.060 A 
BRANCH  59  60
ATOM     60  S   UNL A   1      37.522  31.171  42.917  1.00  0.00     0.124 S 
ATOM     61  O   UNL A   1      38.015  29.839  42.587  1.00  0.00    -0.237 OA
ATOM     62  O   UNL A   1      38.373  31.967  43.796  1.00  0.00    -0.237 OA
ATOM     63  O   UNL A   1      36.091  31.257  43.196  1.00  0.00    -0.744 OA
ENDBRANCH  59  60
ENDBRANCH  27  52
BRANCH  39  64
ATOM     64  C   UNL A   1      36.281  33.264  32.579  1.00  0.00     0.058 A 
ATOM     65  C   UNL A   1      34.998  33.042  32.050  1.00  0.00     0.135 A 
ATOM     66  C   UNL A   1      36.593  34.575  32.974  1.00  0.00     0.135 A 
ATOM     67  F   UNL A   1      34.583  31.806  31.740  1.00  0.00    -0.206 F 
ATOM     68  C   UNL A   1      34.078  34.081  31.894  1.00  0.00     0.059 A 
ATOM     69  C   UNL A   1      35.680  35.619  32.858  1.00  0.00     0.059 A 
ATOM     70  F   UNL A   1      37.783  34.841  33.541  1.00  0.00    -0.206 F 
ATOM     71  C   UNL A   1      34.425  35.366  32.310  1.00  0.00     0.060 A 
BRANCH  71  72
ATOM     72  S   UNL A   1      33.191  36.682  32.219  1.00  0.00     0.124 S 
ATOM     73  O   UNL A   1      33.778  37.715  33.067  1.00  0.00    -0.237 OA
ATOM     74  O   UNL A   1      33.152  36.986  30.791  1.00  0.00    -0.237 OA
ATOM     75  O   UNL A   1      31.982  36.054  32.745  1.00  0.00    -0.744 OA
ENDBRANCH  71  72
ENDBRANCH  39  64
ENDBRANCH  13  14
ENDBRANCH   6   8
ENDBRANCH   3   4
ENDBRANCH   2   3
ENDBRANCH   1   2
BRANCH   1  76
ATOM     76  N   UNL A   1      43.350  39.436  29.936  1.00  0.00    -0.352 N 
ATOM     77  C   UNL A   1      43.136  38.908  28.679  1.00  0.00     0.251 C 
ATOM     78  H   UNL A   1      43.479  38.769  30.649  1.00  0.00     0.163 HD
ATOM     79  O   UNL A   1      43.073  37.708  28.509  1.00  0.00    -0.269 OA
BRANCH  77  80
ATOM     80  C   UNL A   1      42.946  39.823  27.532  1.00  0.00     0.039 A 
ATOM     81  C   UNL A   1      44.075  40.421  26.960  1.00  0.00     0.016 A 
ATOM     82  C   UNL A   1      41.670  40.094  27.036  1.00  0.00     0.016 A 
ATOM     83  C   UNL A   1      43.942  41.217  25.819  1.00  0.00     0.029 A 
ATOM     84  C   UNL A   1      41.530  40.913  25.916  1.00  0.00     0.029 A 
ATOM     85  C   UNL A   1      42.669  41.464  25.299  1.00  0.00     0.066 A 
BRANCH  85  86
ATOM     86  N   UNL A   1      42.513  42.301  24.171  1.00  0.00    -0.220 N 
ATOM     87  C   UNL A   1      41.713  42.052  23.090  1.00  0.00     0.141 A 
ATOM     88  N   UNL A   1      43.149  43.479  23.994  1.00  0.00    -0.062 NA
ATOM     89  C   UNL A   1      41.930  43.084  22.210  1.00  0.00     0.093 A 
ATOM     90  N   UNL A   1      42.852  43.930  22.773  1.00  0.00    -0.134 NA
BRANCH  89  91
ATOM     91  C   UNL A   1      41.494  43.192  20.799  1.00  0.00     0.138 C 
BRANCH  91  92
ATOM     92  S   UNL A   1      42.629  43.048  19.411  1.00  0.00    -0.081 SA
BRANCH  92  93
ATOM     93  C   UNL A   1      43.264  44.598  18.932  1.00  0.00     0.176 A 
ATOM     94  N   UNL A   1      42.393  45.286  18.253  1.00  0.00    -0.223 NA
ATOM     95  N   UNL A   1      44.518  45.108  19.261  1.00  0.00    -0.255 N 
ATOM     96  C   UNL A   1      42.766  46.532  17.744  1.00  0.00     0.079 A 
ATOM     97  C   UNL A   1      45.057  45.966  18.286  1.00  0.00     0.266 A 
ATOM     98  C   UNL A   1      41.807  47.434  17.281  1.00  0.00     0.029 A 
ATOM     99  C   UNL A   1      44.105  46.853  17.605  1.00  0.00     0.066 A 
ATOM    100  O   UNL A   1      46.237  46.035  17.946  1.00  0.00    -0.268 OA
ATOM    101  C   UNL A   1      42.199  48.612  16.633  1.00  0.00     0.002 A 
ATOM    102  C   UNL A   1      44.515  48.000  16.916  1.00  0.00     0.016 A 
ATOM    103  C   UNL A   1      43.553  48.878  16.420  1.00  0.00     0.001 A 
BRANCH  95 104
ATOM    104  C   UNL A   1      45.328  44.803  20.433  1.00  0.00     0.051 A 
ATOM    105  C   UNL A   1      45.896  43.520  20.588  1.00  0.00     0.028 A 
ATOM    106  C   UNL A   1      45.614  45.707  21.467  1.00  0.00     0.028 A 
ATOM    107  C   UNL A   1      46.478  43.090  21.788  1.00  0.00     0.022 A 
ATOM    108  C   UNL A   1      46.154  45.279  22.693  1.00  0.00     0.022 A 
ATOM    109  C   UNL A   1      46.542  43.958  22.862  1.00  0.00     0.041 A 
ATOM    110  Cl  UNL A   1      47.083  43.398  24.391  1.00  0.00    -0.084 Cl
ENDBRANCH  95 104
ENDBRANCH  92  93
ENDBRANCH  91  92
ENDBRANCH  89  91
ENDBRANCH  85  86
ENDBRANCH  77  80
ENDBRANCH   1  76
TORSDOF 18
ENDMDL
