MODEL 1
REMARK VINA RESULT:     -11.0      0.000      0.000
REMARK SMILES CC(C)(O)CCOc1ccc(C(=O)NCCCNC(=O)c2ccc(-c3c4nc(c(-c5c(F)cc(S(=O)(=O)[O-])cc5F)c5ccc([nH]5)c(-c5c(F)cc(S(=O)(=O)[O-])cc5F)c5nc(c(-c6c(F)cc(S(=O)(=O)[O-])cc6F)c6ccc3[nH]6)C=C5)C=C4)cc2)cc1
REMARK SMILES IDX 15 1 14 2 12 3 13 4 11 6 8 7 9 8 88 9 10 10 87 11 7 12 6 13
REMARK SMILES IDX 5 14 2 15 1 16 3 17 4 18 16 20 17 21 18 22 19 23 20 25 21 26
REMARK SMILES IDX 22 27 86 28 23 29 85 30 24 31 25 32 26 33 79 34 27 35 84 36
REMARK SMILES IDX 78 37 80 38 28 39 83 40 77 41 76 42 29 44 63 45 42 46 62 47
REMARK SMILES IDX 43 48 46 49 61 50 81 51 44 52 45 53 60 55 82 56 47 57 30 58
REMARK SMILES IDX 31 59 40 60 32 61 33 62 39 63 41 64 34 65 35 66 36 67 37 68
REMARK SMILES IDX 38 69 64 70 65 71 74 72 66 73 67 74 73 75 75 76 68 77 69 78
REMARK SMILES IDX 70 79 71 80 72 81 48 82 49 83 58 84 50 85 51 86 57 87 59 88
REMARK SMILES IDX 52 89 53 90 54 91 55 92 56 93
REMARK H PARENT 14 5 4 19 18 24 80 43 46 54
REMARK Flexibility Score: inf
ROOT
ATOM      1  C   UNL A   1      32.788  29.056  27.008  1.00  0.00     0.118 C 
ENDROOT
BRANCH   1   2
ATOM      2  N   UNL A   1      33.399  27.750  26.794  1.00  0.00    -0.352 N 
ATOM      3  C   UNL A   1      33.211  26.813  25.802  1.00  0.00     0.251 C 
ATOM      4  O   UNL A   1      33.787  25.729  25.880  1.00  0.00    -0.269 OA
ATOM      5  H   UNL A   1      34.061  27.493  27.477  1.00  0.00     0.163 HD
BRANCH   3   6
ATOM      6  C   UNL A   1      32.285  27.060  24.672  1.00  0.00     0.040 A 
ATOM      7  C   UNL A   1      30.402  27.901  22.787  1.00  0.00     0.119 A 
ATOM      8  C   UNL A   1      30.003  27.118  23.873  1.00  0.00     0.047 A 
ATOM      9  C   UNL A   1      31.763  28.047  22.530  1.00  0.00     0.047 A 
ATOM     10  C   UNL A   1      30.943  26.693  24.816  1.00  0.00     0.017 A 
ATOM     11  C   UNL A   1      32.707  27.647  23.480  1.00  0.00     0.017 A 
BRANCH   7  12
ATOM     12  O   UNL A   1      29.389  28.539  22.130  1.00  0.00    -0.493 OA
BRANCH  12  13
ATOM     13  C   UNL A   1      28.161  28.797  22.822  1.00  0.00     0.232 C 
BRANCH  13  14
ATOM     14  C   UNL A   1      27.819  30.281  23.097  1.00  0.00     0.076 C 
BRANCH  14  15
ATOM     15  C   UNL A   1      28.962  31.323  23.081  1.00  0.00     0.062 C 
ATOM     16  C   UNL A   1      29.856  31.221  24.322  1.00  0.00     0.042 C 
ATOM     17  C   UNL A   1      28.408  32.754  23.027  1.00  0.00     0.042 C 
BRANCH  15  18
ATOM     18  O   UNL A   1      29.729  31.168  21.886  1.00  0.00    -0.390 OA
ATOM     19  H   UNL A   1      30.661  31.026  22.116  1.00  0.00     0.211 HD
ENDBRANCH  15  18
ENDBRANCH  14  15
ENDBRANCH  13  14
ENDBRANCH  12  13
ENDBRANCH   7  12
ENDBRANCH   3   6
ENDBRANCH   1   2
BRANCH   1  20
ATOM     20  C   UNL A   1      33.798  30.196  27.118  1.00  0.00     0.042 C 
BRANCH  20  21
ATOM     21  C   UNL A   1      35.095  29.853  27.844  1.00  0.00     0.118 C 
BRANCH  21  22
ATOM     22  N   UNL A   1      35.204  30.486  29.153  1.00  0.00    -0.352 N 
ATOM     23  C   UNL A   1      36.251  30.527  30.042  1.00  0.00     0.251 C 
ATOM     24  H   UNL A   1      34.394  30.961  29.448  1.00  0.00     0.163 HD
ATOM     25  O   UNL A   1      36.057  30.992  31.166  1.00  0.00    -0.269 OA
BRANCH  23  26
ATOM     26  C   UNL A   1      37.592  30.005  29.686  1.00  0.00     0.039 A 
ATOM     27  C   UNL A   1      37.987  30.021  28.343  1.00  0.00     0.014 A 
ATOM     28  C   UNL A   1      38.448  29.468  30.649  1.00  0.00     0.014 A 
ATOM     29  C   UNL A   1      39.261  29.570  27.982  1.00  0.00     0.010 A 
ATOM     30  C   UNL A   1      39.746  29.095  30.301  1.00  0.00     0.010 A 
ATOM     31  C   UNL A   1      40.169  29.141  28.964  1.00  0.00    -0.014 A 
BRANCH  31  32
ATOM     32  C   UNL A   1      41.562  28.752  28.615  1.00  0.00     0.031 A 
ATOM     33  C   UNL A   1      42.655  29.786  28.567  1.00  0.00     0.074 A 
ATOM     34  C   UNL A   1      41.829  27.476  28.269  1.00  0.00     0.049 A 
ATOM     35  N   UNL A   1      43.910  29.647  28.219  1.00  0.00    -0.248 NA
ATOM     36  C   UNL A   1      42.284  31.161  28.932  1.00  0.00     0.031 C 
ATOM     37  C   UNL A   1      40.847  26.390  28.224  1.00  0.00     0.029 A 
ATOM     38  N   UNL A   1      43.001  26.878  27.874  1.00  0.00    -0.354 N 
ATOM     39  C   UNL A   1      44.472  30.917  28.306  1.00  0.00     0.074 A 
ATOM     40  C   UNL A   1      43.406  31.820  28.685  1.00  0.00     0.031 C 
ATOM     41  C   UNL A   1      41.460  25.258  27.845  1.00  0.00     0.029 A 
ATOM     42  C   UNL A   1      42.867  25.542  27.577  1.00  0.00     0.049 A 
ATOM     43  H   UNL A   1      43.856  27.360  27.810  1.00  0.00     0.167 HD
ATOM     44  C   UNL A   1      45.759  31.293  28.111  1.00  0.00     0.037 A 
ATOM     45  C   UNL A   1      43.768  24.646  27.128  1.00  0.00     0.037 A 
ATOM     46  C   UNL A   1      46.816  30.384  27.743  1.00  0.00     0.049 A 
ATOM     47  C   UNL A   1      45.190  25.083  26.909  1.00  0.00     0.074 A 
ATOM     48  C   UNL A   1      48.163  30.651  27.580  1.00  0.00     0.029 A 
ATOM     49  N   UNL A   1      46.642  29.034  27.469  1.00  0.00    -0.354 N 
ATOM     50  N   UNL A   1      45.719  26.272  27.069  1.00  0.00    -0.248 NA
ATOM     51  C   UNL A   1      46.139  24.056  26.459  1.00  0.00     0.031 C 
ATOM     52  C   UNL A   1      48.794  29.479  27.152  1.00  0.00     0.029 A 
ATOM     53  C   UNL A   1      47.852  28.462  27.109  1.00  0.00     0.049 A 
ATOM     54  H   UNL A   1      45.785  28.552  27.523  1.00  0.00     0.167 HD
ATOM     55  C   UNL A   1      47.069  26.133  26.761  1.00  0.00     0.074 A 
ATOM     56  C   UNL A   1      47.275  24.740  26.420  1.00  0.00     0.031 C 
ATOM     57  C   UNL A   1      48.047  27.073  26.766  1.00  0.00     0.037 A 
BRANCH  44  58
ATOM     58  C   UNL A   1      46.090  32.753  28.279  1.00  0.00     0.058 A 
ATOM     59  C   UNL A   1      45.994  33.663  27.212  1.00  0.00     0.135 A 
ATOM     60  C   UNL A   1      46.501  33.254  29.525  1.00  0.00     0.135 A 
ATOM     61  F   UNL A   1      45.616  33.241  25.994  1.00  0.00    -0.206 F 
ATOM     62  C   UNL A   1      46.342  35.003  27.361  1.00  0.00     0.059 A 
ATOM     63  C   UNL A   1      46.820  34.597  29.706  1.00  0.00     0.059 A 
ATOM     64  F   UNL A   1      46.605  32.434  30.582  1.00  0.00    -0.206 F 
ATOM     65  C   UNL A   1      46.759  35.458  28.613  1.00  0.00     0.060 A 
BRANCH  65  66
ATOM     66  S   UNL A   1      47.232  37.192  28.782  1.00  0.00     0.124 S 
ATOM     67  O   UNL A   1      46.618  37.779  27.596  1.00  0.00    -0.237 OA
ATOM     68  O   UNL A   1      46.623  37.559  30.057  1.00  0.00    -0.237 OA
ATOM     69  O   UNL A   1      48.691  37.149  28.777  1.00  0.00    -0.744 OA
ENDBRANCH  65  66
ENDBRANCH  44  58
BRANCH  45  70
ATOM     70  C   UNL A   1      43.344  23.241  26.880  1.00  0.00     0.058 A 
ATOM     71  C   UNL A   1      43.249  22.734  25.577  1.00  0.00     0.135 A 
ATOM     72  C   UNL A   1      43.077  22.364  27.944  1.00  0.00     0.135 A 
ATOM     73  F   UNL A   1      43.487  23.534  24.526  1.00  0.00    -0.206 F 
ATOM     74  C   UNL A   1      42.903  21.408  25.333  1.00  0.00     0.059 A 
ATOM     75  C   UNL A   1      42.755  21.027  27.727  1.00  0.00     0.059 A 
ATOM     76  F   UNL A   1      43.169  22.795  29.212  1.00  0.00    -0.206 F 
ATOM     77  C   UNL A   1      42.670  20.559  26.417  1.00  0.00     0.060 A 
BRANCH  77  78
ATOM     78  S   UNL A   1      42.308  18.820  26.091  1.00  0.00     0.124 S 
ATOM     79  O   UNL A   1      40.895  18.873  25.735  1.00  0.00    -0.237 OA
ATOM     80  O   UNL A   1      43.230  18.517  25.001  1.00  0.00    -0.237 OA
ATOM     81  O   UNL A   1      42.616  18.169  27.361  1.00  0.00    -0.744 OA
ENDBRANCH  77  78
ENDBRANCH  45  70
BRANCH  57  82
ATOM     82  C   UNL A   1      49.442  26.626  26.418  1.00  0.00     0.058 A 
ATOM     83  C   UNL A   1      50.278  26.005  27.358  1.00  0.00     0.135 A 
ATOM     84  C   UNL A   1      49.927  26.776  25.109  1.00  0.00     0.135 A 
ATOM     85  F   UNL A   1      49.867  25.844  28.626  1.00  0.00    -0.206 F 
ATOM     86  C   UNL A   1      51.556  25.570  27.019  1.00  0.00     0.059 A 
ATOM     87  C   UNL A   1      51.189  26.320  24.739  1.00  0.00     0.059 A 
ATOM     88  F   UNL A   1      49.166  27.355  24.166  1.00  0.00    -0.206 F 
ATOM     89  C   UNL A   1      52.001  25.728  25.706  1.00  0.00     0.060 A 
BRANCH  89  90
ATOM     90  S   UNL A   1      53.647  25.127  25.271  1.00  0.00     0.124 S 
ATOM     91  O   UNL A   1      53.797  25.637  23.912  1.00  0.00    -0.237 OA
ATOM     92  O   UNL A   1      54.486  25.761  26.283  1.00  0.00    -0.237 OA
ATOM     93  O   UNL A   1      53.523  23.677  25.387  1.00  0.00    -0.744 OA
ENDBRANCH  89  90
ENDBRANCH  57  82
ENDBRANCH  31  32
ENDBRANCH  23  26
ENDBRANCH  21  22
ENDBRANCH  20  21
ENDBRANCH   1  20
TORSDOF 18
ENDMDL
MODEL 2
REMARK VINA RESULT:     -10.9      3.808      5.357
REMARK SMILES CC(C)(O)CCOc1ccc(C(=O)NCCCNC(=O)c2ccc(-c3c4nc(c(-c5c(F)cc(S(=O)(=O)[O-])cc5F)c5ccc([nH]5)c(-c5c(F)cc(S(=O)(=O)[O-])cc5F)c5nc(c(-c6c(F)cc(S(=O)(=O)[O-])cc6F)c6ccc3[nH]6)C=C5)C=C4)cc2)cc1
REMARK SMILES IDX 15 1 14 2 12 3 13 4 11 6 8 7 9 8 88 9 10 10 87 11 7 12 6 13
REMARK SMILES IDX 5 14 2 15 1 16 3 17 4 18 16 20 17 21 18 22 19 23 20 25 21 26
REMARK SMILES IDX 22 27 86 28 23 29 85 30 24 31 25 32 26 33 79 34 27 35 84 36
REMARK SMILES IDX 78 37 80 38 28 39 83 40 77 41 76 42 29 44 63 45 42 46 62 47
REMARK SMILES IDX 43 48 46 49 61 50 81 51 44 52 45 53 60 55 82 56 47 57 30 58
REMARK SMILES IDX 31 59 40 60 32 61 33 62 39 63 41 64 34 65 35 66 36 67 37 68
REMARK SMILES IDX 38 69 64 70 65 71 74 72 66 73 67 74 73 75 75 76 68 77 69 78
REMARK SMILES IDX 70 79 71 80 72 81 48 82 49 83 58 84 50 85 51 86 57 87 59 88
REMARK SMILES IDX 52 89 53 90 54 91 55 92 56 93
REMARK H PARENT 14 5 4 19 18 24 80 43 46 54
REMARK Flexibility Score: inf
ROOT
ATOM      1  C   UNL A   1      32.970  27.050  24.966  1.00  0.00     0.118 C 
ENDROOT
BRANCH   1   2
ATOM      2  N   UNL A   1      33.257  27.066  23.537  1.00  0.00    -0.352 N 
ATOM      3  C   UNL A   1      33.421  26.040  22.633  1.00  0.00     0.251 C 
ATOM      4  O   UNL A   1      33.749  26.301  21.478  1.00  0.00    -0.269 OA
ATOM      5  H   UNL A   1      33.351  27.968  23.150  1.00  0.00     0.163 HD
BRANCH   3   6
ATOM      6  C   UNL A   1      33.268  24.623  23.038  1.00  0.00     0.040 A 
ATOM      7  C   UNL A   1      32.971  22.118  24.240  1.00  0.00     0.119 A 
ATOM      8  C   UNL A   1      34.242  22.683  24.104  1.00  0.00     0.047 A 
ATOM      9  C   UNL A   1      31.903  22.699  23.563  1.00  0.00     0.047 A 
ATOM     10  C   UNL A   1      34.393  23.934  23.500  1.00  0.00     0.017 A 
ATOM     11  C   UNL A   1      32.042  23.962  22.978  1.00  0.00     0.017 A 
BRANCH   7  12
ATOM     12  O   UNL A   1      32.890  21.084  25.129  1.00  0.00    -0.493 OA
BRANCH  12  13
ATOM     13  C   UNL A   1      33.608  19.874  24.861  1.00  0.00     0.232 C 
BRANCH  13  14
ATOM     14  C   UNL A   1      32.839  18.766  24.100  1.00  0.00     0.076 C 
BRANCH  14  15
ATOM     15  C   UNL A   1      33.488  17.368  23.966  1.00  0.00     0.062 C 
ATOM     16  C   UNL A   1      32.781  16.317  24.828  1.00  0.00     0.042 C 
ATOM     17  C   UNL A   1      34.964  17.398  24.392  1.00  0.00     0.042 C 
BRANCH  15  18
ATOM     18  O   UNL A   1      33.498  16.978  22.593  1.00  0.00    -0.390 OA
ATOM     19  H   UNL A   1      33.621  16.018  22.530  1.00  0.00     0.211 HD
ENDBRANCH  15  18
ENDBRANCH  14  15
ENDBRANCH  13  14
ENDBRANCH  12  13
ENDBRANCH   7  12
ENDBRANCH   3   6
ENDBRANCH   1   2
BRANCH   1  20
ATOM     20  C   UNL A   1      33.877  27.966  25.785  1.00  0.00     0.042 C 
BRANCH  20  21
ATOM     21  C   UNL A   1      33.371  28.305  27.184  1.00  0.00     0.118 C 
BRANCH  21  22
ATOM     22  N   UNL A   1      33.328  29.739  27.445  1.00  0.00    -0.352 N 
ATOM     23  C   UNL A   1      34.270  30.577  27.992  1.00  0.00     0.251 C 
ATOM     24  H   UNL A   1      32.486  30.179  27.187  1.00  0.00     0.163 HD
ATOM     25  O   UNL A   1      33.948  31.735  28.263  1.00  0.00    -0.269 OA
BRANCH  23  26
ATOM     26  C   UNL A   1      35.647  30.112  28.282  1.00  0.00     0.039 A 
ATOM     27  C   UNL A   1      36.599  30.138  27.256  1.00  0.00     0.014 A 
ATOM     28  C   UNL A   1      36.002  29.616  29.538  1.00  0.00     0.014 A 
ATOM     29  C   UNL A   1      37.915  29.741  27.511  1.00  0.00     0.010 A 
ATOM     30  C   UNL A   1      37.332  29.297  29.813  1.00  0.00     0.010 A 
ATOM     31  C   UNL A   1      38.305  29.355  28.803  1.00  0.00    -0.014 A 
BRANCH  31  32
ATOM     32  C   UNL A   1      39.721  29.024  29.120  1.00  0.00     0.031 A 
ATOM     33  C   UNL A   1      40.628  30.057  29.735  1.00  0.00     0.074 A 
ATOM     34  C   UNL A   1      40.212  27.813  28.786  1.00  0.00     0.049 A 
ATOM     35  N   UNL A   1      41.903  29.974  30.018  1.00  0.00    -0.248 NA
ATOM     36  C   UNL A   1      40.029  31.363  30.048  1.00  0.00     0.031 C 
ATOM     37  C   UNL A   1      39.451  26.744  28.138  1.00  0.00     0.029 A 
ATOM     38  N   UNL A   1      41.470  27.283  28.931  1.00  0.00    -0.354 N 
ATOM     39  C   UNL A   1      42.263  31.219  30.525  1.00  0.00     0.074 A 
ATOM     40  C   UNL A   1      41.083  32.054  30.457  1.00  0.00     0.031 C 
ATOM     41  C   UNL A   1      40.249  25.680  27.960  1.00  0.00     0.029 A 
ATOM     42  C   UNL A   1      41.590  26.004  28.439  1.00  0.00     0.049 A 
ATOM     43  H   UNL A   1      42.216  27.771  29.347  1.00  0.00     0.167 HD
ATOM     44  C   UNL A   1      43.458  31.622  31.021  1.00  0.00     0.037 A 
ATOM     45  C   UNL A   1      42.658  25.185  28.368  1.00  0.00     0.037 A 
ATOM     46  C   UNL A   1      44.625  30.779  31.095  1.00  0.00     0.049 A 
ATOM     47  C   UNL A   1      43.978  25.653  28.917  1.00  0.00     0.074 A 
ATOM     48  C   UNL A   1      45.865  31.071  31.634  1.00  0.00     0.029 A 
ATOM     49  N   UNL A   1      44.700  29.483  30.601  1.00  0.00    -0.354 N 
ATOM     50  N   UNL A   1      44.280  26.807  29.460  1.00  0.00    -0.248 NA
ATOM     51  C   UNL A   1      45.098  24.705  28.851  1.00  0.00     0.031 C 
ATOM     52  C   UNL A   1      46.706  29.975  31.417  1.00  0.00     0.029 A 
ATOM     53  C   UNL A   1      45.974  28.973  30.798  1.00  0.00     0.049 A 
ATOM     54  H   UNL A   1      43.958  28.997  30.176  1.00  0.00     0.167 HD
ATOM     55  C   UNL A   1      45.620  26.718  29.824  1.00  0.00     0.074 A 
ATOM     56  C   UNL A   1      46.064  25.390  29.449  1.00  0.00     0.031 C 
ATOM     57  C   UNL A   1      46.407  27.649  30.418  1.00  0.00     0.037 A 
BRANCH  44  58
ATOM     58  C   UNL A   1      43.563  33.043  31.511  1.00  0.00     0.058 A 
ATOM     59  C   UNL A   1      43.880  34.104  30.647  1.00  0.00     0.135 A 
ATOM     60  C   UNL A   1      43.336  33.351  32.863  1.00  0.00     0.135 A 
ATOM     61  F   UNL A   1      44.117  33.870  29.346  1.00  0.00    -0.206 F 
ATOM     62  C   UNL A   1      44.017  35.409  31.112  1.00  0.00     0.059 A 
ATOM     63  C   UNL A   1      43.434  34.655  33.344  1.00  0.00     0.059 A 
ATOM     64  F   UNL A   1      43.023  32.380  33.735  1.00  0.00    -0.206 F 
ATOM     65  C   UNL A   1      43.797  35.672  32.465  1.00  0.00     0.060 A 
BRANCH  65  66
ATOM     66  S   UNL A   1      44.007  37.365  33.057  1.00  0.00     0.124 S 
ATOM     67  O   UNL A   1      45.288  37.274  33.750  1.00  0.00    -0.237 OA
ATOM     68  O   UNL A   1      44.012  38.132  31.814  1.00  0.00    -0.237 OA
ATOM     69  O   UNL A   1      42.843  37.572  33.913  1.00  0.00    -0.744 OA
ENDBRANCH  65  66
ENDBRANCH  44  58
BRANCH  45  70
ATOM     70  C   UNL A   1      42.506  23.830  27.771  1.00  0.00     0.058 A 
ATOM     71  C   UNL A   1      42.515  23.647  26.382  1.00  0.00     0.135 A 
ATOM     72  C   UNL A   1      42.400  22.687  28.580  1.00  0.00     0.135 A 
ATOM     73  F   UNL A   1      42.606  24.709  25.565  1.00  0.00    -0.206 F 
ATOM     74  C   UNL A   1      42.425  22.381  25.812  1.00  0.00     0.059 A 
ATOM     75  C   UNL A   1      42.335  21.408  28.034  1.00  0.00     0.059 A 
ATOM     76  F   UNL A   1      42.401  22.806  29.917  1.00  0.00    -0.206 F 
ATOM     77  C   UNL A   1      42.346  21.267  26.648  1.00  0.00     0.060 A 
BRANCH  77  78
ATOM     78  S   UNL A   1      42.317  19.623  25.899  1.00  0.00     0.124 S 
ATOM     79  O   UNL A   1      43.352  19.744  24.879  1.00  0.00    -0.237 OA
ATOM     80  O   UNL A   1      42.638  18.766  27.037  1.00  0.00    -0.237 OA
ATOM     81  O   UNL A   1      40.950  19.504  25.403  1.00  0.00    -0.744 OA
ENDBRANCH  77  78
ENDBRANCH  45  70
BRANCH  57  82
ATOM     82  C   UNL A   1      47.829  27.262  30.729  1.00  0.00     0.058 A 
ATOM     83  C   UNL A   1      48.191  26.698  31.962  1.00  0.00     0.135 A 
ATOM     84  C   UNL A   1      48.832  27.409  29.757  1.00  0.00     0.135 A 
ATOM     85  F   UNL A   1      47.273  26.541  32.929  1.00  0.00    -0.206 F 
ATOM     86  C   UNL A   1      49.502  26.317  32.229  1.00  0.00     0.059 A 
ATOM     87  C   UNL A   1      50.143  27.005  29.992  1.00  0.00     0.059 A 
ATOM     88  F   UNL A   1      48.540  27.934  28.556  1.00  0.00    -0.206 F 
ATOM     89  C   UNL A   1      50.470  26.470  31.236  1.00  0.00     0.060 A 
BRANCH  89  90
ATOM     90  S   UNL A   1      52.160  25.938  31.585  1.00  0.00     0.124 S 
ATOM     91  O   UNL A   1      52.546  26.861  32.648  1.00  0.00    -0.237 OA
ATOM     92  O   UNL A   1      51.972  24.549  31.989  1.00  0.00    -0.237 OA
ATOM     93  O   UNL A   1      52.847  26.127  30.311  1.00  0.00    -0.744 OA
ENDBRANCH  89  90
ENDBRANCH  57  82
ENDBRANCH  31  32
ENDBRANCH  23  26
ENDBRANCH  21  22
ENDBRANCH  20  21
ENDBRANCH   1  20
TORSDOF 18
ENDMDL
MODEL 3
REMARK VINA RESULT:     -10.9      1.573      2.843
REMARK SMILES CC(C)(O)CCOc1ccc(C(=O)NCCCNC(=O)c2ccc(-c3c4nc(c(-c5c(F)cc(S(=O)(=O)[O-])cc5F)c5ccc([nH]5)c(-c5c(F)cc(S(=O)(=O)[O-])cc5F)c5nc(c(-c6c(F)cc(S(=O)(=O)[O-])cc6F)c6ccc3[nH]6)C=C5)C=C4)cc2)cc1
REMARK SMILES IDX 15 1 14 2 12 3 13 4 11 6 8 7 9 8 88 9 10 10 87 11 7 12 6 13
REMARK SMILES IDX 5 14 2 15 1 16 3 17 4 18 16 20 17 21 18 22 19 23 20 25 21 26
REMARK SMILES IDX 22 27 86 28 23 29 85 30 24 31 25 32 26 33 79 34 27 35 84 36
REMARK SMILES IDX 78 37 80 38 28 39 83 40 77 41 76 42 29 44 63 45 42 46 62 47
REMARK SMILES IDX 43 48 46 49 61 50 81 51 44 52 45 53 60 55 82 56 47 57 30 58
REMARK SMILES IDX 31 59 40 60 32 61 33 62 39 63 41 64 34 65 35 66 36 67 37 68
REMARK SMILES IDX 38 69 64 70 65 71 74 72 66 73 67 74 73 75 75 76 68 77 69 78
REMARK SMILES IDX 70 79 71 80 72 81 48 82 49 83 58 84 50 85 51 86 57 87 59 88
REMARK SMILES IDX 52 89 53 90 54 91 55 92 56 93
REMARK H PARENT 14 5 4 19 18 24 80 43 46 54
REMARK Flexibility Score: inf
ROOT
ATOM      1  C   UNL A   1      33.305  30.039  27.000  1.00  0.00     0.118 C 
ENDROOT
BRANCH   1   2
ATOM      2  N   UNL A   1      33.287  29.946  25.545  1.00  0.00    -0.352 N 
ATOM      3  C   UNL A   1      33.039  28.881  24.708  1.00  0.00     0.251 C 
ATOM      4  O   UNL A   1      33.168  29.026  23.494  1.00  0.00    -0.269 OA
ATOM      5  H   UNL A   1      33.488  30.792  25.080  1.00  0.00     0.163 HD
BRANCH   3   6
ATOM      6  C   UNL A   1      32.677  27.547  25.242  1.00  0.00     0.040 A 
ATOM      7  C   UNL A   1      31.853  24.939  25.811  1.00  0.00     0.119 A 
ATOM      8  C   UNL A   1      30.926  25.985  25.827  1.00  0.00     0.047 A 
ATOM      9  C   UNL A   1      33.210  25.246  25.749  1.00  0.00     0.047 A 
ATOM     10  C   UNL A   1      31.336  27.291  25.546  1.00  0.00     0.017 A 
ATOM     11  C   UNL A   1      33.625  26.546  25.444  1.00  0.00     0.017 A 
BRANCH   7  12
ATOM     12  O   UNL A   1      31.311  23.687  25.756  1.00  0.00    -0.493 OA
BRANCH  12  13
ATOM     13  C   UNL A   1      32.180  22.548  25.774  1.00  0.00     0.232 C 
BRANCH  13  14
ATOM     14  C   UNL A   1      32.078  21.579  24.572  1.00  0.00     0.076 C 
BRANCH  14  15
ATOM     15  C   UNL A   1      32.087  22.167  23.141  1.00  0.00     0.062 C 
ATOM     16  C   UNL A   1      31.966  21.079  22.068  1.00  0.00     0.042 C 
ATOM     17  C   UNL A   1      33.384  22.943  22.868  1.00  0.00     0.042 C 
BRANCH  15  18
ATOM     18  O   UNL A   1      31.037  23.126  23.014  1.00  0.00    -0.390 OA
ATOM     19  H   UNL A   1      30.530  23.161  23.841  1.00  0.00     0.211 HD
ENDBRANCH  15  18
ENDBRANCH  14  15
ENDBRANCH  13  14
ENDBRANCH  12  13
ENDBRANCH   7  12
ENDBRANCH   3   6
ENDBRANCH   1   2
BRANCH   1  20
ATOM     20  C   UNL A   1      34.683  29.797  27.613  1.00  0.00     0.042 C 
BRANCH  20  21
ATOM     21  C   UNL A   1      35.415  31.049  28.089  1.00  0.00     0.118 C 
BRANCH  21  22
ATOM     22  N   UNL A   1      35.417  31.194  29.540  1.00  0.00    -0.352 N 
ATOM     23  C   UNL A   1      36.347  30.808  30.476  1.00  0.00     0.251 C 
ATOM     24  H   UNL A   1      34.622  31.641  29.910  1.00  0.00     0.163 HD
ATOM     25  O   UNL A   1      36.057  30.895  31.670  1.00  0.00    -0.269 OA
BRANCH  23  26
ATOM     26  C   UNL A   1      37.670  30.271  30.079  1.00  0.00     0.039 A 
ATOM     27  C   UNL A   1      38.039  30.314  28.730  1.00  0.00     0.014 A 
ATOM     28  C   UNL A   1      38.535  29.694  31.011  1.00  0.00     0.014 A 
ATOM     29  C   UNL A   1      39.296  29.850  28.332  1.00  0.00     0.010 A 
ATOM     30  C   UNL A   1      39.819  29.307  30.627  1.00  0.00     0.010 A 
ATOM     31  C   UNL A   1      40.215  29.379  29.283  1.00  0.00    -0.014 A 
BRANCH  31  32
ATOM     32  C   UNL A   1      41.594  28.974  28.896  1.00  0.00     0.031 A 
ATOM     33  C   UNL A   1      42.705  29.990  28.852  1.00  0.00     0.074 A 
ATOM     34  C   UNL A   1      41.831  27.703  28.512  1.00  0.00     0.049 A 
ATOM     35  N   UNL A   1      43.949  29.838  28.474  1.00  0.00    -0.248 NA
ATOM     36  C   UNL A   1      42.366  31.362  29.259  1.00  0.00     0.031 C 
ATOM     37  C   UNL A   1      40.829  26.637  28.460  1.00  0.00     0.029 A 
ATOM     38  N   UNL A   1      42.984  27.095  28.078  1.00  0.00    -0.354 N 
ATOM     39  C   UNL A   1      44.536  31.095  28.582  1.00  0.00     0.074 A 
ATOM     40  C   UNL A   1      43.495  32.006  29.006  1.00  0.00     0.031 C 
ATOM     41  C   UNL A   1      41.413  25.504  28.041  1.00  0.00     0.029 A 
ATOM     42  C   UNL A   1      42.818  25.769  27.751  1.00  0.00     0.049 A 
ATOM     43  H   UNL A   1      43.846  27.563  28.008  1.00  0.00     0.167 HD
ATOM     44  C   UNL A   1      45.826  31.452  28.370  1.00  0.00     0.037 A 
ATOM     45  C   UNL A   1      43.693  24.869  27.261  1.00  0.00     0.037 A 
ATOM     46  C   UNL A   1      46.858  30.534  27.958  1.00  0.00     0.049 A 
ATOM     47  C   UNL A   1      45.119  25.286  27.024  1.00  0.00     0.074 A 
ATOM     48  C   UNL A   1      48.207  30.782  27.774  1.00  0.00     0.029 A 
ATOM     49  N   UNL A   1      46.654  29.195  27.653  1.00  0.00    -0.354 N 
ATOM     50  N   UNL A   1      45.673  26.461  27.203  1.00  0.00    -0.248 NA
ATOM     51  C   UNL A   1      46.039  24.254  26.528  1.00  0.00     0.031 C 
ATOM     52  C   UNL A   1      48.808  29.609  27.303  1.00  0.00     0.029 A 
ATOM     53  C   UNL A   1      47.846  28.611  27.254  1.00  0.00     0.049 A 
ATOM     54  H   UNL A   1      45.790  28.727  27.712  1.00  0.00     0.167 HD
ATOM     55  C   UNL A   1      47.014  26.306  26.864  1.00  0.00     0.074 A 
ATOM     56  C   UNL A   1      47.187  24.918  26.483  1.00  0.00     0.031 C 
ATOM     57  C   UNL A   1      48.008  27.228  26.873  1.00  0.00     0.037 A 
BRANCH  44  58
ATOM     58  C   UNL A   1      46.188  32.902  28.568  1.00  0.00     0.058 A 
ATOM     59  C   UNL A   1      46.134  33.830  27.514  1.00  0.00     0.135 A 
ATOM     60  C   UNL A   1      46.585  33.373  29.830  1.00  0.00     0.135 A 
ATOM     61  F   UNL A   1      45.771  33.436  26.283  1.00  0.00    -0.206 F 
ATOM     62  C   UNL A   1      46.509  35.159  27.692  1.00  0.00     0.059 A 
ATOM     63  C   UNL A   1      46.932  34.706  30.038  1.00  0.00     0.059 A 
ATOM     64  F   UNL A   1      46.649  32.534  30.875  1.00  0.00    -0.206 F 
ATOM     65  C   UNL A   1      46.912  35.585  28.958  1.00  0.00     0.060 A 
BRANCH  65  66
ATOM     66  S   UNL A   1      47.422  37.304  29.165  1.00  0.00     0.124 S 
ATOM     67  O   UNL A   1      47.733  37.682  27.790  1.00  0.00    -0.237 OA
ATOM     68  O   UNL A   1      46.226  37.918  29.734  1.00  0.00    -0.237 OA
ATOM     69  O   UNL A   1      48.566  37.214  30.066  1.00  0.00    -0.744 OA
ENDBRANCH  65  66
ENDBRANCH  44  58
BRANCH  45  70
ATOM     70  C   UNL A   1      43.239  23.479  26.986  1.00  0.00     0.058 A 
ATOM     71  C   UNL A   1      43.033  23.032  25.674  1.00  0.00     0.135 A 
ATOM     72  C   UNL A   1      43.053  22.556  28.028  1.00  0.00     0.135 A 
ATOM     73  F   UNL A   1      43.190  23.878  24.644  1.00  0.00    -0.206 F 
ATOM     74  C   UNL A   1      42.657  21.720  25.401  1.00  0.00     0.059 A 
ATOM     75  C   UNL A   1      42.704  21.232  27.779  1.00  0.00     0.059 A 
ATOM     76  F   UNL A   1      43.253  22.929  29.302  1.00  0.00    -0.206 F 
ATOM     77  C   UNL A   1      42.507  20.824  26.461  1.00  0.00     0.060 A 
BRANCH  77  78
ATOM     78  S   UNL A   1      42.104  19.103  26.089  1.00  0.00     0.124 S 
ATOM     79  O   UNL A   1      40.685  19.194  25.765  1.00  0.00    -0.237 OA
ATOM     80  O   UNL A   1      42.998  18.818  24.970  1.00  0.00    -0.237 OA
ATOM     81  O   UNL A   1      42.427  18.407  27.330  1.00  0.00    -0.744 OA
ENDBRANCH  77  78
ENDBRANCH  45  70
BRANCH  57  82
ATOM     82  C   UNL A   1      49.388  26.765  26.485  1.00  0.00     0.058 A 
ATOM     83  C   UNL A   1      50.249  26.147  27.403  1.00  0.00     0.135 A 
ATOM     84  C   UNL A   1      49.832  26.897  25.159  1.00  0.00     0.135 A 
ATOM     85  F   UNL A   1      49.877  26.002  28.686  1.00  0.00    -0.206 F 
ATOM     86  C   UNL A   1      51.511  25.697  27.028  1.00  0.00     0.059 A 
ATOM     87  C   UNL A   1      51.078  26.426  24.754  1.00  0.00     0.059 A 
ATOM     88  F   UNL A   1      49.046  27.474  24.235  1.00  0.00    -0.206 F 
ATOM     89  C   UNL A   1      51.915  25.837  25.700  1.00  0.00     0.060 A 
BRANCH  89  90
ATOM     90  S   UNL A   1      53.541  25.217  25.219  1.00  0.00     0.124 S 
ATOM     91  O   UNL A   1      53.375  23.780  25.405  1.00  0.00    -0.237 OA
ATOM     92  O   UNL A   1      53.648  25.669  23.835  1.00  0.00    -0.237 OA
ATOM     93  O   UNL A   1      54.446  25.871  26.158  1.00  0.00    -0.744 OA
ENDBRANCH  89  90
ENDBRANCH  57  82
ENDBRANCH  31  32
ENDBRANCH  23  26
ENDBRANCH  21  22
ENDBRANCH  20  21
ENDBRANCH   1  20
TORSDOF 18
ENDMDL
