MODEL 1
REMARK VINA RESULT:     -12.1      0.000      0.000
REMARK SMILES CS(=O)(=O)c1ccc(/C=C(/C(=O)NCCCNC(=O)c2ccc(-c3c4nc(c(-c5c(F)cc(S(=O)(=O)[O-])cc5F)c5ccc([nH]5)c(-c5c(F)cc(S(=O)(=O)[O-])cc5F)c5nc(c(-c6c(F)cc(S(=O)(=O)[O-])cc6F)c6ccc3[nH]6)C=C5)C=C4)cc2)c2ccc(O)cc2)cc1
REMARK SMILES IDX 15 1 14 2 13 3 11 4 12 5 10 7 9 8 8 9 5 10 6 11 94 12 7 13
REMARK SMILES IDX 93 14 2 15 1 16 3 17 4 18 86 19 87 20 92 21 88 22 91 23
REMARK SMILES IDX 89 24 90 25 16 27 17 28 18 29 19 31 20 32 21 33 85 34 22 35
REMARK SMILES IDX 84 36 23 37 24 38 25 39 78 40 26 41 83 42 77 43 79 44 27 45
REMARK SMILES IDX 82 46 76 47 75 48 28 50 62 51 41 52 61 53 42 54 45 55 60 56
REMARK SMILES IDX 80 57 43 58 44 59 59 61 81 62 46 63 29 64 30 65 39 66 31 67
REMARK SMILES IDX 32 68 38 69 40 70 33 71 34 72 35 73 36 74 37 75 63 76 64 77
REMARK SMILES IDX 73 78 65 79 66 80 72 81 74 82 67 83 68 84 69 85 70 86 71 87
REMARK SMILES IDX 47 88 48 89 57 90 49 91 50 92 56 93 58 94 51 95 52 96 53 97
REMARK SMILES IDX 54 98 55 99
REMARK H PARENT 13 6 90 26 17 30 79 49 45 60
REMARK Flexibility Score: inf
ROOT
ATOM      1  C   UNL A   1      35.457  23.708  26.025  1.00  0.00     0.042 C 
ENDROOT
BRANCH   1   2
ATOM      2  C   UNL A   1      34.118  23.641  25.288  1.00  0.00     0.118 C 
BRANCH   2   3
ATOM      3  N   UNL A   1      33.026  23.399  26.212  1.00  0.00    -0.352 N 
ATOM      4  C   UNL A   1      31.913  24.089  26.573  1.00  0.00     0.251 C 
ATOM      5  O   UNL A   1      31.195  23.542  27.415  1.00  0.00    -0.269 OA
ATOM      6  H   UNL A   1      33.110  22.539  26.684  1.00  0.00     0.163 HD
BRANCH   4   7
ATOM      7  C   UNL A   1      31.491  25.400  25.947  1.00  0.00     0.047 C 
ATOM      8  C   UNL A   1      30.755  25.451  24.813  1.00  0.00     0.022 C 
BRANCH   8   9
ATOM      9  C   UNL A   1      30.172  26.617  24.105  1.00  0.00    -0.025 A 
ATOM     10  C   UNL A   1      28.909  28.830  22.915  1.00  0.00     0.067 A 
ATOM     11  C   UNL A   1      30.300  28.763  22.955  1.00  0.00     0.021 A 
ATOM     12  C   UNL A   1      28.138  27.776  23.403  1.00  0.00     0.021 A 
ATOM     13  C   UNL A   1      30.924  27.645  23.523  1.00  0.00     0.009 A 
ATOM     14  C   UNL A   1      28.771  26.681  24.002  1.00  0.00     0.009 A 
BRANCH  10  15
ATOM     15  S   UNL A   1      28.106  30.255  22.223  1.00  0.00     0.175 S 
ATOM     16  C   UNL A   1      29.290  31.560  22.429  1.00  0.00     0.163 C 
ATOM     17  O   UNL A   1      26.958  30.549  23.056  1.00  0.00    -0.224 OA
ATOM     18  O   UNL A   1      27.961  30.035  20.795  1.00  0.00    -0.224 OA
ENDBRANCH  10  15
ENDBRANCH   8   9
BRANCH   7  19
ATOM     19  C   UNL A   1      32.079  26.636  26.527  1.00  0.00    -0.013 A 
ATOM     20  C   UNL A   1      33.408  26.962  26.203  1.00  0.00     0.013 A 
ATOM     21  C   UNL A   1      31.330  27.535  27.299  1.00  0.00     0.013 A 
ATOM     22  C   UNL A   1      33.962  28.179  26.595  1.00  0.00     0.047 A 
ATOM     23  C   UNL A   1      31.880  28.766  27.677  1.00  0.00     0.047 A 
ATOM     24  C   UNL A   1      33.185  29.083  27.304  1.00  0.00     0.115 A 
BRANCH  24  25
ATOM     25  O   UNL A   1      33.738  30.292  27.603  1.00  0.00    -0.508 OA
ATOM     26  H   UNL A   1      33.374  31.076  27.242  1.00  0.00     0.293 HD
ENDBRANCH  24  25
ENDBRANCH   7  19
ENDBRANCH   4   7
ENDBRANCH   2   3
ENDBRANCH   1   2
BRANCH   1  27
ATOM     27  C   UNL A   1      36.666  23.870  25.101  1.00  0.00     0.118 C 
BRANCH  27  28
ATOM     28  N   UNL A   1      37.665  22.833  25.316  1.00  0.00    -0.352 N 
ATOM     29  C   UNL A   1      38.905  22.903  25.898  1.00  0.00     0.251 C 
ATOM     30  H   UNL A   1      37.410  21.939  24.992  1.00  0.00     0.163 HD
ATOM     31  O   UNL A   1      39.676  21.955  25.772  1.00  0.00    -0.269 OA
BRANCH  29  32
ATOM     32  C   UNL A   1      39.327  24.100  26.665  1.00  0.00     0.039 A 
ATOM     33  C   UNL A   1      38.876  24.244  27.982  1.00  0.00     0.014 A 
ATOM     34  C   UNL A   1      40.102  25.106  26.083  1.00  0.00     0.014 A 
ATOM     35  C   UNL A   1      39.240  25.368  28.726  1.00  0.00     0.010 A 
ATOM     36  C   UNL A   1      40.517  26.197  26.846  1.00  0.00     0.010 A 
ATOM     37  C   UNL A   1      40.085  26.345  28.173  1.00  0.00    -0.014 A 
BRANCH  37  38
ATOM     38  C   UNL A   1      40.520  27.522  28.971  1.00  0.00     0.031 A 
ATOM     39  C   UNL A   1      41.850  27.514  29.677  1.00  0.00     0.074 A 
ATOM     40  C   UNL A   1      39.695  28.580  29.097  1.00  0.00     0.049 A 
ATOM     41  N   UNL A   1      42.376  28.424  30.457  1.00  0.00    -0.248 NA
ATOM     42  C   UNL A   1      42.687  26.316  29.506  1.00  0.00     0.031 C 
ATOM     43  C   UNL A   1      38.362  28.687  28.500  1.00  0.00     0.029 A 
ATOM     44  N   UNL A   1      39.850  29.762  29.776  1.00  0.00    -0.354 N 
ATOM     45  C   UNL A   1      43.597  27.907  30.877  1.00  0.00     0.074 A 
ATOM     46  C   UNL A   1      43.709  26.582  30.306  1.00  0.00     0.031 C 
ATOM     47  C   UNL A   1      37.830  29.878  28.822  1.00  0.00     0.029 A 
ATOM     48  C   UNL A   1      38.768  30.604  29.674  1.00  0.00     0.049 A 
ATOM     49  H   UNL A   1      40.661  29.988  30.287  1.00  0.00     0.167 HD
ATOM     50  C   UNL A   1      44.545  28.490  31.651  1.00  0.00     0.037 A 
ATOM     51  C   UNL A   1      38.551  31.821  30.209  1.00  0.00     0.037 A 
ATOM     52  C   UNL A   1      44.438  29.819  32.196  1.00  0.00     0.049 A 
ATOM     53  C   UNL A   1      39.624  32.453  31.052  1.00  0.00     0.074 A 
ATOM     54  C   UNL A   1      45.365  30.519  32.949  1.00  0.00     0.029 A 
ATOM     55  N   UNL A   1      43.337  30.650  32.046  1.00  0.00    -0.354 N 
ATOM     56  N   UNL A   1      40.795  31.971  31.393  1.00  0.00    -0.248 NA
ATOM     57  C   UNL A   1      39.351  33.799  31.576  1.00  0.00     0.031 C 
ATOM     58  C   UNL A   1      44.812  31.760  33.283  1.00  0.00     0.029 A 
ATOM     59  C   UNL A   1      43.556  31.852  32.702  1.00  0.00     0.049 A 
ATOM     60  H   UNL A   1      42.520  30.422  31.547  1.00  0.00     0.167 HD
ATOM     61  C   UNL A   1      41.409  32.963  32.149  1.00  0.00     0.074 A 
ATOM     62  C   UNL A   1      40.485  34.077  32.205  1.00  0.00     0.031 C 
ATOM     63  C   UNL A   1      42.628  32.953  32.743  1.00  0.00     0.037 A 
BRANCH  50  64
ATOM     64  C   UNL A   1      45.788  27.695  31.944  1.00  0.00     0.058 A 
ATOM     65  C   UNL A   1      46.930  27.790  31.132  1.00  0.00     0.135 A 
ATOM     66  C   UNL A   1      45.853  26.854  33.065  1.00  0.00     0.135 A 
ATOM     67  F   UNL A   1      46.919  28.570  30.038  1.00  0.00    -0.206 F 
ATOM     68  C   UNL A   1      48.079  27.054  31.401  1.00  0.00     0.059 A 
ATOM     69  C   UNL A   1      47.002  26.128  33.371  1.00  0.00     0.059 A 
ATOM     70  F   UNL A   1      44.792  26.726  33.878  1.00  0.00    -0.206 F 
ATOM     71  C   UNL A   1      48.104  26.222  32.522  1.00  0.00     0.060 A 
BRANCH  71  72
ATOM     72  S   UNL A   1      49.602  25.272  32.857  1.00  0.00     0.124 S 
ATOM     73  O   UNL A   1      50.457  26.286  33.469  1.00  0.00    -0.237 OA
ATOM     74  O   UNL A   1      49.118  24.228  33.755  1.00  0.00    -0.237 OA
ATOM     75  O   UNL A   1      50.019  24.815  31.535  1.00  0.00    -0.744 OA
ENDBRANCH  71  72
ENDBRANCH  50  64
BRANCH  51  76
ATOM     76  C   UNL A   1      37.274  32.533  29.939  1.00  0.00     0.058 A 
ATOM     77  C   UNL A   1      37.226  33.607  29.038  1.00  0.00     0.135 A 
ATOM     78  C   UNL A   1      36.078  32.148  30.563  1.00  0.00     0.135 A 
ATOM     79  F   UNL A   1      38.344  34.016  28.420  1.00  0.00    -0.206 F 
ATOM     80  C   UNL A   1      36.040  34.286  28.776  1.00  0.00     0.059 A 
ATOM     81  C   UNL A   1      34.875  32.796  30.299  1.00  0.00     0.059 A 
ATOM     82  F   UNL A   1      36.069  31.114  31.419  1.00  0.00    -0.206 F 
ATOM     83  C   UNL A   1      34.869  33.871  29.413  1.00  0.00     0.060 A 
BRANCH  83  84
ATOM     84  S   UNL A   1      33.324  34.727  29.029  1.00  0.00     0.124 S 
ATOM     85  O   UNL A   1      32.734  34.874  30.355  1.00  0.00    -0.237 OA
ATOM     86  O   UNL A   1      33.802  35.956  28.402  1.00  0.00    -0.237 OA
ATOM     87  O   UNL A   1      32.643  33.799  28.131  1.00  0.00    -0.744 OA
ENDBRANCH  83  84
ENDBRANCH  51  76
BRANCH  63  88
ATOM     88  C   UNL A   1      43.046  34.197  33.477  1.00  0.00     0.058 A 
ATOM     89  C   UNL A   1      42.803  34.360  34.850  1.00  0.00     0.135 A 
ATOM     90  C   UNL A   1      43.732  35.221  32.805  1.00  0.00     0.135 A 
ATOM     91  F   UNL A   1      42.146  33.413  35.537  1.00  0.00    -0.206 F 
ATOM     92  C   UNL A   1      43.202  35.509  35.525  1.00  0.00     0.059 A 
ATOM     93  C   UNL A   1      44.162  36.368  33.466  1.00  0.00     0.059 A 
ATOM     94  F   UNL A   1      43.999  35.110  31.493  1.00  0.00    -0.206 F 
ATOM     95  C   UNL A   1      43.880  36.508  34.824  1.00  0.00     0.060 A 
BRANCH  95  96
ATOM     96  S   UNL A   1      44.412  37.985  35.716  1.00  0.00     0.124 S 
ATOM     97  O   UNL A   1      45.864  37.856  35.658  1.00  0.00    -0.237 OA
ATOM     98  O   UNL A   1      43.839  39.061  34.913  1.00  0.00    -0.237 OA
ATOM     99  O   UNL A   1      43.818  37.813  37.039  1.00  0.00    -0.744 OA
ENDBRANCH  95  96
ENDBRANCH  63  88
ENDBRANCH  37  38
ENDBRANCH  29  32
ENDBRANCH  27  28
ENDBRANCH   1  27
TORSDOF 17
ENDMDL
MODEL 2
REMARK VINA RESULT:     -12.0      3.527      9.675
REMARK SMILES CS(=O)(=O)c1ccc(/C=C(/C(=O)NCCCNC(=O)c2ccc(-c3c4nc(c(-c5c(F)cc(S(=O)(=O)[O-])cc5F)c5ccc([nH]5)c(-c5c(F)cc(S(=O)(=O)[O-])cc5F)c5nc(c(-c6c(F)cc(S(=O)(=O)[O-])cc6F)c6ccc3[nH]6)C=C5)C=C4)cc2)c2ccc(O)cc2)cc1
REMARK SMILES IDX 15 1 14 2 13 3 11 4 12 5 10 7 9 8 8 9 5 10 6 11 94 12 7 13
REMARK SMILES IDX 93 14 2 15 1 16 3 17 4 18 86 19 87 20 92 21 88 22 91 23
REMARK SMILES IDX 89 24 90 25 16 27 17 28 18 29 19 31 20 32 21 33 85 34 22 35
REMARK SMILES IDX 84 36 23 37 24 38 25 39 78 40 26 41 83 42 77 43 79 44 27 45
REMARK SMILES IDX 82 46 76 47 75 48 28 50 62 51 41 52 61 53 42 54 45 55 60 56
REMARK SMILES IDX 80 57 43 58 44 59 59 61 81 62 46 63 29 64 30 65 39 66 31 67
REMARK SMILES IDX 32 68 38 69 40 70 33 71 34 72 35 73 36 74 37 75 63 76 64 77
REMARK SMILES IDX 73 78 65 79 66 80 72 81 74 82 67 83 68 84 69 85 70 86 71 87
REMARK SMILES IDX 47 88 48 89 57 90 49 91 50 92 56 93 58 94 51 95 52 96 53 97
REMARK SMILES IDX 54 98 55 99
REMARK H PARENT 13 6 90 26 17 30 79 49 45 60
REMARK Flexibility Score: inf
ROOT
ATOM      1  C   UNL A   1      32.555  27.835  26.065  1.00  0.00     0.042 C 
ENDROOT
BRANCH   1   2
ATOM      2  C   UNL A   1      32.740  26.412  25.534  1.00  0.00     0.118 C 
BRANCH   2   3
ATOM      3  N   UNL A   1      33.128  26.424  24.136  1.00  0.00    -0.352 N 
ATOM      4  C   UNL A   1      33.627  25.497  23.278  1.00  0.00     0.251 C 
ATOM      5  O   UNL A   1      33.836  25.891  22.128  1.00  0.00    -0.269 OA
ATOM      6  H   UNL A   1      33.002  27.304  23.714  1.00  0.00     0.163 HD
BRANCH   4   7
ATOM      7  C   UNL A   1      33.843  24.043  23.637  1.00  0.00     0.047 C 
ATOM      8  C   UNL A   1      32.816  23.166  23.736  1.00  0.00     0.022 C 
BRANCH   8   9
ATOM      9  C   UNL A   1      32.830  21.704  23.981  1.00  0.00    -0.025 A 
ATOM     10  C   UNL A   1      32.930  18.906  24.240  1.00  0.00     0.067 A 
ATOM     11  C   UNL A   1      33.293  19.716  25.314  1.00  0.00     0.021 A 
ATOM     12  C   UNL A   1      32.454  19.472  23.058  1.00  0.00     0.021 A 
ATOM     13  C   UNL A   1      33.214  21.108  25.189  1.00  0.00     0.009 A 
ATOM     14  C   UNL A   1      32.415  20.865  22.931  1.00  0.00     0.009 A 
BRANCH  10  15
ATOM     15  S   UNL A   1      33.053  17.139  24.377  1.00  0.00     0.175 S 
ATOM     16  C   UNL A   1      34.728  16.861  24.891  1.00  0.00     0.163 C 
ATOM     17  O   UNL A   1      32.890  16.592  23.046  1.00  0.00    -0.224 OA
ATOM     18  O   UNL A   1      32.198  16.717  25.473  1.00  0.00    -0.224 OA
ENDBRANCH  10  15
ENDBRANCH   8   9
BRANCH   7  19
ATOM     19  C   UNL A   1      35.214  23.657  24.061  1.00  0.00    -0.013 A 
ATOM     20  C   UNL A   1      35.679  24.103  25.312  1.00  0.00     0.013 A 
ATOM     21  C   UNL A   1      36.017  22.787  23.311  1.00  0.00     0.013 A 
ATOM     22  C   UNL A   1      36.893  23.652  25.825  1.00  0.00     0.047 A 
ATOM     23  C   UNL A   1      37.228  22.319  23.835  1.00  0.00     0.047 A 
ATOM     24  C   UNL A   1      37.644  22.743  25.096  1.00  0.00     0.115 A 
BRANCH  24  25
ATOM     25  O   UNL A   1      38.788  22.268  25.666  1.00  0.00    -0.508 OA
ATOM     26  H   UNL A   1      39.599  22.317  25.200  1.00  0.00     0.293 HD
ENDBRANCH  24  25
ENDBRANCH   7  19
ENDBRANCH   4   7
ENDBRANCH   2   3
ENDBRANCH   1   2
BRANCH   1  27
ATOM     27  C   UNL A   1      33.711  28.325  26.941  1.00  0.00     0.118 C 
BRANCH  27  28
ATOM     28  N   UNL A   1      33.537  29.709  27.357  1.00  0.00    -0.352 N 
ATOM     29  C   UNL A   1      34.365  30.527  28.085  1.00  0.00     0.251 C 
ATOM     30  H   UNL A   1      32.692  30.124  27.072  1.00  0.00     0.163 HD
ATOM     31  O   UNL A   1      33.923  31.589  28.515  1.00  0.00    -0.269 OA
BRANCH  29  32
ATOM     32  C   UNL A   1      35.771  30.147  28.360  1.00  0.00     0.039 A 
ATOM     33  C   UNL A   1      36.705  30.239  27.323  1.00  0.00     0.014 A 
ATOM     34  C   UNL A   1      36.162  29.642  29.603  1.00  0.00     0.014 A 
ATOM     35  C   UNL A   1      38.034  29.873  27.545  1.00  0.00     0.010 A 
ATOM     36  C   UNL A   1      37.501  29.335  29.842  1.00  0.00     0.010 A 
ATOM     37  C   UNL A   1      38.451  29.439  28.814  1.00  0.00    -0.014 A 
BRANCH  37  38
ATOM     38  C   UNL A   1      39.873  29.093  29.077  1.00  0.00     0.031 A 
ATOM     39  C   UNL A   1      40.810  30.113  29.667  1.00  0.00     0.074 A 
ATOM     40  C   UNL A   1      40.331  27.871  28.739  1.00  0.00     0.049 A 
ATOM     41  N   UNL A   1      42.090  30.011  29.919  1.00  0.00    -0.248 NA
ATOM     42  C   UNL A   1      40.239  31.430  29.992  1.00  0.00     0.031 C 
ATOM     43  C   UNL A   1      39.534  26.812  28.117  1.00  0.00     0.029 A 
ATOM     44  N   UNL A   1      41.580  27.317  28.861  1.00  0.00    -0.354 N 
ATOM     45  C   UNL A   1      42.480  31.248  30.421  1.00  0.00     0.074 A 
ATOM     46  C   UNL A   1      41.311  32.100  30.390  1.00  0.00     0.031 C 
ATOM     47  C   UNL A   1      40.308  25.730  27.931  1.00  0.00     0.029 A 
ATOM     48  C   UNL A   1      41.662  26.028  28.389  1.00  0.00     0.049 A 
ATOM     49  H   UNL A   1      42.347  27.796  29.252  1.00  0.00     0.167 HD
ATOM     50  C   UNL A   1      43.695  31.631  30.884  1.00  0.00     0.037 A 
ATOM     51  C   UNL A   1      42.709  25.182  28.326  1.00  0.00     0.037 A 
ATOM     52  C   UNL A   1      44.849  30.770  30.935  1.00  0.00     0.049 A 
ATOM     53  C   UNL A   1      44.043  25.626  28.859  1.00  0.00     0.074 A 
ATOM     54  C   UNL A   1      46.110  31.049  31.432  1.00  0.00     0.029 A 
ATOM     55  N   UNL A   1      44.883  29.462  30.472  1.00  0.00    -0.354 N 
ATOM     56  N   UNL A   1      44.379  26.782  29.382  1.00  0.00    -0.248 NA
ATOM     57  C   UNL A   1      45.139  24.649  28.803  1.00  0.00     0.031 C 
ATOM     58  C   UNL A   1      46.917  29.921  31.240  1.00  0.00     0.029 A 
ATOM     59  C   UNL A   1      46.146  28.924  30.662  1.00  0.00     0.049 A 
ATOM     60  H   UNL A   1      44.122  28.986  30.069  1.00  0.00     0.167 HD
ATOM     61  C   UNL A   1      45.717  26.662  29.740  1.00  0.00     0.074 A 
ATOM     62  C   UNL A   1      46.125  25.318  29.387  1.00  0.00     0.031 C 
ATOM     63  C   UNL A   1      46.534  27.582  30.310  1.00  0.00     0.037 A 
BRANCH  50  64
ATOM     64  C   UNL A   1      43.835  33.044  31.383  1.00  0.00     0.058 A 
ATOM     65  C   UNL A   1      44.136  34.104  30.513  1.00  0.00     0.135 A 
ATOM     66  C   UNL A   1      43.635  33.348  32.738  1.00  0.00     0.135 A 
ATOM     67  F   UNL A   1      44.350  33.868  29.207  1.00  0.00    -0.206 F 
ATOM     68  C   UNL A   1      44.267  35.410  30.973  1.00  0.00     0.059 A 
ATOM     69  C   UNL A   1      43.734  34.652  33.218  1.00  0.00     0.059 A 
ATOM     70  F   UNL A   1      43.343  32.374  33.615  1.00  0.00    -0.206 F 
ATOM     71  C   UNL A   1      44.068  35.674  32.329  1.00  0.00     0.060 A 
BRANCH  71  72
ATOM     72  S   UNL A   1      44.243  37.373  32.912  1.00  0.00     0.124 S 
ATOM     73  O   UNL A   1      45.499  37.297  33.653  1.00  0.00    -0.237 OA
ATOM     74  O   UNL A   1      44.288  38.131  31.666  1.00  0.00    -0.237 OA
ATOM     75  O   UNL A   1      43.048  37.579  33.724  1.00  0.00    -0.744 OA
ENDBRANCH  71  72
ENDBRANCH  50  64
BRANCH  51  76
ATOM     76  C   UNL A   1      42.528  23.819  27.761  1.00  0.00     0.058 A 
ATOM     77  C   UNL A   1      42.377  22.706  28.601  1.00  0.00     0.135 A 
ATOM     78  C   UNL A   1      42.488  23.603  26.376  1.00  0.00     0.135 A 
ATOM     79  F   UNL A   1      42.413  22.861  29.934  1.00  0.00    -0.206 F 
ATOM     80  C   UNL A   1      42.210  21.424  28.089  1.00  0.00     0.059 A 
ATOM     81  C   UNL A   1      42.298  22.333  25.839  1.00  0.00     0.059 A 
ATOM     82  F   UNL A   1      42.608  24.639  25.530  1.00  0.00    -0.206 F 
ATOM     83  C   UNL A   1      42.171  21.248  26.704  1.00  0.00     0.060 A 
BRANCH  83  84
ATOM     84  S   UNL A   1      41.904  19.586  26.048  1.00  0.00     0.124 S 
ATOM     85  O   UNL A   1      42.322  18.757  27.173  1.00  0.00    -0.237 OA
ATOM     86  O   UNL A   1      40.472  19.596  25.759  1.00  0.00    -0.237 OA
ATOM     87  O   UNL A   1      42.771  19.548  24.874  1.00  0.00    -0.744 OA
ENDBRANCH  83  84
ENDBRANCH  51  76
BRANCH  63  88
ATOM     88  C   UNL A   1      47.942  27.154  30.619  1.00  0.00     0.058 A 
ATOM     89  C   UNL A   1      48.997  27.389  29.724  1.00  0.00     0.135 A 
ATOM     90  C   UNL A   1      48.244  26.535  31.842  1.00  0.00     0.135 A 
ATOM     91  F   UNL A   1      48.760  27.972  28.538  1.00  0.00    -0.206 F 
ATOM     92  C   UNL A   1      50.299  27.000  30.019  1.00  0.00     0.059 A 
ATOM     93  C   UNL A   1      49.544  26.161  32.169  1.00  0.00     0.059 A 
ATOM     94  F   UNL A   1      47.273  26.297  32.738  1.00  0.00    -0.206 F 
ATOM     95  C   UNL A   1      50.563  26.385  31.245  1.00  0.00     0.060 A 
BRANCH  95  96
ATOM     96  S   UNL A   1      52.261  25.906  31.628  1.00  0.00     0.124 S 
ATOM     97  O   UNL A   1      52.907  26.049  30.327  1.00  0.00    -0.237 OA
ATOM     98  O   UNL A   1      52.644  26.887  32.638  1.00  0.00    -0.237 OA
ATOM     99  O   UNL A   1      52.123  24.535  32.114  1.00  0.00    -0.744 OA
ENDBRANCH  95  96
ENDBRANCH  63  88
ENDBRANCH  37  38
ENDBRANCH  29  32
ENDBRANCH  27  28
ENDBRANCH   1  27
TORSDOF 17
ENDMDL
MODEL 3
REMARK VINA RESULT:     -12.0      2.740      3.532
REMARK SMILES CS(=O)(=O)c1ccc(/C=C(/C(=O)NCCCNC(=O)c2ccc(-c3c4nc(c(-c5c(F)cc(S(=O)(=O)[O-])cc5F)c5ccc([nH]5)c(-c5c(F)cc(S(=O)(=O)[O-])cc5F)c5nc(c(-c6c(F)cc(S(=O)(=O)[O-])cc6F)c6ccc3[nH]6)C=C5)C=C4)cc2)c2ccc(O)cc2)cc1
REMARK SMILES IDX 15 1 14 2 13 3 11 4 12 5 10 7 9 8 8 9 5 10 6 11 94 12 7 13
REMARK SMILES IDX 93 14 2 15 1 16 3 17 4 18 86 19 87 20 92 21 88 22 91 23
REMARK SMILES IDX 89 24 90 25 16 27 17 28 18 29 19 31 20 32 21 33 85 34 22 35
REMARK SMILES IDX 84 36 23 37 24 38 25 39 78 40 26 41 83 42 77 43 79 44 27 45
REMARK SMILES IDX 82 46 76 47 75 48 28 50 62 51 41 52 61 53 42 54 45 55 60 56
REMARK SMILES IDX 80 57 43 58 44 59 59 61 81 62 46 63 29 64 30 65 39 66 31 67
REMARK SMILES IDX 32 68 38 69 40 70 33 71 34 72 35 73 36 74 37 75 63 76 64 77
REMARK SMILES IDX 73 78 65 79 66 80 72 81 74 82 67 83 68 84 69 85 70 86 71 87
REMARK SMILES IDX 47 88 48 89 57 90 49 91 50 92 56 93 58 94 51 95 52 96 53 97
REMARK SMILES IDX 54 98 55 99
REMARK H PARENT 13 6 90 26 17 30 79 49 45 60
REMARK Flexibility Score: inf
ROOT
ATOM      1  C   UNL A   1      36.788  23.709  25.250  1.00  0.00     0.042 C 
ENDROOT
BRANCH   1   2
ATOM      2  C   UNL A   1      35.459  24.440  25.053  1.00  0.00     0.118 C 
BRANCH   2   3
ATOM      3  N   UNL A   1      34.398  23.808  25.817  1.00  0.00    -0.352 N 
ATOM      4  C   UNL A   1      33.124  24.149  26.139  1.00  0.00     0.251 C 
ATOM      5  O   UNL A   1      32.508  23.328  26.824  1.00  0.00    -0.269 OA
ATOM      6  H   UNL A   1      34.663  22.934  26.185  1.00  0.00     0.163 HD
BRANCH   4   7
ATOM      7  C   UNL A   1      32.430  25.398  25.639  1.00  0.00     0.047 C 
ATOM      8  C   UNL A   1      31.702  25.408  24.498  1.00  0.00     0.022 C 
BRANCH   8   9
ATOM      9  C   UNL A   1      30.884  26.490  23.898  1.00  0.00    -0.025 A 
ATOM     10  C   UNL A   1      29.205  28.532  22.940  1.00  0.00     0.067 A 
ATOM     11  C   UNL A   1      30.578  28.601  22.719  1.00  0.00     0.021 A 
ATOM     12  C   UNL A   1      28.648  27.423  23.578  1.00  0.00     0.021 A 
ATOM     13  C   UNL A   1      31.406  27.568  23.173  1.00  0.00     0.009 A 
ATOM     14  C   UNL A   1      29.489  26.414  24.060  1.00  0.00     0.009 A 
BRANCH  10  15
ATOM     15  S   UNL A   1      28.147  29.851  22.394  1.00  0.00     0.175 S 
ATOM     16  C   UNL A   1      28.845  31.301  23.141  1.00  0.00     0.163 C 
ATOM     17  O   UNL A   1      26.841  29.625  22.979  1.00  0.00    -0.224 OA
ATOM     18  O   UNL A   1      28.315  29.990  20.958  1.00  0.00    -0.224 OA
ENDBRANCH  10  15
ENDBRANCH   8   9
BRANCH   7  19
ATOM     19  C   UNL A   1      32.737  26.663  26.356  1.00  0.00    -0.013 A 
ATOM     20  C   UNL A   1      33.985  27.274  26.134  1.00  0.00     0.013 A 
ATOM     21  C   UNL A   1      31.795  27.319  27.161  1.00  0.00     0.013 A 
ATOM     22  C   UNL A   1      34.268  28.532  26.661  1.00  0.00     0.047 A 
ATOM     23  C   UNL A   1      32.073  28.592  27.674  1.00  0.00     0.047 A 
ATOM     24  C   UNL A   1      33.301  29.193  27.403  1.00  0.00     0.115 A 
BRANCH  24  25
ATOM     25  O   UNL A   1      33.589  30.453  27.836  1.00  0.00    -0.508 OA
ATOM     26  H   UNL A   1      33.304  31.195  27.339  1.00  0.00     0.293 HD
ENDBRANCH  24  25
ENDBRANCH   7  19
ENDBRANCH   4   7
ENDBRANCH   2   3
ENDBRANCH   1   2
BRANCH   1  27
ATOM     27  C   UNL A   1      37.720  24.379  26.263  1.00  0.00     0.118 C 
BRANCH  27  28
ATOM     28  N   UNL A   1      39.112  24.005  26.060  1.00  0.00    -0.352 N 
ATOM     29  C   UNL A   1      40.264  24.590  26.522  1.00  0.00     0.251 C 
ATOM     30  H   UNL A   1      39.249  23.205  25.503  1.00  0.00     0.163 HD
ATOM     31  O   UNL A   1      41.341  24.242  26.043  1.00  0.00    -0.269 OA
BRANCH  29  32
ATOM     32  C   UNL A   1      40.227  25.631  27.575  1.00  0.00     0.039 A 
ATOM     33  C   UNL A   1      39.332  25.475  28.639  1.00  0.00     0.014 A 
ATOM     34  C   UNL A   1      41.012  26.784  27.493  1.00  0.00     0.014 A 
ATOM     35  C   UNL A   1      39.259  26.448  29.640  1.00  0.00     0.010 A 
ATOM     36  C   UNL A   1      40.984  27.724  28.523  1.00  0.00     0.010 A 
ATOM     37  C   UNL A   1      40.102  27.570  29.604  1.00  0.00    -0.014 A 
BRANCH  37  38
ATOM     38  C   UNL A   1      40.070  28.587  30.688  1.00  0.00     0.031 A 
ATOM     39  C   UNL A   1      40.975  28.456  31.884  1.00  0.00     0.074 A 
ATOM     40  C   UNL A   1      39.191  29.606  30.617  1.00  0.00     0.049 A 
ATOM     41  N   UNL A   1      41.053  29.214  32.948  1.00  0.00    -0.248 NA
ATOM     42  C   UNL A   1      41.896  27.308  31.899  1.00  0.00     0.031 C 
ATOM     43  C   UNL A   1      38.228  29.816  29.533  1.00  0.00     0.029 A 
ATOM     44  N   UNL A   1      38.954  30.649  31.476  1.00  0.00    -0.354 N 
ATOM     45  C   UNL A   1      42.019  28.632  33.762  1.00  0.00     0.074 A 
ATOM     46  C   UNL A   1      42.463  27.429  33.090  1.00  0.00     0.031 C 
ATOM     47  C   UNL A   1      37.521  30.930  29.782  1.00  0.00     0.029 A 
ATOM     48  C   UNL A   1      37.954  31.494  31.057  1.00  0.00     0.049 A 
ATOM     49  H   UNL A   1      39.454  30.781  32.314  1.00  0.00     0.167 HD
ATOM     50  C   UNL A   1      42.506  29.070  34.949  1.00  0.00     0.037 A 
ATOM     51  C   UNL A   1      37.439  32.597  31.635  1.00  0.00     0.037 A 
ATOM     52  C   UNL A   1      42.079  30.281  35.600  1.00  0.00     0.049 A 
ATOM     53  C   UNL A   1      38.006  33.071  32.945  1.00  0.00     0.074 A 
ATOM     54  C   UNL A   1      42.545  30.837  36.778  1.00  0.00     0.029 A 
ATOM     55  N   UNL A   1      41.082  31.124  35.129  1.00  0.00    -0.354 N 
ATOM     56  N   UNL A   1      38.959  32.537  33.672  1.00  0.00    -0.248 NA
ATOM     57  C   UNL A   1      37.435  34.302  33.510  1.00  0.00     0.031 C 
ATOM     58  C   UNL A   1      41.810  31.999  37.038  1.00  0.00     0.029 A 
ATOM     59  C   UNL A   1      40.912  32.190  35.999  1.00  0.00     0.049 A 
ATOM     60  H   UNL A   1      40.571  30.987  34.299  1.00  0.00     0.167 HD
ATOM     61  C   UNL A   1      39.119  33.380  34.766  1.00  0.00     0.074 A 
ATOM     62  C   UNL A   1      38.175  34.466  34.598  1.00  0.00     0.031 C 
ATOM     63  C   UNL A   1      39.971  33.266  35.814  1.00  0.00     0.037 A 
BRANCH  50  64
ATOM     64  C   UNL A   1      43.568  28.236  35.615  1.00  0.00     0.058 A 
ATOM     65  C   UNL A   1      44.933  28.438  35.352  1.00  0.00     0.135 A 
ATOM     66  C   UNL A   1      43.222  27.247  36.547  1.00  0.00     0.135 A 
ATOM     67  F   UNL A   1      45.320  29.363  34.458  1.00  0.00    -0.206 F 
ATOM     68  C   UNL A   1      45.914  27.667  35.966  1.00  0.00     0.059 A 
ATOM     69  C   UNL A   1      44.188  26.481  37.195  1.00  0.00     0.059 A 
ATOM     70  F   UNL A   1      41.932  27.012  36.838  1.00  0.00    -0.206 F 
ATOM     71  C   UNL A   1      45.532  26.688  36.884  1.00  0.00     0.060 A 
BRANCH  71  72
ATOM     72  S   UNL A   1      46.818  25.694  37.671  1.00  0.00     0.124 S 
ATOM     73  O   UNL A   1      47.230  24.829  36.569  1.00  0.00    -0.237 OA
ATOM     74  O   UNL A   1      47.789  26.703  38.080  1.00  0.00    -0.237 OA
ATOM     75  O   UNL A   1      46.112  25.028  38.761  1.00  0.00    -0.744 OA
ENDBRANCH  71  72
ENDBRANCH  50  64
BRANCH  51  76
ATOM     76  C   UNL A   1      36.344  33.344  30.962  1.00  0.00     0.058 A 
ATOM     77  C   UNL A   1      35.033  33.303  31.459  1.00  0.00     0.135 A 
ATOM     78  C   UNL A   1      36.587  34.125  29.822  1.00  0.00     0.135 A 
ATOM     79  F   UNL A   1      34.750  32.566  32.544  1.00  0.00    -0.206 F 
ATOM     80  C   UNL A   1      33.997  33.994  30.840  1.00  0.00     0.059 A 
ATOM     81  C   UNL A   1      35.572  34.844  29.199  1.00  0.00     0.059 A 
ATOM     82  F   UNL A   1      37.829  34.213  29.319  1.00  0.00    -0.206 F 
ATOM     83  C   UNL A   1      34.278  34.763  29.709  1.00  0.00     0.060 A 
BRANCH  83  84
ATOM     84  S   UNL A   1      32.935  35.697  28.940  1.00  0.00     0.124 S 
ATOM     85  O   UNL A   1      32.338  34.689  28.072  1.00  0.00    -0.237 OA
ATOM     86  O   UNL A   1      32.139  36.098  30.097  1.00  0.00    -0.237 OA
ATOM     87  O   UNL A   1      33.632  36.786  28.262  1.00  0.00    -0.744 OA
ENDBRANCH  83  84
ENDBRANCH  51  76
BRANCH  63  88
ATOM     88  C   UNL A   1      39.945  34.360  36.844  1.00  0.00     0.058 A 
ATOM     89  C   UNL A   1      40.687  35.541  36.685  1.00  0.00     0.135 A 
ATOM     90  C   UNL A   1      39.138  34.242  37.986  1.00  0.00     0.135 A 
ATOM     91  F   UNL A   1      41.480  35.701  35.614  1.00  0.00    -0.206 F 
ATOM     92  C   UNL A   1      40.652  36.555  37.637  1.00  0.00     0.059 A 
ATOM     93  C   UNL A   1      39.067  35.254  38.939  1.00  0.00     0.059 A 
ATOM     94  F   UNL A   1      38.399  33.137  38.182  1.00  0.00    -0.206 F 
ATOM     95  C   UNL A   1      39.839  36.401  38.762  1.00  0.00     0.060 A 
BRANCH  95  96
ATOM     96  S   UNL A   1      39.782  37.734  39.979  1.00  0.00     0.124 S 
ATOM     97  O   UNL A   1      39.606  36.989  41.222  1.00  0.00    -0.237 OA
ATOM     98  O   UNL A   1      41.081  38.375  39.803  1.00  0.00    -0.237 OA
ATOM     99  O   UNL A   1      38.634  38.530  39.555  1.00  0.00    -0.744 OA
ENDBRANCH  95  96
ENDBRANCH  63  88
ENDBRANCH  37  38
ENDBRANCH  29  32
ENDBRANCH  27  28
ENDBRANCH   1  27
TORSDOF 17
ENDMDL
