MODEL 1
REMARK VINA RESULT:     -10.0      0.000      0.000
REMARK SMILES CCOCCS(=O)(=O)NCC(=O)NCCCNC(=O)c1ccc(-c2c3nc(c(-c4c(F)cc(S(=O)(=O)[O-])cc4F)c4ccc([nH]4)c(-c4c(F)cc(S(=O)(=O)[O-])cc4F)c4nc(c(-c5c(F)cc(S(=O)(=O)[O-])cc5F)c5ccc2[nH]5)C=C4)C=C3)cc1
REMARK SMILES IDX 11 1 12 2 13 3 10 5 9 6 6 8 7 9 8 10 5 11 4 12 3 13 2 14
REMARK SMILES IDX 1 15 14 16 15 17 16 18 17 19 18 20 19 22 20 23 21 24 85 25
REMARK SMILES IDX 22 26 84 27 23 28 24 29 25 30 78 31 26 32 83 33 77 34 79 35
REMARK SMILES IDX 27 36 82 37 76 38 75 39 28 41 62 42 41 43 61 44 42 45 45 46
REMARK SMILES IDX 60 47 80 48 43 49 44 50 59 52 81 53 46 54 29 55 30 56 39 57
REMARK SMILES IDX 31 58 32 59 38 60 40 61 33 62 34 63 35 64 36 65 37 66 63 67
REMARK SMILES IDX 64 68 73 69 65 70 66 71 72 72 74 73 67 74 68 75 69 76 70 77
REMARK SMILES IDX 71 78 47 79 48 80 57 81 49 82 50 83 56 84 58 85 51 86 52 87
REMARK SMILES IDX 53 88 54 89 55 90
REMARK H PARENT 13 4 9 7 17 21 79 40 45 51
REMARK Flexibility Score: inf
ROOT
ATOM      1  C   UNL A   1      35.209  22.019  26.028  1.00  0.00     0.235 C 
ATOM      2  O   UNL A   1      34.186  22.279  26.681  1.00  0.00    -0.274 OA
ATOM      3  N   UNL A   1      36.268  22.813  26.310  1.00  0.00    -0.355 N 
ATOM      4  H   UNL A   1      36.102  23.498  26.999  1.00  0.00     0.163 HD
ENDROOT
BRANCH   1   5
ATOM      5  C   UNL A   1      35.207  20.775  25.174  1.00  0.00     0.198 C 
BRANCH   5   6
ATOM      6  N   UNL A   1      34.437  19.538  24.975  1.00  0.00    -0.206 NA
ATOM      7  H   UNL A   1      34.990  18.992  24.315  1.00  0.00     0.141 HD
BRANCH   6   8
ATOM      8  S   UNL A   1      32.881  19.381  24.444  1.00  0.00     0.214 S 
ATOM      9  O   UNL A   1      32.444  20.628  23.870  1.00  0.00    -0.212 OA
ATOM     10  O   UNL A   1      32.183  18.827  25.580  1.00  0.00    -0.212 OA
BRANCH   8  11
ATOM     11  C   UNL A   1      32.926  18.085  23.197  1.00  0.00     0.182 C 
BRANCH  11  12
ATOM     12  C   UNL A   1      34.054  17.061  23.158  1.00  0.00     0.177 C 
BRANCH  12  13
ATOM     13  O   UNL A   1      33.785  15.822  23.813  1.00  0.00    -0.381 OA
BRANCH  13  14
ATOM     14  C   UNL A   1      33.676  15.816  25.232  1.00  0.00     0.156 C 
ATOM     15  C   UNL A   1      32.468  15.082  25.790  1.00  0.00     0.035 C 
ENDBRANCH  13  14
ENDBRANCH  12  13
ENDBRANCH  11  12
ENDBRANCH   8  11
ENDBRANCH   6   8
ENDBRANCH   5   6
ENDBRANCH   1   5
BRANCH   3  16
ATOM     16  C   UNL A   1      37.593  22.814  25.764  1.00  0.00     0.117 C 
BRANCH  16  17
ATOM     17  C   UNL A   1      38.419  24.002  26.209  1.00  0.00     0.042 C 
BRANCH  17  18
ATOM     18  C   UNL A   1      39.695  23.585  26.898  1.00  0.00     0.118 C 
BRANCH  18  19
ATOM     19  N   UNL A   1      40.882  23.876  26.103  1.00  0.00    -0.352 N 
ATOM     20  C   UNL A   1      41.786  24.908  26.238  1.00  0.00     0.251 C 
ATOM     21  H   UNL A   1      41.062  23.248  25.366  1.00  0.00     0.163 HD
ATOM     22  O   UNL A   1      42.625  25.101  25.364  1.00  0.00    -0.269 OA
BRANCH  20  23
ATOM     23  C   UNL A   1      41.709  25.798  27.419  1.00  0.00     0.039 A 
ATOM     24  C   UNL A   1      42.446  26.983  27.441  1.00  0.00     0.014 A 
ATOM     25  C   UNL A   1      40.862  25.488  28.484  1.00  0.00     0.014 A 
ATOM     26  C   UNL A   1      42.264  27.888  28.492  1.00  0.00     0.010 A 
ATOM     27  C   UNL A   1      40.559  26.457  29.429  1.00  0.00     0.010 A 
ATOM     28  C   UNL A   1      41.282  27.655  29.470  1.00  0.00    -0.014 A 
BRANCH  28  29
ATOM     29  C   UNL A   1      41.027  28.614  30.578  1.00  0.00     0.031 A 
ATOM     30  C   UNL A   1      41.844  28.521  31.844  1.00  0.00     0.074 A 
ATOM     31  C   UNL A   1      40.031  29.517  30.477  1.00  0.00     0.049 A 
ATOM     32  N   UNL A   1      41.733  29.207  32.952  1.00  0.00    -0.248 NA
ATOM     33  C   UNL A   1      42.899  27.492  31.889  1.00  0.00     0.031 C 
ATOM     34  C   UNL A   1      39.123  29.658  29.335  1.00  0.00     0.029 A 
ATOM     35  N   UNL A   1      39.611  30.489  31.351  1.00  0.00    -0.354 N 
ATOM     36  C   UNL A   1      42.682  28.677  33.821  1.00  0.00     0.074 A 
ATOM     37  C   UNL A   1      43.298  27.559  33.147  1.00  0.00     0.031 C 
ATOM     38  C   UNL A   1      38.284  30.682  29.560  1.00  0.00     0.029 A 
ATOM     39  C   UNL A   1      38.560  31.242  30.880  1.00  0.00     0.049 A 
ATOM     40  H   UNL A   1      40.022  30.632  32.233  1.00  0.00     0.167 HD
ATOM     41  C   UNL A   1      43.042  29.108  35.053  1.00  0.00     0.037 A 
ATOM     42  C   UNL A   1      37.894  32.266  31.448  1.00  0.00     0.037 A 
ATOM     43  C   UNL A   1      42.451  30.248  35.700  1.00  0.00     0.049 A 
ATOM     44  C   UNL A   1      38.316  32.735  32.815  1.00  0.00     0.074 A 
ATOM     45  C   UNL A   1      42.780  30.811  36.919  1.00  0.00     0.029 A 
ATOM     46  N   UNL A   1      41.413  31.004  35.175  1.00  0.00    -0.354 N 
ATOM     47  N   UNL A   1      39.266  32.268  33.592  1.00  0.00    -0.248 NA
ATOM     48  C   UNL A   1      37.585  33.876  33.381  1.00  0.00     0.031 C 
ATOM     49  C   UNL A   1      41.906  31.877  37.155  1.00  0.00     0.029 A 
ATOM     50  C   UNL A   1      41.074  32.017  36.056  1.00  0.00     0.049 A 
ATOM     51  H   UNL A   1      40.981  30.844  34.305  1.00  0.00     0.167 HD
ATOM     52  C   UNL A   1      39.265  33.076  34.724  1.00  0.00     0.074 A 
ATOM     53  C   UNL A   1      38.232  34.071  34.523  1.00  0.00     0.031 C 
ATOM     54  C   UNL A   1      40.047  33.004  35.830  1.00  0.00     0.037 A 
BRANCH  41  55
ATOM     55  C   UNL A   1      44.133  28.356  35.765  1.00  0.00     0.058 A 
ATOM     56  C   UNL A   1      45.474  28.772  35.714  1.00  0.00     0.135 A 
ATOM     57  C   UNL A   1      43.835  27.215  36.529  1.00  0.00     0.135 A 
ATOM     58  F   UNL A   1      45.823  29.844  34.984  1.00  0.00    -0.206 F 
ATOM     59  C   UNL A   1      46.483  28.068  36.363  1.00  0.00     0.059 A 
ATOM     60  C   UNL A   1      44.824  26.515  37.216  1.00  0.00     0.059 A 
ATOM     61  F   UNL A   1      42.573  26.767  36.613  1.00  0.00    -0.206 F 
ATOM     62  C   UNL A   1      46.148  26.942  37.114  1.00  0.00     0.060 A 
BRANCH  62  63
ATOM     63  S   UNL A   1      47.469  26.049  37.958  1.00  0.00     0.124 S 
ATOM     64  O   UNL A   1      46.807  25.651  39.197  1.00  0.00    -0.237 OA
ATOM     65  O   UNL A   1      47.761  24.968  37.021  1.00  0.00    -0.237 OA
ATOM     66  O   UNL A   1      48.520  27.051  38.103  1.00  0.00    -0.744 OA
ENDBRANCH  62  63
ENDBRANCH  41  55
BRANCH  42  67
ATOM     67  C   UNL A   1      36.780  32.933  30.719  1.00  0.00     0.058 A 
ATOM     68  C   UNL A   1      35.443  32.577  30.957  1.00  0.00     0.135 A 
ATOM     69  C   UNL A   1      37.025  33.942  29.775  1.00  0.00     0.135 A 
ATOM     70  F   UNL A   1      35.153  31.615  31.848  1.00  0.00    -0.206 F 
ATOM     71  C   UNL A   1      34.393  33.178  30.271  1.00  0.00     0.059 A 
ATOM     72  C   UNL A   1      35.990  34.580  29.097  1.00  0.00     0.059 A 
ATOM     73  F   UNL A   1      38.283  34.334  29.521  1.00  0.00    -0.206 F 
ATOM     74  C   UNL A   1      34.677  34.181  29.342  1.00  0.00     0.060 A 
BRANCH  74  75
ATOM     75  S   UNL A   1      33.303  34.980  28.484  1.00  0.00     0.124 S 
ATOM     76  O   UNL A   1      32.574  35.583  29.594  1.00  0.00    -0.237 OA
ATOM     77  O   UNL A   1      33.996  35.909  27.595  1.00  0.00    -0.237 OA
ATOM     78  O   UNL A   1      32.632  33.870  27.817  1.00  0.00    -0.744 OA
ENDBRANCH  74  75
ENDBRANCH  42  67
BRANCH  54  79
ATOM     79  C   UNL A   1      39.846  34.049  36.891  1.00  0.00     0.058 A 
ATOM     80  C   UNL A   1      38.966  33.855  37.967  1.00  0.00     0.135 A 
ATOM     81  C   UNL A   1      40.588  35.243  36.858  1.00  0.00     0.135 A 
ATOM     82  F   UNL A   1      38.230  32.735  38.044  1.00  0.00    -0.206 F 
ATOM     83  C   UNL A   1      38.808  34.818  38.958  1.00  0.00     0.059 A 
ATOM     84  C   UNL A   1      40.472  36.203  37.856  1.00  0.00     0.059 A 
ATOM     85  F   UNL A   1      41.455  35.473  35.858  1.00  0.00    -0.206 F 
ATOM     86  C   UNL A   1      39.568  35.987  38.895  1.00  0.00     0.060 A 
BRANCH  86  87
ATOM     87  S   UNL A   1      39.376  37.213  40.205  1.00  0.00     0.124 S 
ATOM     88  O   UNL A   1      38.498  38.190  39.567  1.00  0.00    -0.237 OA
ATOM     89  O   UNL A   1      38.775  36.429  41.280  1.00  0.00    -0.237 OA
ATOM     90  O   UNL A   1      40.742  37.665  40.452  1.00  0.00    -0.744 OA
ENDBRANCH  86  87
ENDBRANCH  54  79
ENDBRANCH  28  29
ENDBRANCH  20  23
ENDBRANCH  18  19
ENDBRANCH  17  18
ENDBRANCH  16  17
ENDBRANCH   3  16
TORSDOF 19
ENDMDL
MODEL 2
REMARK VINA RESULT:      -9.8      4.884     11.786
REMARK SMILES CCOCCS(=O)(=O)NCC(=O)NCCCNC(=O)c1ccc(-c2c3nc(c(-c4c(F)cc(S(=O)(=O)[O-])cc4F)c4ccc([nH]4)c(-c4c(F)cc(S(=O)(=O)[O-])cc4F)c4nc(c(-c5c(F)cc(S(=O)(=O)[O-])cc5F)c5ccc2[nH]5)C=C4)C=C3)cc1
REMARK SMILES IDX 11 1 12 2 13 3 10 5 9 6 6 8 7 9 8 10 5 11 4 12 3 13 2 14
REMARK SMILES IDX 1 15 14 16 15 17 16 18 17 19 18 20 19 22 20 23 21 24 85 25
REMARK SMILES IDX 22 26 84 27 23 28 24 29 25 30 78 31 26 32 83 33 77 34 79 35
REMARK SMILES IDX 27 36 82 37 76 38 75 39 28 41 62 42 41 43 61 44 42 45 45 46
REMARK SMILES IDX 60 47 80 48 43 49 44 50 59 52 81 53 46 54 29 55 30 56 39 57
REMARK SMILES IDX 31 58 32 59 38 60 40 61 33 62 34 63 35 64 36 65 37 66 63 67
REMARK SMILES IDX 64 68 73 69 65 70 66 71 72 72 74 73 67 74 68 75 69 76 70 77
REMARK SMILES IDX 71 78 47 79 48 80 57 81 49 82 50 83 56 84 58 85 51 86 52 87
REMARK SMILES IDX 53 88 54 89 55 90
REMARK H PARENT 13 4 9 7 17 21 79 40 45 51
REMARK Flexibility Score: inf
ROOT
ATOM      1  C   UNL A   1      38.259  34.526  30.115  1.00  0.00     0.235 C 
ATOM      2  O   UNL A   1      39.451  34.515  29.769  1.00  0.00    -0.274 OA
ATOM      3  N   UNL A   1      37.379  34.516  29.087  1.00  0.00    -0.355 N 
ATOM      4  H   UNL A   1      37.787  34.498  28.191  1.00  0.00     0.163 HD
ENDROOT
BRANCH   1   5
ATOM      5  C   UNL A   1      37.948  34.359  31.582  1.00  0.00     0.198 C 
BRANCH   5   6
ATOM      6  N   UNL A   1      36.940  33.753  32.465  1.00  0.00    -0.206 NA
ATOM      7  H   UNL A   1      36.045  34.055  32.081  1.00  0.00     0.141 HD
BRANCH   6   8
ATOM      8  S   UNL A   1      36.774  33.934  34.098  1.00  0.00     0.214 S 
ATOM      9  O   UNL A   1      37.758  34.872  34.576  1.00  0.00    -0.212 OA
ATOM     10  O   UNL A   1      36.771  32.579  34.596  1.00  0.00    -0.212 OA
BRANCH   8  11
ATOM     11  C   UNL A   1      35.110  34.569  34.346  1.00  0.00     0.182 C 
BRANCH  11  12
ATOM     12  C   UNL A   1      34.531  35.651  33.444  1.00  0.00     0.177 C 
BRANCH  12  13
ATOM     13  O   UNL A   1      33.304  35.321  32.795  1.00  0.00    -0.381 OA
BRANCH  13  14
ATOM     14  C   UNL A   1      33.204  35.521  31.389  1.00  0.00     0.156 C 
ATOM     15  C   UNL A   1      33.184  36.973  30.939  1.00  0.00     0.035 C 
ENDBRANCH  13  14
ENDBRANCH  12  13
ENDBRANCH  11  12
ENDBRANCH   8  11
ENDBRANCH   6   8
ENDBRANCH   5   6
ENDBRANCH   1   5
BRANCH   3  16
ATOM     16  C   UNL A   1      35.946  34.525  29.099  1.00  0.00     0.117 C 
BRANCH  16  17
ATOM     17  C   UNL A   1      35.337  33.549  28.116  1.00  0.00     0.042 C 
BRANCH  17  18
ATOM     18  C   UNL A   1      34.425  32.553  28.790  1.00  0.00     0.118 C 
BRANCH  18  19
ATOM     19  N   UNL A   1      33.855  31.592  27.854  1.00  0.00    -0.352 N 
ATOM     20  C   UNL A   1      34.404  30.425  27.366  1.00  0.00     0.251 C 
ATOM     21  H   UNL A   1      32.953  31.807  27.522  1.00  0.00     0.163 HD
ATOM     22  O   UNL A   1      33.854  29.832  26.442  1.00  0.00    -0.269 OA
BRANCH  20  23
ATOM     23  C   UNL A   1      35.674  29.919  27.936  1.00  0.00     0.039 A 
ATOM     24  C   UNL A   1      36.866  30.095  27.233  1.00  0.00     0.014 A 
ATOM     25  C   UNL A   1      35.693  29.319  29.196  1.00  0.00     0.014 A 
ATOM     26  C   UNL A   1      38.079  29.744  27.835  1.00  0.00     0.010 A 
ATOM     27  C   UNL A   1      36.900  29.131  29.852  1.00  0.00     0.010 A 
ATOM     28  C   UNL A   1      38.110  29.304  29.169  1.00  0.00    -0.014 A 
BRANCH  28  29
ATOM     29  C   UNL A   1      39.383  28.963  29.859  1.00  0.00     0.031 A 
ATOM     30  C   UNL A   1      39.788  29.733  31.094  1.00  0.00     0.074 A 
ATOM     31  C   UNL A   1      40.198  28.017  29.350  1.00  0.00     0.049 A 
ATOM     32  N   UNL A   1      40.886  29.647  31.798  1.00  0.00    -0.248 NA
ATOM     33  C   UNL A   1      38.855  30.768  31.576  1.00  0.00     0.031 C 
ATOM     34  C   UNL A   1      39.953  27.254  28.123  1.00  0.00     0.029 A 
ATOM     35  N   UNL A   1      41.403  27.537  29.799  1.00  0.00    -0.354 N 
ATOM     36  C   UNL A   1      40.781  30.624  32.783  1.00  0.00     0.074 A 
ATOM     37  C   UNL A   1      39.558  31.349  32.534  1.00  0.00     0.031 C 
ATOM     38  C   UNL A   1      40.952  26.375  27.942  1.00  0.00     0.029 A 
ATOM     39  C   UNL A   1      41.932  26.541  29.011  1.00  0.00     0.049 A 
ATOM     40  H   UNL A   1      41.848  27.874  30.610  1.00  0.00     0.167 HD
ATOM     41  C   UNL A   1      41.605  30.870  33.828  1.00  0.00     0.037 A 
ATOM     42  C   UNL A   1      43.078  25.843  29.135  1.00  0.00     0.037 A 
ATOM     43  C   UNL A   1      42.800  30.116  34.093  1.00  0.00     0.049 A 
ATOM     44  C   UNL A   1      43.975  26.127  30.310  1.00  0.00     0.074 A 
ATOM     45  C   UNL A   1      43.675  30.237  35.156  1.00  0.00     0.029 A 
ATOM     46  N   UNL A   1      43.284  29.094  33.289  1.00  0.00    -0.354 N 
ATOM     47  N   UNL A   1      43.822  27.006  31.274  1.00  0.00    -0.248 NA
ATOM     48  C   UNL A   1      45.196  25.319  30.424  1.00  0.00     0.031 C 
ATOM     49  C   UNL A   1      44.717  29.324  34.968  1.00  0.00     0.029 A 
ATOM     50  C   UNL A   1      44.458  28.590  33.821  1.00  0.00     0.049 A 
ATOM     51  H   UNL A   1      42.855  28.775  32.462  1.00  0.00     0.167 HD
ATOM     52  C   UNL A   1      44.911  26.837  32.121  1.00  0.00     0.074 A 
ATOM     53  C   UNL A   1      45.705  25.760  31.567  1.00  0.00     0.031 C 
ATOM     54  C   UNL A   1      45.227  27.509  33.256  1.00  0.00     0.037 A 
BRANCH  41  55
ATOM     55  C   UNL A   1      41.228  31.984  34.768  1.00  0.00     0.058 A 
ATOM     56  C   UNL A   1      41.751  33.280  34.627  1.00  0.00     0.135 A 
ATOM     57  C   UNL A   1      40.315  31.761  35.813  1.00  0.00     0.135 A 
ATOM     58  F   UNL A   1      42.643  33.548  33.659  1.00  0.00    -0.206 F 
ATOM     59  C   UNL A   1      41.411  34.305  35.503  1.00  0.00     0.059 A 
ATOM     60  C   UNL A   1      39.933  32.781  36.681  1.00  0.00     0.059 A 
ATOM     61  F   UNL A   1      39.785  30.543  36.000  1.00  0.00    -0.206 F 
ATOM     62  C   UNL A   1      40.499  34.046  36.527  1.00  0.00     0.060 A 
BRANCH  62  63
ATOM     63  S   UNL A   1      40.061  35.391  37.647  1.00  0.00     0.124 S 
ATOM     64  O   UNL A   1      39.854  36.493  36.713  1.00  0.00    -0.237 OA
ATOM     65  O   UNL A   1      38.860  34.876  38.296  1.00  0.00    -0.237 OA
ATOM     66  O   UNL A   1      41.233  35.512  38.509  1.00  0.00    -0.744 OA
ENDBRANCH  62  63
ENDBRANCH  41  55
BRANCH  42  67
ATOM     67  C   UNL A   1      43.429  24.795  28.138  1.00  0.00     0.058 A 
ATOM     68  C   UNL A   1      44.167  25.107  26.986  1.00  0.00     0.135 A 
ATOM     69  C   UNL A   1      43.040  23.457  28.317  1.00  0.00     0.135 A 
ATOM     70  F   UNL A   1      44.561  26.372  26.765  1.00  0.00    -0.206 F 
ATOM     71  C   UNL A   1      44.487  24.142  26.038  1.00  0.00     0.059 A 
ATOM     72  C   UNL A   1      43.373  22.467  27.397  1.00  0.00     0.059 A 
ATOM     73  F   UNL A   1      42.347  23.099  29.409  1.00  0.00    -0.206 F 
ATOM     74  C   UNL A   1      44.086  22.822  26.253  1.00  0.00     0.060 A 
BRANCH  74  75
ATOM     75  S   UNL A   1      44.538  21.570  25.032  1.00  0.00     0.124 S 
ATOM     76  O   UNL A   1      43.519  20.553  25.261  1.00  0.00    -0.237 OA
ATOM     77  O   UNL A   1      44.431  22.312  23.779  1.00  0.00    -0.237 OA
ATOM     78  O   UNL A   1      45.896  21.200  25.417  1.00  0.00    -0.744 OA
ENDBRANCH  74  75
ENDBRANCH  42  67
BRANCH  54  79
ATOM     79  C   UNL A   1      46.461  27.076  33.998  1.00  0.00     0.058 A 
ATOM     80  C   UNL A   1      47.716  27.653  33.751  1.00  0.00     0.135 A 
ATOM     81  C   UNL A   1      46.373  26.106  35.011  1.00  0.00     0.135 A 
ATOM     82  F   UNL A   1      47.856  28.581  32.791  1.00  0.00    -0.206 F 
ATOM     83  C   UNL A   1      48.846  27.264  34.462  1.00  0.00     0.059 A 
ATOM     84  C   UNL A   1      47.483  25.727  35.758  1.00  0.00     0.059 A 
ATOM     85  F   UNL A   1      45.194  25.532  35.298  1.00  0.00    -0.206 F 
ATOM     86  C   UNL A   1      48.719  26.303  35.466  1.00  0.00     0.060 A 
BRANCH  86  87
ATOM     87  S   UNL A   1      50.187  25.831  36.402  1.00  0.00     0.124 S 
ATOM     88  O   UNL A   1      49.905  24.432  36.707  1.00  0.00    -0.237 OA
ATOM     89  O   UNL A   1      51.259  26.066  35.439  1.00  0.00    -0.237 OA
ATOM     90  O   UNL A   1      50.169  26.739  37.546  1.00  0.00    -0.744 OA
ENDBRANCH  86  87
ENDBRANCH  54  79
ENDBRANCH  28  29
ENDBRANCH  20  23
ENDBRANCH  18  19
ENDBRANCH  17  18
ENDBRANCH  16  17
ENDBRANCH   3  16
TORSDOF 19
ENDMDL
MODEL 3
REMARK VINA RESULT:      -9.7      5.348     12.355
REMARK SMILES CCOCCS(=O)(=O)NCC(=O)NCCCNC(=O)c1ccc(-c2c3nc(c(-c4c(F)cc(S(=O)(=O)[O-])cc4F)c4ccc([nH]4)c(-c4c(F)cc(S(=O)(=O)[O-])cc4F)c4nc(c(-c5c(F)cc(S(=O)(=O)[O-])cc5F)c5ccc2[nH]5)C=C4)C=C3)cc1
REMARK SMILES IDX 11 1 12 2 13 3 10 5 9 6 6 8 7 9 8 10 5 11 4 12 3 13 2 14
REMARK SMILES IDX 1 15 14 16 15 17 16 18 17 19 18 20 19 22 20 23 21 24 85 25
REMARK SMILES IDX 22 26 84 27 23 28 24 29 25 30 78 31 26 32 83 33 77 34 79 35
REMARK SMILES IDX 27 36 82 37 76 38 75 39 28 41 62 42 41 43 61 44 42 45 45 46
REMARK SMILES IDX 60 47 80 48 43 49 44 50 59 52 81 53 46 54 29 55 30 56 39 57
REMARK SMILES IDX 31 58 32 59 38 60 40 61 33 62 34 63 35 64 36 65 37 66 63 67
REMARK SMILES IDX 64 68 73 69 65 70 66 71 72 72 74 73 67 74 68 75 69 76 70 77
REMARK SMILES IDX 71 78 47 79 48 80 57 81 49 82 50 83 56 84 58 85 51 86 52 87
REMARK SMILES IDX 53 88 54 89 55 90
REMARK H PARENT 13 4 9 7 17 21 79 40 45 51
REMARK Flexibility Score: inf
ROOT
ATOM      1  C   UNL A   1      37.985  34.295  31.504  1.00  0.00     0.235 C 
ATOM      2  O   UNL A   1      38.723  34.964  30.763  1.00  0.00    -0.274 OA
ATOM      3  N   UNL A   1      36.677  34.318  31.156  1.00  0.00    -0.355 N 
ATOM      4  H   UNL A   1      36.469  34.857  30.358  1.00  0.00     0.163 HD
ENDROOT
BRANCH   1   5
ATOM      5  C   UNL A   1      38.635  33.417  32.545  1.00  0.00     0.198 C 
BRANCH   5   6
ATOM      6  N   UNL A   1      38.317  32.295  33.439  1.00  0.00    -0.206 NA
ATOM      7  H   UNL A   1      37.300  32.215  33.403  1.00  0.00     0.141 HD
BRANCH   6   8
ATOM      8  S   UNL A   1      38.690  32.129  35.040  1.00  0.00     0.214 S 
ATOM      9  O   UNL A   1      37.632  31.409  35.703  1.00  0.00    -0.212 OA
ATOM     10  O   UNL A   1      39.018  33.471  35.457  1.00  0.00    -0.212 OA
BRANCH   8  11
ATOM     11  C   UNL A   1      40.226  31.194  35.083  1.00  0.00     0.182 C 
BRANCH  11  12
ATOM     12  C   UNL A   1      40.813  30.575  33.821  1.00  0.00     0.177 C 
BRANCH  12  13
ATOM     13  O   UNL A   1      39.908  29.802  33.035  1.00  0.00    -0.381 OA
BRANCH  13  14
ATOM     14  C   UNL A   1      40.170  28.413  32.868  1.00  0.00     0.156 C 
ATOM     15  C   UNL A   1      41.640  28.028  32.832  1.00  0.00     0.035 C 
ENDBRANCH  13  14
ENDBRANCH  12  13
ENDBRANCH  11  12
ENDBRANCH   8  11
ENDBRANCH   6   8
ENDBRANCH   5   6
ENDBRANCH   1   5
BRANCH   3  16
ATOM     16  C   UNL A   1      35.549  33.678  31.765  1.00  0.00     0.117 C 
BRANCH  16  17
ATOM     17  C   UNL A   1      34.490  33.262  30.767  1.00  0.00     0.042 C 
BRANCH  17  18
ATOM     18  C   UNL A   1      35.086  32.664  29.517  1.00  0.00     0.118 C 
BRANCH  18  19
ATOM     19  N   UNL A   1      34.210  31.679  28.893  1.00  0.00    -0.352 N 
ATOM     20  C   UNL A   1      34.534  30.470  28.317  1.00  0.00     0.251 C 
ATOM     21  H   UNL A   1      33.253  31.912  28.881  1.00  0.00     0.163 HD
ATOM     22  O   UNL A   1      33.688  29.854  27.676  1.00  0.00    -0.269 OA
BRANCH  20  23
ATOM     23  C   UNL A   1      35.913  29.944  28.444  1.00  0.00     0.039 A 
ATOM     24  C   UNL A   1      36.790  30.036  27.362  1.00  0.00     0.014 A 
ATOM     25  C   UNL A   1      36.357  29.412  29.655  1.00  0.00     0.014 A 
ATOM     26  C   UNL A   1      38.130  29.669  27.530  1.00  0.00     0.010 A 
ATOM     27  C   UNL A   1      37.714  29.211  29.864  1.00  0.00     0.010 A 
ATOM     28  C   UNL A   1      38.614  29.299  28.796  1.00  0.00    -0.014 A 
BRANCH  28  29
ATOM     29  C   UNL A   1      40.041  28.945  29.024  1.00  0.00     0.031 A 
ATOM     30  C   UNL A   1      40.979  29.977  29.604  1.00  0.00     0.074 A 
ATOM     31  C   UNL A   1      40.506  27.734  28.656  1.00  0.00     0.049 A 
ATOM     32  N   UNL A   1      42.267  29.898  29.811  1.00  0.00    -0.248 NA
ATOM     33  C   UNL A   1      40.401  31.286  29.959  1.00  0.00     0.031 C 
ATOM     34  C   UNL A   1      39.716  26.678  28.018  1.00  0.00     0.029 A 
ATOM     35  N   UNL A   1      41.759  27.186  28.763  1.00  0.00    -0.354 N 
ATOM     36  C   UNL A   1      42.649  31.146  30.295  1.00  0.00     0.074 A 
ATOM     37  C   UNL A   1      41.477  31.989  30.268  1.00  0.00     0.031 C 
ATOM     38  C   UNL A   1      40.492  25.598  27.830  1.00  0.00     0.029 A 
ATOM     39  C   UNL A   1      41.844  25.897  28.290  1.00  0.00     0.049 A 
ATOM     40  H   UNL A   1      42.528  27.671  29.142  1.00  0.00     0.167 HD
ATOM     41  C   UNL A   1      43.855  31.544  30.763  1.00  0.00     0.037 A 
ATOM     42  C   UNL A   1      42.893  25.054  28.230  1.00  0.00     0.037 A 
ATOM     43  C   UNL A   1      45.006  30.686  30.825  1.00  0.00     0.049 A 
ATOM     44  C   UNL A   1      44.224  25.515  28.764  1.00  0.00     0.074 A 
ATOM     45  C   UNL A   1      46.260  30.965  31.336  1.00  0.00     0.029 A 
ATOM     46  N   UNL A   1      45.041  29.377  30.366  1.00  0.00    -0.354 N 
ATOM     47  N   UNL A   1      44.547  26.675  29.287  1.00  0.00    -0.248 NA
ATOM     48  C   UNL A   1      45.331  24.551  28.710  1.00  0.00     0.031 C 
ATOM     49  C   UNL A   1      47.069  29.841  31.139  1.00  0.00     0.029 A 
ATOM     50  C   UNL A   1      46.303  28.841  30.562  1.00  0.00     0.049 A 
ATOM     51  H   UNL A   1      44.282  28.900  29.960  1.00  0.00     0.167 HD
ATOM     52  C   UNL A   1      45.885  26.569  29.650  1.00  0.00     0.074 A 
ATOM     53  C   UNL A   1      46.305  25.227  29.304  1.00  0.00     0.031 C 
ATOM     54  C   UNL A   1      46.695  27.497  30.219  1.00  0.00     0.037 A 
BRANCH  41  55
ATOM     55  C   UNL A   1      43.979  32.960  31.259  1.00  0.00     0.058 A 
ATOM     56  C   UNL A   1      43.847  33.281  32.621  1.00  0.00     0.135 A 
ATOM     57  C   UNL A   1      44.256  34.010  30.367  1.00  0.00     0.135 A 
ATOM     58  F   UNL A   1      43.562  32.323  33.517  1.00  0.00    -0.206 F 
ATOM     59  C   UNL A   1      43.950  34.591  33.075  1.00  0.00     0.059 A 
ATOM     60  C   UNL A   1      44.398  35.324  30.805  1.00  0.00     0.059 A 
ATOM     61  F   UNL A   1      44.390  33.765  29.054  1.00  0.00    -0.206 F 
ATOM     62  C   UNL A   1      44.228  35.606  32.160  1.00  0.00     0.060 A 
BRANCH  62  63
ATOM     63  S   UNL A   1      44.370  37.298  32.771  1.00  0.00     0.124 S 
ATOM     64  O   UNL A   1      43.908  38.064  31.617  1.00  0.00    -0.237 OA
ATOM     65  O   UNL A   1      43.474  37.288  33.924  1.00  0.00    -0.237 OA
ATOM     66  O   UNL A   1      45.789  37.431  33.083  1.00  0.00    -0.744 OA
ENDBRANCH  62  63
ENDBRANCH  41  55
BRANCH  42  67
ATOM     67  C   UNL A   1      42.724  23.685  27.671  1.00  0.00     0.058 A 
ATOM     68  C   UNL A   1      42.467  22.587  28.506  1.00  0.00     0.135 A 
ATOM     69  C   UNL A   1      42.810  23.443  26.290  1.00  0.00     0.135 A 
ATOM     70  F   UNL A   1      42.379  22.761  29.835  1.00  0.00    -0.206 F 
ATOM     71  C   UNL A   1      42.324  21.299  28.000  1.00  0.00     0.059 A 
ATOM     72  C   UNL A   1      42.641  22.169  25.756  1.00  0.00     0.059 A 
ATOM     73  F   UNL A   1      43.037  24.459  25.444  1.00  0.00    -0.206 F 
ATOM     74  C   UNL A   1      42.412  21.100  26.621  1.00  0.00     0.060 A 
BRANCH  74  75
ATOM     75  S   UNL A   1      42.190  19.430  25.971  1.00  0.00     0.124 S 
ATOM     76  O   UNL A   1      42.685  18.616  27.076  1.00  0.00    -0.237 OA
ATOM     77  O   UNL A   1      40.749  19.382  25.739  1.00  0.00    -0.237 OA
ATOM     78  O   UNL A   1      43.011  19.425  24.766  1.00  0.00    -0.744 OA
ENDBRANCH  74  75
ENDBRANCH  42  67
BRANCH  54  79
ATOM     79  C   UNL A   1      48.104  27.084  30.541  1.00  0.00     0.058 A 
ATOM     80  C   UNL A   1      49.164  27.303  29.648  1.00  0.00     0.135 A 
ATOM     81  C   UNL A   1      48.405  26.509  31.788  1.00  0.00     0.135 A 
ATOM     82  F   UNL A   1      48.930  27.845  28.441  1.00  0.00    -0.206 F 
ATOM     83  C   UNL A   1      50.468  26.941  29.967  1.00  0.00     0.059 A 
ATOM     84  C   UNL A   1      49.707  26.172  32.141  1.00  0.00     0.059 A 
ATOM     85  F   UNL A   1      47.431  26.290  32.685  1.00  0.00    -0.206 F 
ATOM     86  C   UNL A   1      50.730  26.379  31.217  1.00  0.00     0.060 A 
BRANCH  86  87
ATOM     87  S   UNL A   1      52.432  25.944  31.630  1.00  0.00     0.124 S 
ATOM     88  O   UNL A   1      53.092  26.076  30.335  1.00  0.00    -0.237 OA
ATOM     89  O   UNL A   1      52.779  26.956  32.624  1.00  0.00    -0.237 OA
ATOM     90  O   UNL A   1      52.321  24.581  32.142  1.00  0.00    -0.744 OA
ENDBRANCH  86  87
ENDBRANCH  54  79
ENDBRANCH  28  29
ENDBRANCH  20  23
ENDBRANCH  18  19
ENDBRANCH  17  18
ENDBRANCH  16  17
ENDBRANCH   3  16
TORSDOF 19
ENDMDL
