MODEL 1
REMARK VINA RESULT:     -10.5      0.000      0.000
REMARK SMILES COc1ccc(S(=O)(=O)N[C@@H](CO)C(=O)NCCCNC(=O)c2ccc(-c3c4nc(c(-c5c(F)cc(S(=O)(=O)[O-])cc5F)c5ccc([nH]5)c(-c5c(F)cc(S(=O)(=O)[O-])cc5F)c5nc(c(-c6c(F)cc(S(=O)(=O)[O-])cc6F)c6ccc3[nH]6)C=C5)C=C4)cc2)cc1C
REMARK SMILES IDX 17 1 16 2 14 3 15 4 11 6 10 7 7 9 8 10 9 11 6 12 3 13 4 14
REMARK SMILES IDX 90 15 5 16 89 17 91 18 2 19 1 20 12 21 13 22 18 24 19 25
REMARK SMILES IDX 20 26 21 27 22 29 23 30 24 31 88 32 25 33 87 34 26 35 27 36
REMARK SMILES IDX 28 37 81 38 29 39 86 40 80 41 82 42 30 43 85 44 79 45 78 46
REMARK SMILES IDX 31 48 65 49 44 50 64 51 45 52 48 53 63 54 83 55 46 56 47 57
REMARK SMILES IDX 62 59 84 60 49 61 32 62 33 63 42 64 34 65 35 66 41 67 43 68
REMARK SMILES IDX 36 69 37 70 38 71 39 72 40 73 66 74 67 75 76 76 68 77 69 78
REMARK SMILES IDX 75 79 77 80 70 81 71 82 72 83 73 84 74 85 50 86 51 87 60 88
REMARK SMILES IDX 52 89 53 90 59 91 61 92 54 93 55 94 56 95 57 96 58 97
REMARK H PARENT 16 5 10 8 13 23 20 28 82 47 48 58
REMARK Flexibility Score: inf
ROOT
ATOM      1  C   UNL A   1      37.691  23.647  26.171  1.00  0.00     0.117 C 
ENDROOT
BRANCH   1   2
ATOM      2  N   UNL A   1      37.631  23.449  24.728  1.00  0.00    -0.355 N 
ATOM      3  C   UNL A   1      36.577  23.146  23.926  1.00  0.00     0.240 C 
ATOM      4  O   UNL A   1      36.780  23.011  22.716  1.00  0.00    -0.273 OA
ATOM      5  H   UNL A   1      38.491  23.551  24.259  1.00  0.00     0.163 HD
BRANCH   3   6
ATOM      6  C   UNL A   1      35.180  22.918  24.501  1.00  0.00     0.184 C 
BRANCH   6   7
ATOM      7  N   UNL A   1      34.206  23.661  23.673  1.00  0.00    -0.196 NA
ATOM      8  H   UNL A   1      34.598  24.596  23.560  1.00  0.00     0.142 HD
BRANCH   7   9
ATOM      9  S   UNL A   1      32.616  23.892  24.076  1.00  0.00     0.241 S 
ATOM     10  O   UNL A   1      32.567  24.003  25.517  1.00  0.00    -0.207 OA
ATOM     11  O   UNL A   1      31.860  22.890  23.358  1.00  0.00    -0.207 OA
BRANCH   9  12
ATOM     12  C   UNL A   1      32.191  25.466  23.386  1.00  0.00     0.083 A 
ATOM     13  C   UNL A   1      31.493  28.061  22.659  1.00  0.00     0.121 A 
ATOM     14  C   UNL A   1      30.502  27.105  22.918  1.00  0.00     0.048 A 
ATOM     15  C   UNL A   1      32.851  27.723  22.770  1.00  0.00    -0.008 A 
ATOM     16  C   UNL A   1      30.845  25.810  23.302  1.00  0.00     0.025 A 
ATOM     17  C   UNL A   1      33.186  26.391  23.060  1.00  0.00     0.029 A 
ATOM     18  C   UNL A   1      33.969  28.722  22.670  1.00  0.00     0.048 C 
BRANCH  13  19
ATOM     19  O   UNL A   1      31.016  29.323  22.421  1.00  0.00    -0.496 OA
ATOM     20  C   UNL A   1      29.598  29.413  22.340  1.00  0.00     0.278 C 
ENDBRANCH  13  19
ENDBRANCH   9  12
ENDBRANCH   7   9
ENDBRANCH   6   7
BRANCH   6  21
ATOM     21  C   UNL A   1      34.903  21.434  24.761  1.00  0.00     0.186 C 
BRANCH  21  22
ATOM     22  O   UNL A   1      35.749  20.816  25.721  1.00  0.00    -0.394 OA
ATOM     23  H   UNL A   1      36.452  21.434  25.977  1.00  0.00     0.210 HD
ENDBRANCH  21  22
ENDBRANCH   6  21
ENDBRANCH   3   6
ENDBRANCH   1   2
BRANCH   1  24
ATOM     24  C   UNL A   1      39.123  23.691  26.709  1.00  0.00     0.042 C 
BRANCH  24  25
ATOM     25  C   UNL A   1      39.851  24.981  26.359  1.00  0.00     0.118 C 
BRANCH  25  26
ATOM     26  N   UNL A   1      40.104  25.744  27.560  1.00  0.00    -0.352 N 
ATOM     27  C   UNL A   1      41.135  26.656  27.699  1.00  0.00     0.251 C 
ATOM     28  H   UNL A   1      39.505  25.605  28.329  1.00  0.00     0.163 HD
ATOM     29  O   UNL A   1      41.952  26.405  28.575  1.00  0.00    -0.269 OA
BRANCH  27  30
ATOM     30  C   UNL A   1      41.030  28.008  27.012  1.00  0.00     0.039 A 
ATOM     31  C   UNL A   1      42.120  28.791  27.408  1.00  0.00     0.014 A 
ATOM     32  C   UNL A   1      39.771  28.599  27.073  1.00  0.00     0.014 A 
ATOM     33  C   UNL A   1      41.926  29.678  28.455  1.00  0.00     0.010 A 
ATOM     34  C   UNL A   1      39.536  29.422  28.152  1.00  0.00     0.010 A 
ATOM     35  C   UNL A   1      40.630  29.824  28.928  1.00  0.00    -0.014 A 
BRANCH  35  36
ATOM     36  C   UNL A   1      40.327  30.122  30.315  1.00  0.00     0.031 A 
ATOM     37  C   UNL A   1      39.645  31.368  30.650  1.00  0.00     0.074 A 
ATOM     38  C   UNL A   1      40.505  29.131  31.219  1.00  0.00     0.049 A 
ATOM     39  N   UNL A   1      39.382  31.725  31.853  1.00  0.00    -0.248 NA
ATOM     40  C   UNL A   1      39.246  32.352  29.647  1.00  0.00     0.031 C 
ATOM     41  C   UNL A   1      39.929  28.965  32.551  1.00  0.00     0.029 A 
ATOM     42  N   UNL A   1      41.496  28.145  31.157  1.00  0.00    -0.354 N 
ATOM     43  C   UNL A   1      38.503  32.771  31.771  1.00  0.00     0.074 A 
ATOM     44  C   UNL A   1      38.583  33.228  30.408  1.00  0.00     0.031 C 
ATOM     45  C   UNL A   1      40.716  28.137  33.264  1.00  0.00     0.029 A 
ATOM     46  C   UNL A   1      41.923  27.932  32.480  1.00  0.00     0.049 A 
ATOM     47  H   UNL A   1      41.827  27.690  30.349  1.00  0.00     0.167 HD
ATOM     48  C   UNL A   1      37.694  32.993  32.840  1.00  0.00     0.037 A 
ATOM     49  C   UNL A   1      43.164  28.379  32.847  1.00  0.00     0.037 A 
ATOM     50  C   UNL A   1      38.233  32.330  34.035  1.00  0.00     0.049 A 
ATOM     51  C   UNL A   1      43.131  29.495  33.902  1.00  0.00     0.074 A 
ATOM     52  C   UNL A   1      37.860  31.288  34.863  1.00  0.00     0.029 A 
ATOM     53  N   UNL A   1      39.558  32.600  34.357  1.00  0.00    -0.354 N 
ATOM     54  N   UNL A   1      42.050  30.100  34.331  1.00  0.00    -0.248 NA
ATOM     55  C   UNL A   1      44.333  30.043  34.529  1.00  0.00     0.031 C 
ATOM     56  C   UNL A   1      39.006  30.908  35.643  1.00  0.00     0.029 A 
ATOM     57  C   UNL A   1      40.055  31.754  35.325  1.00  0.00     0.049 A 
ATOM     58  H   UNL A   1      40.086  33.318  33.939  1.00  0.00     0.167 HD
ATOM     59  C   UNL A   1      42.376  31.113  35.206  1.00  0.00     0.074 A 
ATOM     60  C   UNL A   1      43.826  31.033  35.288  1.00  0.00     0.031 C 
ATOM     61  C   UNL A   1      41.438  31.958  35.754  1.00  0.00     0.037 A 
BRANCH  48  62
ATOM     62  C   UNL A   1      36.351  33.680  32.741  1.00  0.00     0.058 A 
ATOM     63  C   UNL A   1      35.470  33.390  31.681  1.00  0.00     0.135 A 
ATOM     64  C   UNL A   1      35.928  34.737  33.585  1.00  0.00     0.135 A 
ATOM     65  F   UNL A   1      35.765  32.438  30.784  1.00  0.00    -0.206 F 
ATOM     66  C   UNL A   1      34.272  34.090  31.476  1.00  0.00     0.059 A 
ATOM     67  C   UNL A   1      34.716  35.408  33.435  1.00  0.00     0.059 A 
ATOM     68  F   UNL A   1      36.702  35.236  34.556  1.00  0.00    -0.206 F 
ATOM     69  C   UNL A   1      33.903  35.098  32.361  1.00  0.00     0.060 A 
BRANCH  69  70
ATOM     70  S   UNL A   1      32.391  36.037  32.079  1.00  0.00     0.124 S 
ATOM     71  O   UNL A   1      31.365  35.076  32.468  1.00  0.00    -0.237 OA
ATOM     72  O   UNL A   1      32.564  37.183  32.964  1.00  0.00    -0.237 OA
ATOM     73  O   UNL A   1      32.443  36.346  30.651  1.00  0.00    -0.744 OA
ENDBRANCH  69  70
ENDBRANCH  48  62
BRANCH  49  74
ATOM     74  C   UNL A   1      44.178  28.226  31.738  1.00  0.00     0.058 A 
ATOM     75  C   UNL A   1      44.577  26.927  31.333  1.00  0.00     0.135 A 
ATOM     76  C   UNL A   1      44.491  29.269  30.858  1.00  0.00     0.135 A 
ATOM     77  F   UNL A   1      44.314  25.874  32.126  1.00  0.00    -0.206 F 
ATOM     78  C   UNL A   1      45.161  26.666  30.085  1.00  0.00     0.059 A 
ATOM     79  C   UNL A   1      45.096  29.033  29.614  1.00  0.00     0.059 A 
ATOM     80  F   UNL A   1      44.130  30.527  31.147  1.00  0.00    -0.206 F 
ATOM     81  C   UNL A   1      45.396  27.727  29.216  1.00  0.00     0.060 A 
BRANCH  81  82
ATOM     82  S   UNL A   1      46.070  27.401  27.556  1.00  0.00     0.124 S 
ATOM     83  O   UNL A   1      47.501  27.304  27.824  1.00  0.00    -0.237 OA
ATOM     84  O   UNL A   1      45.424  26.162  27.149  1.00  0.00    -0.237 OA
ATOM     85  O   UNL A   1      45.653  28.576  26.795  1.00  0.00    -0.744 OA
ENDBRANCH  81  82
ENDBRANCH  49  74
BRANCH  61  86
ATOM     86  C   UNL A   1      41.737  33.150  36.663  1.00  0.00     0.058 A 
ATOM     87  C   UNL A   1      41.814  34.483  36.227  1.00  0.00     0.135 A 
ATOM     88  C   UNL A   1      42.029  32.969  38.044  1.00  0.00     0.135 A 
ATOM     89  F   UNL A   1      41.738  34.788  34.924  1.00  0.00    -0.206 F 
ATOM     90  C   UNL A   1      42.020  35.555  37.109  1.00  0.00     0.059 A 
ATOM     91  C   UNL A   1      42.275  34.013  38.930  1.00  0.00     0.059 A 
ATOM     92  F   UNL A   1      42.085  31.760  38.616  1.00  0.00    -0.206 F 
ATOM     93  C   UNL A   1      42.229  35.309  38.464  1.00  0.00     0.060 A 
BRANCH  93  94
ATOM     94  S   UNL A   1      42.470  36.682  39.604  1.00  0.00     0.124 S 
ATOM     95  O   UNL A   1      42.247  36.049  40.901  1.00  0.00    -0.237 OA
ATOM     96  O   UNL A   1      43.847  37.068  39.314  1.00  0.00    -0.237 OA
ATOM     97  O   UNL A   1      41.452  37.649  39.202  1.00  0.00    -0.744 OA
ENDBRANCH  93  94
ENDBRANCH  61  86
ENDBRANCH  35  36
ENDBRANCH  27  30
ENDBRANCH  25  26
ENDBRANCH  24  25
ENDBRANCH   1  24
TORSDOF 19
ENDMDL
MODEL 2
REMARK VINA RESULT:     -10.4      1.372      2.104
REMARK SMILES COc1ccc(S(=O)(=O)N[C@@H](CO)C(=O)NCCCNC(=O)c2ccc(-c3c4nc(c(-c5c(F)cc(S(=O)(=O)[O-])cc5F)c5ccc([nH]5)c(-c5c(F)cc(S(=O)(=O)[O-])cc5F)c5nc(c(-c6c(F)cc(S(=O)(=O)[O-])cc6F)c6ccc3[nH]6)C=C5)C=C4)cc2)cc1C
REMARK SMILES IDX 17 1 16 2 14 3 15 4 11 6 10 7 7 9 8 10 9 11 6 12 3 13 4 14
REMARK SMILES IDX 90 15 5 16 89 17 91 18 2 19 1 20 12 21 13 22 18 24 19 25
REMARK SMILES IDX 20 26 21 27 22 29 23 30 24 31 88 32 25 33 87 34 26 35 27 36
REMARK SMILES IDX 28 37 81 38 29 39 86 40 80 41 82 42 30 43 85 44 79 45 78 46
REMARK SMILES IDX 31 48 65 49 44 50 64 51 45 52 48 53 63 54 83 55 46 56 47 57
REMARK SMILES IDX 62 59 84 60 49 61 32 62 33 63 42 64 34 65 35 66 41 67 43 68
REMARK SMILES IDX 36 69 37 70 38 71 39 72 40 73 66 74 67 75 76 76 68 77 69 78
REMARK SMILES IDX 75 79 77 80 70 81 71 82 72 83 73 84 74 85 50 86 51 87 60 88
REMARK SMILES IDX 52 89 53 90 59 91 61 92 54 93 55 94 56 95 57 96 58 97
REMARK H PARENT 16 5 10 8 13 23 20 28 82 47 48 58
REMARK Flexibility Score: inf
ROOT
ATOM      1  C   UNL A   1      38.201  23.389  26.623  1.00  0.00     0.117 C 
ENDROOT
BRANCH   1   2
ATOM      2  N   UNL A   1      38.524  22.078  26.075  1.00  0.00    -0.355 N 
ATOM      3  C   UNL A   1      37.757  21.208  25.367  1.00  0.00     0.240 C 
ATOM      4  O   UNL A   1      38.257  20.134  25.019  1.00  0.00    -0.273 OA
ATOM      5  H   UNL A   1      39.446  21.774  26.244  1.00  0.00     0.163 HD
BRANCH   3   6
ATOM      6  C   UNL A   1      36.294  21.513  25.052  1.00  0.00     0.184 C 
BRANCH   6   7
ATOM      7  N   UNL A   1      35.671  22.109  26.254  1.00  0.00    -0.196 NA
ATOM      8  H   UNL A   1      36.093  21.628  27.048  1.00  0.00     0.142 HD
BRANCH   7   9
ATOM      9  S   UNL A   1      34.043  22.124  26.556  1.00  0.00     0.241 S 
ATOM     10  O   UNL A   1      33.880  21.824  27.961  1.00  0.00    -0.207 OA
ATOM     11  O   UNL A   1      33.426  21.322  25.523  1.00  0.00    -0.207 OA
BRANCH   9  12
ATOM     12  C   UNL A   1      33.542  23.801  26.288  1.00  0.00     0.083 A 
ATOM     13  C   UNL A   1      32.694  26.336  25.508  1.00  0.00     0.121 A 
ATOM     14  C   UNL A   1      34.039  25.963  25.374  1.00  0.00     0.048 A 
ATOM     15  C   UNL A   1      31.757  25.431  26.031  1.00  0.00    -0.008 A 
ATOM     16  C   UNL A   1      34.464  24.690  25.744  1.00  0.00     0.025 A 
ATOM     17  C   UNL A   1      32.215  24.187  26.492  1.00  0.00     0.029 A 
ATOM     18  C   UNL A   1      30.277  25.688  26.057  1.00  0.00     0.048 C 
BRANCH  13  19
ATOM     19  O   UNL A   1      32.390  27.564  24.985  1.00  0.00    -0.496 OA
ATOM     20  C   UNL A   1      33.484  28.474  24.939  1.00  0.00     0.278 C 
ENDBRANCH  13  19
ENDBRANCH   9  12
ENDBRANCH   7   9
ENDBRANCH   6   7
BRANCH   6  21
ATOM     21  C   UNL A   1      36.137  22.262  23.726  1.00  0.00     0.186 C 
BRANCH  21  22
ATOM     22  O   UNL A   1      37.032  23.347  23.530  1.00  0.00    -0.394 OA
ATOM     23  H   UNL A   1      36.526  24.150  23.328  1.00  0.00     0.210 HD
ENDBRANCH  21  22
ENDBRANCH   6  21
ENDBRANCH   3   6
ENDBRANCH   1   2
BRANCH   1  24
ATOM     24  C   UNL A   1      39.151  24.489  26.142  1.00  0.00     0.042 C 
BRANCH  24  25
ATOM     25  C   UNL A   1      40.506  24.450  26.833  1.00  0.00     0.118 C 
BRANCH  25  26
ATOM     26  N   UNL A   1      40.502  25.336  27.974  1.00  0.00    -0.352 N 
ATOM     27  C   UNL A   1      41.380  26.392  28.142  1.00  0.00     0.251 C 
ATOM     28  H   UNL A   1      39.832  25.177  28.678  1.00  0.00     0.163 HD
ATOM     29  O   UNL A   1      42.103  26.330  29.128  1.00  0.00    -0.269 OA
BRANCH  27  30
ATOM     30  C   UNL A   1      41.189  27.655  27.318  1.00  0.00     0.039 A 
ATOM     31  C   UNL A   1      42.213  28.553  27.644  1.00  0.00     0.014 A 
ATOM     32  C   UNL A   1      39.891  28.155  27.304  1.00  0.00     0.014 A 
ATOM     33  C   UNL A   1      41.936  29.525  28.592  1.00  0.00     0.010 A 
ATOM     34  C   UNL A   1      39.577  29.064  28.291  1.00  0.00     0.010 A 
ATOM     35  C   UNL A   1      40.625  29.622  29.033  1.00  0.00    -0.014 A 
BRANCH  35  36
ATOM     36  C   UNL A   1      40.276  30.037  30.379  1.00  0.00     0.031 A 
ATOM     37  C   UNL A   1      39.658  31.342  30.590  1.00  0.00     0.074 A 
ATOM     38  C   UNL A   1      40.348  29.105  31.357  1.00  0.00     0.049 A 
ATOM     39  N   UNL A   1      39.361  31.800  31.751  1.00  0.00    -0.248 NA
ATOM     40  C   UNL A   1      39.369  32.273  29.503  1.00  0.00     0.031 C 
ATOM     41  C   UNL A   1      39.701  29.070  32.666  1.00  0.00     0.029 A 
ATOM     42  N   UNL A   1      41.278  28.061  31.415  1.00  0.00    -0.354 N 
ATOM     43  C   UNL A   1      38.554  32.887  31.552  1.00  0.00     0.074 A 
ATOM     44  C   UNL A   1      38.726  33.239  30.166  1.00  0.00     0.031 C 
ATOM     45  C   UNL A   1      40.400  28.251  33.474  1.00  0.00     0.029 A 
ATOM     46  C   UNL A   1      41.628  27.919  32.769  1.00  0.00     0.049 A 
ATOM     47  H   UNL A   1      41.618  27.530  30.658  1.00  0.00     0.167 HD
ATOM     48  C   UNL A   1      37.711  33.233  32.559  1.00  0.00     0.037 A 
ATOM     49  C   UNL A   1      42.876  28.318  33.167  1.00  0.00     0.037 A 
ATOM     50  C   UNL A   1      38.150  32.628  33.823  1.00  0.00     0.049 A 
ATOM     51  C   UNL A   1      42.863  29.507  34.140  1.00  0.00     0.074 A 
ATOM     52  C   UNL A   1      37.674  31.672  34.701  1.00  0.00     0.029 A 
ATOM     53  N   UNL A   1      39.473  32.842  34.194  1.00  0.00    -0.354 N 
ATOM     54  N   UNL A   1      41.803  30.204  34.470  1.00  0.00    -0.248 NA
ATOM     55  C   UNL A   1      44.065  30.027  34.788  1.00  0.00     0.031 C 
ATOM     56  C   UNL A   1      38.756  31.282  35.564  1.00  0.00     0.029 A 
ATOM     57  C   UNL A   1      39.869  32.040  35.242  1.00  0.00     0.049 A 
ATOM     58  H   UNL A   1      40.064  33.495  33.755  1.00  0.00     0.167 HD
ATOM     59  C   UNL A   1      42.149  31.257  35.288  1.00  0.00     0.074 A 
ATOM     60  C   UNL A   1      43.586  31.097  35.450  1.00  0.00     0.031 C 
ATOM     61  C   UNL A   1      41.241  32.193  35.727  1.00  0.00     0.037 A 
BRANCH  48  62
ATOM     62  C   UNL A   1      36.419  33.990  32.343  1.00  0.00     0.058 A 
ATOM     63  C   UNL A   1      35.993  34.965  33.266  1.00  0.00     0.135 A 
ATOM     64  C   UNL A   1      35.486  33.704  31.316  1.00  0.00     0.135 A 
ATOM     65  F   UNL A   1      36.764  35.305  34.310  1.00  0.00    -0.206 F 
ATOM     66  C   UNL A   1      34.748  35.601  33.177  1.00  0.00     0.059 A 
ATOM     67  C   UNL A   1      34.267  34.364  31.175  1.00  0.00     0.059 A 
ATOM     68  F   UNL A   1      35.665  32.711  30.437  1.00  0.00    -0.206 F 
ATOM     69  C   UNL A   1      33.890  35.294  32.125  1.00  0.00     0.060 A 
BRANCH  69  70
ATOM     70  S   UNL A   1      32.266  36.069  32.029  1.00  0.00     0.124 S 
ATOM     71  O   UNL A   1      32.423  37.206  32.930  1.00  0.00    -0.237 OA
ATOM     72  O   UNL A   1      32.154  36.387  30.611  1.00  0.00    -0.237 OA
ATOM     73  O   UNL A   1      31.361  35.024  32.502  1.00  0.00    -0.744 OA
ENDBRANCH  69  70
ENDBRANCH  48  62
BRANCH  49  74
ATOM     74  C   UNL A   1      43.929  28.026  32.126  1.00  0.00     0.058 A 
ATOM     75  C   UNL A   1      44.343  26.687  31.908  1.00  0.00     0.135 A 
ATOM     76  C   UNL A   1      44.275  28.947  31.129  1.00  0.00     0.135 A 
ATOM     77  F   UNL A   1      44.050  25.745  32.823  1.00  0.00    -0.206 F 
ATOM     78  C   UNL A   1      44.971  26.267  30.728  1.00  0.00     0.059 A 
ATOM     79  C   UNL A   1      44.925  28.552  29.949  1.00  0.00     0.059 A 
ATOM     80  F   UNL A   1      43.904  30.230  31.238  1.00  0.00    -0.206 F 
ATOM     81  C   UNL A   1      45.238  27.207  29.736  1.00  0.00     0.060 A 
BRANCH  81  82
ATOM     82  S   UNL A   1      45.973  26.670  28.159  1.00  0.00     0.124 S 
ATOM     83  O   UNL A   1      45.912  27.892  27.365  1.00  0.00    -0.237 OA
ATOM     84  O   UNL A   1      47.311  26.227  28.525  1.00  0.00    -0.237 OA
ATOM     85  O   UNL A   1      45.080  25.597  27.728  1.00  0.00    -0.744 OA
ENDBRANCH  81  82
ENDBRANCH  49  74
BRANCH  61  86
ATOM     86  C   UNL A   1      41.570  33.428  36.566  1.00  0.00     0.058 A 
ATOM     87  C   UNL A   1      42.409  34.473  36.146  1.00  0.00     0.135 A 
ATOM     88  C   UNL A   1      41.081  33.568  37.895  1.00  0.00     0.135 A 
ATOM     89  F   UNL A   1      43.084  34.394  34.991  1.00  0.00    -0.206 F 
ATOM     90  C   UNL A   1      42.628  35.623  36.921  1.00  0.00     0.059 A 
ATOM     91  C   UNL A   1      41.315  34.681  38.696  1.00  0.00     0.059 A 
ATOM     92  F   UNL A   1      40.336  32.630  38.491  1.00  0.00    -0.206 F 
ATOM     93  C   UNL A   1      42.057  35.725  38.188  1.00  0.00     0.060 A 
BRANCH  93  94
ATOM     94  S   UNL A   1      42.314  37.208  39.176  1.00  0.00     0.124 S 
ATOM     95  O   UNL A   1      40.966  37.764  39.256  1.00  0.00    -0.237 OA
ATOM     96  O   UNL A   1      42.844  36.649  40.415  1.00  0.00    -0.237 OA
ATOM     97  O   UNL A   1      43.262  37.990  38.387  1.00  0.00    -0.744 OA
ENDBRANCH  93  94
ENDBRANCH  61  86
ENDBRANCH  35  36
ENDBRANCH  27  30
ENDBRANCH  25  26
ENDBRANCH  24  25
ENDBRANCH   1  24
TORSDOF 19
ENDMDL
MODEL 3
REMARK VINA RESULT:     -10.3      4.606     11.055
REMARK SMILES COc1ccc(S(=O)(=O)N[C@@H](CO)C(=O)NCCCNC(=O)c2ccc(-c3c4nc(c(-c5c(F)cc(S(=O)(=O)[O-])cc5F)c5ccc([nH]5)c(-c5c(F)cc(S(=O)(=O)[O-])cc5F)c5nc(c(-c6c(F)cc(S(=O)(=O)[O-])cc6F)c6ccc3[nH]6)C=C5)C=C4)cc2)cc1C
REMARK SMILES IDX 17 1 16 2 14 3 15 4 11 6 10 7 7 9 8 10 9 11 6 12 3 13 4 14
REMARK SMILES IDX 90 15 5 16 89 17 91 18 2 19 1 20 12 21 13 22 18 24 19 25
REMARK SMILES IDX 20 26 21 27 22 29 23 30 24 31 88 32 25 33 87 34 26 35 27 36
REMARK SMILES IDX 28 37 81 38 29 39 86 40 80 41 82 42 30 43 85 44 79 45 78 46
REMARK SMILES IDX 31 48 65 49 44 50 64 51 45 52 48 53 63 54 83 55 46 56 47 57
REMARK SMILES IDX 62 59 84 60 49 61 32 62 33 63 42 64 34 65 35 66 41 67 43 68
REMARK SMILES IDX 36 69 37 70 38 71 39 72 40 73 66 74 67 75 76 76 68 77 69 78
REMARK SMILES IDX 75 79 77 80 70 81 71 82 72 83 73 84 74 85 50 86 51 87 60 88
REMARK SMILES IDX 52 89 53 90 59 91 61 92 54 93 55 94 56 95 57 96 58 97
REMARK H PARENT 16 5 10 8 13 23 20 28 82 47 48 58
REMARK Flexibility Score: inf
ROOT
ATOM      1  C   UNL A   1      34.028  30.344  27.287  1.00  0.00     0.117 C 
ENDROOT
BRANCH   1   2
ATOM      2  N   UNL A   1      32.976  29.417  27.687  1.00  0.00    -0.355 N 
ATOM      3  C   UNL A   1      32.247  28.542  26.945  1.00  0.00     0.240 C 
ATOM      4  O   UNL A   1      31.387  27.864  27.514  1.00  0.00    -0.273 OA
ATOM      5  H   UNL A   1      32.759  29.426  28.647  1.00  0.00     0.163 HD
BRANCH   3   6
ATOM      6  C   UNL A   1      32.435  28.433  25.432  1.00  0.00     0.184 C 
BRANCH   6   7
ATOM      7  N   UNL A   1      32.455  27.001  25.066  1.00  0.00    -0.196 NA
ATOM      8  H   UNL A   1      33.263  26.606  25.546  1.00  0.00     0.142 HD
BRANCH   7   9
ATOM      9  S   UNL A   1      32.537  26.432  23.513  1.00  0.00     0.241 S 
ATOM     10  O   UNL A   1      33.533  27.229  22.832  1.00  0.00    -0.207 OA
ATOM     11  O   UNL A   1      31.175  26.335  23.038  1.00  0.00    -0.207 OA
BRANCH   9  12
ATOM     12  C   UNL A   1      33.160  24.781  23.661  1.00  0.00     0.083 A 
ATOM     13  C   UNL A   1      33.887  22.142  24.170  1.00  0.00     0.121 A 
ATOM     14  C   UNL A   1      34.473  23.192  24.889  1.00  0.00     0.048 A 
ATOM     15  C   UNL A   1      32.919  22.409  23.188  1.00  0.00    -0.008 A 
ATOM     16  C   UNL A   1      34.099  24.513  24.652  1.00  0.00     0.025 A 
ATOM     17  C   UNL A   1      32.623  23.747  22.889  1.00  0.00     0.029 A 
ATOM     18  C   UNL A   1      32.126  21.341  22.490  1.00  0.00     0.048 C 
BRANCH  13  19
ATOM     19  O   UNL A   1      34.249  20.891  24.595  1.00  0.00    -0.496 OA
ATOM     20  C   UNL A   1      33.391  20.331  25.583  1.00  0.00     0.278 C 
ENDBRANCH  13  19
ENDBRANCH   9  12
ENDBRANCH   7   9
ENDBRANCH   6   7
BRANCH   6  21
ATOM     21  C   UNL A   1      31.474  29.348  24.668  1.00  0.00     0.186 C 
BRANCH  21  22
ATOM     22  O   UNL A   1      31.207  30.601  25.283  1.00  0.00    -0.394 OA
ATOM     23  H   UNL A   1      30.270  30.823  25.167  1.00  0.00     0.210 HD
ENDBRANCH  21  22
ENDBRANCH   6  21
ENDBRANCH   3   6
ENDBRANCH   1   2
BRANCH   1  24
ATOM     24  C   UNL A   1      35.429  29.734  27.381  1.00  0.00     0.042 C 
BRANCH  24  25
ATOM     25  C   UNL A   1      36.098  29.985  28.724  1.00  0.00     0.118 C 
BRANCH  25  26
ATOM     26  N   UNL A   1      37.535  29.925  28.576  1.00  0.00    -0.352 N 
ATOM     27  C   UNL A   1      38.425  29.881  29.635  1.00  0.00     0.251 C 
ATOM     28  H   UNL A   1      37.904  29.915  27.664  1.00  0.00     0.163 HD
ATOM     29  O   UNL A   1      39.214  30.814  29.704  1.00  0.00    -0.269 OA
BRANCH  27  30
ATOM     30  C   UNL A   1      38.577  28.590  30.425  1.00  0.00     0.039 A 
ATOM     31  C   UNL A   1      39.621  28.756  31.342  1.00  0.00     0.014 A 
ATOM     32  C   UNL A   1      38.588  27.431  29.656  1.00  0.00     0.014 A 
ATOM     33  C   UNL A   1      40.875  28.293  30.976  1.00  0.00     0.010 A 
ATOM     34  C   UNL A   1      39.822  27.002  29.218  1.00  0.00     0.010 A 
ATOM     35  C   UNL A   1      40.963  27.572  29.795  1.00  0.00    -0.014 A 
BRANCH  35  36
ATOM     36  C   UNL A   1      42.140  27.593  28.946  1.00  0.00     0.031 A 
ATOM     37  C   UNL A   1      42.892  26.362  28.731  1.00  0.00     0.074 A 
ATOM     38  C   UNL A   1      42.366  28.713  28.221  1.00  0.00     0.049 A 
ATOM     39  N   UNL A   1      43.966  26.306  28.032  1.00  0.00    -0.248 NA
ATOM     40  C   UNL A   1      42.523  25.085  29.338  1.00  0.00     0.031 C 
ATOM     41  C   UNL A   1      43.170  28.902  27.016  1.00  0.00     0.029 A 
ATOM     42  N   UNL A   1      42.056  30.017  28.625  1.00  0.00    -0.354 N 
ATOM     43  C   UNL A   1      44.226  24.981  27.812  1.00  0.00     0.074 A 
ATOM     44  C   UNL A   1      43.418  24.271  28.770  1.00  0.00     0.031 C 
ATOM     45  C   UNL A   1      43.503  30.203  26.917  1.00  0.00     0.029 A 
ATOM     46  C   UNL A   1      43.106  30.831  28.167  1.00  0.00     0.049 A 
ATOM     47  H   UNL A   1      41.261  30.306  29.129  1.00  0.00     0.167 HD
ATOM     48  C   UNL A   1      44.968  24.662  26.720  1.00  0.00     0.037 A 
ATOM     49  C   UNL A   1      43.985  31.344  29.083  1.00  0.00     0.037 A 
ATOM     50  C   UNL A   1      45.704  25.839  26.241  1.00  0.00     0.049 A 
ATOM     51  C   UNL A   1      45.418  30.814  28.928  1.00  0.00     0.074 A 
ATOM     52  C   UNL A   1      45.689  26.649  25.120  1.00  0.00     0.029 A 
ATOM     53  N   UNL A   1      46.474  26.520  27.176  1.00  0.00    -0.354 N 
ATOM     54  N   UNL A   1      45.787  29.853  28.116  1.00  0.00    -0.248 NA
ATOM     55  C   UNL A   1      46.546  31.307  29.716  1.00  0.00     0.031 C 
ATOM     56  C   UNL A   1      46.418  27.848  25.428  1.00  0.00     0.029 A 
ATOM     57  C   UNL A   1      46.918  27.740  26.715  1.00  0.00     0.049 A 
ATOM     58  H   UNL A   1      46.680  26.170  28.073  1.00  0.00     0.167 HD
ATOM     59  C   UNL A   1      47.121  29.556  28.288  1.00  0.00     0.074 A 
ATOM     60  C   UNL A   1      47.545  30.500  29.311  1.00  0.00     0.031 C 
ATOM     61  C   UNL A   1      47.753  28.538  27.613  1.00  0.00     0.037 A 
BRANCH  48  62
ATOM     62  C   UNL A   1      44.890  23.323  26.020  1.00  0.00     0.058 A 
ATOM     63  C   UNL A   1      43.713  22.552  26.071  1.00  0.00     0.135 A 
ATOM     64  C   UNL A   1      45.988  22.682  25.394  1.00  0.00     0.135 A 
ATOM     65  F   UNL A   1      42.608  23.023  26.668  1.00  0.00    -0.206 F 
ATOM     66  C   UNL A   1      43.633  21.254  25.547  1.00  0.00     0.059 A 
ATOM     67  C   UNL A   1      45.916  21.416  24.816  1.00  0.00     0.059 A 
ATOM     68  F   UNL A   1      47.217  23.211  25.379  1.00  0.00    -0.206 F 
ATOM     69  C   UNL A   1      44.741  20.694  24.919  1.00  0.00     0.060 A 
BRANCH  69  70
ATOM     70  S   UNL A   1      44.665  19.008  24.287  1.00  0.00     0.124 S 
ATOM     71  O   UNL A   1      44.592  19.232  22.847  1.00  0.00    -0.237 OA
ATOM     72  O   UNL A   1      45.909  18.431  24.783  1.00  0.00    -0.237 OA
ATOM     73  O   UNL A   1      43.449  18.471  24.895  1.00  0.00    -0.744 OA
ENDBRANCH  69  70
ENDBRANCH  48  62
BRANCH  49  74
ATOM     74  C   UNL A   1      43.305  31.720  30.378  1.00  0.00     0.058 A 
ATOM     75  C   UNL A   1      42.426  32.833  30.407  1.00  0.00     0.135 A 
ATOM     76  C   UNL A   1      43.223  30.842  31.465  1.00  0.00     0.135 A 
ATOM     77  F   UNL A   1      42.449  33.723  29.399  1.00  0.00    -0.206 F 
ATOM     78  C   UNL A   1      41.454  33.008  31.401  1.00  0.00     0.059 A 
ATOM     79  C   UNL A   1      42.273  31.011  32.484  1.00  0.00     0.059 A 
ATOM     80  F   UNL A   1      43.998  29.750  31.511  1.00  0.00    -0.206 F 
ATOM     81  C   UNL A   1      41.367  32.074  32.430  1.00  0.00     0.060 A 
BRANCH  81  82
ATOM     82  S   UNL A   1      40.055  32.233  33.684  1.00  0.00     0.124 S 
ATOM     83  O   UNL A   1      40.403  31.171  34.621  1.00  0.00    -0.237 OA
ATOM     84  O   UNL A   1      40.211  33.590  34.187  1.00  0.00    -0.237 OA
ATOM     85  O   UNL A   1      38.834  32.013  32.912  1.00  0.00    -0.744 OA
ENDBRANCH  81  82
ENDBRANCH  49  74
BRANCH  61  86
ATOM     86  C   UNL A   1      49.205  28.102  27.815  1.00  0.00     0.058 A 
ATOM     87  C   UNL A   1      50.284  28.548  27.035  1.00  0.00     0.135 A 
ATOM     88  C   UNL A   1      49.555  27.136  28.799  1.00  0.00     0.135 A 
ATOM     89  F   UNL A   1      50.084  29.321  25.958  1.00  0.00    -0.206 F 
ATOM     90  C   UNL A   1      51.611  28.177  27.300  1.00  0.00     0.059 A 
ATOM     91  C   UNL A   1      50.858  26.724  29.055  1.00  0.00     0.059 A 
ATOM     92  F   UNL A   1      48.644  26.540  29.578  1.00  0.00    -0.206 F 
ATOM     93  C   UNL A   1      51.889  27.279  28.329  1.00  0.00     0.060 A 
BRANCH  93  94
ATOM     94  S   UNL A   1      53.592  26.819  28.689  1.00  0.00     0.124 S 
ATOM     95  O   UNL A   1      54.282  28.104  28.612  1.00  0.00    -0.237 OA
ATOM     96  O   UNL A   1      53.466  26.246  30.025  1.00  0.00    -0.237 OA
ATOM     97  O   UNL A   1      53.926  25.870  27.631  1.00  0.00    -0.744 OA
ENDBRANCH  93  94
ENDBRANCH  61  86
ENDBRANCH  35  36
ENDBRANCH  27  30
ENDBRANCH  25  26
ENDBRANCH  24  25
ENDBRANCH   1  24
TORSDOF 19
ENDMDL
