MODEL 1
REMARK VINA RESULT:     -12.5      0.000      0.000
REMARK SMILES O=C(NCCCNC(=O)[C@H](CO)NC(=O)[C@H](Cc1c[nH]c2ccccc12)NC(=O)[C@H](Cc1ccc(O)cc1)NC(=O)c1ccc(F)cc1)c1ccc(-c2c3nc(c(-c4c(F)cc(S(=O)(=O)[O-])cc4F)c4ccc([nH]4)c(-c4c(F)cc(S(=O)(=O)[O-])cc4F)c4nc(c(-c5c(F)cc(S(=O)(=O)[O-])cc5F)c5ccc2[nH]5)C=C4)C=C3)cc1
REMARK SMILES IDX 7 1 8 2 9 3 6 5 5 6 4 7 3 8 1 9 2 10 49 12 50 13 114 14
REMARK SMILES IDX 51 15 113 16 52 17 53 18 54 19 107 20 55 21 112 22 106 23
REMARK SMILES IDX 108 24 56 25 111 26 105 27 104 28 57 30 91 31 70 32 90 33
REMARK SMILES IDX 71 34 74 35 89 36 109 37 72 38 73 39 88 41 110 42 75 43
REMARK SMILES IDX 58 44 59 45 68 46 60 47 61 48 67 49 69 50 62 51 63 52 64 53
REMARK SMILES IDX 65 54 66 55 92 56 93 57 102 58 94 59 95 60 101 61 103 62
REMARK SMILES IDX 96 63 97 64 98 65 99 66 100 67 76 68 77 69 86 70 78 71 79 72
REMARK SMILES IDX 85 73 87 74 80 75 81 76 82 77 83 78 84 79 10 80 13 81 14 82
REMARK SMILES IDX 15 84 16 85 27 86 28 87 29 89 30 90 39 91 40 92 41 94 42 95
REMARK SMILES IDX 43 96 48 97 44 98 47 99 45 100 46 101 31 102 32 103 33 104
REMARK SMILES IDX 38 105 34 106 37 107 35 108 36 109 17 111 18 112 19 113
REMARK SMILES IDX 26 114 20 115 21 116 25 117 22 119 24 120 23 121 11 122
REMARK SMILES IDX 12 123
REMARK H PARENT 7 4 3 11 108 29 74 40 13 83 27 88 39 93 36 110 20 118 12 124
REMARK Flexibility Score: inf
ROOT
ATOM      1  N   UNL A   1      34.387  29.543  27.649  1.00  0.00    -0.354 N 
ATOM      2  C   UNL A   1      34.376  28.521  26.753  1.00  0.00     0.244 C 
ATOM      3  O   UNL A   1      35.423  27.876  26.636  1.00  0.00    -0.273 OA
ATOM      4  H   UNL A   1      35.000  29.419  28.410  1.00  0.00     0.163 HD
ENDROOT
BRANCH   1   5
ATOM      5  C   UNL A   1      33.639  30.785  27.662  1.00  0.00     0.117 C 
BRANCH   5   6
ATOM      6  C   UNL A   1      34.518  32.001  27.899  1.00  0.00     0.042 C 
BRANCH   6   7
ATOM      7  C   UNL A   1      35.859  31.679  28.547  1.00  0.00     0.118 C 
BRANCH   7   8
ATOM      8  N   UNL A   1      35.737  31.265  29.940  1.00  0.00    -0.352 N 
ATOM      9  O   UNL A   1      36.116  30.058  31.801  1.00  0.00    -0.269 OA
ATOM     10  C   UNL A   1      36.511  30.412  30.691  1.00  0.00     0.251 C 
ATOM     11  H   UNL A   1      34.974  31.659  30.421  1.00  0.00     0.163 HD
BRANCH  10  12
ATOM     12  C   UNL A   1      37.789  29.898  30.158  1.00  0.00     0.039 A 
ATOM     13  C   UNL A   1      38.806  29.492  31.019  1.00  0.00     0.014 A 
ATOM     14  C   UNL A   1      37.974  29.818  28.773  1.00  0.00     0.014 A 
ATOM     15  C   UNL A   1      40.066  29.209  30.512  1.00  0.00     0.010 A 
ATOM     16  C   UNL A   1      39.213  29.419  28.260  1.00  0.00     0.010 A 
ATOM     17  C   UNL A   1      40.286  29.162  29.125  1.00  0.00    -0.014 A 
BRANCH  17  18
ATOM     18  C   UNL A   1      41.643  28.819  28.624  1.00  0.00     0.031 A 
ATOM     19  C   UNL A   1      42.769  29.816  28.687  1.00  0.00     0.074 A 
ATOM     20  C   UNL A   1      41.871  27.568  28.176  1.00  0.00     0.049 A 
ATOM     21  N   UNL A   1      44.022  29.662  28.340  1.00  0.00    -0.248 NA
ATOM     22  C   UNL A   1      42.453  31.159  29.197  1.00  0.00     0.031 C 
ATOM     23  C   UNL A   1      40.855  26.518  28.067  1.00  0.00     0.029 A 
ATOM     24  N   UNL A   1      43.027  26.953  27.770  1.00  0.00    -0.354 N 
ATOM     25  C   UNL A   1      44.637  30.888  28.569  1.00  0.00     0.074 A 
ATOM     26  C   UNL A   1      43.614  31.786  29.058  1.00  0.00     0.031 C 
ATOM     27  C   UNL A   1      41.444  25.371  27.698  1.00  0.00     0.029 A 
ATOM     28  C   UNL A   1      42.865  25.619  27.478  1.00  0.00     0.049 A 
ATOM     29  H   UNL A   1      43.890  27.422  27.694  1.00  0.00     0.167 HD
ATOM     30  C   UNL A   1      45.938  31.229  28.396  1.00  0.00     0.037 A 
ATOM     31  C   UNL A   1      43.755  24.694  27.074  1.00  0.00     0.037 A 
ATOM     32  C   UNL A   1      46.955  30.321  27.928  1.00  0.00     0.049 A 
ATOM     33  C   UNL A   1      45.189  25.094  26.894  1.00  0.00     0.074 A 
ATOM     34  C   UNL A   1      48.299  30.571  27.716  1.00  0.00     0.029 A 
ATOM     35  N   UNL A   1      46.743  28.986  27.613  1.00  0.00    -0.354 N 
ATOM     36  N   UNL A   1      45.746  26.264  27.096  1.00  0.00    -0.248 NA
ATOM     37  C   UNL A   1      46.116  24.056  26.425  1.00  0.00     0.031 C 
ATOM     38  C   UNL A   1      48.895  29.396  27.243  1.00  0.00     0.029 A 
ATOM     39  C   UNL A   1      47.930  28.402  27.202  1.00  0.00     0.049 A 
ATOM     40  H   UNL A   1      45.877  28.523  27.671  1.00  0.00     0.167 HD
ATOM     41  C   UNL A   1      47.092  26.102  26.789  1.00  0.00     0.074 A 
ATOM     42  C   UNL A   1      47.266  24.715  26.404  1.00  0.00     0.031 C 
ATOM     43  C   UNL A   1      48.087  27.020  26.821  1.00  0.00     0.037 A 
BRANCH  30  44
ATOM     44  C   UNL A   1      46.336  32.647  28.702  1.00  0.00     0.058 A 
ATOM     45  C   UNL A   1      46.310  33.628  27.698  1.00  0.00     0.135 A 
ATOM     46  C   UNL A   1      46.779  33.029  29.979  1.00  0.00     0.135 A 
ATOM     47  F   UNL A   1      45.892  33.319  26.462  1.00  0.00    -0.206 F 
ATOM     48  C   UNL A   1      46.714  34.937  27.947  1.00  0.00     0.059 A 
ATOM     49  C   UNL A   1      47.165  34.338  30.257  1.00  0.00     0.059 A 
ATOM     50  F   UNL A   1      46.800  32.137  30.982  1.00  0.00    -0.206 F 
ATOM     51  C   UNL A   1      47.138  35.283  29.230  1.00  0.00     0.060 A 
BRANCH  51  52
ATOM     52  S   UNL A   1      47.598  37.000  29.556  1.00  0.00     0.124 S 
ATOM     53  O   UNL A   1      46.605  37.394  30.547  1.00  0.00    -0.237 OA
ATOM     54  O   UNL A   1      48.967  36.865  30.044  1.00  0.00    -0.237 OA
ATOM     55  O   UNL A   1      47.472  37.636  28.248  1.00  0.00    -0.744 OA
ENDBRANCH  51  52
ENDBRANCH  30  44
BRANCH  31  56
ATOM     56  C   UNL A   1      43.298  23.300  26.839  1.00  0.00     0.058 A 
ATOM     57  C   UNL A   1      43.018  22.440  27.912  1.00  0.00     0.135 A 
ATOM     58  C   UNL A   1      43.214  22.778  25.540  1.00  0.00     0.135 A 
ATOM     59  F   UNL A   1      43.098  22.890  29.174  1.00  0.00    -0.206 F 
ATOM     60  C   UNL A   1      42.709  21.101  27.708  1.00  0.00     0.059 A 
ATOM     61  C   UNL A   1      42.882  21.446  25.310  1.00  0.00     0.059 A 
ATOM     62  F   UNL A   1      43.465  23.566  24.484  1.00  0.00    -0.206 F 
ATOM     63  C   UNL A   1      42.655  20.610  26.403  1.00  0.00     0.060 A 
BRANCH  63  64
ATOM     64  S   UNL A   1      42.293  18.858  26.162  1.00  0.00     0.124 S 
ATOM     65  O   UNL A   1      43.252  18.505  25.121  1.00  0.00    -0.237 OA
ATOM     66  O   UNL A   1      42.558  18.304  27.485  1.00  0.00    -0.237 OA
ATOM     67  O   UNL A   1      40.892  18.857  25.753  1.00  0.00    -0.744 OA
ENDBRANCH  63  64
ENDBRANCH  31  56
BRANCH  43  68
ATOM     68  C   UNL A   1      49.465  26.553  26.448  1.00  0.00     0.058 A 
ATOM     69  C   UNL A   1      50.302  25.968  27.411  1.00  0.00     0.135 A 
ATOM     70  C   UNL A   1      49.977  26.736  25.154  1.00  0.00     0.135 A 
ATOM     71  F   UNL A   1      49.860  25.774  28.663  1.00  0.00    -0.206 F 
ATOM     72  C   UNL A   1      51.604  25.590  27.107  1.00  0.00     0.059 A 
ATOM     73  C   UNL A   1      51.270  26.344  24.821  1.00  0.00     0.059 A 
ATOM     74  F   UNL A   1      49.210  27.280  24.195  1.00  0.00    -0.206 F 
ATOM     75  C   UNL A   1      52.081  25.785  25.809  1.00  0.00     0.060 A 
BRANCH  75  76
ATOM     76  S   UNL A   1      53.767  25.266  25.422  1.00  0.00     0.124 S 
ATOM     77  O   UNL A   1      54.242  26.381  24.610  1.00  0.00    -0.237 OA
ATOM     78  O   UNL A   1      54.366  25.146  26.747  1.00  0.00    -0.237 OA
ATOM     79  O   UNL A   1      53.577  24.005  24.712  1.00  0.00    -0.744 OA
ENDBRANCH  75  76
ENDBRANCH  43  68
ENDBRANCH  17  18
ENDBRANCH  10  12
ENDBRANCH   7   8
ENDBRANCH   6   7
ENDBRANCH   5   6
ENDBRANCH   1   5
BRANCH   2  80
ATOM     80  C   UNL A   1      33.226  28.329  25.752  1.00  0.00     0.197 C 
BRANCH  80  81
ATOM     81  N   UNL A   1      31.902  28.142  26.365  1.00  0.00    -0.340 N 
ATOM     82  C   UNL A   1      31.150  27.002  26.504  1.00  0.00     0.243 C 
ATOM     83  H   UNL A   1      31.493  28.959  26.732  1.00  0.00     0.164 HD
ATOM     84  O   UNL A   1      30.106  27.086  27.155  1.00  0.00    -0.273 OA
BRANCH  82  85
ATOM     85  C   UNL A   1      31.599  25.681  25.843  1.00  0.00     0.175 C 
BRANCH  85  86
ATOM     86  N   UNL A   1      31.584  24.533  26.765  1.00  0.00    -0.342 N 
ATOM     87  C   UNL A   1      32.307  23.370  26.789  1.00  0.00     0.243 C 
ATOM     88  H   UNL A   1      30.935  24.616  27.501  1.00  0.00     0.164 HD
ATOM     89  O   UNL A   1      32.001  22.525  27.636  1.00  0.00    -0.273 OA
BRANCH  87  90
ATOM     90  C   UNL A   1      33.328  23.037  25.670  1.00  0.00     0.176 C 
BRANCH  90  91
ATOM     91  N   UNL A   1      32.634  22.852  24.393  1.00  0.00    -0.340 N 
ATOM     92  C   UNL A   1      32.464  21.764  23.578  1.00  0.00     0.251 C 
ATOM     93  H   UNL A   1      32.205  23.669  24.053  1.00  0.00     0.164 HD
ATOM     94  O   UNL A   1      32.050  21.989  22.441  1.00  0.00    -0.269 OA
BRANCH  92  95
ATOM     95  C   UNL A   1      32.654  20.340  24.009  1.00  0.00     0.040 A 
ATOM     96  C   UNL A   1      32.807  19.914  25.338  1.00  0.00     0.017 A 
ATOM     97  C   UNL A   1      32.472  19.356  23.022  1.00  0.00     0.017 A 
ATOM     98  C   UNL A   1      32.762  18.557  25.673  1.00  0.00     0.040 A 
ATOM     99  C   UNL A   1      32.424  17.998  23.354  1.00  0.00     0.040 A 
ATOM    100  C   UNL A   1      32.563  17.611  24.679  1.00  0.00     0.123 A 
ATOM    101  F   UNL A   1      32.473  16.318  25.010  1.00  0.00    -0.207 F 
ENDBRANCH  92  95
ENDBRANCH  90  91
BRANCH  90 102
ATOM    102  C   UNL A   1      34.421  24.133  25.551  1.00  0.00     0.070 C 
BRANCH 102 103
ATOM    103  C   UNL A   1      35.822  23.562  25.437  1.00  0.00    -0.045 A 
ATOM    104  C   UNL A   1      36.898  24.136  26.131  1.00  0.00     0.007 A 
ATOM    105  C   UNL A   1      36.032  22.371  24.724  1.00  0.00     0.007 A 
ATOM    106  C   UNL A   1      38.127  23.474  26.204  1.00  0.00     0.046 A 
ATOM    107  C   UNL A   1      37.268  21.725  24.774  1.00  0.00     0.046 A 
ATOM    108  C   UNL A   1      38.292  22.263  25.543  1.00  0.00     0.115 A 
BRANCH 108 109
ATOM    109  O   UNL A   1      39.453  21.555  25.643  1.00  0.00    -0.508 OA
ATOM    110  H   UNL A   1      40.272  21.970  25.453  1.00  0.00     0.293 HD
ENDBRANCH 108 109
ENDBRANCH 102 103
ENDBRANCH  90 102
ENDBRANCH  87  90
ENDBRANCH  85  86
BRANCH  85 111
ATOM    111  C   UNL A   1      30.887  25.419  24.507  1.00  0.00     0.072 C 
BRANCH 111 112
ATOM    112  C   UNL A   1      30.787  26.560  23.548  1.00  0.00    -0.020 A 
ATOM    113  C   UNL A   1      31.820  27.042  22.765  1.00  0.00     0.087 A 
ATOM    114  C   UNL A   1      29.657  27.404  23.313  1.00  0.00     0.003 A 
ATOM    115  N   UNL A   1      31.364  28.131  22.077  1.00  0.00    -0.361 N 
ATOM    116  C   UNL A   1      30.050  28.376  22.393  1.00  0.00     0.046 A 
ATOM    117  C   UNL A   1      28.336  27.446  23.804  1.00  0.00     0.010 A 
ATOM    118  H   UNL A   1      31.901  28.663  21.446  1.00  0.00     0.166 HD
ATOM    119  C   UNL A   1      29.191  29.383  21.937  1.00  0.00     0.026 A 
ATOM    120  C   UNL A   1      27.460  28.437  23.350  1.00  0.00     0.001 A 
ATOM    121  C   UNL A   1      27.884  29.393  22.431  1.00  0.00     0.002 A 
ENDBRANCH 111 112
ENDBRANCH  85 111
ENDBRANCH  82  85
ENDBRANCH  80  81
BRANCH  80 122
ATOM    122  C   UNL A   1      33.283  29.482  24.736  1.00  0.00     0.191 C 
BRANCH 122 123
ATOM    123  O   UNL A   1      31.995  30.099  24.619  1.00  0.00    -0.394 OA
ATOM    124  H   UNL A   1      32.106  31.049  24.454  1.00  0.00     0.210 HD
ENDBRANCH 122 123
ENDBRANCH  80 122
ENDBRANCH   2  80
TORSDOF 26
ENDMDL
MODEL 2
REMARK VINA RESULT:     -12.2      5.420      7.433
REMARK SMILES O=C(NCCCNC(=O)[C@H](CO)NC(=O)[C@H](Cc1c[nH]c2ccccc12)NC(=O)[C@H](Cc1ccc(O)cc1)NC(=O)c1ccc(F)cc1)c1ccc(-c2c3nc(c(-c4c(F)cc(S(=O)(=O)[O-])cc4F)c4ccc([nH]4)c(-c4c(F)cc(S(=O)(=O)[O-])cc4F)c4nc(c(-c5c(F)cc(S(=O)(=O)[O-])cc5F)c5ccc2[nH]5)C=C4)C=C3)cc1
REMARK SMILES IDX 7 1 8 2 9 3 6 5 5 6 4 7 3 8 1 9 2 10 49 12 50 13 114 14
REMARK SMILES IDX 51 15 113 16 52 17 53 18 54 19 107 20 55 21 112 22 106 23
REMARK SMILES IDX 108 24 56 25 111 26 105 27 104 28 57 30 91 31 70 32 90 33
REMARK SMILES IDX 71 34 74 35 89 36 109 37 72 38 73 39 88 41 110 42 75 43
REMARK SMILES IDX 58 44 59 45 68 46 60 47 61 48 67 49 69 50 62 51 63 52 64 53
REMARK SMILES IDX 65 54 66 55 92 56 93 57 102 58 94 59 95 60 101 61 103 62
REMARK SMILES IDX 96 63 97 64 98 65 99 66 100 67 76 68 77 69 86 70 78 71 79 72
REMARK SMILES IDX 85 73 87 74 80 75 81 76 82 77 83 78 84 79 10 80 13 81 14 82
REMARK SMILES IDX 15 84 16 85 27 86 28 87 29 89 30 90 39 91 40 92 41 94 42 95
REMARK SMILES IDX 43 96 48 97 44 98 47 99 45 100 46 101 31 102 32 103 33 104
REMARK SMILES IDX 38 105 34 106 37 107 35 108 36 109 17 111 18 112 19 113
REMARK SMILES IDX 26 114 20 115 21 116 25 117 22 119 24 120 23 121 11 122
REMARK SMILES IDX 12 123
REMARK H PARENT 7 4 3 11 108 29 74 40 13 83 27 88 39 93 36 110 20 118 12 124
REMARK Flexibility Score: inf
ROOT
ATOM      1  N   UNL A   1      33.121  29.882  27.349  1.00  0.00    -0.354 N 
ATOM      2  C   UNL A   1      33.798  28.734  27.081  1.00  0.00     0.244 C 
ATOM      3  O   UNL A   1      35.020  28.758  27.257  1.00  0.00    -0.273 OA
ATOM      4  H   UNL A   1      33.527  30.448  28.044  1.00  0.00     0.163 HD
ENDROOT
BRANCH   1   5
ATOM      5  C   UNL A   1      31.897  30.402  26.773  1.00  0.00     0.117 C 
BRANCH   5   6
ATOM      6  C   UNL A   1      31.808  31.918  26.846  1.00  0.00     0.042 C 
BRANCH   6   7
ATOM      7  C   UNL A   1      32.931  32.566  27.646  1.00  0.00     0.118 C 
BRANCH   7   8
ATOM      8  N   UNL A   1      32.748  34.003  27.826  1.00  0.00    -0.352 N 
ATOM      9  O   UNL A   1      32.932  36.026  28.793  1.00  0.00    -0.269 OA
ATOM     10  C   UNL A   1      33.375  34.885  28.674  1.00  0.00     0.251 C 
ATOM     11  H   UNL A   1      32.063  34.407  27.246  1.00  0.00     0.163 HD
BRANCH  10  12
ATOM     12  C   UNL A   1      34.549  34.457  29.463  1.00  0.00     0.039 A 
ATOM     13  C   UNL A   1      35.839  34.631  28.967  1.00  0.00     0.014 A 
ATOM     14  C   UNL A   1      34.358  33.873  30.719  1.00  0.00     0.014 A 
ATOM     15  C   UNL A   1      36.913  34.041  29.619  1.00  0.00     0.010 A 
ATOM     16  C   UNL A   1      35.457  33.381  31.432  1.00  0.00     0.010 A 
ATOM     17  C   UNL A   1      36.739  33.414  30.864  1.00  0.00    -0.014 A 
BRANCH  17  18
ATOM     18  C   UNL A   1      37.922  32.828  31.545  1.00  0.00     0.031 A 
ATOM     19  C   UNL A   1      38.327  33.278  32.923  1.00  0.00     0.074 A 
ATOM     20  C   UNL A   1      38.589  31.825  30.938  1.00  0.00     0.049 A 
ATOM     21  N   UNL A   1      39.301  32.836  33.679  1.00  0.00    -0.248 NA
ATOM     22  C   UNL A   1      37.549  34.368  33.532  1.00  0.00     0.031 C 
ATOM     23  C   UNL A   1      38.287  31.306  29.601  1.00  0.00     0.029 A 
ATOM     24  N   UNL A   1      39.623  31.038  31.372  1.00  0.00    -0.354 N 
ATOM     25  C   UNL A   1      39.266  33.602  34.838  1.00  0.00     0.074 A 
ATOM     26  C   UNL A   1      38.193  34.559  34.676  1.00  0.00     0.031 C 
ATOM     27  C   UNL A   1      39.064  30.241  29.356  1.00  0.00     0.029 A 
ATOM     28  C   UNL A   1      39.965  30.043  30.487  1.00  0.00     0.049 A 
ATOM     29  H   UNL A   1      40.078  31.172  32.235  1.00  0.00     0.167 HD
ATOM     30  C   UNL A   1      40.051  33.509  35.939  1.00  0.00     0.037 A 
ATOM     31  C   UNL A   1      40.900  29.078  30.567  1.00  0.00     0.037 A 
ATOM     32  C   UNL A   1      41.104  32.538  36.100  1.00  0.00     0.049 A 
ATOM     33  C   UNL A   1      41.753  28.992  31.797  1.00  0.00     0.074 A 
ATOM     34  C   UNL A   1      41.957  32.366  37.176  1.00  0.00     0.029 A 
ATOM     35  N   UNL A   1      41.439  31.568  35.166  1.00  0.00    -0.354 N 
ATOM     36  N   UNL A   1      41.718  29.741  32.874  1.00  0.00    -0.248 NA
ATOM     37  C   UNL A   1      42.776  27.940  31.825  1.00  0.00     0.031 C 
ATOM     38  C   UNL A   1      42.829  31.311  36.880  1.00  0.00     0.029 A 
ATOM     39  C   UNL A   1      42.489  30.798  35.638  1.00  0.00     0.049 A 
ATOM     40  H   UNL A   1      40.996  31.446  34.295  1.00  0.00     0.167 HD
ATOM     41  C   UNL A   1      42.707  29.244  33.714  1.00  0.00     0.074 A 
ATOM     42  C   UNL A   1      43.312  28.121  33.025  1.00  0.00     0.031 C 
ATOM     43  C   UNL A   1      43.080  29.683  34.940  1.00  0.00     0.037 A 
BRANCH  30  44
ATOM     44  C   UNL A   1      39.810  34.489  37.054  1.00  0.00     0.058 A 
ATOM     45  C   UNL A   1      40.467  35.731  37.068  1.00  0.00     0.135 A 
ATOM     46  C   UNL A   1      38.960  34.189  38.130  1.00  0.00     0.135 A 
ATOM     47  F   UNL A   1      41.288  36.072  36.063  1.00  0.00    -0.206 F 
ATOM     48  C   UNL A   1      40.293  36.637  38.110  1.00  0.00     0.059 A 
ATOM     49  C   UNL A   1      38.752  35.090  39.172  1.00  0.00     0.059 A 
ATOM     50  F   UNL A   1      38.288  33.027  38.157  1.00  0.00    -0.206 F 
ATOM     51  C   UNL A   1      39.432  36.309  39.157  1.00  0.00     0.060 A 
BRANCH  51  52
ATOM     52  S   UNL A   1      39.166  37.520  40.471  1.00  0.00     0.124 S 
ATOM     53  O   UNL A   1      38.725  36.675  41.574  1.00  0.00    -0.237 OA
ATOM     54  O   UNL A   1      40.491  38.116  40.613  1.00  0.00    -0.237 OA
ATOM     55  O   UNL A   1      38.150  38.407  39.910  1.00  0.00    -0.744 OA
ENDBRANCH  51  52
ENDBRANCH  30  44
BRANCH  31  56
ATOM     56  C   UNL A   1      41.046  28.114  29.447  1.00  0.00     0.058 A 
ATOM     57  C   UNL A   1      40.208  26.992  29.344  1.00  0.00     0.135 A 
ATOM     58  C   UNL A   1      42.078  28.249  28.508  1.00  0.00     0.135 A 
ATOM     59  F   UNL A   1      39.215  26.811  30.228  1.00  0.00    -0.206 F 
ATOM     60  C   UNL A   1      40.413  26.019  28.374  1.00  0.00     0.059 A 
ATOM     61  C   UNL A   1      42.287  27.301  27.511  1.00  0.00     0.059 A 
ATOM     62  F   UNL A   1      42.898  29.310  28.562  1.00  0.00    -0.206 F 
ATOM     63  C   UNL A   1      41.463  26.176  27.469  1.00  0.00     0.060 A 
BRANCH  63  64
ATOM     64  S   UNL A   1      41.737  24.881  26.242  1.00  0.00     0.124 S 
ATOM     65  O   UNL A   1      40.706  23.915  26.605  1.00  0.00    -0.237 OA
ATOM     66  O   UNL A   1      41.526  25.595  24.988  1.00  0.00    -0.237 OA
ATOM     67  O   UNL A   1      43.111  24.459  26.498  1.00  0.00    -0.744 OA
ENDBRANCH  63  64
ENDBRANCH  31  56
BRANCH  43  68
ATOM     68  C   UNL A   1      44.185  28.935  35.631  1.00  0.00     0.058 A 
ATOM     69  C   UNL A   1      43.887  27.881  36.507  1.00  0.00     0.135 A 
ATOM     70  C   UNL A   1      45.530  29.298  35.469  1.00  0.00     0.135 A 
ATOM     71  F   UNL A   1      42.615  27.497  36.698  1.00  0.00    -0.206 F 
ATOM     72  C   UNL A   1      44.886  27.218  37.211  1.00  0.00     0.059 A 
ATOM     73  C   UNL A   1      46.549  28.634  36.145  1.00  0.00     0.059 A 
ATOM     74  F   UNL A   1      45.866  30.293  34.632  1.00  0.00    -0.206 F 
ATOM     75  C   UNL A   1      46.215  27.604  37.025  1.00  0.00     0.060 A 
BRANCH  75  76
ATOM     76  S   UNL A   1      47.504  26.718  37.927  1.00  0.00     0.124 S 
ATOM     77  O   UNL A   1      48.030  25.829  36.896  1.00  0.00    -0.237 OA
ATOM     78  O   UNL A   1      48.391  27.799  38.344  1.00  0.00    -0.237 OA
ATOM     79  O   UNL A   1      46.773  26.066  39.008  1.00  0.00    -0.744 OA
ENDBRANCH  75  76
ENDBRANCH  43  68
ENDBRANCH  17  18
ENDBRANCH  10  12
ENDBRANCH   7   8
ENDBRANCH   6   7
ENDBRANCH   5   6
ENDBRANCH   1   5
BRANCH   2  80
ATOM     80  C   UNL A   1      33.138  27.550  26.357  1.00  0.00     0.197 C 
BRANCH  80  81
ATOM     81  N   UNL A   1      31.685  27.440  26.557  1.00  0.00    -0.340 N 
ATOM     82  C   UNL A   1      30.826  26.421  26.228  1.00  0.00     0.243 C 
ATOM     83  H   UNL A   1      31.264  28.216  26.992  1.00  0.00     0.164 HD
ATOM     84  O   UNL A   1      29.654  26.523  26.597  1.00  0.00    -0.273 OA
BRANCH  82  85
ATOM     85  C   UNL A   1      31.322  25.212  25.407  1.00  0.00     0.175 C 
BRANCH  85  86
ATOM     86  N   UNL A   1      31.195  23.930  26.120  1.00  0.00    -0.342 N 
ATOM     87  C   UNL A   1      31.826  22.726  25.957  1.00  0.00     0.243 C 
ATOM     88  H   UNL A   1      30.533  23.939  26.849  1.00  0.00     0.164 HD
ATOM     89  O   UNL A   1      31.433  21.777  26.643  1.00  0.00    -0.273 OA
BRANCH  87  90
ATOM     90  C   UNL A   1      32.851  22.506  24.813  1.00  0.00     0.176 C 
BRANCH  90  91
ATOM     91  N   UNL A   1      32.157  22.123  23.581  1.00  0.00    -0.340 N 
ATOM     92  C   UNL A   1      32.181  20.988  22.816  1.00  0.00     0.251 C 
ATOM     93  H   UNL A   1      31.555  22.819  23.234  1.00  0.00     0.164 HD
ATOM     94  O   UNL A   1      31.682  21.070  21.694  1.00  0.00    -0.269 OA
BRANCH  92  95
ATOM     95  C   UNL A   1      32.680  19.654  23.288  1.00  0.00     0.040 A 
ATOM     96  C   UNL A   1      32.351  18.419  22.707  1.00  0.00     0.017 A 
ATOM     97  C   UNL A   1      33.697  19.671  24.259  1.00  0.00     0.017 A 
ATOM     98  C   UNL A   1      33.024  17.247  23.067  1.00  0.00     0.040 A 
ATOM     99  C   UNL A   1      34.373  18.501  24.619  1.00  0.00     0.040 A 
ATOM    100  C   UNL A   1      34.034  17.300  24.014  1.00  0.00     0.123 A 
ATOM    101  F   UNL A   1      34.707  16.185  24.321  1.00  0.00    -0.207 F 
ENDBRANCH  92  95
ENDBRANCH  90  91
BRANCH  90 102
ATOM    102  C   UNL A   1      33.730  23.765  24.586  1.00  0.00     0.070 C 
BRANCH 102 103
ATOM    103  C   UNL A   1      35.214  23.486  24.734  1.00  0.00    -0.045 A 
ATOM    104  C   UNL A   1      35.933  23.961  25.842  1.00  0.00     0.007 A 
ATOM    105  C   UNL A   1      35.859  22.640  23.819  1.00  0.00     0.007 A 
ATOM    106  C   UNL A   1      37.233  23.509  26.088  1.00  0.00     0.046 A 
ATOM    107  C   UNL A   1      37.167  22.212  24.050  1.00  0.00     0.046 A 
ATOM    108  C   UNL A   1      37.828  22.621  25.200  1.00  0.00     0.115 A 
BRANCH 108 109
ATOM    109  O   UNL A   1      39.069  22.107  25.439  1.00  0.00    -0.508 OA
ATOM    110  H   UNL A   1      39.157  21.250  25.808  1.00  0.00     0.293 HD
ENDBRANCH 108 109
ENDBRANCH 102 103
ENDBRANCH  90 102
ENDBRANCH  87  90
ENDBRANCH  85  86
BRANCH  85 111
ATOM    111  C   UNL A   1      30.751  25.193  23.981  1.00  0.00     0.072 C 
BRANCH 111 112
ATOM    112  C   UNL A   1      30.594  26.507  23.288  1.00  0.00    -0.020 A 
ATOM    113  C   UNL A   1      31.600  27.193  22.632  1.00  0.00     0.087 A 
ATOM    114  C   UNL A   1      29.426  27.330  23.234  1.00  0.00     0.003 A 
ATOM    115  N   UNL A   1      31.092  28.383  22.191  1.00  0.00    -0.361 N 
ATOM    116  C   UNL A   1      29.769  28.494  22.545  1.00  0.00     0.046 A 
ATOM    117  C   UNL A   1      28.107  27.205  23.716  1.00  0.00     0.010 A 
ATOM    118  H   UNL A   1      31.600  29.061  21.691  1.00  0.00     0.166 HD
ATOM    119  C   UNL A   1      28.863  29.535  22.312  1.00  0.00     0.026 A 
ATOM    120  C   UNL A   1      27.184  28.229  23.480  1.00  0.00     0.001 A 
ATOM    121  C   UNL A   1      27.559  29.378  22.790  1.00  0.00     0.002 A 
ENDBRANCH 111 112
ENDBRANCH  85 111
ENDBRANCH  82  85
ENDBRANCH  80  81
BRANCH  80 122
ATOM    122  C   UNL A   1      33.560  27.603  24.880  1.00  0.00     0.191 C 
BRANCH 122 123
ATOM    123  O   UNL A   1      34.264  28.822  24.612  1.00  0.00    -0.394 OA
ATOM    124  H   UNL A   1      34.068  29.116  23.708  1.00  0.00     0.210 HD
ENDBRANCH 122 123
ENDBRANCH  80 122
ENDBRANCH   2  80
TORSDOF 26
ENDMDL
MODEL 3
REMARK VINA RESULT:     -12.0      1.743      4.194
REMARK SMILES O=C(NCCCNC(=O)[C@H](CO)NC(=O)[C@H](Cc1c[nH]c2ccccc12)NC(=O)[C@H](Cc1ccc(O)cc1)NC(=O)c1ccc(F)cc1)c1ccc(-c2c3nc(c(-c4c(F)cc(S(=O)(=O)[O-])cc4F)c4ccc([nH]4)c(-c4c(F)cc(S(=O)(=O)[O-])cc4F)c4nc(c(-c5c(F)cc(S(=O)(=O)[O-])cc5F)c5ccc2[nH]5)C=C4)C=C3)cc1
REMARK SMILES IDX 7 1 8 2 9 3 6 5 5 6 4 7 3 8 1 9 2 10 49 12 50 13 114 14
REMARK SMILES IDX 51 15 113 16 52 17 53 18 54 19 107 20 55 21 112 22 106 23
REMARK SMILES IDX 108 24 56 25 111 26 105 27 104 28 57 30 91 31 70 32 90 33
REMARK SMILES IDX 71 34 74 35 89 36 109 37 72 38 73 39 88 41 110 42 75 43
REMARK SMILES IDX 58 44 59 45 68 46 60 47 61 48 67 49 69 50 62 51 63 52 64 53
REMARK SMILES IDX 65 54 66 55 92 56 93 57 102 58 94 59 95 60 101 61 103 62
REMARK SMILES IDX 96 63 97 64 98 65 99 66 100 67 76 68 77 69 86 70 78 71 79 72
REMARK SMILES IDX 85 73 87 74 80 75 81 76 82 77 83 78 84 79 10 80 13 81 14 82
REMARK SMILES IDX 15 84 16 85 27 86 28 87 29 89 30 90 39 91 40 92 41 94 42 95
REMARK SMILES IDX 43 96 48 97 44 98 47 99 45 100 46 101 31 102 32 103 33 104
REMARK SMILES IDX 38 105 34 106 37 107 35 108 36 109 17 111 18 112 19 113
REMARK SMILES IDX 26 114 20 115 21 116 25 117 22 119 24 120 23 121 11 122
REMARK SMILES IDX 12 123
REMARK H PARENT 7 4 3 11 108 29 74 40 13 83 27 88 39 93 36 110 20 118 12 124
REMARK Flexibility Score: inf
ROOT
ATOM      1  N   UNL A   1      32.097  28.691  26.700  1.00  0.00    -0.354 N 
ATOM      2  C   UNL A   1      31.198  27.705  26.957  1.00  0.00     0.244 C 
ATOM      3  O   UNL A   1      30.640  27.737  28.059  1.00  0.00    -0.273 OA
ATOM      4  H   UNL A   1      31.918  29.543  27.159  1.00  0.00     0.163 HD
ENDROOT
BRANCH   1   5
ATOM      5  C   UNL A   1      33.277  28.685  25.858  1.00  0.00     0.117 C 
BRANCH   5   6
ATOM      6  C   UNL A   1      34.389  29.571  26.394  1.00  0.00     0.042 C 
BRANCH   6   7
ATOM      7  C   UNL A   1      35.078  29.019  27.635  1.00  0.00     0.118 C 
BRANCH   7   8
ATOM      8  N   UNL A   1      35.263  30.021  28.680  1.00  0.00    -0.352 N 
ATOM      9  O   UNL A   1      36.280  31.131  30.351  1.00  0.00    -0.269 OA
ATOM     10  C   UNL A   1      36.389  30.388  29.378  1.00  0.00     0.251 C 
ATOM     11  H   UNL A   1      34.448  30.515  28.926  1.00  0.00     0.163 HD
BRANCH  10  12
ATOM     12  C   UNL A   1      37.715  29.867  28.984  1.00  0.00     0.039 A 
ATOM     13  C   UNL A   1      38.606  29.394  29.946  1.00  0.00     0.014 A 
ATOM     14  C   UNL A   1      38.074  29.850  27.632  1.00  0.00     0.014 A 
ATOM     15  C   UNL A   1      39.915  29.104  29.588  1.00  0.00     0.010 A 
ATOM     16  C   UNL A   1      39.360  29.445  27.260  1.00  0.00     0.010 A 
ATOM     17  C   UNL A   1      40.309  29.118  28.240  1.00  0.00    -0.014 A 
BRANCH  17  18
ATOM     18  C   UNL A   1      41.712  28.765  27.897  1.00  0.00     0.031 A 
ATOM     19  C   UNL A   1      42.820  29.777  28.020  1.00  0.00     0.074 A 
ATOM     20  C   UNL A   1      41.992  27.495  27.542  1.00  0.00     0.049 A 
ATOM     21  N   UNL A   1      44.102  29.620  27.809  1.00  0.00    -0.248 NA
ATOM     22  C   UNL A   1      42.444  31.142  28.422  1.00  0.00     0.031 C 
ATOM     23  C   UNL A   1      40.999  26.429  27.388  1.00  0.00     0.029 A 
ATOM     24  N   UNL A   1      43.186  26.873  27.289  1.00  0.00    -0.354 N 
ATOM     25  C   UNL A   1      44.683  30.863  28.033  1.00  0.00     0.074 A 
ATOM     26  C   UNL A   1      43.610  31.773  28.367  1.00  0.00     0.031 C 
ATOM     27  C   UNL A   1      41.629  25.271  27.143  1.00  0.00     0.029 A 
ATOM     28  C   UNL A   1      43.063  25.524  27.054  1.00  0.00     0.049 A 
ATOM     29  H   UNL A   1      44.050  27.347  27.275  1.00  0.00     0.167 HD
ATOM     30  C   UNL A   1      45.992  31.209  27.974  1.00  0.00     0.037 A 
ATOM     31  C   UNL A   1      43.996  24.589  26.793  1.00  0.00     0.037 A 
ATOM     32  C   UNL A   1      47.057  30.290  27.661  1.00  0.00     0.049 A 
ATOM     33  C   UNL A   1      45.438  24.995  26.737  1.00  0.00     0.074 A 
ATOM     34  C   UNL A   1      48.415  30.545  27.572  1.00  0.00     0.029 A 
ATOM     35  N   UNL A   1      46.887  28.938  27.398  1.00  0.00    -0.354 N 
ATOM     36  N   UNL A   1      45.965  26.181  26.931  1.00  0.00    -0.248 NA
ATOM     37  C   UNL A   1      46.414  23.945  26.421  1.00  0.00     0.031 C 
ATOM     38  C   UNL A   1      49.063  29.353  27.226  1.00  0.00     0.029 A 
ATOM     39  C   UNL A   1      48.113  28.346  27.142  1.00  0.00     0.049 A 
ATOM     40  H   UNL A   1      46.022  28.468  27.394  1.00  0.00     0.167 HD
ATOM     41  C   UNL A   1      47.335  26.018  26.771  1.00  0.00     0.074 A 
ATOM     42  C   UNL A   1      47.557  24.616  26.480  1.00  0.00     0.031 C 
ATOM     43  C   UNL A   1      48.316  26.948  26.854  1.00  0.00     0.037 A 
BRANCH  30  44
ATOM     44  C   UNL A   1      46.348  32.646  28.242  1.00  0.00     0.058 A 
ATOM     45  C   UNL A   1      46.663  33.073  29.543  1.00  0.00     0.135 A 
ATOM     46  C   UNL A   1      46.342  33.611  27.222  1.00  0.00     0.135 A 
ATOM     47  F   UNL A   1      46.689  32.193  30.555  1.00  0.00    -0.206 F 
ATOM     48  C   UNL A   1      46.955  34.405  29.823  1.00  0.00     0.059 A 
ATOM     49  C   UNL A   1      46.653  34.945  27.475  1.00  0.00     0.059 A 
ATOM     50  F   UNL A   1      46.072  33.253  25.956  1.00  0.00    -0.206 F 
ATOM     51  C   UNL A   1      46.949  35.334  28.782  1.00  0.00     0.060 A 
BRANCH  51  52
ATOM     52  S   UNL A   1      47.391  37.046  29.148  1.00  0.00     0.124 S 
ATOM     53  O   UNL A   1      46.112  37.605  29.567  1.00  0.00    -0.237 OA
ATOM     54  O   UNL A   1      48.393  36.888  30.199  1.00  0.00    -0.237 OA
ATOM     55  O   UNL A   1      47.910  37.539  27.875  1.00  0.00    -0.744 OA
ENDBRANCH  51  52
ENDBRANCH  30  44
BRANCH  31  56
ATOM     56  C   UNL A   1      43.573  23.179  26.588  1.00  0.00     0.058 A 
ATOM     57  C   UNL A   1      43.270  22.350  27.679  1.00  0.00     0.135 A 
ATOM     58  C   UNL A   1      43.548  22.613  25.306  1.00  0.00     0.135 A 
ATOM     59  F   UNL A   1      43.294  22.843  28.927  1.00  0.00    -0.206 F 
ATOM     60  C   UNL A   1      42.994  20.999  27.509  1.00  0.00     0.059 A 
ATOM     61  C   UNL A   1      43.249  21.268  25.108  1.00  0.00     0.059 A 
ATOM     62  F   UNL A   1      43.823  23.371  24.233  1.00  0.00    -0.206 F 
ATOM     63  C   UNL A   1      42.997  20.464  26.220  1.00  0.00     0.060 A 
BRANCH  63  64
ATOM     64  S   UNL A   1      42.677  18.699  26.025  1.00  0.00     0.124 S 
ATOM     65  O   UNL A   1      43.033  18.191  27.346  1.00  0.00    -0.237 OA
ATOM     66  O   UNL A   1      41.254  18.679  25.699  1.00  0.00    -0.237 OA
ATOM     67  O   UNL A   1      43.572  18.311  24.939  1.00  0.00    -0.744 OA
ENDBRANCH  63  64
ENDBRANCH  31  56
BRANCH  43  68
ATOM     68  C   UNL A   1      49.728  26.478  26.647  1.00  0.00     0.058 A 
ATOM     69  C   UNL A   1      50.519  26.103  27.743  1.00  0.00     0.135 A 
ATOM     70  C   UNL A   1      50.314  26.453  25.372  1.00  0.00     0.135 A 
ATOM     71  F   UNL A   1      50.006  26.113  28.984  1.00  0.00    -0.206 F 
ATOM     72  C   UNL A   1      51.849  25.730  27.585  1.00  0.00     0.059 A 
ATOM     73  C   UNL A   1      51.636  26.061  25.187  1.00  0.00     0.059 A 
ATOM     74  F   UNL A   1      49.594  26.791  24.291  1.00  0.00    -0.206 F 
ATOM     75  C   UNL A   1      52.400  25.715  26.303  1.00  0.00     0.060 A 
BRANCH  75  76
ATOM     76  S   UNL A   1      54.121  25.204  26.109  1.00  0.00     0.124 S 
ATOM     77  O   UNL A   1      54.655  26.270  25.269  1.00  0.00    -0.237 OA
ATOM     78  O   UNL A   1      54.596  25.185  27.489  1.00  0.00    -0.237 OA
ATOM     79  O   UNL A   1      54.014  23.894  25.474  1.00  0.00    -0.744 OA
ENDBRANCH  75  76
ENDBRANCH  43  68
ENDBRANCH  17  18
ENDBRANCH  10  12
ENDBRANCH   7   8
ENDBRANCH   6   7
ENDBRANCH   5   6
ENDBRANCH   1   5
BRANCH   2  80
ATOM     80  C   UNL A   1      31.059  26.473  26.050  1.00  0.00     0.197 C 
BRANCH  80  81
ATOM     81  N   UNL A   1      30.393  25.320  26.676  1.00  0.00    -0.340 N 
ATOM     82  C   UNL A   1      30.757  23.996  26.692  1.00  0.00     0.243 C 
ATOM     83  H   UNL A   1      29.560  25.529  27.156  1.00  0.00     0.164 HD
ATOM     84  O   UNL A   1      30.081  23.229  27.381  1.00  0.00    -0.273 OA
BRANCH  82  85
ATOM     85  C   UNL A   1      31.956  23.502  25.854  1.00  0.00     0.175 C 
BRANCH  85  86
ATOM     86  N   UNL A   1      33.167  23.257  26.656  1.00  0.00    -0.342 N 
ATOM     87  C   UNL A   1      34.460  23.685  26.515  1.00  0.00     0.243 C 
ATOM     88  H   UNL A   1      33.020  22.677  27.438  1.00  0.00     0.164 HD
ATOM     89  O   UNL A   1      35.302  23.225  27.292  1.00  0.00    -0.273 OA
BRANCH  87  90
ATOM     90  C   UNL A   1      34.890  24.551  25.302  1.00  0.00     0.176 C 
BRANCH  90  91
ATOM     91  N   UNL A   1      35.285  23.692  24.183  1.00  0.00    -0.340 N 
ATOM     92  C   UNL A   1      36.470  23.093  23.846  1.00  0.00     0.251 C 
ATOM     93  H   UNL A   1      34.556  23.508  23.549  1.00  0.00     0.164 HD
ATOM     94  O   UNL A   1      36.552  22.642  22.703  1.00  0.00    -0.269 OA
BRANCH  92  95
ATOM     95  C   UNL A   1      37.611  22.871  24.794  1.00  0.00     0.040 A 
ATOM     96  C   UNL A   1      38.119  23.831  25.683  1.00  0.00     0.017 A 
ATOM     97  C   UNL A   1      38.068  21.548  24.927  1.00  0.00     0.017 A 
ATOM     98  C   UNL A   1      39.035  23.482  26.680  1.00  0.00     0.040 A 
ATOM     99  C   UNL A   1      38.983  21.196  25.925  1.00  0.00     0.040 A 
ATOM    100  C   UNL A   1      39.453  22.166  26.797  1.00  0.00     0.123 A 
ATOM    101  F   UNL A   1      40.292  21.828  27.783  1.00  0.00    -0.207 F 
ENDBRANCH  92  95
ENDBRANCH  90  91
BRANCH  90 102
ATOM    102  C   UNL A   1      33.765  25.532  24.875  1.00  0.00     0.070 C 
BRANCH 102 103
ATOM    103  C   UNL A   1      33.510  25.525  23.378  1.00  0.00    -0.045 A 
ATOM    104  C   UNL A   1      33.131  24.349  22.714  1.00  0.00     0.007 A 
ATOM    105  C   UNL A   1      33.535  26.731  22.662  1.00  0.00     0.007 A 
ATOM    106  C   UNL A   1      32.677  24.397  21.393  1.00  0.00     0.046 A 
ATOM    107  C   UNL A   1      33.109  26.774  21.333  1.00  0.00     0.046 A 
ATOM    108  C   UNL A   1      32.651  25.614  20.723  1.00  0.00     0.115 A 
BRANCH 108 109
ATOM    109  O   UNL A   1      32.155  25.714  19.456  1.00  0.00    -0.508 OA
ATOM    110  H   UNL A   1      32.707  25.529  18.722  1.00  0.00     0.293 HD
ENDBRANCH 108 109
ENDBRANCH 102 103
ENDBRANCH  90 102
ENDBRANCH  87  90
ENDBRANCH  85  86
BRANCH  85 111
ATOM    111  C   UNL A   1      31.583  22.344  24.916  1.00  0.00     0.072 C 
BRANCH 111 112
ATOM    112  C   UNL A   1      32.187  21.008  25.201  1.00  0.00    -0.020 A 
ATOM    113  C   UNL A   1      32.723  20.613  26.414  1.00  0.00     0.087 A 
ATOM    114  C   UNL A   1      32.395  19.931  24.283  1.00  0.00     0.003 A 
ATOM    115  N   UNL A   1      33.241  19.357  26.265  1.00  0.00    -0.361 N 
ATOM    116  C   UNL A   1      33.057  18.918  24.977  1.00  0.00     0.046 A 
ATOM    117  C   UNL A   1      32.096  19.723  22.922  1.00  0.00     0.010 A 
ATOM    118  H   UNL A   1      33.681  18.842  26.978  1.00  0.00     0.166 HD
ATOM    119  C   UNL A   1      33.431  17.708  24.380  1.00  0.00     0.026 A 
ATOM    120  C   UNL A   1      32.449  18.515  22.312  1.00  0.00     0.001 A 
ATOM    121  C   UNL A   1      33.110  17.524  23.032  1.00  0.00     0.002 A 
ENDBRANCH 111 112
ENDBRANCH  85 111
ENDBRANCH  82  85
ENDBRANCH  80  81
BRANCH  80 122
ATOM    122  C   UNL A   1      30.408  26.925  24.732  1.00  0.00     0.191 C 
BRANCH 122 123
ATOM    123  O   UNL A   1      29.517  25.912  24.250  1.00  0.00    -0.394 OA
ATOM    124  H   UNL A   1      29.933  25.441  23.511  1.00  0.00     0.210 HD
ENDBRANCH 122 123
ENDBRANCH  80 122
ENDBRANCH   2  80
TORSDOF 26
ENDMDL
