MODEL 1
REMARK VINA RESULT:     -11.6      0.000      0.000
REMARK SMILES COc1ccc([C@H]2CC(c3ccccc3)=NN2C(=O)CCCC(=O)NCCCNC(=O)c2ccc(-c3c4nc(c(-c5c(F)cc(S(=O)(=O)[O-])cc5F)c5ccc([nH]5)c(-c5c(F)cc(S(=O)(=O)[O-])cc5F)c5nc(c(-c6c(F)cc(S(=O)(=O)[O-])cc6F)c6ccc3[nH]6)C=C5)C=C4)cc2)cc1
REMARK SMILES IDX 23 1 24 2 25 3 22 5 21 6 20 7 18 8 19 9 17 10 7 11 8 12 9 13
REMARK SMILES IDX 16 14 6 15 3 16 4 17 99 18 5 19 98 20 2 21 1 22 10 23 11 24
REMARK SMILES IDX 15 25 12 26 14 27 13 28 26 29 27 30 28 31 29 32 30 33 31 35
REMARK SMILES IDX 32 36 33 37 97 38 34 39 96 40 35 41 36 42 37 43 90 44 38 45
REMARK SMILES IDX 95 46 89 47 91 48 39 49 94 50 88 51 87 52 40 54 74 55 53 56
REMARK SMILES IDX 73 57 54 58 57 59 72 60 92 61 55 62 56 63 71 65 93 66 58 67
REMARK SMILES IDX 41 68 42 69 51 70 43 71 44 72 50 73 52 74 45 75 46 76 47 77
REMARK SMILES IDX 48 78 49 79 75 80 76 81 85 82 77 83 78 84 84 85 86 86 79 87
REMARK SMILES IDX 80 88 81 89 82 90 83 91 59 92 60 93 69 94 61 95 62 96 68 97
REMARK SMILES IDX 70 98 63 99 64 100 65 101 66 102 67 103
REMARK H PARENT 25 4 29 34 91 53 57 64
REMARK Flexibility Score: inf
ROOT
ATOM      1  C   UNL A   1      31.852  24.411  26.198  1.00  0.00     0.220 C 
ATOM      2  O   UNL A   1      31.900  23.619  27.146  1.00  0.00    -0.275 OA
ATOM      3  N   UNL A   1      32.906  25.252  26.086  1.00  0.00    -0.356 N 
ATOM      4  H   UNL A   1      33.697  24.975  26.605  1.00  0.00     0.163 HD
ENDROOT
BRANCH   1   5
ATOM      5  C   UNL A   1      30.786  24.241  25.132  1.00  0.00     0.100 C 
BRANCH   5   6
ATOM      6  C   UNL A   1      30.965  23.888  23.680  1.00  0.00     0.020 C 
BRANCH   6   7
ATOM      7  C   UNL A   1      31.813  22.700  23.248  1.00  0.00     0.103 C 
BRANCH   7   8
ATOM      8  C   UNL A   1      33.353  22.580  23.224  1.00  0.00     0.243 C 
ATOM      9  O   UNL A   1      33.904  23.133  22.254  1.00  0.00    -0.273 OA
BRANCH   8  10
ATOM     10  N   UNL A   1      34.140  22.137  24.283  1.00  0.00    -0.225 N 
ATOM     11  C   UNL A   1      34.000  21.101  25.348  1.00  0.00     0.147 C 
ATOM     12  C   UNL A   1      35.311  21.147  26.129  1.00  0.00     0.091 C 
ATOM     13  C   UNL A   1      36.020  22.218  25.369  1.00  0.00     0.071 C 
ATOM     14  N   UNL A   1      35.382  22.747  24.379  1.00  0.00    -0.174 NA
BRANCH  11  15
ATOM     15  C   UNL A   1      33.722  19.690  24.861  1.00  0.00    -0.023 A 
ATOM     16  C   UNL A   1      33.518  16.916  24.659  1.00  0.00     0.118 A 
ATOM     17  C   UNL A   1      34.708  17.541  24.302  1.00  0.00     0.047 A 
ATOM     18  C   UNL A   1      32.396  17.671  25.001  1.00  0.00     0.047 A 
ATOM     19  C   UNL A   1      34.799  18.930  24.350  1.00  0.00     0.010 A 
ATOM     20  C   UNL A   1      32.492  19.061  25.088  1.00  0.00     0.010 A 
BRANCH  16  21
ATOM     21  O   UNL A   1      33.558  15.561  24.829  1.00  0.00    -0.497 OA
ATOM     22  C   UNL A   1      32.413  15.066  25.509  1.00  0.00     0.278 C 
ENDBRANCH  16  21
ENDBRANCH  11  15
BRANCH  13  23
ATOM     23  C   UNL A   1      37.375  22.629  25.740  1.00  0.00    -0.002 A 
ATOM     24  C   UNL A   1      38.398  21.681  25.786  1.00  0.00     0.010 A 
ATOM     25  C   UNL A   1      37.600  23.951  26.125  1.00  0.00     0.010 A 
ATOM     26  C   UNL A   1      39.666  22.066  26.219  1.00  0.00     0.001 A 
ATOM     27  C   UNL A   1      38.866  24.325  26.573  1.00  0.00     0.001 A 
ATOM     28  C   UNL A   1      39.897  23.384  26.619  1.00  0.00     0.000 A 
ENDBRANCH  13  23
ENDBRANCH   8  10
ENDBRANCH   7   8
ENDBRANCH   6   7
ENDBRANCH   5   6
ENDBRANCH   1   5
BRANCH   3  29
ATOM     29  C   UNL A   1      33.089  26.479  25.347  1.00  0.00     0.117 C 
BRANCH  29  30
ATOM     30  C   UNL A   1      32.944  27.676  26.263  1.00  0.00     0.042 C 
BRANCH  30  31
ATOM     31  C   UNL A   1      34.169  28.561  26.178  1.00  0.00     0.118 C 
BRANCH  31  32
ATOM     32  N   UNL A   1      33.866  29.931  26.578  1.00  0.00    -0.352 N 
ATOM     33  C   UNL A   1      34.505  30.688  27.528  1.00  0.00     0.251 C 
ATOM     34  H   UNL A   1      33.115  30.363  26.111  1.00  0.00     0.163 HD
ATOM     35  O   UNL A   1      34.004  31.729  27.942  1.00  0.00    -0.269 OA
BRANCH  33  36
ATOM     36  C   UNL A   1      35.797  30.200  28.042  1.00  0.00     0.039 A 
ATOM     37  C   UNL A   1      36.981  30.584  27.416  1.00  0.00     0.014 A 
ATOM     38  C   UNL A   1      35.816  29.442  29.216  1.00  0.00     0.014 A 
ATOM     39  C   UNL A   1      38.197  30.242  28.007  1.00  0.00     0.010 A 
ATOM     40  C   UNL A   1      37.017  29.227  29.867  1.00  0.00     0.010 A 
ATOM     41  C   UNL A   1      38.223  29.591  29.253  1.00  0.00    -0.014 A 
BRANCH  41  42
ATOM     42  C   UNL A   1      39.496  29.221  29.912  1.00  0.00     0.031 A 
ATOM     43  C   UNL A   1      39.955  30.008  31.113  1.00  0.00     0.074 A 
ATOM     44  C   UNL A   1      40.262  28.240  29.397  1.00  0.00     0.049 A 
ATOM     45  N   UNL A   1      41.067  29.906  31.792  1.00  0.00    -0.248 NA
ATOM     46  C   UNL A   1      39.066  31.084  31.586  1.00  0.00     0.031 C 
ATOM     47  C   UNL A   1      39.951  27.462  28.195  1.00  0.00     0.029 A 
ATOM     48  N   UNL A   1      41.464  27.733  29.816  1.00  0.00    -0.354 N 
ATOM     49  C   UNL A   1      41.018  30.916  32.745  1.00  0.00     0.074 A 
ATOM     50  C   UNL A   1      39.810  31.670  32.510  1.00  0.00     0.031 C 
ATOM     51  C   UNL A   1      40.918  26.552  27.996  1.00  0.00     0.029 A 
ATOM     52  C   UNL A   1      41.936  26.707  29.030  1.00  0.00     0.049 A 
ATOM     53  H   UNL A   1      41.946  28.071  30.605  1.00  0.00     0.167 HD
ATOM     54  C   UNL A   1      41.884  31.170  33.753  1.00  0.00     0.037 A 
ATOM     55  C   UNL A   1      43.062  25.978  29.136  1.00  0.00     0.037 A 
ATOM     56  C   UNL A   1      43.058  30.379  34.005  1.00  0.00     0.049 A 
ATOM     57  C   UNL A   1      43.997  26.255  30.282  1.00  0.00     0.074 A 
ATOM     58  C   UNL A   1      43.967  30.492  35.040  1.00  0.00     0.029 A 
ATOM     59  N   UNL A   1      43.481  29.321  33.211  1.00  0.00    -0.354 N 
ATOM     60  N   UNL A   1      43.898  27.165  31.224  1.00  0.00    -0.248 NA
ATOM     61  C   UNL A   1      45.191  25.406  30.388  1.00  0.00     0.031 C 
ATOM     62  C   UNL A   1      44.967  29.535  34.845  1.00  0.00     0.029 A 
ATOM     63  C   UNL A   1      44.651  28.787  33.720  1.00  0.00     0.049 A 
ATOM     64  H   UNL A   1      43.018  29.000  32.404  1.00  0.00     0.167 HD
ATOM     65  C   UNL A   1      45.001  26.979  32.050  1.00  0.00     0.074 A 
ATOM     66  C   UNL A   1      45.746  25.862  31.503  1.00  0.00     0.031 C 
ATOM     67  C   UNL A   1      45.367  27.668  33.160  1.00  0.00     0.037 A 
BRANCH  54  68
ATOM     68  C   UNL A   1      41.583  32.334  34.658  1.00  0.00     0.058 A 
ATOM     69  C   UNL A   1      40.769  32.199  35.795  1.00  0.00     0.135 A 
ATOM     70  C   UNL A   1      42.126  33.602  34.392  1.00  0.00     0.135 A 
ATOM     71  F   UNL A   1      40.206  31.016  36.087  1.00  0.00    -0.206 F 
ATOM     72  C   UNL A   1      40.476  33.284  36.614  1.00  0.00     0.059 A 
ATOM     73  C   UNL A   1      41.874  34.693  35.217  1.00  0.00     0.059 A 
ATOM     74  F   UNL A   1      42.907  33.791  33.317  1.00  0.00    -0.206 F 
ATOM     75  C   UNL A   1      41.033  34.527  36.318  1.00  0.00     0.060 A 
BRANCH  75  76
ATOM     76  S   UNL A   1      40.647  35.923  37.396  1.00  0.00     0.124 S 
ATOM     77  O   UNL A   1      41.968  36.513  37.591  1.00  0.00    -0.237 OA
ATOM     78  O   UNL A   1      39.721  36.700  36.577  1.00  0.00    -0.237 OA
ATOM     79  O   UNL A   1      40.061  35.292  38.574  1.00  0.00    -0.744 OA
ENDBRANCH  75  76
ENDBRANCH  54  68
BRANCH  55  80
ATOM     80  C   UNL A   1      43.344  24.897  28.153  1.00  0.00     0.058 A 
ATOM     81  C   UNL A   1      43.980  25.174  26.934  1.00  0.00     0.135 A 
ATOM     82  C   UNL A   1      43.010  23.560  28.423  1.00  0.00     0.135 A 
ATOM     83  F   UNL A   1      44.319  26.436  26.628  1.00  0.00    -0.206 F 
ATOM     84  C   UNL A   1      44.259  24.172  26.009  1.00  0.00     0.059 A 
ATOM     85  C   UNL A   1      43.302  22.536  27.526  1.00  0.00     0.059 A 
ATOM     86  F   UNL A   1      42.418  23.235  29.583  1.00  0.00    -0.206 F 
ATOM     87  C   UNL A   1      43.918  22.854  26.316  1.00  0.00     0.060 A 
BRANCH  87  88
ATOM     88  S   UNL A   1      44.329  21.556  25.131  1.00  0.00     0.124 S 
ATOM     89  O   UNL A   1      43.240  20.609  25.343  1.00  0.00    -0.237 OA
ATOM     90  O   UNL A   1      44.306  22.281  23.864  1.00  0.00    -0.237 OA
ATOM     91  O   UNL A   1      45.649  21.108  25.565  1.00  0.00    -0.744 OA
ENDBRANCH  87  88
ENDBRANCH  55  80
BRANCH  67  92
ATOM     92  C   UNL A   1      46.605  27.213  33.879  1.00  0.00     0.058 A 
ATOM     93  C   UNL A   1      47.868  27.750  33.586  1.00  0.00     0.135 A 
ATOM     94  C   UNL A   1      46.514  26.278  34.922  1.00  0.00     0.135 A 
ATOM     95  F   UNL A   1      48.009  28.644  32.594  1.00  0.00    -0.206 F 
ATOM     96  C   UNL A   1      49.003  27.356  34.286  1.00  0.00     0.059 A 
ATOM     97  C   UNL A   1      47.630  25.893  35.655  1.00  0.00     0.059 A 
ATOM     98  F   UNL A   1      45.326  25.745  35.251  1.00  0.00    -0.206 F 
ATOM     99  C   UNL A   1      48.872  26.430  35.322  1.00  0.00     0.060 A 
BRANCH  99 100
ATOM    100  S   UNL A   1      50.347  25.957  36.249  1.00  0.00     0.124 S 
ATOM    101  O   UNL A   1      50.070  24.556  36.548  1.00  0.00    -0.237 OA
ATOM    102  O   UNL A   1      51.413  26.200  35.281  1.00  0.00    -0.237 OA
ATOM    103  O   UNL A   1      50.332  26.859  37.396  1.00  0.00    -0.744 OA
ENDBRANCH  99 100
ENDBRANCH  67  92
ENDBRANCH  41  42
ENDBRANCH  33  36
ENDBRANCH  31  32
ENDBRANCH  30  31
ENDBRANCH  29  30
ENDBRANCH   3  29
TORSDOF 20
ENDMDL
MODEL 2
REMARK VINA RESULT:     -11.6      5.114      9.620
REMARK SMILES COc1ccc([C@H]2CC(c3ccccc3)=NN2C(=O)CCCC(=O)NCCCNC(=O)c2ccc(-c3c4nc(c(-c5c(F)cc(S(=O)(=O)[O-])cc5F)c5ccc([nH]5)c(-c5c(F)cc(S(=O)(=O)[O-])cc5F)c5nc(c(-c6c(F)cc(S(=O)(=O)[O-])cc6F)c6ccc3[nH]6)C=C5)C=C4)cc2)cc1
REMARK SMILES IDX 23 1 24 2 25 3 22 5 21 6 20 7 18 8 19 9 17 10 7 11 8 12 9 13
REMARK SMILES IDX 16 14 6 15 3 16 4 17 99 18 5 19 98 20 2 21 1 22 10 23 11 24
REMARK SMILES IDX 15 25 12 26 14 27 13 28 26 29 27 30 28 31 29 32 30 33 31 35
REMARK SMILES IDX 32 36 33 37 97 38 34 39 96 40 35 41 36 42 37 43 90 44 38 45
REMARK SMILES IDX 95 46 89 47 91 48 39 49 94 50 88 51 87 52 40 54 74 55 53 56
REMARK SMILES IDX 73 57 54 58 57 59 72 60 92 61 55 62 56 63 71 65 93 66 58 67
REMARK SMILES IDX 41 68 42 69 51 70 43 71 44 72 50 73 52 74 45 75 46 76 47 77
REMARK SMILES IDX 48 78 49 79 75 80 76 81 85 82 77 83 78 84 84 85 86 86 79 87
REMARK SMILES IDX 80 88 81 89 82 90 83 91 59 92 60 93 69 94 61 95 62 96 68 97
REMARK SMILES IDX 70 98 63 99 64 100 65 101 66 102 67 103
REMARK H PARENT 25 4 29 34 91 53 57 64
REMARK Flexibility Score: inf
ROOT
ATOM      1  C   UNL A   1      31.940  28.135  27.348  1.00  0.00     0.220 C 
ATOM      2  O   UNL A   1      30.967  28.019  28.102  1.00  0.00    -0.275 OA
ATOM      3  N   UNL A   1      32.752  29.187  27.602  1.00  0.00    -0.356 N 
ATOM      4  H   UNL A   1      32.627  29.584  28.495  1.00  0.00     0.163 HD
ENDROOT
BRANCH   1   5
ATOM      5  C   UNL A   1      32.279  27.015  26.383  1.00  0.00     0.100 C 
BRANCH   5   6
ATOM      6  C   UNL A   1      31.415  25.861  25.952  1.00  0.00     0.020 C 
BRANCH   6   7
ATOM      7  C   UNL A   1      31.637  24.455  26.488  1.00  0.00     0.103 C 
BRANCH   7   8
ATOM      8  C   UNL A   1      32.248  23.236  25.761  1.00  0.00     0.243 C 
ATOM      9  O   UNL A   1      31.489  22.254  25.662  1.00  0.00    -0.273 OA
BRANCH   8  10
ATOM     10  N   UNL A   1      33.431  23.249  25.029  1.00  0.00    -0.225 N 
ATOM     11  C   UNL A   1      33.791  23.468  23.597  1.00  0.00     0.147 C 
ATOM     12  C   UNL A   1      35.315  23.389  23.548  1.00  0.00     0.091 C 
ATOM     13  C   UNL A   1      35.602  23.143  24.991  1.00  0.00     0.071 C 
ATOM     14  N   UNL A   1      34.583  23.067  25.781  1.00  0.00    -0.174 NA
BRANCH  11  15
ATOM     15  C   UNL A   1      33.307  24.772  22.988  1.00  0.00    -0.023 A 
ATOM     16  C   UNL A   1      32.034  27.213  22.546  1.00  0.00     0.118 A 
ATOM     17  C   UNL A   1      31.365  26.031  22.250  1.00  0.00     0.047 A 
ATOM     18  C   UNL A   1      33.370  27.191  22.947  1.00  0.00     0.047 A 
ATOM     19  C   UNL A   1      32.015  24.810  22.418  1.00  0.00     0.010 A 
ATOM     20  C   UNL A   1      34.013  25.969  23.155  1.00  0.00     0.010 A 
BRANCH  16  21
ATOM     21  O   UNL A   1      31.282  28.353  22.598  1.00  0.00    -0.497 OA
ATOM     22  C   UNL A   1      29.903  28.084  22.813  1.00  0.00     0.278 C 
ENDBRANCH  16  21
ENDBRANCH  11  15
BRANCH  13  23
ATOM     23  C   UNL A   1      36.978  23.005  25.469  1.00  0.00    -0.002 A 
ATOM     24  C   UNL A   1      37.637  21.782  25.339  1.00  0.00     0.010 A 
ATOM     25  C   UNL A   1      37.578  24.080  26.126  1.00  0.00     0.010 A 
ATOM     26  C   UNL A   1      38.918  21.636  25.871  1.00  0.00     0.001 A 
ATOM     27  C   UNL A   1      38.851  23.923  26.669  1.00  0.00     0.001 A 
ATOM     28  C   UNL A   1      39.520  22.703  26.541  1.00  0.00     0.000 A 
ENDBRANCH  13  23
ENDBRANCH   8  10
ENDBRANCH   7   8
ENDBRANCH   6   7
ENDBRANCH   5   6
ENDBRANCH   1   5
BRANCH   3  29
ATOM     29  C   UNL A   1      33.770  29.835  26.809  1.00  0.00     0.117 C 
BRANCH  29  30
ATOM     30  C   UNL A   1      35.144  29.328  27.192  1.00  0.00     0.042 C 
BRANCH  30  31
ATOM     31  C   UNL A   1      35.904  30.385  27.966  1.00  0.00     0.118 C 
BRANCH  31  32
ATOM     32  N   UNL A   1      35.694  30.249  29.403  1.00  0.00    -0.352 N 
ATOM     33  C   UNL A   1      36.593  29.817  30.345  1.00  0.00     0.251 C 
ATOM     34  H   UNL A   1      34.801  30.497  29.736  1.00  0.00     0.163 HD
ATOM     35  O   UNL A   1      36.223  29.515  31.474  1.00  0.00    -0.269 OA
BRANCH  33  36
ATOM     36  C   UNL A   1      38.008  29.712  29.947  1.00  0.00     0.039 A 
ATOM     37  C   UNL A   1      38.966  29.332  30.886  1.00  0.00     0.014 A 
ATOM     38  C   UNL A   1      38.351  29.896  28.605  1.00  0.00     0.014 A 
ATOM     39  C   UNL A   1      40.270  29.087  30.457  1.00  0.00     0.010 A 
ATOM     40  C   UNL A   1      39.607  29.519  28.164  1.00  0.00     0.010 A 
ATOM     41  C   UNL A   1      40.591  29.147  29.090  1.00  0.00    -0.014 A 
BRANCH  41  42
ATOM     42  C   UNL A   1      41.963  28.883  28.599  1.00  0.00     0.031 A 
ATOM     43  C   UNL A   1      42.322  27.495  28.135  1.00  0.00     0.074 A 
ATOM     44  C   UNL A   1      42.891  29.859  28.637  1.00  0.00     0.049 A 
ATOM     45  N   UNL A   1      43.478  27.028  27.743  1.00  0.00    -0.248 NA
ATOM     46  C   UNL A   1      41.250  26.484  28.160  1.00  0.00     0.031 C 
ATOM     47  C   UNL A   1      42.673  31.219  29.136  1.00  0.00     0.029 A 
ATOM     48  N   UNL A   1      44.207  29.855  28.255  1.00  0.00    -0.354 N 
ATOM     49  C   UNL A   1      43.274  25.675  27.504  1.00  0.00     0.074 A 
ATOM     50  C   UNL A   1      41.910  25.376  27.869  1.00  0.00     0.031 C 
ATOM     51  C   UNL A   1      43.804  31.928  28.993  1.00  0.00     0.029 A 
ATOM     52  C   UNL A   1      44.838  31.065  28.432  1.00  0.00     0.049 A 
ATOM     53  H   UNL A   1      44.659  29.061  27.888  1.00  0.00     0.167 HD
ATOM     54  C   UNL A   1      44.135  24.768  26.988  1.00  0.00     0.037 A 
ATOM     55  C   UNL A   1      46.107  31.430  28.170  1.00  0.00     0.037 A 
ATOM     56  C   UNL A   1      45.475  25.093  26.582  1.00  0.00     0.049 A 
ATOM     57  C   UNL A   1      47.041  30.415  27.567  1.00  0.00     0.074 A 
ATOM     58  C   UNL A   1      46.413  24.278  25.976  1.00  0.00     0.029 A 
ATOM     59  N   UNL A   1      46.066  26.340  26.739  1.00  0.00    -0.354 N 
ATOM     60  N   UNL A   1      46.810  29.156  27.273  1.00  0.00    -0.248 NA
ATOM     61  C   UNL A   1      48.402  30.867  27.253  1.00  0.00     0.031 C 
ATOM     62  C   UNL A   1      47.588  25.017  25.811  1.00  0.00     0.029 A 
ATOM     63  C   UNL A   1      47.365  26.310  26.262  1.00  0.00     0.049 A 
ATOM     64  H   UNL A   1      45.627  27.127  27.133  1.00  0.00     0.167 HD
ATOM     65  C   UNL A   1      47.988  28.674  26.712  1.00  0.00     0.074 A 
ATOM     66  C   UNL A   1      48.924  29.781  26.699  1.00  0.00     0.031 C 
ATOM     67  C   UNL A   1      48.272  27.430  26.252  1.00  0.00     0.037 A 
BRANCH  54  68
ATOM     68  C   UNL A   1      43.647  23.354  26.822  1.00  0.00     0.058 A 
ATOM     69  C   UNL A   1      43.511  22.483  27.917  1.00  0.00     0.135 A 
ATOM     70  C   UNL A   1      43.297  22.865  25.553  1.00  0.00     0.135 A 
ATOM     71  F   UNL A   1      43.849  22.890  29.151  1.00  0.00    -0.206 F 
ATOM     72  C   UNL A   1      43.081  21.171  27.755  1.00  0.00     0.059 A 
ATOM     73  C   UNL A   1      42.833  21.566  25.373  1.00  0.00     0.059 A 
ATOM     74  F   UNL A   1      43.413  23.650  24.471  1.00  0.00    -0.206 F 
ATOM     75  C   UNL A   1      42.743  20.721  26.479  1.00  0.00     0.060 A 
BRANCH  75  76
ATOM     76  S   UNL A   1      42.181  19.016  26.288  1.00  0.00     0.124 S 
ATOM     77  O   UNL A   1      42.257  18.530  27.663  1.00  0.00    -0.237 OA
ATOM     78  O   UNL A   1      40.834  19.192  25.753  1.00  0.00    -0.237 OA
ATOM     79  O   UNL A   1      43.151  18.439  25.363  1.00  0.00    -0.744 OA
ENDBRANCH  75  76
ENDBRANCH  54  68
BRANCH  55  80
ATOM     80  C   UNL A   1      46.551  32.824  28.441  1.00  0.00     0.058 A 
ATOM     81  C   UNL A   1      46.443  33.822  27.461  1.00  0.00     0.135 A 
ATOM     82  C   UNL A   1      47.068  33.195  29.693  1.00  0.00     0.135 A 
ATOM     83  F   UNL A   1      45.957  33.518  26.248  1.00  0.00    -0.206 F 
ATOM     84  C   UNL A   1      46.846  35.131  27.703  1.00  0.00     0.059 A 
ATOM     85  C   UNL A   1      47.453  34.503  29.968  1.00  0.00     0.059 A 
ATOM     86  F   UNL A   1      47.175  32.284  30.673  1.00  0.00    -0.206 F 
ATOM     87  C   UNL A   1      47.347  35.464  28.963  1.00  0.00     0.060 A 
BRANCH  87  88
ATOM     88  S   UNL A   1      47.821  37.177  29.281  1.00  0.00     0.124 S 
ATOM     89  O   UNL A   1      46.643  37.683  29.976  1.00  0.00    -0.237 OA
ATOM     90  O   UNL A   1      49.022  37.015  30.095  1.00  0.00    -0.237 OA
ATOM     91  O   UNL A   1      48.046  37.717  27.944  1.00  0.00    -0.744 OA
ENDBRANCH  87  88
ENDBRANCH  55  80
BRANCH  67  92
ATOM     92  C   UNL A   1      49.635  27.207  25.660  1.00  0.00     0.058 A 
ATOM     93  C   UNL A   1      50.720  26.785  26.443  1.00  0.00     0.135 A 
ATOM     94  C   UNL A   1      49.838  27.352  24.278  1.00  0.00     0.135 A 
ATOM     95  F   UNL A   1      50.579  26.637  27.771  1.00  0.00    -0.206 F 
ATOM     96  C   UNL A   1      51.967  26.538  25.881  1.00  0.00     0.059 A 
ATOM     97  C   UNL A   1      51.067  27.080  23.690  1.00  0.00     0.059 A 
ATOM     98  F   UNL A   1      48.828  27.739  23.483  1.00  0.00    -0.206 F 
ATOM     99  C   UNL A   1      52.129  26.685  24.501  1.00  0.00     0.060 A 
BRANCH  99 100
ATOM    100  S   UNL A   1      53.743  26.323  23.779  1.00  0.00     0.124 S 
ATOM    101  O   UNL A   1      54.450  27.581  23.994  1.00  0.00    -0.237 OA
ATOM    102  O   UNL A   1      54.198  25.193  24.584  1.00  0.00    -0.237 OA
ATOM    103  O   UNL A   1      53.430  26.008  22.388  1.00  0.00    -0.744 OA
ENDBRANCH  99 100
ENDBRANCH  67  92
ENDBRANCH  41  42
ENDBRANCH  33  36
ENDBRANCH  31  32
ENDBRANCH  30  31
ENDBRANCH  29  30
ENDBRANCH   3  29
TORSDOF 20
ENDMDL
MODEL 3
REMARK VINA RESULT:     -11.4      3.257      9.507
REMARK SMILES COc1ccc([C@H]2CC(c3ccccc3)=NN2C(=O)CCCC(=O)NCCCNC(=O)c2ccc(-c3c4nc(c(-c5c(F)cc(S(=O)(=O)[O-])cc5F)c5ccc([nH]5)c(-c5c(F)cc(S(=O)(=O)[O-])cc5F)c5nc(c(-c6c(F)cc(S(=O)(=O)[O-])cc6F)c6ccc3[nH]6)C=C5)C=C4)cc2)cc1
REMARK SMILES IDX 23 1 24 2 25 3 22 5 21 6 20 7 18 8 19 9 17 10 7 11 8 12 9 13
REMARK SMILES IDX 16 14 6 15 3 16 4 17 99 18 5 19 98 20 2 21 1 22 10 23 11 24
REMARK SMILES IDX 15 25 12 26 14 27 13 28 26 29 27 30 28 31 29 32 30 33 31 35
REMARK SMILES IDX 32 36 33 37 97 38 34 39 96 40 35 41 36 42 37 43 90 44 38 45
REMARK SMILES IDX 95 46 89 47 91 48 39 49 94 50 88 51 87 52 40 54 74 55 53 56
REMARK SMILES IDX 73 57 54 58 57 59 72 60 92 61 55 62 56 63 71 65 93 66 58 67
REMARK SMILES IDX 41 68 42 69 51 70 43 71 44 72 50 73 52 74 45 75 46 76 47 77
REMARK SMILES IDX 48 78 49 79 75 80 76 81 85 82 77 83 78 84 84 85 86 86 79 87
REMARK SMILES IDX 80 88 81 89 82 90 83 91 59 92 60 93 69 94 61 95 62 96 68 97
REMARK SMILES IDX 70 98 63 99 64 100 65 101 66 102 67 103
REMARK H PARENT 25 4 29 34 91 53 57 64
REMARK Flexibility Score: inf
ROOT
ATOM      1  C   UNL A   1      36.458  23.182  23.576  1.00  0.00     0.220 C 
ATOM      2  O   UNL A   1      36.862  22.933  22.434  1.00  0.00    -0.275 OA
ATOM      3  N   UNL A   1      37.421  23.407  24.500  1.00  0.00    -0.356 N 
ATOM      4  H   UNL A   1      38.308  23.599  24.115  1.00  0.00     0.163 HD
ENDROOT
BRANCH   1   5
ATOM      5  C   UNL A   1      34.982  23.442  23.810  1.00  0.00     0.100 C 
BRANCH   5   6
ATOM      6  C   UNL A   1      33.811  22.988  22.979  1.00  0.00     0.020 C 
BRANCH   6   7
ATOM      7  C   UNL A   1      33.189  23.887  21.921  1.00  0.00     0.103 C 
BRANCH   7   8
ATOM      8  C   UNL A   1      32.664  25.331  22.078  1.00  0.00     0.243 C 
ATOM      9  O   UNL A   1      33.269  26.183  21.402  1.00  0.00    -0.273 OA
BRANCH   8  10
ATOM     10  N   UNL A   1      31.469  25.687  22.695  1.00  0.00    -0.225 N 
ATOM     11  C   UNL A   1      30.493  25.002  23.594  1.00  0.00     0.147 C 
ATOM     12  C   UNL A   1      29.436  26.055  23.917  1.00  0.00     0.091 C 
ATOM     13  C   UNL A   1      29.985  27.209  23.148  1.00  0.00     0.071 C 
ATOM     14  N   UNL A   1      31.077  27.003  22.491  1.00  0.00    -0.174 NA
BRANCH  11  15
ATOM     15  C   UNL A   1      31.071  24.420  24.872  1.00  0.00    -0.023 A 
ATOM     16  C   UNL A   1      32.683  23.104  26.727  1.00  0.00     0.118 A 
ATOM     17  C   UNL A   1      31.731  22.382  26.016  1.00  0.00     0.047 A 
ATOM     18  C   UNL A   1      32.757  24.492  26.606  1.00  0.00     0.047 A 
ATOM     19  C   UNL A   1      30.886  23.043  25.127  1.00  0.00     0.010 A 
ATOM     20  C   UNL A   1      31.940  25.154  25.688  1.00  0.00     0.010 A 
BRANCH  16  21
ATOM     21  O   UNL A   1      33.636  22.384  27.391  1.00  0.00    -0.497 OA
ATOM     22  C   UNL A   1      34.029  21.218  26.681  1.00  0.00     0.278 C 
ENDBRANCH  16  21
ENDBRANCH  11  15
BRANCH  13  23
ATOM     23  C   UNL A   1      29.307  28.507  23.155  1.00  0.00    -0.002 A 
ATOM     24  C   UNL A   1      30.037  29.668  23.409  1.00  0.00     0.010 A 
ATOM     25  C   UNL A   1      27.922  28.548  22.992  1.00  0.00     0.010 A 
ATOM     26  C   UNL A   1      29.370  30.889  23.495  1.00  0.00     0.001 A 
ATOM     27  C   UNL A   1      27.259  29.769  23.096  1.00  0.00     0.001 A 
ATOM     28  C   UNL A   1      27.982  30.937  23.346  1.00  0.00     0.000 A 
ENDBRANCH  13  23
ENDBRANCH   8  10
ENDBRANCH   7   8
ENDBRANCH   6   7
ENDBRANCH   5   6
ENDBRANCH   1   5
BRANCH   3  29
ATOM     29  C   UNL A   1      37.391  23.420  25.943  1.00  0.00     0.117 C 
BRANCH  29  30
ATOM     30  C   UNL A   1      38.331  24.477  26.483  1.00  0.00     0.042 C 
BRANCH  30  31
ATOM     31  C   UNL A   1      39.595  23.841  27.020  1.00  0.00     0.118 C 
BRANCH  31  32
ATOM     32  N   UNL A   1      40.719  24.035  26.111  1.00  0.00    -0.352 N 
ATOM     33  C   UNL A   1      41.581  25.102  26.058  1.00  0.00     0.251 C 
ATOM     34  H   UNL A   1      40.879  23.315  25.459  1.00  0.00     0.163 HD
ATOM     35  O   UNL A   1      42.325  25.260  25.097  1.00  0.00    -0.269 OA
BRANCH  33  36
ATOM     36  C   UNL A   1      41.566  26.054  27.183  1.00  0.00     0.039 A 
ATOM     37  C   UNL A   1      41.715  27.418  26.939  1.00  0.00     0.014 A 
ATOM     38  C   UNL A   1      41.296  25.579  28.470  1.00  0.00     0.014 A 
ATOM     39  C   UNL A   1      41.542  28.314  27.993  1.00  0.00     0.010 A 
ATOM     40  C   UNL A   1      40.990  26.477  29.477  1.00  0.00     0.010 A 
ATOM     41  C   UNL A   1      41.146  27.852  29.260  1.00  0.00    -0.014 A 
BRANCH  41  42
ATOM     42  C   UNL A   1      40.944  28.778  30.399  1.00  0.00     0.031 A 
ATOM     43  C   UNL A   1      41.818  28.641  31.619  1.00  0.00     0.074 A 
ATOM     44  C   UNL A   1      39.945  29.681  30.364  1.00  0.00     0.049 A 
ATOM     45  N   UNL A   1      41.763  29.290  32.751  1.00  0.00    -0.248 NA
ATOM     46  C   UNL A   1      42.864  27.603  31.578  1.00  0.00     0.031 C 
ATOM     47  C   UNL A   1      38.992  29.851  29.264  1.00  0.00     0.029 A 
ATOM     48  N   UNL A   1      39.561  30.622  31.282  1.00  0.00    -0.354 N 
ATOM     49  C   UNL A   1      42.742  28.721  33.557  1.00  0.00     0.074 A 
ATOM     50  C   UNL A   1      43.322  27.625  32.818  1.00  0.00     0.031 C 
ATOM     51  C   UNL A   1      38.158  30.862  29.556  1.00  0.00     0.029 A 
ATOM     52  C   UNL A   1      38.489  31.384  30.877  1.00  0.00     0.049 A 
ATOM     53  H   UNL A   1      40.008  30.742  32.151  1.00  0.00     0.167 HD
ATOM     54  C   UNL A   1      43.150  29.103  34.790  1.00  0.00     0.037 A 
ATOM     55  C   UNL A   1      37.850  32.389  31.506  1.00  0.00     0.037 A 
ATOM     56  C   UNL A   1      42.597  30.229  35.492  1.00  0.00     0.049 A 
ATOM     57  C   UNL A   1      38.339  32.819  32.863  1.00  0.00     0.074 A 
ATOM     58  C   UNL A   1      42.980  30.757  36.710  1.00  0.00     0.029 A 
ATOM     59  N   UNL A   1      41.539  31.002  35.032  1.00  0.00    -0.354 N 
ATOM     60  N   UNL A   1      39.320  32.322  33.581  1.00  0.00    -0.248 NA
ATOM     61  C   UNL A   1      37.645  33.950  33.493  1.00  0.00     0.031 C 
ATOM     62  C   UNL A   1      42.124  31.820  37.010  1.00  0.00     0.029 A 
ATOM     63  C   UNL A   1      41.242  31.991  35.953  1.00  0.00     0.049 A 
ATOM     64  H   UNL A   1      41.070  30.866  34.177  1.00  0.00     0.167 HD
ATOM     65  C   UNL A   1      39.378  33.096  34.734  1.00  0.00     0.074 A 
ATOM     66  C   UNL A   1      38.341  34.102  34.611  1.00  0.00     0.031 C 
ATOM     67  C   UNL A   1      40.210  32.986  35.800  1.00  0.00     0.037 A 
BRANCH  54  68
ATOM     68  C   UNL A   1      44.250  28.309  35.440  1.00  0.00     0.058 A 
ATOM     69  C   UNL A   1      45.607  28.618  35.240  1.00  0.00     0.135 A 
ATOM     70  C   UNL A   1      43.946  27.230  36.286  1.00  0.00     0.135 A 
ATOM     71  F   UNL A   1      45.958  29.626  34.426  1.00  0.00    -0.206 F 
ATOM     72  C   UNL A   1      46.619  27.866  35.825  1.00  0.00     0.059 A 
ATOM     73  C   UNL A   1      44.942  26.485  36.909  1.00  0.00     0.059 A 
ATOM     74  F   UNL A   1      42.668  26.886  36.509  1.00  0.00    -0.206 F 
ATOM     75  C   UNL A   1      46.278  26.802  36.659  1.00  0.00     0.060 A 
BRANCH  75  76
ATOM     76  S   UNL A   1      47.605  25.840  37.415  1.00  0.00     0.124 S 
ATOM     77  O   UNL A   1      48.221  26.833  38.290  1.00  0.00    -0.237 OA
ATOM     78  O   UNL A   1      46.871  24.773  38.088  1.00  0.00    -0.237 OA
ATOM     79  O   UNL A   1      48.414  25.419  36.276  1.00  0.00    -0.744 OA
ENDBRANCH  75  76
ENDBRANCH  54  68
BRANCH  55  80
ATOM     80  C   UNL A   1      36.709  33.076  30.842  1.00  0.00     0.058 A 
ATOM     81  C   UNL A   1      36.916  33.932  29.751  1.00  0.00     0.135 A 
ATOM     82  C   UNL A   1      35.387  32.870  31.267  1.00  0.00     0.135 A 
ATOM     83  F   UNL A   1      38.161  34.163  29.307  1.00  0.00    -0.206 F 
ATOM     84  C   UNL A   1      35.857  34.573  29.114  1.00  0.00     0.059 A 
ATOM     85  C   UNL A   1      34.309  33.479  30.630  1.00  0.00     0.059 A 
ATOM     86  F   UNL A   1      35.131  32.045  32.294  1.00  0.00    -0.206 F 
ATOM     87  C   UNL A   1      34.556  34.338  29.560  1.00  0.00     0.060 A 
BRANCH  87  88
ATOM     88  S   UNL A   1      33.187  35.137  28.695  1.00  0.00     0.124 S 
ATOM     89  O   UNL A   1      32.678  34.044  27.876  1.00  0.00    -0.237 OA
ATOM     90  O   UNL A   1      32.332  35.558  29.801  1.00  0.00    -0.237 OA
ATOM     91  O   UNL A   1      33.837  36.223  27.967  1.00  0.00    -0.744 OA
ENDBRANCH  87  88
ENDBRANCH  55  80
BRANCH  67  92
ATOM     92  C   UNL A   1      40.063  33.999  36.899  1.00  0.00     0.058 A 
ATOM     93  C   UNL A   1      40.798  35.195  36.905  1.00  0.00     0.135 A 
ATOM     94  C   UNL A   1      39.122  33.800  37.923  1.00  0.00     0.135 A 
ATOM     95  F   UNL A   1      41.713  35.431  35.951  1.00  0.00    -0.206 F 
ATOM     96  C   UNL A   1      40.624  36.148  37.903  1.00  0.00     0.059 A 
ATOM     97  C   UNL A   1      38.910  34.752  38.912  1.00  0.00     0.059 A 
ATOM     98  F   UNL A   1      38.384  32.679  37.954  1.00  0.00    -0.206 F 
ATOM     99  C   UNL A   1      39.673  35.918  38.900  1.00  0.00     0.060 A 
BRANCH  99 100
ATOM    100  S   UNL A   1      39.430  37.181  40.166  1.00  0.00     0.124 S 
ATOM    101  O   UNL A   1      40.791  37.672  40.357  1.00  0.00    -0.237 OA
ATOM    102  O   UNL A   1      38.508  38.105  39.511  1.00  0.00    -0.237 OA
ATOM    103  O   UNL A   1      38.869  36.434  41.288  1.00  0.00    -0.744 OA
ENDBRANCH  99 100
ENDBRANCH  67  92
ENDBRANCH  41  42
ENDBRANCH  33  36
ENDBRANCH  31  32
ENDBRANCH  30  31
ENDBRANCH  29  30
ENDBRANCH   3  29
TORSDOF 20
ENDMDL
