MODEL 1
REMARK VINA RESULT:     -12.7      0.000      0.000
REMARK SMILES CCc1ccc(C(=O)NCCCNC(=O)c2ccc(-c3c4nc(c(-c5c(F)cc(S(=O)(=O)[O-])cc5F)c5ccc([nH]5)c(-c5c(F)cc(S(=O)(=O)[O-])cc5F)c5nc(c(-c6c(F)cc(S(=O)(=O)[O-])cc6F)c6ccc3[nH]6)C=C5)C=C4)cc2)cc1S(=O)(=O)Nc1ccc(F)c(F)c1F
REMARK SMILES IDX 11 1 10 2 9 3 7 4 8 5 6 7 3 8 4 9 83 10 5 11 82 12 2 13 1 14
REMARK SMILES IDX 84 15 85 16 86 17 87 18 88 20 89 21 95 22 90 23 93 24 96 25
REMARK SMILES IDX 91 26 94 27 92 28 12 29 13 30 14 31 15 33 16 34 17 35 81 36
REMARK SMILES IDX 18 37 80 38 19 39 20 40 21 41 74 42 22 43 79 44 73 45 75 46
REMARK SMILES IDX 23 47 78 48 72 49 71 50 24 52 58 53 37 54 57 55 38 56 41 57
REMARK SMILES IDX 56 58 76 59 39 60 40 61 55 63 77 64 42 65 25 66 26 67 35 68
REMARK SMILES IDX 27 69 28 70 34 71 36 72 29 73 30 74 31 75 32 76 33 77 59 78
REMARK SMILES IDX 60 79 69 80 61 81 62 82 68 83 70 84 63 85 64 86 65 87 66 88
REMARK SMILES IDX 67 89 43 90 44 91 53 92 45 93 46 94 52 95 54 96 47 97 48 98
REMARK SMILES IDX 49 99 50 100 51 101
REMARK H PARENT 9 6 87 19 13 32 75 51 41 62
REMARK Flexibility Score: inf
ROOT
ATOM      1  C   UNL A   1      39.129  22.609  26.476  1.00  0.00     0.042 C 
ENDROOT
BRANCH   1   2
ATOM      2  C   UNL A   1      37.857  23.394  26.171  1.00  0.00     0.118 C 
BRANCH   2   3
ATOM      3  N   UNL A   1      37.595  23.395  24.738  1.00  0.00    -0.352 N 
ATOM      4  C   UNL A   1      36.433  23.273  24.023  1.00  0.00     0.251 C 
ATOM      5  O   UNL A   1      36.482  23.283  22.796  1.00  0.00    -0.269 OA
ATOM      6  H   UNL A   1      38.400  23.503  24.182  1.00  0.00     0.163 HD
BRANCH   4   7
ATOM      7  C   UNL A   1      35.117  23.295  24.699  1.00  0.00     0.041 A 
ATOM      8  C   UNL A   1      32.404  23.102  25.428  1.00  0.00    -0.028 A 
ATOM      9  C   UNL A   1      33.241  21.966  25.397  1.00  0.00     0.006 A 
ATOM     10  C   UNL A   1      33.015  24.369  25.310  1.00  0.00     0.091 A 
ATOM     11  C   UNL A   1      34.578  22.058  25.029  1.00  0.00     0.014 A 
ATOM     12  C   UNL A   1      34.378  24.450  24.944  1.00  0.00     0.036 A 
BRANCH   8  13
ATOM     13  C   UNL A   1      30.932  22.787  25.498  1.00  0.00     0.033 C 
ATOM     14  C   UNL A   1      30.319  22.912  26.887  1.00  0.00     0.009 C 
ENDBRANCH   8  13
BRANCH  10  15
ATOM     15  S   UNL A   1      32.249  25.978  25.496  1.00  0.00     0.262 S 
ATOM     16  O   UNL A   1      31.371  26.189  24.367  1.00  0.00    -0.201 OA
ATOM     17  O   UNL A   1      31.716  25.988  26.844  1.00  0.00    -0.201 OA
BRANCH  15  18
ATOM     18  N   UNL A   1      33.399  27.177  25.497  1.00  0.00    -0.277 N 
ATOM     19  H   UNL A   1      34.145  27.063  24.864  1.00  0.00     0.180 HD
BRANCH  18  20
ATOM     20  C   UNL A   1      33.434  28.348  26.303  1.00  0.00     0.088 A 
ATOM     21  C   UNL A   1      34.663  28.576  26.951  1.00  0.00     0.033 A 
ATOM     22  C   UNL A   1      32.461  29.354  26.324  1.00  0.00     0.185 A 
ATOM     23  C   UNL A   1      34.953  29.826  27.502  1.00  0.00     0.045 A 
ATOM     24  C   UNL A   1      32.746  30.590  26.897  1.00  0.00     0.196 A 
ATOM     25  F   UNL A   1      31.281  29.197  25.713  1.00  0.00    -0.201 F 
ATOM     26  C   UNL A   1      33.996  30.830  27.452  1.00  0.00     0.162 A 
ATOM     27  F   UNL A   1      31.840  31.577  26.844  1.00  0.00    -0.200 F 
ATOM     28  F   UNL A   1      34.307  32.050  27.911  1.00  0.00    -0.204 F 
ENDBRANCH  18  20
ENDBRANCH  15  18
ENDBRANCH  10  15
ENDBRANCH   4   7
ENDBRANCH   2   3
ENDBRANCH   1   2
BRANCH   1  29
ATOM     29  C   UNL A   1      40.243  23.483  27.047  1.00  0.00     0.118 C 
BRANCH  29  30
ATOM     30  N   UNL A   1      40.969  24.196  26.005  1.00  0.00    -0.352 N 
ATOM     31  C   UNL A   1      41.329  25.520  25.949  1.00  0.00     0.251 C 
ATOM     32  H   UNL A   1      41.240  23.652  25.231  1.00  0.00     0.163 HD
ATOM     33  O   UNL A   1      41.756  25.989  24.899  1.00  0.00    -0.269 OA
BRANCH  31  34
ATOM     34  C   UNL A   1      41.187  26.377  27.146  1.00  0.00     0.039 A 
ATOM     35  C   UNL A   1      42.088  27.430  27.331  1.00  0.00     0.014 A 
ATOM     36  C   UNL A   1      40.189  26.132  28.094  1.00  0.00     0.014 A 
ATOM     37  C   UNL A   1      41.955  28.267  28.441  1.00  0.00     0.010 A 
ATOM     38  C   UNL A   1      40.019  27.007  29.164  1.00  0.00     0.010 A 
ATOM     39  C   UNL A   1      40.904  28.078  29.352  1.00  0.00    -0.014 A 
BRANCH  39  40
ATOM     40  C   UNL A   1      40.716  28.992  30.507  1.00  0.00     0.031 A 
ATOM     41  C   UNL A   1      41.561  28.835  31.743  1.00  0.00     0.074 A 
ATOM     42  C   UNL A   1      39.742  29.922  30.466  1.00  0.00     0.049 A 
ATOM     43  N   UNL A   1      41.505  29.495  32.871  1.00  0.00    -0.248 NA
ATOM     44  C   UNL A   1      42.583  27.778  31.716  1.00  0.00     0.031 C 
ATOM     45  C   UNL A   1      38.826  30.135  29.344  1.00  0.00     0.029 A 
ATOM     46  N   UNL A   1      39.353  30.854  31.394  1.00  0.00    -0.354 N 
ATOM     47  C   UNL A   1      42.470  28.924  33.693  1.00  0.00     0.074 A 
ATOM     48  C   UNL A   1      43.064  27.834  32.950  1.00  0.00     0.031 C 
ATOM     49  C   UNL A   1      37.993  31.145  29.643  1.00  0.00     0.029 A 
ATOM     50  C   UNL A   1      38.293  31.629  30.987  1.00  0.00     0.049 A 
ATOM     51  H   UNL A   1      39.791  30.958  32.270  1.00  0.00     0.167 HD
ATOM     52  C   UNL A   1      42.841  29.290  34.943  1.00  0.00     0.037 A 
ATOM     53  C   UNL A   1      37.634  32.615  31.626  1.00  0.00     0.037 A 
ATOM     54  C   UNL A   1      42.262  30.393  35.665  1.00  0.00     0.049 A 
ATOM     55  C   UNL A   1      38.074  33.014  33.007  1.00  0.00     0.074 A 
ATOM     56  C   UNL A   1      42.612  30.887  36.910  1.00  0.00     0.029 A 
ATOM     57  N   UNL A   1      41.209  31.173  35.208  1.00  0.00    -0.354 N 
ATOM     58  N   UNL A   1      39.034  32.509  33.744  1.00  0.00    -0.248 NA
ATOM     59  C   UNL A   1      37.347  34.122  33.641  1.00  0.00     0.031 C 
ATOM     60  C   UNL A   1      41.745  31.941  37.222  1.00  0.00     0.029 A 
ATOM     61  C   UNL A   1      40.884  32.132  36.153  1.00  0.00     0.049 A 
ATOM     62  H   UNL A   1      40.759  31.061  34.340  1.00  0.00     0.167 HD
ATOM     63  C   UNL A   1      39.041  33.249  34.920  1.00  0.00     0.074 A 
ATOM     64  C   UNL A   1      37.998  34.246  34.790  1.00  0.00     0.031 C 
ATOM     65  C   UNL A   1      39.840  33.117  36.008  1.00  0.00     0.037 A 
BRANCH  52  66
ATOM     66  C   UNL A   1      43.926  28.486  35.607  1.00  0.00     0.058 A 
ATOM     67  C   UNL A   1      43.631  27.399  36.446  1.00  0.00     0.135 A 
ATOM     68  C   UNL A   1      45.279  28.794  35.390  1.00  0.00     0.135 A 
ATOM     69  F   UNL A   1      42.354  27.067  36.698  1.00  0.00    -0.206 F 
ATOM     70  C   UNL A   1      44.635  26.673  37.078  1.00  0.00     0.059 A 
ATOM     71  C   UNL A   1      46.301  28.064  35.991  1.00  0.00     0.059 A 
ATOM     72  F   UNL A   1      45.620  29.821  34.596  1.00  0.00    -0.206 F 
ATOM     73  C   UNL A   1      45.968  27.017  36.849  1.00  0.00     0.060 A 
BRANCH  73  74
ATOM     74  S   UNL A   1      47.259  26.074  37.688  1.00  0.00     0.124 S 
ATOM     75  O   UNL A   1      48.449  26.499  36.957  1.00  0.00    -0.237 OA
ATOM     76  O   UNL A   1      47.156  26.554  39.062  1.00  0.00    -0.237 OA
ATOM     77  O   UNL A   1      46.857  24.687  37.481  1.00  0.00    -0.744 OA
ENDBRANCH  73  74
ENDBRANCH  52  66
BRANCH  53  78
ATOM     78  C   UNL A   1      36.510  33.310  30.945  1.00  0.00     0.058 A 
ATOM     79  C   UNL A   1      35.193  33.164  31.402  1.00  0.00     0.135 A 
ATOM     80  C   UNL A   1      36.734  34.161  29.852  1.00  0.00     0.135 A 
ATOM     81  F   UNL A   1      34.928  32.355  32.440  1.00  0.00    -0.206 F 
ATOM     82  C   UNL A   1      34.133  33.832  30.797  1.00  0.00     0.059 A 
ATOM     83  C   UNL A   1      35.693  34.858  29.245  1.00  0.00     0.059 A 
ATOM     84  F   UNL A   1      37.979  34.346  29.389  1.00  0.00    -0.206 F 
ATOM     85  C   UNL A   1      34.395  34.683  29.721  1.00  0.00     0.060 A 
BRANCH  85  86
ATOM     86  S   UNL A   1      33.021  35.596  28.987  1.00  0.00     0.124 S 
ATOM     87  O   UNL A   1      32.403  34.576  28.148  1.00  0.00    -0.237 OA
ATOM     88  O   UNL A   1      32.259  36.004  30.164  1.00  0.00    -0.237 OA
ATOM     89  O   UNL A   1      33.685  36.684  28.274  1.00  0.00    -0.744 OA
ENDBRANCH  85  86
ENDBRANCH  53  78
BRANCH  65  90
ATOM     90  C   UNL A   1      39.633  34.088  37.137  1.00  0.00     0.058 A 
ATOM     91  C   UNL A   1      38.929  33.729  38.296  1.00  0.00     0.135 A 
ATOM     92  C   UNL A   1      40.186  35.376  37.077  1.00  0.00     0.135 A 
ATOM     93  F   UNL A   1      38.374  32.510  38.400  1.00  0.00    -0.206 F 
ATOM     94  C   UNL A   1      38.761  34.621  39.349  1.00  0.00     0.059 A 
ATOM     95  C   UNL A   1      40.052  36.277  38.128  1.00  0.00     0.059 A 
ATOM     96  F   UNL A   1      40.877  35.767  35.994  1.00  0.00    -0.206 F 
ATOM     97  C   UNL A   1      39.327  35.894  39.256  1.00  0.00     0.060 A 
BRANCH  97  98
ATOM     98  S   UNL A   1      39.131  37.035  40.643  1.00  0.00     0.124 S 
ATOM     99  O   UNL A   1      38.279  38.064  40.057  1.00  0.00    -0.237 OA
ATOM    100  O   UNL A   1      38.503  36.193  41.656  1.00  0.00    -0.237 OA
ATOM    101  O   UNL A   1      40.499  37.446  40.939  1.00  0.00    -0.744 OA
ENDBRANCH  97  98
ENDBRANCH  65  90
ENDBRANCH  39  40
ENDBRANCH  31  34
ENDBRANCH  29  30
ENDBRANCH   1  29
TORSDOF 17
ENDMDL
MODEL 2
REMARK VINA RESULT:     -12.6      1.233      2.224
REMARK SMILES CCc1ccc(C(=O)NCCCNC(=O)c2ccc(-c3c4nc(c(-c5c(F)cc(S(=O)(=O)[O-])cc5F)c5ccc([nH]5)c(-c5c(F)cc(S(=O)(=O)[O-])cc5F)c5nc(c(-c6c(F)cc(S(=O)(=O)[O-])cc6F)c6ccc3[nH]6)C=C5)C=C4)cc2)cc1S(=O)(=O)Nc1ccc(F)c(F)c1F
REMARK SMILES IDX 11 1 10 2 9 3 7 4 8 5 6 7 3 8 4 9 83 10 5 11 82 12 2 13 1 14
REMARK SMILES IDX 84 15 85 16 86 17 87 18 88 20 89 21 95 22 90 23 93 24 96 25
REMARK SMILES IDX 91 26 94 27 92 28 12 29 13 30 14 31 15 33 16 34 17 35 81 36
REMARK SMILES IDX 18 37 80 38 19 39 20 40 21 41 74 42 22 43 79 44 73 45 75 46
REMARK SMILES IDX 23 47 78 48 72 49 71 50 24 52 58 53 37 54 57 55 38 56 41 57
REMARK SMILES IDX 56 58 76 59 39 60 40 61 55 63 77 64 42 65 25 66 26 67 35 68
REMARK SMILES IDX 27 69 28 70 34 71 36 72 29 73 30 74 31 75 32 76 33 77 59 78
REMARK SMILES IDX 60 79 69 80 61 81 62 82 68 83 70 84 63 85 64 86 65 87 66 88
REMARK SMILES IDX 67 89 43 90 44 91 53 92 45 93 46 94 52 95 54 96 47 97 48 98
REMARK SMILES IDX 49 99 50 100 51 101
REMARK H PARENT 9 6 87 19 13 32 75 51 41 62
REMARK Flexibility Score: inf
ROOT
ATOM      1  C   UNL A   1      37.388  23.361  25.499  1.00  0.00     0.042 C 
ENDROOT
BRANCH   1   2
ATOM      2  C   UNL A   1      36.014  23.162  26.132  1.00  0.00     0.118 C 
BRANCH   2   3
ATOM      3  N   UNL A   1      35.397  21.943  25.628  1.00  0.00    -0.352 N 
ATOM      4  C   UNL A   1      34.236  21.728  24.933  1.00  0.00     0.251 C 
ATOM      5  O   UNL A   1      33.920  20.579  24.638  1.00  0.00    -0.269 OA
ATOM      6  H   UNL A   1      35.907  21.124  25.821  1.00  0.00     0.163 HD
BRANCH   4   7
ATOM      7  C   UNL A   1      33.449  22.860  24.397  1.00  0.00     0.041 A 
ATOM      8  C   UNL A   1      32.495  25.341  23.466  1.00  0.00    -0.028 A 
ATOM      9  C   UNL A   1      33.320  24.522  22.666  1.00  0.00     0.006 A 
ATOM     10  C   UNL A   1      31.971  24.783  24.652  1.00  0.00     0.091 A 
ATOM     11  C   UNL A   1      33.799  23.301  23.126  1.00  0.00     0.014 A 
ATOM     12  C   UNL A   1      32.459  23.537  25.107  1.00  0.00     0.036 A 
BRANCH   8  13
ATOM     13  C   UNL A   1      32.358  26.758  22.971  1.00  0.00     0.033 C 
ATOM     14  C   UNL A   1      33.669  27.526  22.868  1.00  0.00     0.009 C 
ENDBRANCH   8  13
BRANCH  10  15
ATOM     15  S   UNL A   1      30.764  25.502  25.763  1.00  0.00     0.262 S 
ATOM     16  O   UNL A   1      29.894  26.357  24.987  1.00  0.00    -0.201 OA
ATOM     17  O   UNL A   1      30.214  24.380  26.499  1.00  0.00    -0.201 OA
BRANCH  15  18
ATOM     18  N   UNL A   1      31.514  26.429  26.920  1.00  0.00    -0.277 N 
ATOM     19  H   UNL A   1      31.463  26.093  27.844  1.00  0.00     0.180 HD
BRANCH  18  20
ATOM     20  C   UNL A   1      32.222  27.648  26.733  1.00  0.00     0.088 A 
ATOM     21  C   UNL A   1      31.491  28.806  27.064  1.00  0.00     0.033 A 
ATOM     22  C   UNL A   1      33.592  27.765  26.469  1.00  0.00     0.185 A 
ATOM     23  C   UNL A   1      32.142  30.028  27.242  1.00  0.00     0.045 A 
ATOM     24  C   UNL A   1      34.231  28.991  26.624  1.00  0.00     0.196 A 
ATOM     25  F   UNL A   1      34.338  26.696  26.164  1.00  0.00    -0.201 F 
ATOM     26  C   UNL A   1      33.513  30.105  27.039  1.00  0.00     0.162 A 
ATOM     27  F   UNL A   1      35.557  29.081  26.448  1.00  0.00    -0.200 F 
ATOM     28  F   UNL A   1      34.145  31.261  27.288  1.00  0.00    -0.204 F 
ENDBRANCH  18  20
ENDBRANCH  15  18
ENDBRANCH  10  15
ENDBRANCH   4   7
ENDBRANCH   2   3
ENDBRANCH   1   2
BRANCH   1  29
ATOM     29  C   UNL A   1      38.302  24.256  26.333  1.00  0.00     0.118 C 
BRANCH  29  30
ATOM     30  N   UNL A   1      39.710  23.968  26.100  1.00  0.00    -0.352 N 
ATOM     31  C   UNL A   1      40.819  24.642  26.549  1.00  0.00     0.251 C 
ATOM     32  H   UNL A   1      39.893  23.178  25.542  1.00  0.00     0.163 HD
ATOM     33  O   UNL A   1      41.922  24.374  26.083  1.00  0.00    -0.269 OA
BRANCH  31  34
ATOM     34  C   UNL A   1      40.680  25.694  27.579  1.00  0.00     0.039 A 
ATOM     35  C   UNL A   1      39.681  25.562  28.548  1.00  0.00     0.014 A 
ATOM     36  C   UNL A   1      41.512  26.818  27.577  1.00  0.00     0.014 A 
ATOM     37  C   UNL A   1      39.551  26.532  29.544  1.00  0.00     0.010 A 
ATOM     38  C   UNL A   1      41.423  27.750  28.608  1.00  0.00     0.010 A 
ATOM     39  C   UNL A   1      40.438  27.620  29.597  1.00  0.00    -0.014 A 
BRANCH  39  40
ATOM     40  C   UNL A   1      40.347  28.631  30.681  1.00  0.00     0.031 A 
ATOM     41  C   UNL A   1      41.222  28.514  31.900  1.00  0.00     0.074 A 
ATOM     42  C   UNL A   1      39.433  29.616  30.595  1.00  0.00     0.049 A 
ATOM     43  N   UNL A   1      41.247  29.262  32.973  1.00  0.00    -0.248 NA
ATOM     44  C   UNL A   1      42.175  27.393  31.928  1.00  0.00     0.031 C 
ATOM     45  C   UNL A   1      38.494  29.802  29.487  1.00  0.00     0.029 A 
ATOM     46  N   UNL A   1      39.135  30.640  31.457  1.00  0.00    -0.354 N 
ATOM     47  C   UNL A   1      42.201  28.694  33.810  1.00  0.00     0.074 A 
ATOM     48  C   UNL A   1      42.700  27.513  33.138  1.00  0.00     0.031 C 
ATOM     49  C   UNL A   1      37.737  30.884  29.729  1.00  0.00     0.029 A 
ATOM     50  C   UNL A   1      38.112  31.450  31.021  1.00  0.00     0.049 A 
ATOM     51  H   UNL A   1      39.609  30.783  32.309  1.00  0.00     0.167 HD
ATOM     52  C   UNL A   1      42.638  29.129  35.016  1.00  0.00     0.037 A 
ATOM     53  C   UNL A   1      37.540  32.523  31.599  1.00  0.00     0.037 A 
ATOM     54  C   UNL A   1      42.154  30.321  35.665  1.00  0.00     0.049 A 
ATOM     55  C   UNL A   1      38.051  32.998  32.931  1.00  0.00     0.074 A 
ATOM     56  C   UNL A   1      42.577  30.885  36.856  1.00  0.00     0.029 A 
ATOM     57  N   UNL A   1      41.137  31.130  35.179  1.00  0.00    -0.354 N 
ATOM     58  N   UNL A   1      39.002  32.489  33.677  1.00  0.00    -0.248 NA
ATOM     59  C   UNL A   1      37.417  34.196  33.496  1.00  0.00     0.031 C 
ATOM     60  C   UNL A   1      41.789  32.014  37.109  1.00  0.00     0.029 A 
ATOM     61  C   UNL A   1      40.905  32.179  36.054  1.00  0.00     0.049 A 
ATOM     62  H   UNL A   1      40.652  30.982  34.335  1.00  0.00     0.167 HD
ATOM     63  C   UNL A   1      39.095  33.316  34.791  1.00  0.00     0.074 A 
ATOM     64  C   UNL A   1      38.113  34.366  34.613  1.00  0.00     0.031 C 
ATOM     65  C   UNL A   1      39.922  33.216  35.862  1.00  0.00     0.037 A 
BRANCH  52  66
ATOM     66  C   UNL A   1      43.691  28.310  35.709  1.00  0.00     0.058 A 
ATOM     67  C   UNL A   1      45.060  28.512  35.470  1.00  0.00     0.135 A 
ATOM     68  C   UNL A   1      43.331  27.318  36.636  1.00  0.00     0.135 A 
ATOM     69  F   UNL A   1      45.461  29.439  34.584  1.00  0.00    -0.206 F 
ATOM     70  C   UNL A   1      46.032  27.737  36.093  1.00  0.00     0.059 A 
ATOM     71  C   UNL A   1      44.287  26.548  37.292  1.00  0.00     0.059 A 
ATOM     72  F   UNL A   1      42.037  27.082  36.906  1.00  0.00    -0.206 F 
ATOM     73  C   UNL A   1      45.635  26.752  36.999  1.00  0.00     0.060 A 
BRANCH  73  74
ATOM     74  S   UNL A   1      46.907  25.743  37.790  1.00  0.00     0.124 S 
ATOM     75  O   UNL A   1      47.084  26.442  39.059  1.00  0.00    -0.237 OA
ATOM     76  O   UNL A   1      46.266  24.435  37.872  1.00  0.00    -0.237 OA
ATOM     77  O   UNL A   1      48.032  25.828  36.864  1.00  0.00    -0.744 OA
ENDBRANCH  73  74
ENDBRANCH  52  66
BRANCH  53  78
ATOM     78  C   UNL A   1      36.438  33.235  30.899  1.00  0.00     0.058 A 
ATOM     79  C   UNL A   1      35.119  33.151  31.362  1.00  0.00     0.135 A 
ATOM     80  C   UNL A   1      36.690  34.043  29.778  1.00  0.00     0.135 A 
ATOM     81  F   UNL A   1      34.829  32.386  32.426  1.00  0.00    -0.206 F 
ATOM     82  C   UNL A   1      34.081  33.837  30.738  1.00  0.00     0.059 A 
ATOM     83  C   UNL A   1      35.673  34.757  29.152  1.00  0.00     0.059 A 
ATOM     84  F   UNL A   1      37.939  34.169  29.308  1.00  0.00    -0.206 F 
ATOM     85  C   UNL A   1      34.370  34.643  29.635  1.00  0.00     0.060 A 
BRANCH  85  86
ATOM     86  S   UNL A   1      33.027  35.582  28.875  1.00  0.00     0.124 S 
ATOM     87  O   UNL A   1      33.759  36.646  28.197  1.00  0.00    -0.237 OA
ATOM     88  O   UNL A   1      32.405  34.583  28.010  1.00  0.00    -0.237 OA
ATOM     89  O   UNL A   1      32.220  35.997  30.018  1.00  0.00    -0.744 OA
ENDBRANCH  85  86
ENDBRANCH  53  78
BRANCH  65  90
ATOM     90  C   UNL A   1      39.814  34.282  36.916  1.00  0.00     0.058 A 
ATOM     91  C   UNL A   1      40.463  35.518  36.782  1.00  0.00     0.135 A 
ATOM     92  C   UNL A   1      39.014  34.080  38.052  1.00  0.00     0.135 A 
ATOM     93  F   UNL A   1      41.246  35.759  35.717  1.00  0.00    -0.206 F 
ATOM     94  C   UNL A   1      40.340  36.511  37.747  1.00  0.00     0.059 A 
ATOM     95  C   UNL A   1      38.856  35.068  39.018  1.00  0.00     0.059 A 
ATOM     96  F   UNL A   1      38.364  32.917  38.224  1.00  0.00    -0.206 F 
ATOM     97  C   UNL A   1      39.534  36.277  38.863  1.00  0.00     0.060 A 
BRANCH  97  98
ATOM     98  S   UNL A   1      39.355  37.585  40.095  1.00  0.00     0.124 S 
ATOM     99  O   UNL A   1      39.048  36.816  41.297  1.00  0.00    -0.237 OA
ATOM    100  O   UNL A   1      40.668  38.222  40.069  1.00  0.00    -0.237 OA
ATOM    101  O   UNL A   1      38.261  38.396  39.572  1.00  0.00    -0.744 OA
ENDBRANCH  97  98
ENDBRANCH  65  90
ENDBRANCH  39  40
ENDBRANCH  31  34
ENDBRANCH  29  30
ENDBRANCH   1  29
TORSDOF 17
ENDMDL
MODEL 3
REMARK VINA RESULT:     -12.5      6.522     11.994
REMARK SMILES CCc1ccc(C(=O)NCCCNC(=O)c2ccc(-c3c4nc(c(-c5c(F)cc(S(=O)(=O)[O-])cc5F)c5ccc([nH]5)c(-c5c(F)cc(S(=O)(=O)[O-])cc5F)c5nc(c(-c6c(F)cc(S(=O)(=O)[O-])cc6F)c6ccc3[nH]6)C=C5)C=C4)cc2)cc1S(=O)(=O)Nc1ccc(F)c(F)c1F
REMARK SMILES IDX 11 1 10 2 9 3 7 4 8 5 6 7 3 8 4 9 83 10 5 11 82 12 2 13 1 14
REMARK SMILES IDX 84 15 85 16 86 17 87 18 88 20 89 21 95 22 90 23 93 24 96 25
REMARK SMILES IDX 91 26 94 27 92 28 12 29 13 30 14 31 15 33 16 34 17 35 81 36
REMARK SMILES IDX 18 37 80 38 19 39 20 40 21 41 74 42 22 43 79 44 73 45 75 46
REMARK SMILES IDX 23 47 78 48 72 49 71 50 24 52 58 53 37 54 57 55 38 56 41 57
REMARK SMILES IDX 56 58 76 59 39 60 40 61 55 63 77 64 42 65 25 66 26 67 35 68
REMARK SMILES IDX 27 69 28 70 34 71 36 72 29 73 30 74 31 75 32 76 33 77 59 78
REMARK SMILES IDX 60 79 69 80 61 81 62 82 68 83 70 84 63 85 64 86 65 87 66 88
REMARK SMILES IDX 67 89 43 90 44 91 53 92 45 93 46 94 52 95 54 96 47 97 48 98
REMARK SMILES IDX 49 99 50 100 51 101
REMARK H PARENT 9 6 87 19 13 32 75 51 41 62
REMARK Flexibility Score: inf
ROOT
ATOM      1  C   UNL A   1      34.056  29.568  27.231  1.00  0.00     0.042 C 
ENDROOT
BRANCH   1   2
ATOM      2  C   UNL A   1      34.021  28.389  26.263  1.00  0.00     0.118 C 
BRANCH   2   3
ATOM      3  N   UNL A   1      33.974  28.865  24.888  1.00  0.00    -0.352 N 
ATOM      4  C   UNL A   1      33.539  28.274  23.731  1.00  0.00     0.251 C 
ATOM      5  O   UNL A   1      33.628  28.891  22.674  1.00  0.00    -0.269 OA
ATOM      6  H   UNL A   1      34.317  29.780  24.767  1.00  0.00     0.163 HD
BRANCH   4   7
ATOM      7  C   UNL A   1      32.820  26.981  23.762  1.00  0.00     0.041 A 
ATOM      8  C   UNL A   1      31.552  24.562  24.450  1.00  0.00    -0.028 A 
ATOM      9  C   UNL A   1      30.916  25.808  24.641  1.00  0.00     0.006 A 
ATOM     10  C   UNL A   1      32.743  24.545  23.693  1.00  0.00     0.091 A 
ATOM     11  C   UNL A   1      31.543  27.003  24.310  1.00  0.00     0.014 A 
ATOM     12  C   UNL A   1      33.368  25.766  23.355  1.00  0.00     0.036 A 
BRANCH   8  13
ATOM     13  C   UNL A   1      30.897  23.413  25.174  1.00  0.00     0.033 C 
ATOM     14  C   UNL A   1      31.368  23.212  26.608  1.00  0.00     0.009 C 
ENDBRANCH   8  13
BRANCH  10  15
ATOM     15  S   UNL A   1      33.666  23.114  23.134  1.00  0.00     0.262 S 
ATOM     16  O   UNL A   1      32.788  22.305  22.319  1.00  0.00    -0.201 OA
ATOM     17  O   UNL A   1      34.890  23.653  22.572  1.00  0.00    -0.201 OA
BRANCH  15  18
ATOM     18  N   UNL A   1      34.171  22.202  24.427  1.00  0.00    -0.277 N 
ATOM     19  H   UNL A   1      33.502  21.595  24.817  1.00  0.00     0.180 HD
BRANCH  18  20
ATOM     20  C   UNL A   1      35.456  22.195  25.038  1.00  0.00     0.088 A 
ATOM     21  C   UNL A   1      36.162  20.985  24.903  1.00  0.00     0.033 A 
ATOM     22  C   UNL A   1      36.124  23.316  25.546  1.00  0.00     0.185 A 
ATOM     23  C   UNL A   1      37.533  20.931  25.158  1.00  0.00     0.045 A 
ATOM     24  C   UNL A   1      37.487  23.251  25.823  1.00  0.00     0.196 A 
ATOM     25  F   UNL A   1      35.507  24.495  25.683  1.00  0.00    -0.201 F 
ATOM     26  C   UNL A   1      38.189  22.074  25.598  1.00  0.00     0.162 A 
ATOM     27  F   UNL A   1      38.139  24.347  26.233  1.00  0.00    -0.200 F 
ATOM     28  F   UNL A   1      39.518  22.038  25.765  1.00  0.00    -0.204 F 
ENDBRANCH  18  20
ENDBRANCH  15  18
ENDBRANCH  10  15
ENDBRANCH   4   7
ENDBRANCH   2   3
ENDBRANCH   1   2
BRANCH   1  29
ATOM     29  C   UNL A   1      35.451  29.837  27.790  1.00  0.00     0.118 C 
BRANCH  29  30
ATOM     30  N   UNL A   1      35.405  30.351  29.151  1.00  0.00    -0.352 N 
ATOM     31  C   UNL A   1      36.393  30.367  30.105  1.00  0.00     0.251 C 
ATOM     32  H   UNL A   1      34.545  30.742  29.427  1.00  0.00     0.163 HD
ATOM     33  O   UNL A   1      36.111  30.654  31.265  1.00  0.00    -0.269 OA
BRANCH  31  34
ATOM     34  C   UNL A   1      37.784  30.027  29.738  1.00  0.00     0.039 A 
ATOM     35  C   UNL A   1      38.677  29.655  30.747  1.00  0.00     0.014 A 
ATOM     36  C   UNL A   1      38.217  30.098  28.410  1.00  0.00     0.014 A 
ATOM     37  C   UNL A   1      39.987  29.305  30.418  1.00  0.00     0.010 A 
ATOM     38  C   UNL A   1      39.505  29.686  28.077  1.00  0.00     0.010 A 
ATOM     39  C   UNL A   1      40.405  29.293  29.077  1.00  0.00    -0.014 A 
BRANCH  39  40
ATOM     40  C   UNL A   1      41.779  28.870  28.705  1.00  0.00     0.031 A 
ATOM     41  C   UNL A   1      42.897  29.877  28.669  1.00  0.00     0.074 A 
ATOM     42  C   UNL A   1      42.004  27.593  28.339  1.00  0.00     0.049 A 
ATOM     43  N   UNL A   1      44.145  29.713  28.313  1.00  0.00    -0.248 NA
ATOM     44  C   UNL A   1      42.560  31.256  29.057  1.00  0.00     0.031 C 
ATOM     45  C   UNL A   1      40.989  26.539  28.285  1.00  0.00     0.029 A 
ATOM     46  N   UNL A   1      43.155  26.968  27.934  1.00  0.00    -0.354 N 
ATOM     47  C   UNL A   1      44.737  30.966  28.417  1.00  0.00     0.074 A 
ATOM     48  C   UNL A   1      43.700  31.889  28.825  1.00  0.00     0.031 C 
ATOM     49  C   UNL A   1      41.566  25.394  27.886  1.00  0.00     0.029 A 
ATOM     50  C   UNL A   1      42.982  25.639  27.626  1.00  0.00     0.049 A 
ATOM     51  H   UNL A   1      44.024  27.427  27.868  1.00  0.00     0.167 HD
ATOM     52  C   UNL A   1      46.031  31.311  28.213  1.00  0.00     0.037 A 
ATOM     53  C   UNL A   1      43.862  24.722  27.181  1.00  0.00     0.037 A 
ATOM     54  C   UNL A   1      47.062  30.379  27.832  1.00  0.00     0.049 A 
ATOM     55  C   UNL A   1      45.297  25.123  26.977  1.00  0.00     0.074 A 
ATOM     56  C   UNL A   1      48.416  30.615  27.665  1.00  0.00     0.029 A 
ATOM     57  N   UNL A   1      46.853  29.036  27.557  1.00  0.00    -0.354 N 
ATOM     58  N   UNL A   1      45.856  26.298  27.145  1.00  0.00    -0.248 NA
ATOM     59  C   UNL A   1      46.222  24.074  26.528  1.00  0.00     0.031 C 
ATOM     60  C   UNL A   1      49.019  29.421  27.251  1.00  0.00     0.029 A 
ATOM     61  C   UNL A   1      48.049  28.432  27.203  1.00  0.00     0.049 A 
ATOM     62  H   UNL A   1      45.983  28.578  27.607  1.00  0.00     0.167 HD
ATOM     63  C   UNL A   1      47.202  26.126  26.844  1.00  0.00     0.074 A 
ATOM     64  C   UNL A   1      47.375  24.730  26.496  1.00  0.00     0.031 C 
ATOM     65  C   UNL A   1      48.203  27.041  26.858  1.00  0.00     0.037 A 
BRANCH  52  66
ATOM     66  C   UNL A   1      46.400  32.757  28.398  1.00  0.00     0.058 A 
ATOM     67  C   UNL A   1      46.813  33.260  29.643  1.00  0.00     0.135 A 
ATOM     68  C   UNL A   1      46.357  33.651  27.316  1.00  0.00     0.135 A 
ATOM     69  F   UNL A   1      46.861  32.453  30.715  1.00  0.00    -0.206 F 
ATOM     70  C   UNL A   1      47.130  34.603  29.818  1.00  0.00     0.059 A 
ATOM     71  C   UNL A   1      46.696  34.993  27.461  1.00  0.00     0.059 A 
ATOM     72  F   UNL A   1      45.972  33.225  26.102  1.00  0.00    -0.206 F 
ATOM     73  C   UNL A   1      47.063  35.464  28.721  1.00  0.00     0.060 A 
BRANCH  73  74
ATOM     74  S   UNL A   1      47.464  37.207  28.966  1.00  0.00     0.124 S 
ATOM     75  O   UNL A   1      48.225  37.503  27.756  1.00  0.00    -0.237 OA
ATOM     76  O   UNL A   1      46.144  37.825  29.050  1.00  0.00    -0.237 OA
ATOM     77  O   UNL A   1      48.232  37.208  30.207  1.00  0.00    -0.744 OA
ENDBRANCH  73  74
ENDBRANCH  52  66
BRANCH  53  78
ATOM     78  C   UNL A   1      43.410  23.328  26.931  1.00  0.00     0.058 A 
ATOM     79  C   UNL A   1      43.301  22.831  25.625  1.00  0.00     0.135 A 
ATOM     80  C   UNL A   1      43.116  22.456  27.991  1.00  0.00     0.135 A 
ATOM     81  F   UNL A   1      43.565  23.629  24.579  1.00  0.00    -0.206 F 
ATOM     82  C   UNL A   1      42.910  21.520  25.374  1.00  0.00     0.059 A 
ATOM     83  C   UNL A   1      42.746  21.133  27.766  1.00  0.00     0.059 A 
ATOM     84  F   UNL A   1      43.222  22.880  29.259  1.00  0.00    -0.206 F 
ATOM     85  C   UNL A   1      42.640  20.676  26.453  1.00  0.00     0.060 A 
BRANCH  85  86
ATOM     86  S   UNL A   1      42.200  18.957  26.117  1.00  0.00     0.124 S 
ATOM     87  O   UNL A   1      42.514  18.318  27.390  1.00  0.00    -0.237 OA
ATOM     88  O   UNL A   1      40.781  19.061  25.788  1.00  0.00    -0.237 OA
ATOM     89  O   UNL A   1      43.069  18.601  24.999  1.00  0.00    -0.744 OA
ENDBRANCH  85  86
ENDBRANCH  53  78
BRANCH  65  90
ATOM     90  C   UNL A   1      49.582  26.556  26.505  1.00  0.00     0.058 A 
ATOM     91  C   UNL A   1      50.430  25.986  27.466  1.00  0.00     0.135 A 
ATOM     92  C   UNL A   1      50.041  26.622  25.180  1.00  0.00     0.135 A 
ATOM     93  F   UNL A   1      50.041  25.906  28.749  1.00  0.00    -0.206 F 
ATOM     94  C   UNL A   1      51.695  25.516  27.130  1.00  0.00     0.059 A 
ATOM     95  C   UNL A   1      51.293  26.136  24.816  1.00  0.00     0.059 A 
ATOM     96  F   UNL A   1      49.265  27.151  24.220  1.00  0.00    -0.206 F 
ATOM     97  C   UNL A   1      52.118  25.595  25.802  1.00  0.00     0.060 A 
BRANCH  97  98
ATOM     98  S   UNL A   1      53.750  24.953  25.371  1.00  0.00     0.124 S 
ATOM     99  O   UNL A   1      53.450  23.553  25.092  1.00  0.00    -0.237 OA
ATOM    100  O   UNL A   1      54.112  25.766  24.214  1.00  0.00    -0.237 OA
ATOM    101  O   UNL A   1      54.539  25.198  26.573  1.00  0.00    -0.744 OA
ENDBRANCH  97  98
ENDBRANCH  65  90
ENDBRANCH  39  40
ENDBRANCH  31  34
ENDBRANCH  29  30
ENDBRANCH   1  29
TORSDOF 17
ENDMDL
