MODEL 1
REMARK VINA RESULT:     -11.0      0.000      0.000
REMARK SMILES C[NH2+][C@@]1(C(=O)NCCCNC(=O)c2ccc(-c3c4nc(c(-c5c(F)cc(S(=O)(=O)[O-])cc5F)c5ccc([nH]5)c(-c5c(F)cc(S(=O)(=O)[O-])cc5F)c5nc(c(-c6c(F)cc(S(=O)(=O)[O-])cc6F)c6ccc3[nH]6)C=C5)C=C4)cc2)CC[C@H](SC(C)C)C1
REMARK SMILES IDX 8 1 7 2 6 3 4 4 5 5 3 7 79 8 86 9 80 10 81 11 2 12 1 13
REMARK SMILES IDX 82 16 83 17 84 18 85 19 9 20 10 21 11 22 12 24 13 25 14 26
REMARK SMILES IDX 78 27 15 28 77 29 16 30 17 31 18 32 71 33 19 34 76 35 70 36
REMARK SMILES IDX 72 37 20 38 75 39 69 40 68 41 21 43 55 44 34 45 54 46 35 47
REMARK SMILES IDX 38 48 53 49 73 50 36 51 37 52 52 54 74 55 39 56 22 57 23 58
REMARK SMILES IDX 32 59 24 60 25 61 31 62 33 63 26 64 27 65 28 66 29 67 30 68
REMARK SMILES IDX 56 69 57 70 66 71 58 72 59 73 65 74 67 75 60 76 61 77 62 78
REMARK SMILES IDX 63 79 64 80 40 81 41 82 50 83 42 84 43 85 49 86 51 87 44 88
REMARK SMILES IDX 45 89 46 90 47 91 48 92
REMARK H PARENT 6 6 2 14 2 15 10 23 72 42 38 53
REMARK Flexibility Score: inf
ROOT
ATOM      1  C   UNL A   1      33.592  28.991  27.059  1.00  0.00     0.042 C 
ENDROOT
BRANCH   1   2
ATOM      2  C   UNL A   1      32.970  29.787  25.919  1.00  0.00     0.118 C 
BRANCH   2   3
ATOM      3  N   UNL A   1      33.634  29.546  24.663  1.00  0.00    -0.351 N 
ATOM      4  C   UNL A   1      33.257  28.964  23.500  1.00  0.00     0.281 C 
ATOM      5  O   UNL A   1      34.202  28.852  22.699  1.00  0.00    -0.268 OA
ATOM      6  H   UNL A   1      34.561  29.876  24.647  1.00  0.00     0.163 HD
BRANCH   4   7
ATOM      7  C   UNL A   1      31.789  28.438  23.117  1.00  0.00     0.176 C 
ATOM      8  C   UNL A   1      30.849  28.256  24.314  1.00  0.00     0.080 C 
ATOM      9  C   UNL A   1      31.812  27.064  22.415  1.00  0.00     0.093 C 
ATOM     10  C   UNL A   1      30.697  26.754  24.577  1.00  0.00     0.022 C 
ATOM     11  C   UNL A   1      31.249  25.986  23.378  1.00  0.00     0.054 C 
BRANCH   7  12
ATOM     12  N   UNL A   1      31.338  29.458  22.136  1.00  0.00    -0.336 N 
ATOM     13  C   UNL A   1      29.979  29.918  22.067  1.00  0.00     0.331 C 
ATOM     14  H   UNL A   1      31.907  30.287  22.307  1.00  0.00     0.346 HD
ATOM     15  H   UNL A   1      31.431  28.954  21.255  1.00  0.00     0.346 HD
ENDBRANCH   7  12
BRANCH  11  16
ATOM     16  S   UNL A   1      32.562  24.707  23.563  1.00  0.00    -0.155 SA
BRANCH  16  17
ATOM     17  C   UNL A   1      33.120  24.623  25.314  1.00  0.00     0.040 C 
ATOM     18  C   UNL A   1      32.920  23.316  26.063  1.00  0.00     0.019 C 
ATOM     19  C   UNL A   1      34.535  25.157  25.487  1.00  0.00     0.019 C 
ENDBRANCH  16  17
ENDBRANCH  11  16
ENDBRANCH   4   7
ENDBRANCH   2   3
ENDBRANCH   1   2
BRANCH   1  20
ATOM     20  C   UNL A   1      35.030  29.386  27.340  1.00  0.00     0.118 C 
BRANCH  20  21
ATOM     21  N   UNL A   1      35.139  30.179  28.560  1.00  0.00    -0.352 N 
ATOM     22  C   UNL A   1      36.150  30.320  29.480  1.00  0.00     0.251 C 
ATOM     23  H   UNL A   1      34.337  30.713  28.762  1.00  0.00     0.163 HD
ATOM     24  O   UNL A   1      35.871  30.816  30.572  1.00  0.00    -0.269 OA
BRANCH  22  25
ATOM     25  C   UNL A   1      37.545  29.890  29.209  1.00  0.00     0.039 A 
ATOM     26  C   UNL A   1      38.367  29.538  30.288  1.00  0.00     0.014 A 
ATOM     27  C   UNL A   1      38.094  29.910  27.928  1.00  0.00     0.014 A 
ATOM     28  C   UNL A   1      39.702  29.169  30.074  1.00  0.00     0.010 A 
ATOM     29  C   UNL A   1      39.380  29.426  27.700  1.00  0.00     0.010 A 
ATOM     30  C   UNL A   1      40.213  29.076  28.771  1.00  0.00    -0.014 A 
BRANCH  30  31
ATOM     31  C   UNL A   1      41.619  28.671  28.492  1.00  0.00     0.031 A 
ATOM     32  C   UNL A   1      42.717  29.708  28.490  1.00  0.00     0.074 A 
ATOM     33  C   UNL A   1      41.902  27.395  28.158  1.00  0.00     0.049 A 
ATOM     34  N   UNL A   1      43.970  29.591  28.130  1.00  0.00    -0.248 NA
ATOM     35  C   UNL A   1      42.346  31.071  28.908  1.00  0.00     0.031 C 
ATOM     36  C   UNL A   1      40.928  26.306  28.074  1.00  0.00     0.029 A 
ATOM     37  N   UNL A   1      43.090  26.803  27.809  1.00  0.00    -0.354 N 
ATOM     38  C   UNL A   1      44.520  30.864  28.237  1.00  0.00     0.074 A 
ATOM     39  C   UNL A   1      43.452  31.750  28.645  1.00  0.00     0.031 C 
ATOM     40  C   UNL A   1      41.561  25.174  27.724  1.00  0.00     0.029 A 
ATOM     41  C   UNL A   1      42.975  25.466  27.513  1.00  0.00     0.049 A 
ATOM     42  H   UNL A   1      43.945  27.291  27.775  1.00  0.00     0.167 HD
ATOM     43  C   UNL A   1      45.801  31.259  28.040  1.00  0.00     0.037 A 
ATOM     44  C   UNL A   1      43.901  24.575  27.105  1.00  0.00     0.037 A 
ATOM     45  C   UNL A   1      46.872  30.362  27.692  1.00  0.00     0.049 A 
ATOM     46  C   UNL A   1      45.324  25.027  26.923  1.00  0.00     0.074 A 
ATOM     47  C   UNL A   1      48.220  30.645  27.548  1.00  0.00     0.029 A 
ATOM     48  N   UNL A   1      46.720  29.005  27.445  1.00  0.00    -0.354 N 
ATOM     49  N   UNL A   1      45.835  26.225  27.081  1.00  0.00    -0.248 NA
ATOM     50  C   UNL A   1      46.299  24.006  26.514  1.00  0.00     0.031 C 
ATOM     51  C   UNL A   1      48.876  29.467  27.177  1.00  0.00     0.029 A 
ATOM     52  C   UNL A   1      47.946  28.440  27.135  1.00  0.00     0.049 A 
ATOM     53  H   UNL A   1      45.866  28.517  27.484  1.00  0.00     0.167 HD
ATOM     54  C   UNL A   1      47.194  26.097  26.816  1.00  0.00     0.074 A 
ATOM     55  C   UNL A   1      47.428  24.703  26.499  1.00  0.00     0.031 C 
ATOM     56  C   UNL A   1      48.161  27.047  26.833  1.00  0.00     0.037 A 
BRANCH  43  57
ATOM     57  C   UNL A   1      46.116  32.722  28.205  1.00  0.00     0.058 A 
ATOM     58  C   UNL A   1      46.516  33.258  29.440  1.00  0.00     0.135 A 
ATOM     59  C   UNL A   1      46.040  33.598  27.109  1.00  0.00     0.135 A 
ATOM     60  F   UNL A   1      46.594  32.470  30.525  1.00  0.00    -0.206 F 
ATOM     61  C   UNL A   1      46.790  34.613  29.594  1.00  0.00     0.059 A 
ATOM     62  C   UNL A   1      46.339  34.953  27.233  1.00  0.00     0.059 A 
ATOM     63  F   UNL A   1      45.667  33.142  25.903  1.00  0.00    -0.206 F 
ATOM     64  C   UNL A   1      46.696  35.453  28.484  1.00  0.00     0.060 A 
BRANCH  64  65
ATOM     65  S   UNL A   1      47.047  37.211  28.701  1.00  0.00     0.124 S 
ATOM     66  O   UNL A   1      47.716  37.531  27.445  1.00  0.00    -0.237 OA
ATOM     67  O   UNL A   1      45.715  37.779  28.872  1.00  0.00    -0.237 OA
ATOM     68  O   UNL A   1      47.896  37.242  29.890  1.00  0.00    -0.744 OA
ENDBRANCH  64  65
ENDBRANCH  43  57
BRANCH  44  69
ATOM     69  C   UNL A   1      43.514  23.158  26.873  1.00  0.00     0.058 A 
ATOM     70  C   UNL A   1      43.442  22.639  25.572  1.00  0.00     0.135 A 
ATOM     71  C   UNL A   1      43.230  22.290  27.939  1.00  0.00     0.135 A 
ATOM     72  F   UNL A   1      43.698  23.431  24.519  1.00  0.00    -0.206 F 
ATOM     73  C   UNL A   1      43.093  21.314  25.333  1.00  0.00     0.059 A 
ATOM     74  C   UNL A   1      42.903  20.954  27.726  1.00  0.00     0.059 A 
ATOM     75  F   UNL A   1      43.301  22.733  29.203  1.00  0.00    -0.206 F 
ATOM     76  C   UNL A   1      42.828  20.478  26.419  1.00  0.00     0.060 A 
BRANCH  76  77
ATOM     77  S   UNL A   1      42.432  18.745  26.098  1.00  0.00     0.124 S 
ATOM     78  O   UNL A   1      42.626  18.150  27.415  1.00  0.00    -0.237 OA
ATOM     79  O   UNL A   1      41.052  18.826  25.631  1.00  0.00    -0.237 OA
ATOM     80  O   UNL A   1      43.407  18.361  25.081  1.00  0.00    -0.744 OA
ENDBRANCH  76  77
ENDBRANCH  44  69
BRANCH  56  81
ATOM     81  C   UNL A   1      49.568  26.608  26.540  1.00  0.00     0.058 A 
ATOM     82  C   UNL A   1      50.437  26.189  27.559  1.00  0.00     0.135 A 
ATOM     83  C   UNL A   1      50.032  26.552  25.216  1.00  0.00     0.135 A 
ATOM     84  F   UNL A   1      50.043  26.228  28.842  1.00  0.00    -0.206 F 
ATOM     85  C   UNL A   1      51.727  25.750  27.277  1.00  0.00     0.059 A 
ATOM     86  C   UNL A   1      51.309  26.092  24.909  1.00  0.00     0.059 A 
ATOM     87  F   UNL A   1      49.236  26.932  24.204  1.00  0.00    -0.206 F 
ATOM     88  C   UNL A   1      52.153  25.703  25.948  1.00  0.00     0.060 A 
BRANCH  88  89
ATOM     89  S   UNL A   1      53.816  25.099  25.592  1.00  0.00     0.124 S 
ATOM     90  O   UNL A   1      54.340  24.873  26.935  1.00  0.00    -0.237 OA
ATOM     91  O   UNL A   1      53.551  23.898  24.805  1.00  0.00    -0.237 OA
ATOM     92  O   UNL A   1      54.427  26.201  24.856  1.00  0.00    -0.744 OA
ENDBRANCH  88  89
ENDBRANCH  56  81
ENDBRANCH  30  31
ENDBRANCH  22  25
ENDBRANCH  20  21
ENDBRANCH   1  20
TORSDOF 16
ENDMDL
MODEL 2
REMARK VINA RESULT:     -10.9      2.859      3.942
REMARK SMILES C[NH2+][C@@]1(C(=O)NCCCNC(=O)c2ccc(-c3c4nc(c(-c5c(F)cc(S(=O)(=O)[O-])cc5F)c5ccc([nH]5)c(-c5c(F)cc(S(=O)(=O)[O-])cc5F)c5nc(c(-c6c(F)cc(S(=O)(=O)[O-])cc6F)c6ccc3[nH]6)C=C5)C=C4)cc2)CC[C@H](SC(C)C)C1
REMARK SMILES IDX 8 1 7 2 6 3 4 4 5 5 3 7 79 8 86 9 80 10 81 11 2 12 1 13
REMARK SMILES IDX 82 16 83 17 84 18 85 19 9 20 10 21 11 22 12 24 13 25 14 26
REMARK SMILES IDX 78 27 15 28 77 29 16 30 17 31 18 32 71 33 19 34 76 35 70 36
REMARK SMILES IDX 72 37 20 38 75 39 69 40 68 41 21 43 55 44 34 45 54 46 35 47
REMARK SMILES IDX 38 48 53 49 73 50 36 51 37 52 52 54 74 55 39 56 22 57 23 58
REMARK SMILES IDX 32 59 24 60 25 61 31 62 33 63 26 64 27 65 28 66 29 67 30 68
REMARK SMILES IDX 56 69 57 70 66 71 58 72 59 73 65 74 67 75 60 76 61 77 62 78
REMARK SMILES IDX 63 79 64 80 40 81 41 82 50 83 42 84 43 85 49 86 51 87 44 88
REMARK SMILES IDX 45 89 46 90 47 91 48 92
REMARK H PARENT 6 6 2 14 2 15 10 23 72 42 38 53
REMARK Flexibility Score: inf
ROOT
ATOM      1  C   UNL A   1      33.864  27.766  25.693  1.00  0.00     0.042 C 
ENDROOT
BRANCH   1   2
ATOM      2  C   UNL A   1      33.336  26.423  25.204  1.00  0.00     0.118 C 
BRANCH   2   3
ATOM      3  N   UNL A   1      32.698  25.674  26.257  1.00  0.00    -0.351 N 
ATOM      4  C   UNL A   1      31.892  24.587  26.278  1.00  0.00     0.281 C 
ATOM      5  O   UNL A   1      31.457  24.342  27.418  1.00  0.00    -0.268 OA
ATOM      6  H   UNL A   1      32.890  26.030  27.154  1.00  0.00     0.163 HD
BRANCH   4   7
ATOM      7  C   UNL A   1      31.479  23.669  25.027  1.00  0.00     0.176 C 
ATOM      8  C   UNL A   1      31.129  22.222  25.392  1.00  0.00     0.080 C 
ATOM      9  C   UNL A   1      32.603  23.554  23.975  1.00  0.00     0.093 C 
ATOM     10  C   UNL A   1      32.285  21.322  24.942  1.00  0.00     0.022 C 
ATOM     11  C   UNL A   1      33.197  22.121  24.013  1.00  0.00     0.054 C 
BRANCH   7  12
ATOM     12  N   UNL A   1      30.357  24.438  24.431  1.00  0.00    -0.336 N 
ATOM     13  C   UNL A   1      30.518  25.271  23.272  1.00  0.00     0.331 C 
ATOM     14  H   UNL A   1      29.642  23.752  24.187  1.00  0.00     0.346 HD
ATOM     15  H   UNL A   1      30.169  25.128  25.158  1.00  0.00     0.346 HD
ENDBRANCH   7  12
BRANCH  11  16
ATOM     16  S   UNL A   1      35.000  22.307  24.343  1.00  0.00    -0.155 SA
BRANCH  16  17
ATOM     17  C   UNL A   1      35.263  23.264  25.892  1.00  0.00     0.040 C 
ATOM     18  C   UNL A   1      34.786  22.651  27.197  1.00  0.00     0.019 C 
ATOM     19  C   UNL A   1      36.690  23.783  26.004  1.00  0.00     0.019 C 
ENDBRANCH  16  17
ENDBRANCH  11  16
ENDBRANCH   4   7
ENDBRANCH   2   3
ENDBRANCH   1   2
BRANCH   1  20
ATOM     20  C   UNL A   1      33.468  28.071  27.126  1.00  0.00     0.118 C 
BRANCH  20  21
ATOM     21  N   UNL A   1      33.417  29.508  27.372  1.00  0.00    -0.352 N 
ATOM     22  C   UNL A   1      34.299  30.371  27.977  1.00  0.00     0.251 C 
ATOM     23  H   UNL A   1      32.595  29.940  27.044  1.00  0.00     0.163 HD
ATOM     24  O   UNL A   1      33.879  31.477  28.321  1.00  0.00    -0.269 OA
BRANCH  22  25
ATOM     25  C   UNL A   1      35.718  30.015  28.235  1.00  0.00     0.039 A 
ATOM     26  C   UNL A   1      36.092  29.622  29.527  1.00  0.00     0.014 A 
ATOM     27  C   UNL A   1      36.706  30.145  27.261  1.00  0.00     0.014 A 
ATOM     28  C   UNL A   1      37.430  29.320  29.818  1.00  0.00     0.010 A 
ATOM     29  C   UNL A   1      38.011  29.728  27.515  1.00  0.00     0.010 A 
ATOM     30  C   UNL A   1      38.399  29.338  28.804  1.00  0.00    -0.014 A 
BRANCH  30  31
ATOM     31  C   UNL A   1      39.828  29.007  29.060  1.00  0.00     0.031 A 
ATOM     32  C   UNL A   1      40.757  30.058  29.622  1.00  0.00     0.074 A 
ATOM     33  C   UNL A   1      40.316  27.799  28.713  1.00  0.00     0.049 A 
ATOM     34  N   UNL A   1      42.056  30.020  29.779  1.00  0.00    -0.248 NA
ATOM     35  C   UNL A   1      40.148  31.339  30.020  1.00  0.00     0.031 C 
ATOM     36  C   UNL A   1      39.539  26.711  28.116  1.00  0.00     0.029 A 
ATOM     37  N   UNL A   1      41.587  27.289  28.796  1.00  0.00    -0.354 N 
ATOM     38  C   UNL A   1      42.420  31.278  30.250  1.00  0.00     0.074 A 
ATOM     39  C   UNL A   1      41.213  32.072  30.304  1.00  0.00     0.031 C 
ATOM     40  C   UNL A   1      40.344  25.655  27.912  1.00  0.00     0.029 A 
ATOM     41  C   UNL A   1      41.701  26.005  28.318  1.00  0.00     0.049 A 
ATOM     42  H   UNL A   1      42.348  27.795  29.165  1.00  0.00     0.167 HD
ATOM     43  C   UNL A   1      43.642  31.724  30.628  1.00  0.00     0.037 A 
ATOM     44  C   UNL A   1      42.778  25.201  28.207  1.00  0.00     0.037 A 
ATOM     45  C   UNL A   1      44.829  30.910  30.629  1.00  0.00     0.049 A 
ATOM     46  C   UNL A   1      44.119  25.707  28.663  1.00  0.00     0.074 A 
ATOM     47  C   UNL A   1      46.100  31.241  31.069  1.00  0.00     0.029 A 
ATOM     48  N   UNL A   1      44.890  29.599  30.178  1.00  0.00    -0.354 N 
ATOM     49  N   UNL A   1      44.434  26.881  29.155  1.00  0.00    -0.248 NA
ATOM     50  C   UNL A   1      45.251  24.776  28.554  1.00  0.00     0.031 C 
ATOM     51  C   UNL A   1      46.937  30.141  30.849  1.00  0.00     0.029 A 
ATOM     52  C   UNL A   1      46.179  29.111  30.315  1.00  0.00     0.049 A 
ATOM     53  H   UNL A   1      44.129  29.092  29.814  1.00  0.00     0.167 HD
ATOM     54  C   UNL A   1      45.794  26.822  29.440  1.00  0.00     0.074 A 
ATOM     55  C   UNL A   1      46.239  25.492  29.074  1.00  0.00     0.031 C 
ATOM     56  C   UNL A   1      46.601  27.780  29.956  1.00  0.00     0.037 A 
BRANCH  43  57
ATOM     57  C   UNL A   1      43.755  33.156  31.083  1.00  0.00     0.058 A 
ATOM     58  C   UNL A   1      44.001  34.202  30.179  1.00  0.00     0.135 A 
ATOM     59  C   UNL A   1      43.591  33.490  32.437  1.00  0.00     0.135 A 
ATOM     60  F   UNL A   1      44.179  33.940  28.874  1.00  0.00    -0.206 F 
ATOM     61  C   UNL A   1      44.122  35.521  30.604  1.00  0.00     0.059 A 
ATOM     62  C   UNL A   1      43.678  34.808  32.881  1.00  0.00     0.059 A 
ATOM     63  F   UNL A   1      43.349  32.533  33.347  1.00  0.00    -0.206 F 
ATOM     64  C   UNL A   1      43.962  35.813  31.959  1.00  0.00     0.060 A 
BRANCH  64  65
ATOM     65  S   UNL A   1      44.129  37.529  32.496  1.00  0.00     0.124 S 
ATOM     66  O   UNL A   1      45.528  37.570  32.908  1.00  0.00    -0.237 OA
ATOM     67  O   UNL A   1      43.804  38.270  31.282  1.00  0.00    -0.237 OA
ATOM     68  O   UNL A   1      43.152  37.643  33.576  1.00  0.00    -0.744 OA
ENDBRANCH  64  65
ENDBRANCH  43  57
BRANCH  44  69
ATOM     69  C   UNL A   1      42.622  23.824  27.668  1.00  0.00     0.058 A 
ATOM     70  C   UNL A   1      42.451  22.732  28.531  1.00  0.00     0.135 A 
ATOM     71  C   UNL A   1      42.618  23.573  26.287  1.00  0.00     0.135 A 
ATOM     72  F   UNL A   1      42.455  22.921  29.860  1.00  0.00    -0.206 F 
ATOM     73  C   UNL A   1      42.293  21.438  28.047  1.00  0.00     0.059 A 
ATOM     74  C   UNL A   1      42.436  22.290  25.778  1.00  0.00     0.059 A 
ATOM     75  F   UNL A   1      42.760  24.586  25.419  1.00  0.00    -0.206 F 
ATOM     76  C   UNL A   1      42.283  21.228  26.667  1.00  0.00     0.060 A 
BRANCH  76  77
ATOM     77  S   UNL A   1      42.019  19.551  26.051  1.00  0.00     0.124 S 
ATOM     78  O   UNL A   1      42.932  19.507  24.915  1.00  0.00    -0.237 OA
ATOM     79  O   UNL A   1      42.394  18.736  27.203  1.00  0.00    -0.237 OA
ATOM     80  O   UNL A   1      40.597  19.536  25.720  1.00  0.00    -0.744 OA
ENDBRANCH  76  77
ENDBRANCH  44  69
BRANCH  56  81
ATOM     81  C   UNL A   1      48.040  27.418  30.196  1.00  0.00     0.058 A 
ATOM     82  C   UNL A   1      49.045  27.743  29.272  1.00  0.00     0.135 A 
ATOM     83  C   UNL A   1      48.424  26.789  31.391  1.00  0.00     0.135 A 
ATOM     84  F   UNL A   1      48.730  28.339  28.111  1.00  0.00    -0.206 F 
ATOM     85  C   UNL A   1      50.381  27.436  29.515  1.00  0.00     0.059 A 
ATOM     86  C   UNL A   1      49.756  26.497  31.667  1.00  0.00     0.059 A 
ATOM     87  F   UNL A   1      47.502  26.468  32.312  1.00  0.00    -0.206 F 
ATOM     88  C   UNL A   1      50.726  26.815  30.717  1.00  0.00     0.060 A 
BRANCH  88  89
ATOM     89  S   UNL A   1      52.466  26.454  31.037  1.00  0.00     0.124 S 
ATOM     90  O   UNL A   1      52.978  27.772  31.396  1.00  0.00    -0.237 OA
ATOM     91  O   UNL A   1      52.389  25.486  32.127  1.00  0.00    -0.237 OA
ATOM     92  O   UNL A   1      52.941  25.919  29.765  1.00  0.00    -0.744 OA
ENDBRANCH  88  89
ENDBRANCH  56  81
ENDBRANCH  30  31
ENDBRANCH  22  25
ENDBRANCH  20  21
ENDBRANCH   1  20
TORSDOF 16
ENDMDL
MODEL 3
REMARK VINA RESULT:     -10.9      5.656     12.334
REMARK SMILES C[NH2+][C@@]1(C(=O)NCCCNC(=O)c2ccc(-c3c4nc(c(-c5c(F)cc(S(=O)(=O)[O-])cc5F)c5ccc([nH]5)c(-c5c(F)cc(S(=O)(=O)[O-])cc5F)c5nc(c(-c6c(F)cc(S(=O)(=O)[O-])cc6F)c6ccc3[nH]6)C=C5)C=C4)cc2)CC[C@H](SC(C)C)C1
REMARK SMILES IDX 8 1 7 2 6 3 4 4 5 5 3 7 79 8 86 9 80 10 81 11 2 12 1 13
REMARK SMILES IDX 82 16 83 17 84 18 85 19 9 20 10 21 11 22 12 24 13 25 14 26
REMARK SMILES IDX 78 27 15 28 77 29 16 30 17 31 18 32 71 33 19 34 76 35 70 36
REMARK SMILES IDX 72 37 20 38 75 39 69 40 68 41 21 43 55 44 34 45 54 46 35 47
REMARK SMILES IDX 38 48 53 49 73 50 36 51 37 52 52 54 74 55 39 56 22 57 23 58
REMARK SMILES IDX 32 59 24 60 25 61 31 62 33 63 26 64 27 65 28 66 29 67 30 68
REMARK SMILES IDX 56 69 57 70 66 71 58 72 59 73 65 74 67 75 60 76 61 77 62 78
REMARK SMILES IDX 63 79 64 80 40 81 41 82 50 83 42 84 43 85 49 86 51 87 44 88
REMARK SMILES IDX 45 89 46 90 47 91 48 92
REMARK H PARENT 6 6 2 14 2 15 10 23 72 42 38 53
REMARK Flexibility Score: inf
ROOT
ATOM      1  C   UNL A   1      42.132  21.991  25.741  1.00  0.00     0.042 C 
ENDROOT
BRANCH   1   2
ATOM      2  C   UNL A   1      43.202  20.992  26.165  1.00  0.00     0.118 C 
BRANCH   2   3
ATOM      3  N   UNL A   1      44.533  21.510  25.977  1.00  0.00    -0.351 N 
ATOM      4  C   UNL A   1      45.202  22.578  26.471  1.00  0.00     0.281 C 
ATOM      5  O   UNL A   1      46.317  22.727  25.937  1.00  0.00    -0.268 OA
ATOM      6  H   UNL A   1      45.073  20.970  25.355  1.00  0.00     0.163 HD
BRANCH   4   7
ATOM      7  C   UNL A   1      44.693  23.594  27.605  1.00  0.00     0.176 C 
ATOM      8  C   UNL A   1      43.629  24.590  27.130  1.00  0.00     0.080 C 
ATOM      9  C   UNL A   1      45.830  24.467  28.178  1.00  0.00     0.093 C 
ATOM     10  C   UNL A   1      44.289  25.967  26.998  1.00  0.00     0.022 C 
ATOM     11  C   UNL A   1      45.649  25.929  27.690  1.00  0.00     0.054 C 
BRANCH   7  12
ATOM     12  N   UNL A   1      44.231  22.668  28.670  1.00  0.00    -0.336 N 
ATOM     13  C   UNL A   1      43.093  22.949  29.501  1.00  0.00     0.331 C 
ATOM     14  H   UNL A   1      44.028  21.782  28.206  1.00  0.00     0.346 HD
ATOM     15  H   UNL A   1      44.996  22.724  29.341  1.00  0.00     0.346 HD
ENDBRANCH   7  12
BRANCH  11  16
ATOM     16  S   UNL A   1      47.202  26.385  26.809  1.00  0.00    -0.155 SA
BRANCH  16  17
ATOM     17  C   UNL A   1      46.914  26.408  24.992  1.00  0.00     0.040 C 
ATOM     18  C   UNL A   1      46.734  27.758  24.318  1.00  0.00     0.019 C 
ATOM     19  C   UNL A   1      47.916  25.538  24.247  1.00  0.00     0.019 C 
ENDBRANCH  16  17
ENDBRANCH  11  16
ENDBRANCH   4   7
ENDBRANCH   2   3
ENDBRANCH   1   2
BRANCH   1  20
ATOM     20  C   UNL A   1      40.854  21.869  26.549  1.00  0.00     0.118 C 
BRANCH  20  21
ATOM     21  N   UNL A   1      39.700  22.359  25.803  1.00  0.00    -0.352 N 
ATOM     22  C   UNL A   1      38.887  23.454  25.978  1.00  0.00     0.251 C 
ATOM     23  H   UNL A   1      39.459  21.800  25.030  1.00  0.00     0.163 HD
ATOM     24  O   UNL A   1      37.807  23.469  25.387  1.00  0.00    -0.269 OA
BRANCH  22  25
ATOM     25  C   UNL A   1      39.259  24.596  26.850  1.00  0.00     0.039 A 
ATOM     26  C   UNL A   1      40.064  25.616  26.323  1.00  0.00     0.014 A 
ATOM     27  C   UNL A   1      38.911  24.646  28.199  1.00  0.00     0.014 A 
ATOM     28  C   UNL A   1      40.470  26.688  27.130  1.00  0.00     0.010 A 
ATOM     29  C   UNL A   1      39.209  25.770  28.966  1.00  0.00     0.010 A 
ATOM     30  C   UNL A   1      40.018  26.793  28.453  1.00  0.00    -0.014 A 
BRANCH  30  31
ATOM     31  C   UNL A   1      40.407  27.923  29.343  1.00  0.00     0.031 A 
ATOM     32  C   UNL A   1      41.688  27.848  30.139  1.00  0.00     0.074 A 
ATOM     33  C   UNL A   1      39.578  28.974  29.503  1.00  0.00     0.049 A 
ATOM     34  N   UNL A   1      42.132  28.650  31.074  1.00  0.00    -0.248 NA
ATOM     35  C   UNL A   1      42.567  26.694  29.881  1.00  0.00     0.031 C 
ATOM     36  C   UNL A   1      38.289  29.147  28.832  1.00  0.00     0.029 A 
ATOM     37  N   UNL A   1      39.689  30.089  30.296  1.00  0.00    -0.354 N 
ATOM     38  C   UNL A   1      43.311  28.077  31.541  1.00  0.00     0.074 A 
ATOM     39  C   UNL A   1      43.487  26.834  30.823  1.00  0.00     0.031 C 
ATOM     40  C   UNL A   1      37.741  30.310  29.221  1.00  0.00     0.029 A 
ATOM     41  C   UNL A   1      38.615  30.943  30.203  1.00  0.00     0.049 A 
ATOM     42  H   UNL A   1      40.465  30.261  30.878  1.00  0.00     0.167 HD
ATOM     43  C   UNL A   1      44.183  28.552  32.462  1.00  0.00     0.037 A 
ATOM     44  C   UNL A   1      38.357  32.100  30.844  1.00  0.00     0.037 A 
ATOM     45  C   UNL A   1      44.034  29.820  33.129  1.00  0.00     0.049 A 
ATOM     46  C   UNL A   1      39.354  32.626  31.840  1.00  0.00     0.074 A 
ATOM     47  C   UNL A   1      44.901  30.431  34.019  1.00  0.00     0.029 A 
ATOM     48  N   UNL A   1      42.953  30.674  32.971  1.00  0.00    -0.354 N 
ATOM     49  N   UNL A   1      40.489  32.096  32.228  1.00  0.00    -0.248 NA
ATOM     50  C   UNL A   1      39.038  33.910  32.481  1.00  0.00     0.031 C 
ATOM     51  C   UNL A   1      44.325  31.639  34.428  1.00  0.00     0.029 A 
ATOM     52  C   UNL A   1      43.123  31.802  33.758  1.00  0.00     0.049 A 
ATOM     53  H   UNL A   1      42.180  30.504  32.387  1.00  0.00     0.167 HD
ATOM     54  C   UNL A   1      41.036  32.993  33.138  1.00  0.00     0.074 A 
ATOM     55  C   UNL A   1      40.113  34.105  33.235  1.00  0.00     0.031 C 
ATOM     56  C   UNL A   1      42.198  32.905  33.832  1.00  0.00     0.037 A 
BRANCH  43  57
ATOM     57  C   UNL A   1      45.382  27.703  32.796  1.00  0.00     0.058 A 
ATOM     58  C   UNL A   1      46.603  27.847  32.116  1.00  0.00     0.135 A 
ATOM     59  C   UNL A   1      45.317  26.748  33.823  1.00  0.00     0.135 A 
ATOM     60  F   UNL A   1      46.719  28.736  31.116  1.00  0.00    -0.206 F 
ATOM     61  C   UNL A   1      47.702  27.050  32.415  1.00  0.00     0.059 A 
ATOM     62  C   UNL A   1      46.415  25.959  34.160  1.00  0.00     0.059 A 
ATOM     63  F   UNL A   1      44.178  26.568  34.510  1.00  0.00    -0.206 F 
ATOM     64  C   UNL A   1      47.597  26.105  33.437  1.00  0.00     0.060 A 
BRANCH  64  65
ATOM     65  S   UNL A   1      49.032  25.073  33.807  1.00  0.00     0.124 S 
ATOM     66  O   UNL A   1      48.395  23.870  34.333  1.00  0.00    -0.237 OA
ATOM     67  O   UNL A   1      49.665  24.936  32.500  1.00  0.00    -0.237 OA
ATOM     68  O   UNL A   1      49.778  25.866  34.782  1.00  0.00    -0.744 OA
ENDBRANCH  64  65
ENDBRANCH  43  57
BRANCH  44  69
ATOM     69  C   UNL A   1      37.112  32.854  30.537  1.00  0.00     0.058 A 
ATOM     70  C   UNL A   1      37.060  33.742  29.453  1.00  0.00     0.135 A 
ATOM     71  C   UNL A   1      35.947  32.689  31.303  1.00  0.00     0.135 A 
ATOM     72  F   UNL A   1      38.150  33.939  28.695  1.00  0.00    -0.206 F 
ATOM     73  C   UNL A   1      35.903  34.448  29.143  1.00  0.00     0.059 A 
ATOM     74  C   UNL A   1      34.769  33.366  30.996  1.00  0.00     0.059 A 
ATOM     75  F   UNL A   1      35.939  31.838  32.340  1.00  0.00    -0.206 F 
ATOM     76  C   UNL A   1      34.761  34.250  29.920  1.00  0.00     0.060 A 
BRANCH  76  77
ATOM     77  S   UNL A   1      33.248  35.129  29.472  1.00  0.00     0.124 S 
ATOM     78  O   UNL A   1      32.607  34.174  28.575  1.00  0.00    -0.237 OA
ATOM     79  O   UNL A   1      32.605  35.317  30.768  1.00  0.00    -0.237 OA
ATOM     80  O   UNL A   1      33.743  36.351  28.844  1.00  0.00    -0.744 OA
ENDBRANCH  76  77
ENDBRANCH  44  69
BRANCH  56  81
ATOM     81  C   UNL A   1      42.558  34.057  34.727  1.00  0.00     0.058 A 
ATOM     82  C   UNL A   1      42.265  34.045  36.099  1.00  0.00     0.135 A 
ATOM     83  C   UNL A   1      43.257  35.162  34.214  1.00  0.00     0.135 A 
ATOM     84  F   UNL A   1      41.593  33.014  36.637  1.00  0.00    -0.206 F 
ATOM     85  C   UNL A   1      42.633  35.099  36.929  1.00  0.00     0.059 A 
ATOM     86  C   UNL A   1      43.658  36.215  35.030  1.00  0.00     0.059 A 
ATOM     87  F   UNL A   1      43.571  35.217  32.910  1.00  0.00    -0.206 F 
ATOM     88  C   UNL A   1      43.331  36.179  36.385  1.00  0.00     0.060 A 
BRANCH  88  89
ATOM     89  S   UNL A   1      43.834  37.525  37.478  1.00  0.00     0.124 S 
ATOM     90  O   UNL A   1      44.995  36.945  38.143  1.00  0.00    -0.237 OA
ATOM     91  O   UNL A   1      44.116  38.604  36.536  1.00  0.00    -0.237 OA
ATOM     92  O   UNL A   1      42.662  37.731  38.324  1.00  0.00    -0.744 OA
ENDBRANCH  88  89
ENDBRANCH  56  81
ENDBRANCH  30  31
ENDBRANCH  22  25
ENDBRANCH  20  21
ENDBRANCH   1  20
TORSDOF 16
ENDMDL
