MODEL 1
REMARK VINA RESULT:     -14.5      0.000      0.000
REMARK SMILES CN1C(=O)C[C@@H](C(=O)NCCCNC(=O)c2ccc(-c3c4nc(c(-c5c(F)cc(S(=O)(=O)[O-])cc5F)c5ccc([nH]5)c(-c5c(F)cc(S(=O)(=O)[O-])cc5F)c5nc(c(-c6c(F)cc(S(=O)(=O)[O-])cc6F)c6ccc3[nH]6)C=C5)C=C4)cc2)C12CCN(C(=O)c1cccc3ccccc13)CC2
REMARK SMILES IDX 12 1 11 2 10 3 9 4 7 5 8 6 6 8 1 9 2 10 3 11 82 12 4 13 5 14
REMARK SMILES IDX 83 15 99 16 84 17 98 18 85 19 86 20 87 21 88 22 89 23 97 24
REMARK SMILES IDX 90 25 92 26 96 27 91 28 93 29 95 30 94 31 13 32 14 33 15 35
REMARK SMILES IDX 16 36 17 37 81 38 18 39 80 40 19 41 20 42 21 43 74 44 22 45
REMARK SMILES IDX 79 46 73 47 75 48 23 49 78 50 72 51 71 52 24 54 58 55 37 56
REMARK SMILES IDX 57 57 38 58 41 59 56 60 76 61 39 62 40 63 55 65 77 66 42 67
REMARK SMILES IDX 25 68 26 69 35 70 27 71 28 72 34 73 36 74 29 75 30 76 31 77
REMARK SMILES IDX 32 78 33 79 59 80 60 81 69 82 61 83 62 84 68 85 70 86 63 87
REMARK SMILES IDX 64 88 65 89 66 90 67 91 43 92 44 93 53 94 45 95 46 96 52 97
REMARK SMILES IDX 54 98 47 99 48 100 49 101 50 102 51 103
REMARK H PARENT 9 7 13 34 75 53 41 64
REMARK Flexibility Score: inf
ROOT
ATOM      1  C   UNL A   1      40.100  23.285  27.175  1.00  0.00     0.118 C 
ENDROOT
BRANCH   1   2
ATOM      2  C   UNL A   1      38.890  22.673  26.481  1.00  0.00     0.042 C 
BRANCH   2   3
ATOM      3  C   UNL A   1      37.822  23.698  26.101  1.00  0.00     0.117 C 
BRANCH   3   4
ATOM      4  N   UNL A   1      37.174  23.455  24.817  1.00  0.00    -0.356 N 
ATOM      5  C   UNL A   1      36.054  22.795  24.432  1.00  0.00     0.226 C 
ATOM      6  O   UNL A   1      35.753  22.891  23.236  1.00  0.00    -0.275 OA
ATOM      7  H   UNL A   1      37.658  23.862  24.062  1.00  0.00     0.163 HD
BRANCH   5   8
ATOM      8  C   UNL A   1      35.187  21.915  25.333  1.00  0.00     0.113 C 
ATOM      9  C   UNL A   1      32.421  20.007  23.661  1.00  0.00     0.147 C 
ATOM     10  N   UNL A   1      33.608  20.541  24.304  1.00  0.00    -0.339 N 
ATOM     11  C   UNL A   1      34.660  19.691  24.637  1.00  0.00     0.223 C 
ATOM     12  C   UNL A   1      33.680  21.837  24.997  1.00  0.00     0.058 C 
ATOM     13  O   UNL A   1      34.765  18.512  24.351  1.00  0.00    -0.275 OA
ATOM     14  C   UNL A   1      35.686  20.475  25.406  1.00  0.00     0.116 C 
ATOM     15  C   UNL A   1      33.188  23.039  24.160  1.00  0.00     0.051 C 
ATOM     16  C   UNL A   1      32.800  21.752  26.284  1.00  0.00     0.051 C 
ATOM     17  C   UNL A   1      33.143  24.342  24.959  1.00  0.00     0.122 C 
ATOM     18  C   UNL A   1      32.603  23.097  26.989  1.00  0.00     0.122 C 
ATOM     19  N   UNL A   1      32.215  24.150  26.051  1.00  0.00    -0.338 N 
ATOM     20  C   UNL A   1      30.997  24.802  26.205  1.00  0.00     0.254 C 
ATOM     21  O   UNL A   1      30.179  24.453  27.059  1.00  0.00    -0.269 OA
BRANCH  20  22
ATOM     22  C   UNL A   1      30.668  26.054  25.462  1.00  0.00     0.047 A 
ATOM     23  C   UNL A   1      30.050  25.812  24.223  1.00  0.00     0.014 A 
ATOM     24  C   UNL A   1      31.122  27.364  25.799  1.00  0.00    -0.006 A 
ATOM     25  C   UNL A   1      29.938  26.824  23.277  1.00  0.00     0.001 A 
ATOM     26  C   UNL A   1      31.037  28.369  24.800  1.00  0.00    -0.018 A 
ATOM     27  C   UNL A   1      31.650  27.764  27.050  1.00  0.00     0.009 A 
ATOM     28  C   UNL A   1      30.468  28.080  23.552  1.00  0.00     0.009 A 
ATOM     29  C   UNL A   1      31.525  29.664  25.045  1.00  0.00     0.009 A 
ATOM     30  C   UNL A   1      32.021  29.085  27.319  1.00  0.00     0.001 A 
ATOM     31  C   UNL A   1      31.989  30.030  26.304  1.00  0.00     0.001 A 
ENDBRANCH  20  22
ENDBRANCH   5   8
ENDBRANCH   3   4
ENDBRANCH   2   3
ENDBRANCH   1   2
BRANCH   1  32
ATOM     32  N   UNL A   1      41.009  23.879  26.206  1.00  0.00    -0.352 N 
ATOM     33  C   UNL A   1      41.374  25.194  26.056  1.00  0.00     0.251 C 
ATOM     34  H   UNL A   1      41.418  23.250  25.569  1.00  0.00     0.163 HD
ATOM     35  O   UNL A   1      41.853  25.571  24.991  1.00  0.00    -0.269 OA
BRANCH  33  36
ATOM     36  C   UNL A   1      41.193  26.148  27.172  1.00  0.00     0.039 A 
ATOM     37  C   UNL A   1      40.179  25.925  28.107  1.00  0.00     0.014 A 
ATOM     38  C   UNL A   1      41.995  27.289  27.272  1.00  0.00     0.014 A 
ATOM     39  C   UNL A   1      40.001  26.822  29.163  1.00  0.00     0.010 A 
ATOM     40  C   UNL A   1      41.878  28.130  28.374  1.00  0.00     0.010 A 
ATOM     41  C   UNL A   1      40.866  27.917  29.322  1.00  0.00    -0.014 A 
BRANCH  41  42
ATOM     42  C   UNL A   1      40.715  28.869  30.454  1.00  0.00     0.031 A 
ATOM     43  C   UNL A   1      41.584  28.730  31.676  1.00  0.00     0.074 A 
ATOM     44  C   UNL A   1      39.756  29.816  30.407  1.00  0.00     0.049 A 
ATOM     45  N   UNL A   1      41.554  29.412  32.792  1.00  0.00    -0.248 NA
ATOM     46  C   UNL A   1      42.601  27.665  31.655  1.00  0.00     0.031 C 
ATOM     47  C   UNL A   1      38.821  30.019  29.297  1.00  0.00     0.029 A 
ATOM     48  N   UNL A   1      39.403  30.780  31.317  1.00  0.00    -0.354 N 
ATOM     49  C   UNL A   1      42.532  28.851  33.606  1.00  0.00     0.074 A 
ATOM     50  C   UNL A   1      43.094  27.732  32.882  1.00  0.00     0.031 C 
ATOM     51  C   UNL A   1      38.022  31.060  29.580  1.00  0.00     0.029 A 
ATOM     52  C   UNL A   1      38.354  31.570  30.906  1.00  0.00     0.049 A 
ATOM     53  H   UNL A   1      39.857  30.896  32.182  1.00  0.00     0.167 HD
ATOM     54  C   UNL A   1      42.944  29.247  34.835  1.00  0.00     0.037 A 
ATOM     55  C   UNL A   1      37.724  32.583  31.532  1.00  0.00     0.037 A 
ATOM     56  C   UNL A   1      42.397  30.379  35.536  1.00  0.00     0.049 A 
ATOM     57  C   UNL A   1      38.194  33.002  32.899  1.00  0.00     0.074 A 
ATOM     58  C   UNL A   1      42.781  30.900  36.760  1.00  0.00     0.029 A 
ATOM     59  N   UNL A   1      41.347  31.164  35.080  1.00  0.00    -0.354 N 
ATOM     60  N   UNL A   1      39.162  32.498  33.628  1.00  0.00    -0.248 NA
ATOM     61  C   UNL A   1      37.493  34.129  33.527  1.00  0.00     0.031 C 
ATOM     62  C   UNL A   1      41.928  31.964  37.068  1.00  0.00     0.029 A 
ATOM     63  C   UNL A   1      41.054  32.148  36.009  1.00  0.00     0.049 A 
ATOM     64  H   UNL A   1      40.880  31.039  34.223  1.00  0.00     0.167 HD
ATOM     65  C   UNL A   1      39.207  33.268  34.785  1.00  0.00     0.074 A 
ATOM     66  C   UNL A   1      38.176  34.277  34.654  1.00  0.00     0.031 C 
ATOM     67  C   UNL A   1      40.028  33.151  35.858  1.00  0.00     0.037 A 
BRANCH  54  68
ATOM     68  C   UNL A   1      44.039  28.455  35.498  1.00  0.00     0.058 A 
ATOM     69  C   UNL A   1      45.398  28.741  35.276  1.00  0.00     0.135 A 
ATOM     70  C   UNL A   1      43.730  27.420  36.396  1.00  0.00     0.135 A 
ATOM     71  F   UNL A   1      45.754  29.709  34.416  1.00  0.00    -0.206 F 
ATOM     72  C   UNL A   1      46.406  28.010  35.895  1.00  0.00     0.059 A 
ATOM     73  C   UNL A   1      44.723  26.698  37.051  1.00  0.00     0.059 A 
ATOM     74  F   UNL A   1      42.450  27.102  36.645  1.00  0.00    -0.206 F 
ATOM     75  C   UNL A   1      46.059  26.990  36.782  1.00  0.00     0.060 A 
BRANCH  75  76
ATOM     76  S   UNL A   1      47.381  26.058  37.581  1.00  0.00     0.124 S 
ATOM     77  O   UNL A   1      47.971  27.075  38.449  1.00  0.00    -0.237 OA
ATOM     78  O   UNL A   1      46.647  24.995  38.260  1.00  0.00    -0.237 OA
ATOM     79  O   UNL A   1      48.217  25.626  36.465  1.00  0.00    -0.744 OA
ENDBRANCH  75  76
ENDBRANCH  54  68
BRANCH  55  80
ATOM     80  C   UNL A   1      36.595  33.285  30.862  1.00  0.00     0.058 A 
ATOM     81  C   UNL A   1      35.272  33.100  31.291  1.00  0.00     0.135 A 
ATOM     82  C   UNL A   1      36.816  34.164  29.790  1.00  0.00     0.135 A 
ATOM     83  F   UNL A   1      35.008  32.266  32.308  1.00  0.00    -0.206 F 
ATOM     84  C   UNL A   1      34.207  33.743  30.670  1.00  0.00     0.059 A 
ATOM     85  C   UNL A   1      35.770  34.842  29.172  1.00  0.00     0.059 A 
ATOM     86  F   UNL A   1      38.065  34.391  29.353  1.00  0.00    -0.206 F 
ATOM     87  C   UNL A   1      34.467  34.616  29.612  1.00  0.00     0.060 A 
BRANCH  87  88
ATOM     88  S   UNL A   1      33.080  35.481  28.843  1.00  0.00     0.124 S 
ATOM     89  O   UNL A   1      33.767  36.502  28.063  1.00  0.00    -0.237 OA
ATOM     90  O   UNL A   1      32.442  34.413  28.080  1.00  0.00    -0.237 OA
ATOM     91  O   UNL A   1      32.314  35.967  29.987  1.00  0.00    -0.744 OA
ENDBRANCH  87  88
ENDBRANCH  55  80
BRANCH  67  92
ATOM     92  C   UNL A   1      39.877  34.163  36.962  1.00  0.00     0.058 A 
ATOM     93  C   UNL A   1      40.447  35.442  36.879  1.00  0.00     0.135 A 
ATOM     94  C   UNL A   1      39.101  33.864  38.095  1.00  0.00     0.135 A 
ATOM     95  F   UNL A   1      41.203  35.778  35.822  1.00  0.00    -0.206 F 
ATOM     96  C   UNL A   1      40.276  36.381  37.891  1.00  0.00     0.059 A 
ATOM     97  C   UNL A   1      38.889  34.798  39.103  1.00  0.00     0.059 A 
ATOM     98  F   UNL A   1      38.523  32.658  38.220  1.00  0.00    -0.206 F 
ATOM     99  C   UNL A   1      39.491  36.050  38.998  1.00  0.00     0.060 A 
BRANCH  99 100
ATOM    100  S   UNL A   1      39.248  37.292  40.286  1.00  0.00     0.124 S 
ATOM    101  O   UNL A   1      38.571  36.515  41.319  1.00  0.00    -0.237 OA
ATOM    102  O   UNL A   1      40.617  37.696  40.590  1.00  0.00    -0.237 OA
ATOM    103  O   UNL A   1      38.431  38.308  39.629  1.00  0.00    -0.744 OA
ENDBRANCH  99 100
ENDBRANCH  67  92
ENDBRANCH  41  42
ENDBRANCH  33  36
ENDBRANCH   1  32
TORSDOF 14
ENDMDL
MODEL 2
REMARK VINA RESULT:     -14.4      0.284      1.548
REMARK SMILES CN1C(=O)C[C@@H](C(=O)NCCCNC(=O)c2ccc(-c3c4nc(c(-c5c(F)cc(S(=O)(=O)[O-])cc5F)c5ccc([nH]5)c(-c5c(F)cc(S(=O)(=O)[O-])cc5F)c5nc(c(-c6c(F)cc(S(=O)(=O)[O-])cc6F)c6ccc3[nH]6)C=C5)C=C4)cc2)C12CCN(C(=O)c1cccc3ccccc13)CC2
REMARK SMILES IDX 12 1 11 2 10 3 9 4 7 5 8 6 6 8 1 9 2 10 3 11 82 12 4 13 5 14
REMARK SMILES IDX 83 15 99 16 84 17 98 18 85 19 86 20 87 21 88 22 89 23 97 24
REMARK SMILES IDX 90 25 92 26 96 27 91 28 93 29 95 30 94 31 13 32 14 33 15 35
REMARK SMILES IDX 16 36 17 37 81 38 18 39 80 40 19 41 20 42 21 43 74 44 22 45
REMARK SMILES IDX 79 46 73 47 75 48 23 49 78 50 72 51 71 52 24 54 58 55 37 56
REMARK SMILES IDX 57 57 38 58 41 59 56 60 76 61 39 62 40 63 55 65 77 66 42 67
REMARK SMILES IDX 25 68 26 69 35 70 27 71 28 72 34 73 36 74 29 75 30 76 31 77
REMARK SMILES IDX 32 78 33 79 59 80 60 81 69 82 61 83 62 84 68 85 70 86 63 87
REMARK SMILES IDX 64 88 65 89 66 90 67 91 43 92 44 93 53 94 45 95 46 96 52 97
REMARK SMILES IDX 54 98 47 99 48 100 49 101 50 102 51 103
REMARK H PARENT 9 7 13 34 75 53 41 64
REMARK Flexibility Score: inf
ROOT
ATOM      1  C   UNL A   1      40.202  23.345  27.154  1.00  0.00     0.118 C 
ENDROOT
BRANCH   1   2
ATOM      2  C   UNL A   1      38.987  22.732  26.471  1.00  0.00     0.042 C 
BRANCH   2   3
ATOM      3  C   UNL A   1      37.946  23.764  26.036  1.00  0.00     0.117 C 
BRANCH   3   4
ATOM      4  N   UNL A   1      37.300  23.477  24.760  1.00  0.00    -0.356 N 
ATOM      5  C   UNL A   1      36.195  22.783  24.394  1.00  0.00     0.226 C 
ATOM      6  O   UNL A   1      35.888  22.845  23.198  1.00  0.00    -0.275 OA
ATOM      7  H   UNL A   1      37.772  23.878  23.994  1.00  0.00     0.163 HD
BRANCH   5   8
ATOM      8  C   UNL A   1      35.351  21.904  25.318  1.00  0.00     0.113 C 
ATOM      9  C   UNL A   1      32.577  19.952  23.711  1.00  0.00     0.147 C 
ATOM     10  N   UNL A   1      33.769  20.504  24.329  1.00  0.00    -0.339 N 
ATOM     11  C   UNL A   1      34.835  19.668  24.653  1.00  0.00     0.223 C 
ATOM     12  C   UNL A   1      33.840  21.807  25.009  1.00  0.00     0.058 C 
ATOM     13  O   UNL A   1      34.947  18.487  24.376  1.00  0.00    -0.275 OA
ATOM     14  C   UNL A   1      35.865  20.470  25.396  1.00  0.00     0.116 C 
ATOM     15  C   UNL A   1      33.322  22.997  24.168  1.00  0.00     0.051 C 
ATOM     16  C   UNL A   1      32.982  21.727  26.310  1.00  0.00     0.051 C 
ATOM     17  C   UNL A   1      33.277  24.306  24.955  1.00  0.00     0.122 C 
ATOM     18  C   UNL A   1      32.784  23.077  27.006  1.00  0.00     0.122 C 
ATOM     19  N   UNL A   1      32.370  24.116  26.064  1.00  0.00    -0.338 N 
ATOM     20  C   UNL A   1      31.148  24.758  26.232  1.00  0.00     0.254 C 
ATOM     21  O   UNL A   1      30.348  24.410  27.102  1.00  0.00    -0.269 OA
BRANCH  20  22
ATOM     22  C   UNL A   1      30.795  25.999  25.483  1.00  0.00     0.047 A 
ATOM     23  C   UNL A   1      30.163  25.739  24.254  1.00  0.00     0.014 A 
ATOM     24  C   UNL A   1      31.238  27.318  25.802  1.00  0.00    -0.006 A 
ATOM     25  C   UNL A   1      30.026  26.742  23.301  1.00  0.00     0.001 A 
ATOM     26  C   UNL A   1      31.127  28.313  24.795  1.00  0.00    -0.018 A 
ATOM     27  C   UNL A   1      31.777  27.735  27.042  1.00  0.00     0.009 A 
ATOM     28  C   UNL A   1      30.545  28.006  23.557  1.00  0.00     0.009 A 
ATOM     29  C   UNL A   1      31.603  29.616  25.022  1.00  0.00     0.009 A 
ATOM     30  C   UNL A   1      32.136  29.063  27.294  1.00  0.00     0.001 A 
ATOM     31  C   UNL A   1      32.080  29.998  26.272  1.00  0.00     0.001 A 
ENDBRANCH  20  22
ENDBRANCH   5   8
ENDBRANCH   3   4
ENDBRANCH   2   3
ENDBRANCH   1   2
BRANCH   1  32
ATOM     32  N   UNL A   1      41.074  23.989  26.182  1.00  0.00    -0.352 N 
ATOM     33  C   UNL A   1      41.417  25.314  26.073  1.00  0.00     0.251 C 
ATOM     34  H   UNL A   1      41.472  23.392  25.510  1.00  0.00     0.163 HD
ATOM     35  O   UNL A   1      41.858  25.739  25.010  1.00  0.00    -0.269 OA
BRANCH  33  36
ATOM     36  C   UNL A   1      41.257  26.222  27.231  1.00  0.00     0.039 A 
ATOM     37  C   UNL A   1      42.151  27.282  27.399  1.00  0.00     0.014 A 
ATOM     38  C   UNL A   1      40.252  25.999  28.177  1.00  0.00     0.014 A 
ATOM     39  C   UNL A   1      42.008  28.142  28.491  1.00  0.00     0.010 A 
ATOM     40  C   UNL A   1      40.055  26.909  29.211  1.00  0.00     0.010 A 
ATOM     41  C   UNL A   1      40.942  27.980  29.392  1.00  0.00    -0.014 A 
BRANCH  41  42
ATOM     42  C   UNL A   1      40.753  28.899  30.544  1.00  0.00     0.031 A 
ATOM     43  C   UNL A   1      41.592  28.735  31.784  1.00  0.00     0.074 A 
ATOM     44  C   UNL A   1      39.787  29.840  30.496  1.00  0.00     0.049 A 
ATOM     45  N   UNL A   1      41.526  29.387  32.917  1.00  0.00    -0.248 NA
ATOM     46  C   UNL A   1      42.618  27.679  31.761  1.00  0.00     0.031 C 
ATOM     47  C   UNL A   1      38.880  30.065  29.368  1.00  0.00     0.029 A 
ATOM     48  N   UNL A   1      39.403  30.776  31.422  1.00  0.00    -0.354 N 
ATOM     49  C   UNL A   1      42.487  28.812  33.741  1.00  0.00     0.074 A 
ATOM     50  C   UNL A   1      43.078  27.718  33.002  1.00  0.00     0.031 C 
ATOM     51  C   UNL A   1      38.064  31.091  29.658  1.00  0.00     0.029 A 
ATOM     52  C   UNL A   1      38.358  31.568  31.005  1.00  0.00     0.049 A 
ATOM     53  H   UNL A   1      39.832  30.873  32.302  1.00  0.00     0.167 HD
ATOM     54  C   UNL A   1      42.864  29.179  34.990  1.00  0.00     0.037 A 
ATOM     55  C   UNL A   1      37.703  32.559  31.641  1.00  0.00     0.037 A 
ATOM     56  C   UNL A   1      42.289  30.287  35.707  1.00  0.00     0.049 A 
ATOM     57  C   UNL A   1      38.133  32.945  33.031  1.00  0.00     0.074 A 
ATOM     58  C   UNL A   1      42.637  30.778  36.953  1.00  0.00     0.029 A 
ATOM     59  N   UNL A   1      41.245  31.075  35.244  1.00  0.00    -0.354 N 
ATOM     60  N   UNL A   1      39.087  32.430  33.771  1.00  0.00    -0.248 NA
ATOM     61  C   UNL A   1      37.406  34.050  33.670  1.00  0.00     0.031 C 
ATOM     62  C   UNL A   1      41.767  31.827  37.267  1.00  0.00     0.029 A 
ATOM     63  C   UNL A   1      40.919  32.032  36.190  1.00  0.00     0.049 A 
ATOM     64  H   UNL A   1      40.801  30.969  34.372  1.00  0.00     0.167 HD
ATOM     65  C   UNL A   1      39.095  33.169  34.950  1.00  0.00     0.074 A 
ATOM     66  C   UNL A   1      38.059  34.173  34.818  1.00  0.00     0.031 C 
ATOM     67  C   UNL A   1      39.889  33.030  36.040  1.00  0.00     0.037 A 
BRANCH  54  68
ATOM     68  C   UNL A   1      43.949  28.377  35.660  1.00  0.00     0.058 A 
ATOM     69  C   UNL A   1      43.654  27.290  36.500  1.00  0.00     0.135 A 
ATOM     70  C   UNL A   1      45.302  28.675  35.431  1.00  0.00     0.135 A 
ATOM     71  F   UNL A   1      42.378  26.968  36.768  1.00  0.00    -0.206 F 
ATOM     72  C   UNL A   1      44.659  26.549  37.112  1.00  0.00     0.059 A 
ATOM     73  C   UNL A   1      46.325  27.926  36.007  1.00  0.00     0.059 A 
ATOM     74  F   UNL A   1      45.643  29.703  34.638  1.00  0.00    -0.206 F 
ATOM     75  C   UNL A   1      45.993  26.874  36.859  1.00  0.00     0.060 A 
BRANCH  75  76
ATOM     76  S   UNL A   1      47.283  25.896  37.656  1.00  0.00     0.124 S 
ATOM     77  O   UNL A   1      48.432  26.792  37.554  1.00  0.00    -0.237 OA
ATOM     78  O   UNL A   1      46.745  25.707  38.999  1.00  0.00    -0.237 OA
ATOM     79  O   UNL A   1      47.353  24.691  36.835  1.00  0.00    -0.744 OA
ENDBRANCH  75  76
ENDBRANCH  54  68
BRANCH  55  80
ATOM     80  C   UNL A   1      36.586  33.269  30.961  1.00  0.00     0.058 A 
ATOM     81  C   UNL A   1      36.830  34.162  29.906  1.00  0.00     0.135 A 
ATOM     82  C   UNL A   1      35.251  33.060  31.342  1.00  0.00     0.135 A 
ATOM     83  F   UNL A   1      38.089  34.400  29.508  1.00  0.00    -0.206 F 
ATOM     84  C   UNL A   1      35.796  34.838  29.267  1.00  0.00     0.059 A 
ATOM     85  C   UNL A   1      34.197  33.702  30.698  1.00  0.00     0.059 A 
ATOM     86  F   UNL A   1      34.960  32.202  32.332  1.00  0.00    -0.206 F 
ATOM     87  C   UNL A   1      34.481  34.598  29.668  1.00  0.00     0.060 A 
BRANCH  87  88
ATOM     88  S   UNL A   1      33.144  35.446  28.801  1.00  0.00     0.124 S 
ATOM     89  O   UNL A   1      33.882  36.402  27.985  1.00  0.00    -0.237 OA
ATOM     90  O   UNL A   1      32.505  34.350  28.081  1.00  0.00    -0.237 OA
ATOM     91  O   UNL A   1      32.352  36.019  29.886  1.00  0.00    -0.744 OA
ENDBRANCH  87  88
ENDBRANCH  55  80
BRANCH  67  92
ATOM     92  C   UNL A   1      39.700  34.011  37.166  1.00  0.00     0.058 A 
ATOM     93  C   UNL A   1      38.928  33.702  38.297  1.00  0.00     0.135 A 
ATOM     94  C   UNL A   1      40.348  35.257  37.136  1.00  0.00     0.135 A 
ATOM     95  F   UNL A   1      38.283  32.527  38.375  1.00  0.00    -0.206 F 
ATOM     96  C   UNL A   1      38.785  34.603  39.346  1.00  0.00     0.059 A 
ATOM     97  C   UNL A   1      40.244  36.160  38.188  1.00  0.00     0.059 A 
ATOM     98  F   UNL A   1      41.107  35.599  36.082  1.00  0.00    -0.206 F 
ATOM     99  C   UNL A   1      39.450  35.829  39.284  1.00  0.00     0.060 A 
BRANCH  99 100
ATOM    100  S   UNL A   1      39.284  36.974  40.670  1.00  0.00     0.124 S 
ATOM    101  O   UNL A   1      38.558  36.160  41.639  1.00  0.00    -0.237 OA
ATOM    102  O   UNL A   1      40.675  37.266  41.001  1.00  0.00    -0.237 OA
ATOM    103  O   UNL A   1      38.533  38.090  40.101  1.00  0.00    -0.744 OA
ENDBRANCH  99 100
ENDBRANCH  67  92
ENDBRANCH  41  42
ENDBRANCH  33  36
ENDBRANCH   1  32
TORSDOF 14
ENDMDL
MODEL 3
REMARK VINA RESULT:     -14.3      0.496      7.988
REMARK SMILES CN1C(=O)C[C@@H](C(=O)NCCCNC(=O)c2ccc(-c3c4nc(c(-c5c(F)cc(S(=O)(=O)[O-])cc5F)c5ccc([nH]5)c(-c5c(F)cc(S(=O)(=O)[O-])cc5F)c5nc(c(-c6c(F)cc(S(=O)(=O)[O-])cc6F)c6ccc3[nH]6)C=C5)C=C4)cc2)C12CCN(C(=O)c1cccc3ccccc13)CC2
REMARK SMILES IDX 12 1 11 2 10 3 9 4 7 5 8 6 6 8 1 9 2 10 3 11 82 12 4 13 5 14
REMARK SMILES IDX 83 15 99 16 84 17 98 18 85 19 86 20 87 21 88 22 89 23 97 24
REMARK SMILES IDX 90 25 92 26 96 27 91 28 93 29 95 30 94 31 13 32 14 33 15 35
REMARK SMILES IDX 16 36 17 37 81 38 18 39 80 40 19 41 20 42 21 43 74 44 22 45
REMARK SMILES IDX 79 46 73 47 75 48 23 49 78 50 72 51 71 52 24 54 58 55 37 56
REMARK SMILES IDX 57 57 38 58 41 59 56 60 76 61 39 62 40 63 55 65 77 66 42 67
REMARK SMILES IDX 25 68 26 69 35 70 27 71 28 72 34 73 36 74 29 75 30 76 31 77
REMARK SMILES IDX 32 78 33 79 59 80 60 81 69 82 61 83 62 84 68 85 70 86 63 87
REMARK SMILES IDX 64 88 65 89 66 90 67 91 43 92 44 93 53 94 45 95 46 96 52 97
REMARK SMILES IDX 54 98 47 99 48 100 49 101 50 102 51 103
REMARK H PARENT 9 7 13 34 75 53 41 64
REMARK Flexibility Score: inf
ROOT
ATOM      1  C   UNL A   1      40.159  23.446  27.122  1.00  0.00     0.118 C 
ENDROOT
BRANCH   1   2
ATOM      2  C   UNL A   1      38.953  22.792  26.460  1.00  0.00     0.042 C 
BRANCH   2   3
ATOM      3  C   UNL A   1      37.899  23.794  25.988  1.00  0.00     0.117 C 
BRANCH   3   4
ATOM      4  N   UNL A   1      37.269  23.462  24.716  1.00  0.00    -0.356 N 
ATOM      5  C   UNL A   1      36.184  22.732  24.358  1.00  0.00     0.226 C 
ATOM      6  O   UNL A   1      35.883  22.759  23.159  1.00  0.00    -0.275 OA
ATOM      7  H   UNL A   1      37.735  23.858  23.944  1.00  0.00     0.163 HD
BRANCH   5   8
ATOM      8  C   UNL A   1      35.357  21.852  25.297  1.00  0.00     0.113 C 
ATOM      9  C   UNL A   1      32.559  19.896  23.737  1.00  0.00     0.147 C 
ATOM     10  N   UNL A   1      33.760  20.449  24.334  1.00  0.00    -0.339 N 
ATOM     11  C   UNL A   1      34.833  19.615  24.641  1.00  0.00     0.223 C 
ATOM     12  C   UNL A   1      33.840  21.754  25.012  1.00  0.00     0.058 C 
ATOM     13  O   UNL A   1      34.942  18.434  24.364  1.00  0.00    -0.275 OA
ATOM     14  C   UNL A   1      35.874  20.419  25.368  1.00  0.00     0.116 C 
ATOM     15  C   UNL A   1      33.308  22.941  24.179  1.00  0.00     0.051 C 
ATOM     16  C   UNL A   1      33.004  21.673  26.327  1.00  0.00     0.051 C 
ATOM     17  C   UNL A   1      33.274  24.252  24.965  1.00  0.00     0.122 C 
ATOM     18  C   UNL A   1      32.815  23.023  27.025  1.00  0.00     0.122 C 
ATOM     19  N   UNL A   1      32.385  24.061  26.089  1.00  0.00    -0.338 N 
ATOM     20  C   UNL A   1      31.165  24.702  26.277  1.00  0.00     0.254 C 
ATOM     21  O   UNL A   1      30.380  24.353  27.160  1.00  0.00    -0.269 OA
BRANCH  20  22
ATOM     22  C   UNL A   1      30.798  25.942  25.532  1.00  0.00     0.047 A 
ATOM     23  C   UNL A   1      30.150  25.680  24.312  1.00  0.00     0.014 A 
ATOM     24  C   UNL A   1      31.241  27.261  25.845  1.00  0.00    -0.006 A 
ATOM     25  C   UNL A   1      29.997  26.682  23.361  1.00  0.00     0.001 A 
ATOM     26  C   UNL A   1      31.114  28.256  24.839  1.00  0.00    -0.018 A 
ATOM     27  C   UNL A   1      31.797  27.680  27.077  1.00  0.00     0.009 A 
ATOM     28  C   UNL A   1      30.516  27.948  23.610  1.00  0.00     0.009 A 
ATOM     29  C   UNL A   1      31.589  29.561  25.060  1.00  0.00     0.009 A 
ATOM     30  C   UNL A   1      32.155  29.010  27.325  1.00  0.00     0.001 A 
ATOM     31  C   UNL A   1      32.082  29.944  26.303  1.00  0.00     0.001 A 
ENDBRANCH  20  22
ENDBRANCH   5   8
ENDBRANCH   3   4
ENDBRANCH   2   3
ENDBRANCH   1   2
BRANCH   1  32
ATOM     32  N   UNL A   1      40.957  24.172  26.145  1.00  0.00    -0.352 N 
ATOM     33  C   UNL A   1      41.217  25.519  26.071  1.00  0.00     0.251 C 
ATOM     34  H   UNL A   1      41.367  23.622  25.440  1.00  0.00     0.163 HD
ATOM     35  O   UNL A   1      41.596  26.004  25.009  1.00  0.00    -0.269 OA
BRANCH  33  36
ATOM     36  C   UNL A   1      41.044  26.377  27.264  1.00  0.00     0.039 A 
ATOM     37  C   UNL A   1      40.055  26.059  28.199  1.00  0.00     0.014 A 
ATOM     38  C   UNL A   1      41.827  27.522  27.438  1.00  0.00     0.014 A 
ATOM     39  C   UNL A   1      39.884  26.865  29.327  1.00  0.00     0.010 A 
ATOM     40  C   UNL A   1      41.719  28.269  28.606  1.00  0.00     0.010 A 
ATOM     41  C   UNL A   1      40.733  27.961  29.556  1.00  0.00    -0.014 A 
BRANCH  41  42
ATOM     42  C   UNL A   1      40.589  28.816  30.763  1.00  0.00     0.031 A 
ATOM     43  C   UNL A   1      39.541  29.898  30.800  1.00  0.00     0.074 A 
ATOM     44  C   UNL A   1      41.439  28.659  31.798  1.00  0.00     0.049 A 
ATOM     45  N   UNL A   1      39.309  30.790  31.728  1.00  0.00    -0.248 NA
ATOM     46  C   UNL A   1      38.658  30.012  29.627  1.00  0.00     0.031 C 
ATOM     47  C   UNL A   1      42.525  27.677  31.859  1.00  0.00     0.029 A 
ATOM     48  N   UNL A   1      41.529  29.327  32.993  1.00  0.00    -0.354 N 
ATOM     49  C   UNL A   1      38.268  31.577  31.245  1.00  0.00     0.074 A 
ATOM     50  C   UNL A   1      37.957  31.097  29.917  1.00  0.00     0.031 C 
ATOM     51  C   UNL A   1      43.153  27.789  33.041  1.00  0.00     0.029 A 
ATOM     52  C   UNL A   1      42.547  28.876  33.802  1.00  0.00     0.049 A 
ATOM     53  H   UNL A   1      40.924  30.059  33.247  1.00  0.00     0.167 HD
ATOM     54  C   UNL A   1      37.613  32.589  31.862  1.00  0.00     0.037 A 
ATOM     55  C   UNL A   1      42.952  29.298  35.015  1.00  0.00     0.037 A 
ATOM     56  C   UNL A   1      37.912  33.041  33.196  1.00  0.00     0.049 A 
ATOM     57  C   UNL A   1      42.213  30.429  35.679  1.00  0.00     0.074 A 
ATOM     58  C   UNL A   1      37.271  34.020  33.936  1.00  0.00     0.029 A 
ATOM     59  N   UNL A   1      38.938  32.548  33.990  1.00  0.00    -0.354 N 
ATOM     60  N   UNL A   1      41.191  31.120  35.233  1.00  0.00    -0.248 NA
ATOM     61  C   UNL A   1      42.677  30.834  37.013  1.00  0.00     0.031 C 
ATOM     62  C   UNL A   1      37.944  34.157  35.154  1.00  0.00     0.029 A 
ATOM     63  C   UNL A   1      38.964  33.220  35.200  1.00  0.00     0.049 A 
ATOM     64  H   UNL A   1      39.556  31.828  33.730  1.00  0.00     0.167 HD
ATOM     65  C   UNL A   1      40.869  32.019  36.245  1.00  0.00     0.074 A 
ATOM     66  C   UNL A   1      41.798  31.776  37.329  1.00  0.00     0.031 C 
ATOM     67  C   UNL A   1      39.892  32.960  36.273  1.00  0.00     0.037 A 
BRANCH  54  68
ATOM     68  C   UNL A   1      36.507  33.275  31.105  1.00  0.00     0.058 A 
ATOM     69  C   UNL A   1      35.156  33.111  31.457  1.00  0.00     0.135 A 
ATOM     70  C   UNL A   1      36.801  34.137  30.036  1.00  0.00     0.135 A 
ATOM     71  F   UNL A   1      34.813  32.287  32.461  1.00  0.00    -0.206 F 
ATOM     72  C   UNL A   1      34.138  33.751  30.758  1.00  0.00     0.059 A 
ATOM     73  C   UNL A   1      35.800  34.813  29.343  1.00  0.00     0.059 A 
ATOM     74  F   UNL A   1      38.073  34.331  29.654  1.00  0.00    -0.206 F 
ATOM     75  C   UNL A   1      34.470  34.602  29.702  1.00  0.00     0.060 A 
BRANCH  75  76
ATOM     76  S   UNL A   1      33.136  35.429  28.812  1.00  0.00     0.124 S 
ATOM     77  O   UNL A   1      32.338  35.961  29.914  1.00  0.00    -0.237 OA
ATOM     78  O   UNL A   1      33.858  36.417  28.018  1.00  0.00    -0.237 OA
ATOM     79  O   UNL A   1      32.513  34.350  28.052  1.00  0.00    -0.744 OA
ENDBRANCH  75  76
ENDBRANCH  54  68
BRANCH  55  80
ATOM     80  C   UNL A   1      44.101  28.634  35.689  1.00  0.00     0.058 A 
ATOM     81  C   UNL A   1      45.419  29.058  35.458  1.00  0.00     0.135 A 
ATOM     82  C   UNL A   1      43.906  27.574  36.588  1.00  0.00     0.135 A 
ATOM     83  F   UNL A   1      45.659  30.064  34.603  1.00  0.00    -0.206 F 
ATOM     84  C   UNL A   1      46.502  28.442  36.074  1.00  0.00     0.059 A 
ATOM     85  C   UNL A   1      44.971  26.961  37.240  1.00  0.00     0.059 A 
ATOM     86  F   UNL A   1      42.664  27.142  36.860  1.00  0.00    -0.206 F 
ATOM     87  C   UNL A   1      46.268  27.396  36.968  1.00  0.00     0.060 A 
BRANCH  87  88
ATOM     88  S   UNL A   1      47.680  26.634  37.798  1.00  0.00     0.124 S 
ATOM     89  O   UNL A   1      47.146  25.321  38.140  1.00  0.00    -0.237 OA
ATOM     90  O   UNL A   1      48.697  26.659  36.752  1.00  0.00    -0.237 OA
ATOM     91  O   UNL A   1      47.928  27.530  38.924  1.00  0.00    -0.744 OA
ENDBRANCH  87  88
ENDBRANCH  55  80
BRANCH  67  92
ATOM     92  C   UNL A   1      39.747  33.772  37.532  1.00  0.00     0.058 A 
ATOM     93  C   UNL A   1      40.428  34.985  37.715  1.00  0.00     0.135 A 
ATOM     94  C   UNL A   1      38.867  33.355  38.546  1.00  0.00     0.135 A 
ATOM     95  F   UNL A   1      41.285  35.427  36.780  1.00  0.00    -0.206 F 
ATOM     96  C   UNL A   1      40.264  35.744  38.869  1.00  0.00     0.059 A 
ATOM     97  C   UNL A   1      38.663  34.114  39.693  1.00  0.00     0.059 A 
ATOM     98  F   UNL A   1      38.182  32.208  38.417  1.00  0.00    -0.206 F 
ATOM     99  C   UNL A   1      39.375  35.301  39.851  1.00  0.00     0.060 A 
BRANCH  99 100
ATOM    100  S   UNL A   1      39.145  36.315  41.327  1.00  0.00     0.124 S 
ATOM    101  O   UNL A   1      40.438  36.172  41.987  1.00  0.00    -0.237 OA
ATOM    102  O   UNL A   1      38.862  37.630  40.760  1.00  0.00    -0.237 OA
ATOM    103  O   UNL A   1      38.021  35.676  42.006  1.00  0.00    -0.744 OA
ENDBRANCH  99 100
ENDBRANCH  67  92
ENDBRANCH  41  42
ENDBRANCH  33  36
ENDBRANCH   1  32
TORSDOF 14
ENDMDL
