MODEL 1
REMARK VINA RESULT:     -10.9      0.000      0.000
REMARK SMILES C#CCN(CC(=O)NCCCNC(=O)c1ccc(-c2c3nc(c(-c4c(F)cc(S(=O)(=O)[O-])cc4F)c4ccc([nH]4)c(-c4c(F)cc(S(=O)(=O)[O-])cc4F)c4nc(c(-c5c(F)cc(S(=O)(=O)[O-])cc5F)c5ccc2[nH]5)C=C4)C=C3)cc1)C(=O)c1cc(C)c(C)s1
REMARK SMILES IDX 10 1 9 2 8 3 6 4 7 5 5 7 4 8 3 9 2 10 1 11 81 12 82 13 83 14
REMARK SMILES IDX 84 15 89 16 85 17 87 18 86 19 88 20 11 21 12 22 13 23 14 25
REMARK SMILES IDX 15 26 16 27 80 28 17 29 79 30 18 31 19 32 20 33 73 34 21 35
REMARK SMILES IDX 78 36 72 37 74 38 22 39 77 40 71 41 70 42 23 44 57 45 36 46
REMARK SMILES IDX 56 47 37 48 40 49 55 50 75 51 38 52 39 53 54 55 76 56 41 57
REMARK SMILES IDX 24 58 25 59 34 60 26 61 27 62 33 63 35 64 28 65 29 66 30 67
REMARK SMILES IDX 31 68 32 69 58 70 59 71 68 72 60 73 61 74 67 75 69 76 62 77
REMARK SMILES IDX 63 78 64 79 65 80 66 81 42 82 43 83 52 84 44 85 45 86 51 87
REMARK SMILES IDX 53 88 46 89 47 90 48 91 49 92 50 93
REMARK H PARENT 8 6 12 24 74 43 40 54
REMARK Flexibility Score: inf
ROOT
ATOM      1  C   UNL A   1      34.562  30.806  27.544  1.00  0.00     0.042 C 
ENDROOT
BRANCH   1   2
ATOM      2  C   UNL A   1      34.480  29.287  27.404  1.00  0.00     0.117 C 
BRANCH   2   3
ATOM      3  N   UNL A   1      33.203  28.714  27.784  1.00  0.00    -0.354 N 
ATOM      4  C   UNL A   1      32.012  28.648  27.124  1.00  0.00     0.239 C 
ATOM      5  O   UNL A   1      31.203  27.808  27.535  1.00  0.00    -0.273 OA
ATOM      6  H   UNL A   1      33.194  28.302  28.678  1.00  0.00     0.163 HD
BRANCH   4   7
ATOM      7  C   UNL A   1      31.717  29.435  25.834  1.00  0.00     0.220 C 
BRANCH   7   8
ATOM      8  N   UNL A   1      31.800  28.684  24.584  1.00  0.00    -0.318 N 
BRANCH   8   9
ATOM      9  C   UNL A   1      30.567  28.351  23.896  1.00  0.00     0.210 C 
BRANCH   9  10
ATOM     10  C   UNL A   1      29.758  29.582  23.524  1.00  0.00    -0.085 C 
ATOM     11  C   UNL A   1      29.064  30.639  23.204  1.00  0.00     0.006 C 
ENDBRANCH   9  10
ENDBRANCH   8   9
BRANCH   8  12
ATOM     12  C   UNL A   1      33.007  28.355  23.950  1.00  0.00     0.265 C 
ATOM     13  O   UNL A   1      33.637  29.196  23.311  1.00  0.00    -0.268 OA
BRANCH  12  14
ATOM     14  C   UNL A   1      33.467  26.985  24.049  1.00  0.00     0.093 A 
ATOM     15  C   UNL A   1      33.981  26.319  25.140  1.00  0.00     0.029 A 
ATOM     16  S   UNL A   1      33.319  25.961  22.695  1.00  0.00    -0.135 S 
ATOM     17  C   UNL A   1      34.318  24.957  24.849  1.00  0.00    -0.037 A 
ATOM     18  C   UNL A   1      33.977  24.628  23.546  1.00  0.00     0.005 A 
ATOM     19  C   UNL A   1      34.932  24.022  25.840  1.00  0.00     0.045 C 
ATOM     20  C   UNL A   1      34.121  23.315  22.852  1.00  0.00     0.056 C 
ENDBRANCH  12  14
ENDBRANCH   8  12
ENDBRANCH   7   8
ENDBRANCH   4   7
ENDBRANCH   2   3
ENDBRANCH   1   2
BRANCH   1  21
ATOM     21  C   UNL A   1      35.724  31.322  28.391  1.00  0.00     0.118 C 
BRANCH  21  22
ATOM     22  N   UNL A   1      35.700  30.804  29.748  1.00  0.00    -0.352 N 
ATOM     23  C   UNL A   1      36.572  29.980  30.415  1.00  0.00     0.251 C 
ATOM     24  H   UNL A   1      34.923  31.092  30.282  1.00  0.00     0.163 HD
ATOM     25  O   UNL A   1      36.223  29.511  31.496  1.00  0.00    -0.269 OA
BRANCH  23  26
ATOM     26  C   UNL A   1      37.910  29.637  29.870  1.00  0.00     0.039 A 
ATOM     27  C   UNL A   1      38.935  29.337  30.775  1.00  0.00     0.014 A 
ATOM     28  C   UNL A   1      38.199  29.711  28.504  1.00  0.00     0.014 A 
ATOM     29  C   UNL A   1      40.228  29.065  30.314  1.00  0.00     0.010 A 
ATOM     30  C   UNL A   1      39.482  29.403  28.040  1.00  0.00     0.010 A 
ATOM     31  C   UNL A   1      40.509  29.081  28.941  1.00  0.00    -0.014 A 
BRANCH  31  32
ATOM     32  C   UNL A   1      41.875  28.793  28.434  1.00  0.00     0.031 A 
ATOM     33  C   UNL A   1      42.224  27.420  27.934  1.00  0.00     0.074 A 
ATOM     34  C   UNL A   1      42.819  29.753  28.445  1.00  0.00     0.049 A 
ATOM     35  N   UNL A   1      43.396  26.932  27.615  1.00  0.00    -0.248 NA
ATOM     36  C   UNL A   1      41.112  26.470  27.785  1.00  0.00     0.031 C 
ATOM     37  C   UNL A   1      42.625  31.129  28.899  1.00  0.00     0.029 A 
ATOM     38  N   UNL A   1      44.136  29.708  28.061  1.00  0.00    -0.354 N 
ATOM     39  C   UNL A   1      43.175  25.600  27.293  1.00  0.00     0.074 A 
ATOM     40  C   UNL A   1      41.749  25.368  27.410  1.00  0.00     0.031 C 
ATOM     41  C   UNL A   1      43.776  31.806  28.744  1.00  0.00     0.029 A 
ATOM     42  C   UNL A   1      44.792  30.904  28.209  1.00  0.00     0.049 A 
ATOM     43  H   UNL A   1      44.568  28.895  27.712  1.00  0.00     0.167 HD
ATOM     44  C   UNL A   1      44.079  24.650  26.952  1.00  0.00     0.037 A 
ATOM     45  C   UNL A   1      46.071  31.236  27.952  1.00  0.00     0.037 A 
ATOM     46  C   UNL A   1      45.489  24.879  26.784  1.00  0.00     0.049 A 
ATOM     47  C   UNL A   1      47.031  30.198  27.453  1.00  0.00     0.074 A 
ATOM     48  C   UNL A   1      46.489  23.966  26.502  1.00  0.00     0.029 A 
ATOM     49  N   UNL A   1      46.093  26.125  26.849  1.00  0.00    -0.354 N 
ATOM     50  N   UNL A   1      46.825  28.920  27.248  1.00  0.00    -0.248 NA
ATOM     51  C   UNL A   1      48.401  30.645  27.162  1.00  0.00     0.031 C 
ATOM     52  C   UNL A   1      47.698  24.665  26.373  1.00  0.00     0.029 A 
ATOM     53  C   UNL A   1      47.447  26.012  26.580  1.00  0.00     0.049 A 
ATOM     54  H   UNL A   1      45.627  26.968  27.056  1.00  0.00     0.167 HD
ATOM     55  C   UNL A   1      48.043  28.404  26.825  1.00  0.00     0.074 A 
ATOM     56  C   UNL A   1      48.977  29.512  26.779  1.00  0.00     0.031 C 
ATOM     57  C   UNL A   1      48.361  27.122  26.522  1.00  0.00     0.037 A 
BRANCH  44  58
ATOM     58  C   UNL A   1      43.548  23.261  26.779  1.00  0.00     0.058 A 
ATOM     59  C   UNL A   1      43.194  22.471  27.881  1.00  0.00     0.135 A 
ATOM     60  C   UNL A   1      43.435  22.702  25.497  1.00  0.00     0.135 A 
ATOM     61  F   UNL A   1      43.304  22.959  29.125  1.00  0.00    -0.206 F 
ATOM     62  C   UNL A   1      42.769  21.155  27.721  1.00  0.00     0.059 A 
ATOM     63  C   UNL A   1      43.012  21.392  25.313  1.00  0.00     0.059 A 
ATOM     64  F   UNL A   1      43.776  23.418  24.414  1.00  0.00    -0.206 F 
ATOM     65  C   UNL A   1      42.699  20.619  26.433  1.00  0.00     0.060 A 
BRANCH  65  66
ATOM     66  S   UNL A   1      42.208  18.898  26.195  1.00  0.00     0.124 S 
ATOM     67  O   UNL A   1      42.413  18.353  27.534  1.00  0.00    -0.237 OA
ATOM     68  O   UNL A   1      40.818  19.003  25.764  1.00  0.00    -0.237 OA
ATOM     69  O   UNL A   1      43.143  18.434  25.175  1.00  0.00    -0.744 OA
ENDBRANCH  65  66
ENDBRANCH  44  58
BRANCH  45  70
ATOM     70  C   UNL A   1      46.511  32.632  28.172  1.00  0.00     0.058 A 
ATOM     71  C   UNL A   1      47.101  33.010  29.385  1.00  0.00     0.135 A 
ATOM     72  C   UNL A   1      46.402  33.592  27.158  1.00  0.00     0.135 A 
ATOM     73  F   UNL A   1      47.222  32.117  30.379  1.00  0.00    -0.206 F 
ATOM     74  C   UNL A   1      47.581  34.298  29.587  1.00  0.00     0.059 A 
ATOM     75  C   UNL A   1      46.879  34.886  27.334  1.00  0.00     0.059 A 
ATOM     76  F   UNL A   1      45.849  33.266  25.980  1.00  0.00    -0.206 F 
ATOM     77  C   UNL A   1      47.468  35.229  28.553  1.00  0.00     0.060 A 
BRANCH  77  78
ATOM     78  S   UNL A   1      48.167  36.883  28.757  1.00  0.00     0.124 S 
ATOM     79  O   UNL A   1      46.990  37.723  28.575  1.00  0.00    -0.237 OA
ATOM     80  O   UNL A   1      48.716  36.843  30.108  1.00  0.00    -0.237 OA
ATOM     81  O   UNL A   1      49.162  36.940  27.689  1.00  0.00    -0.744 OA
ENDBRANCH  77  78
ENDBRANCH  45  70
BRANCH  57  82
ATOM     82  C   UNL A   1      49.779  26.854  26.120  1.00  0.00     0.058 A 
ATOM     83  C   UNL A   1      50.171  26.937  24.776  1.00  0.00     0.135 A 
ATOM     84  C   UNL A   1      50.751  26.526  27.075  1.00  0.00     0.135 A 
ATOM     85  F   UNL A   1      49.272  27.244  23.828  1.00  0.00    -0.206 F 
ATOM     86  C   UNL A   1      51.484  26.693  24.388  1.00  0.00     0.059 A 
ATOM     87  C   UNL A   1      52.070  26.278  26.709  1.00  0.00     0.059 A 
ATOM     88  F   UNL A   1      50.419  26.429  28.372  1.00  0.00    -0.206 F 
ATOM     89  C   UNL A   1      52.426  26.355  25.362  1.00  0.00     0.060 A 
BRANCH  89  90
ATOM     90  S   UNL A   1      54.139  26.049  24.876  1.00  0.00     0.124 S 
ATOM     91  O   UNL A   1      54.254  24.612  25.102  1.00  0.00    -0.237 OA
ATOM     92  O   UNL A   1      54.167  26.473  23.480  1.00  0.00    -0.237 OA
ATOM     93  O   UNL A   1      54.894  26.896  25.794  1.00  0.00    -0.744 OA
ENDBRANCH  89  90
ENDBRANCH  57  82
ENDBRANCH  31  32
ENDBRANCH  23  26
ENDBRANCH  21  22
ENDBRANCH   1  21
TORSDOF 18
ENDMDL
MODEL 2
REMARK VINA RESULT:     -10.9      1.273      8.484
REMARK SMILES C#CCN(CC(=O)NCCCNC(=O)c1ccc(-c2c3nc(c(-c4c(F)cc(S(=O)(=O)[O-])cc4F)c4ccc([nH]4)c(-c4c(F)cc(S(=O)(=O)[O-])cc4F)c4nc(c(-c5c(F)cc(S(=O)(=O)[O-])cc5F)c5ccc2[nH]5)C=C4)C=C3)cc1)C(=O)c1cc(C)c(C)s1
REMARK SMILES IDX 10 1 9 2 8 3 6 4 7 5 5 7 4 8 3 9 2 10 1 11 81 12 82 13 83 14
REMARK SMILES IDX 84 15 89 16 85 17 87 18 86 19 88 20 11 21 12 22 13 23 14 25
REMARK SMILES IDX 15 26 16 27 80 28 17 29 79 30 18 31 19 32 20 33 73 34 21 35
REMARK SMILES IDX 78 36 72 37 74 38 22 39 77 40 71 41 70 42 23 44 57 45 36 46
REMARK SMILES IDX 56 47 37 48 40 49 55 50 75 51 38 52 39 53 54 55 76 56 41 57
REMARK SMILES IDX 24 58 25 59 34 60 26 61 27 62 33 63 35 64 28 65 29 66 30 67
REMARK SMILES IDX 31 68 32 69 58 70 59 71 68 72 60 73 61 74 67 75 69 76 62 77
REMARK SMILES IDX 63 78 64 79 65 80 66 81 42 82 43 83 52 84 44 85 45 86 51 87
REMARK SMILES IDX 53 88 46 89 47 90 48 91 49 92 50 93
REMARK H PARENT 8 6 12 24 74 43 40 54
REMARK Flexibility Score: inf
ROOT
ATOM      1  C   UNL A   1      33.764  29.266  26.039  1.00  0.00     0.042 C 
ENDROOT
BRANCH   1   2
ATOM      2  C   UNL A   1      32.262  29.100  26.262  1.00  0.00     0.117 C 
BRANCH   2   3
ATOM      3  N   UNL A   1      31.881  27.856  26.905  1.00  0.00    -0.354 N 
ATOM      4  C   UNL A   1      31.297  26.728  26.411  1.00  0.00     0.239 C 
ATOM      5  O   UNL A   1      31.406  25.707  27.100  1.00  0.00    -0.273 OA
ATOM      6  H   UNL A   1      32.079  27.821  27.869  1.00  0.00     0.163 HD
BRANCH   4   7
ATOM      7  C   UNL A   1      30.675  26.646  25.005  1.00  0.00     0.220 C 
BRANCH   7   8
ATOM      8  N   UNL A   1      31.506  26.047  23.963  1.00  0.00    -0.318 N 
BRANCH   8   9
ATOM      9  C   UNL A   1      32.158  26.926  23.011  1.00  0.00     0.210 C 
BRANCH   9  10
ATOM     10  C   UNL A   1      31.353  28.185  22.735  1.00  0.00    -0.085 C 
ATOM     11  C   UNL A   1      30.662  29.266  22.499  1.00  0.00     0.006 C 
ENDBRANCH   9  10
ENDBRANCH   8   9
BRANCH   8  12
ATOM     12  C   UNL A   1      31.797  24.678  23.889  1.00  0.00     0.265 C 
ATOM     13  O   UNL A   1      30.910  23.851  23.691  1.00  0.00    -0.268 OA
BRANCH  12  14
ATOM     14  C   UNL A   1      33.173  24.271  24.088  1.00  0.00     0.093 A 
ATOM     15  C   UNL A   1      33.921  24.277  25.245  1.00  0.00     0.029 A 
ATOM     16  S   UNL A   1      34.040  23.610  22.778  1.00  0.00    -0.135 S 
ATOM     17  C   UNL A   1      35.253  23.786  25.046  1.00  0.00    -0.037 A 
ATOM     18  C   UNL A   1      35.436  23.362  23.739  1.00  0.00     0.005 A 
ATOM     19  C   UNL A   1      36.286  23.725  26.125  1.00  0.00     0.045 C 
ATOM     20  C   UNL A   1      36.652  22.755  23.122  1.00  0.00     0.056 C 
ENDBRANCH  12  14
ENDBRANCH   8  12
ENDBRANCH   7   8
ENDBRANCH   4   7
ENDBRANCH   2   3
ENDBRANCH   1   2
BRANCH   1  21
ATOM     21  C   UNL A   1      34.647  28.877  27.223  1.00  0.00     0.118 C 
BRANCH  21  22
ATOM     22  N   UNL A   1      34.736  29.926  28.224  1.00  0.00    -0.352 N 
ATOM     23  C   UNL A   1      35.782  30.333  29.014  1.00  0.00     0.251 C 
ATOM     24  H   UNL A   1      33.901  30.432  28.360  1.00  0.00     0.163 HD
ATOM     25  O   UNL A   1      35.548  31.109  29.939  1.00  0.00    -0.269 OA
BRANCH  23  26
ATOM     26  C   UNL A   1      37.172  29.862  28.790  1.00  0.00     0.039 A 
ATOM     27  C   UNL A   1      37.899  29.403  29.895  1.00  0.00     0.014 A 
ATOM     28  C   UNL A   1      37.803  29.965  27.547  1.00  0.00     0.014 A 
ATOM     29  C   UNL A   1      39.232  29.003  29.747  1.00  0.00     0.010 A 
ATOM     30  C   UNL A   1      39.123  29.531  27.391  1.00  0.00     0.010 A 
ATOM     31  C   UNL A   1      39.851  29.050  28.491  1.00  0.00    -0.014 A 
BRANCH  31  32
ATOM     32  C   UNL A   1      41.264  28.629  28.316  1.00  0.00     0.031 A 
ATOM     33  C   UNL A   1      42.378  29.624  28.475  1.00  0.00     0.074 A 
ATOM     34  C   UNL A   1      41.557  27.356  27.986  1.00  0.00     0.049 A 
ATOM     35  N   UNL A   1      43.650  29.490  28.198  1.00  0.00    -0.248 NA
ATOM     36  C   UNL A   1      42.010  30.946  29.003  1.00  0.00     0.031 C 
ATOM     37  C   UNL A   1      40.582  26.282  27.800  1.00  0.00     0.029 A 
ATOM     38  N   UNL A   1      42.768  26.757  27.747  1.00  0.00    -0.354 N 
ATOM     39  C   UNL A   1      44.224  30.728  28.453  1.00  0.00     0.074 A 
ATOM     40  C   UNL A   1      43.169  31.588  28.950  1.00  0.00     0.031 C 
ATOM     41  C   UNL A   1      41.237  25.147  27.500  1.00  0.00     0.029 A 
ATOM     42  C   UNL A   1      42.670  25.422  27.444  1.00  0.00     0.049 A 
ATOM     43  H   UNL A   1      43.625  27.239  27.790  1.00  0.00     0.167 HD
ATOM     44  C   UNL A   1      45.508  31.120  28.268  1.00  0.00     0.037 A 
ATOM     45  C   UNL A   1      43.625  24.522  27.145  1.00  0.00     0.037 A 
ATOM     46  C   UNL A   1      46.573  30.263  27.822  1.00  0.00     0.049 A 
ATOM     47  C   UNL A   1      45.061  24.947  27.068  1.00  0.00     0.074 A 
ATOM     48  C   UNL A   1      47.890  30.587  27.546  1.00  0.00     0.029 A 
ATOM     49  N   UNL A   1      46.447  28.898  27.621  1.00  0.00    -0.354 N 
ATOM     50  N   UNL A   1      45.571  26.145  27.217  1.00  0.00    -0.248 NA
ATOM     51  C   UNL A   1      46.050  23.900  26.771  1.00  0.00     0.031 C 
ATOM     52  C   UNL A   1      48.568  29.409  27.199  1.00  0.00     0.029 A 
ATOM     53  C   UNL A   1      47.669  28.356  27.256  1.00  0.00     0.049 A 
ATOM     54  H   UNL A   1      45.611  28.387  27.722  1.00  0.00     0.167 HD
ATOM     55  C   UNL A   1      46.937  26.002  27.010  1.00  0.00     0.074 A 
ATOM     56  C   UNL A   1      47.179  24.597  26.750  1.00  0.00     0.031 C 
ATOM     57  C   UNL A   1      47.900  26.956  27.015  1.00  0.00     0.037 A 
BRANCH  44  58
ATOM     58  C   UNL A   1      45.802  32.566  28.519  1.00  0.00     0.058 A 
ATOM     59  C   UNL A   1      45.668  33.527  27.507  1.00  0.00     0.135 A 
ATOM     60  C   UNL A   1      46.266  32.986  29.775  1.00  0.00     0.135 A 
ATOM     61  F   UNL A   1      45.246  33.167  26.286  1.00  0.00    -0.206 F 
ATOM     62  C   UNL A   1      46.011  34.858  27.724  1.00  0.00     0.059 A 
ATOM     63  C   UNL A   1      46.612  34.309  30.015  1.00  0.00     0.059 A 
ATOM     64  F   UNL A   1      46.422  32.097  30.770  1.00  0.00    -0.206 F 
ATOM     65  C   UNL A   1      46.500  35.236  28.976  1.00  0.00     0.060 A 
BRANCH  65  66
ATOM     66  S   UNL A   1      47.010  36.942  29.272  1.00  0.00     0.124 S 
ATOM     67  O   UNL A   1      47.806  36.797  30.488  1.00  0.00    -0.237 OA
ATOM     68  O   UNL A   1      47.758  37.282  28.067  1.00  0.00    -0.237 OA
ATOM     69  O   UNL A   1      45.736  37.636  29.431  1.00  0.00    -0.744 OA
ENDBRANCH  65  66
ENDBRANCH  44  58
BRANCH  45  70
ATOM     70  C   UNL A   1      43.237  23.116  26.893  1.00  0.00     0.058 A 
ATOM     71  C   UNL A   1      43.251  22.597  25.591  1.00  0.00     0.135 A 
ATOM     72  C   UNL A   1      42.902  22.258  27.948  1.00  0.00     0.135 A 
ATOM     73  F   UNL A   1      43.566  23.389  24.556  1.00  0.00    -0.206 F 
ATOM     74  C   UNL A   1      42.954  21.262  25.341  1.00  0.00     0.059 A 
ATOM     75  C   UNL A   1      42.606  20.918  27.723  1.00  0.00     0.059 A 
ATOM     76  F   UNL A   1      42.884  22.718  29.208  1.00  0.00    -0.206 F 
ATOM     77  C   UNL A   1      42.635  20.430  26.415  1.00  0.00     0.060 A 
BRANCH  77  78
ATOM     78  S   UNL A   1      42.336  18.671  26.127  1.00  0.00     0.124 S 
ATOM     79  O   UNL A   1      43.276  18.386  25.051  1.00  0.00    -0.237 OA
ATOM     80  O   UNL A   1      42.647  18.069  27.420  1.00  0.00    -0.237 OA
ATOM     81  O   UNL A   1      40.922  18.647  25.762  1.00  0.00    -0.744 OA
ENDBRANCH  77  78
ENDBRANCH  45  70
BRANCH  57  82
ATOM     82  C   UNL A   1      49.299  26.507  26.726  1.00  0.00     0.058 A 
ATOM     83  C   UNL A   1      49.796  26.507  25.415  1.00  0.00     0.135 A 
ATOM     84  C   UNL A   1      50.150  26.087  27.758  1.00  0.00     0.135 A 
ATOM     85  F   UNL A   1      49.014  26.898  24.396  1.00  0.00    -0.206 F 
ATOM     86  C   UNL A   1      51.094  26.096  25.132  1.00  0.00     0.059 A 
ATOM     87  C   UNL A   1      51.452  25.671  27.497  1.00  0.00     0.059 A 
ATOM     88  F   UNL A   1      49.714  26.065  29.027  1.00  0.00    -0.206 F 
ATOM     89  C   UNL A   1      51.913  25.669  26.180  1.00  0.00     0.060 A 
BRANCH  89  90
ATOM     90  S   UNL A   1      53.606  25.145  25.831  1.00  0.00     0.124 S 
ATOM     91  O   UNL A   1      54.252  25.368  27.121  1.00  0.00    -0.237 OA
ATOM     92  O   UNL A   1      53.445  23.748  25.439  1.00  0.00    -0.237 OA
ATOM     93  O   UNL A   1      54.011  26.045  24.757  1.00  0.00    -0.744 OA
ENDBRANCH  89  90
ENDBRANCH  57  82
ENDBRANCH  31  32
ENDBRANCH  23  26
ENDBRANCH  21  22
ENDBRANCH   1  21
TORSDOF 18
ENDMDL
MODEL 3
REMARK VINA RESULT:     -10.7      6.714     11.896
REMARK SMILES C#CCN(CC(=O)NCCCNC(=O)c1ccc(-c2c3nc(c(-c4c(F)cc(S(=O)(=O)[O-])cc4F)c4ccc([nH]4)c(-c4c(F)cc(S(=O)(=O)[O-])cc4F)c4nc(c(-c5c(F)cc(S(=O)(=O)[O-])cc5F)c5ccc2[nH]5)C=C4)C=C3)cc1)C(=O)c1cc(C)c(C)s1
REMARK SMILES IDX 10 1 9 2 8 3 6 4 7 5 5 7 4 8 3 9 2 10 1 11 81 12 82 13 83 14
REMARK SMILES IDX 84 15 89 16 85 17 87 18 86 19 88 20 11 21 12 22 13 23 14 25
REMARK SMILES IDX 15 26 16 27 80 28 17 29 79 30 18 31 19 32 20 33 73 34 21 35
REMARK SMILES IDX 78 36 72 37 74 38 22 39 77 40 71 41 70 42 23 44 57 45 36 46
REMARK SMILES IDX 56 47 37 48 40 49 55 50 75 51 38 52 39 53 54 55 76 56 41 57
REMARK SMILES IDX 24 58 25 59 34 60 26 61 27 62 33 63 35 64 28 65 29 66 30 67
REMARK SMILES IDX 31 68 32 69 58 70 59 71 68 72 60 73 61 74 67 75 69 76 62 77
REMARK SMILES IDX 63 78 64 79 65 80 66 81 42 82 43 83 52 84 44 85 45 86 51 87
REMARK SMILES IDX 53 88 46 89 47 90 48 91 49 92 50 93
REMARK H PARENT 8 6 12 24 74 43 40 54
REMARK Flexibility Score: inf
ROOT
ATOM      1  C   UNL A   1      38.196  24.083  26.204  1.00  0.00     0.042 C 
ENDROOT
BRANCH   1   2
ATOM      2  C   UNL A   1      36.894  23.329  25.937  1.00  0.00     0.117 C 
BRANCH   2   3
ATOM      3  N   UNL A   1      37.035  21.887  25.873  1.00  0.00    -0.354 N 
ATOM      4  C   UNL A   1      36.308  20.939  25.216  1.00  0.00     0.239 C 
ATOM      5  O   UNL A   1      36.854  19.840  25.059  1.00  0.00    -0.273 OA
ATOM      6  H   UNL A   1      37.786  21.528  26.398  1.00  0.00     0.163 HD
BRANCH   4   7
ATOM      7  C   UNL A   1      34.954  21.229  24.543  1.00  0.00     0.220 C 
BRANCH   7   8
ATOM      8  N   UNL A   1      33.769  21.099  25.389  1.00  0.00    -0.318 N 
BRANCH   8   9
ATOM      9  C   UNL A   1      32.838  20.023  25.109  1.00  0.00     0.210 C 
BRANCH   9  10
ATOM     10  C   UNL A   1      33.526  18.788  24.550  1.00  0.00    -0.085 C 
ATOM     11  C   UNL A   1      34.117  17.729  24.070  1.00  0.00     0.006 C 
ENDBRANCH   9  10
ENDBRANCH   8   9
BRANCH   8  12
ATOM     12  C   UNL A   1      33.530  21.887  26.523  1.00  0.00     0.265 C 
ATOM     13  O   UNL A   1      33.727  21.446  27.654  1.00  0.00    -0.268 OA
BRANCH  12  14
ATOM     14  C   UNL A   1      33.014  23.225  26.317  1.00  0.00     0.093 A 
ATOM     15  C   UNL A   1      33.701  24.383  26.028  1.00  0.00     0.029 A 
ATOM     16  S   UNL A   1      31.329  23.477  26.341  1.00  0.00    -0.135 S 
ATOM     17  C   UNL A   1      32.836  25.518  25.882  1.00  0.00    -0.037 A 
ATOM     18  C   UNL A   1      31.506  25.147  26.005  1.00  0.00     0.005 A 
ATOM     19  C   UNL A   1      33.322  26.904  25.610  1.00  0.00     0.045 C 
ATOM     20  C   UNL A   1      30.289  26.002  25.885  1.00  0.00     0.056 C 
ENDBRANCH  12  14
ENDBRANCH   8  12
ENDBRANCH   7   8
ENDBRANCH   4   7
ENDBRANCH   2   3
ENDBRANCH   1   2
BRANCH   1  21
ATOM     21  C   UNL A   1      39.346  23.231  26.737  1.00  0.00     0.118 C 
BRANCH  21  22
ATOM     22  N   UNL A   1      40.615  23.544  26.102  1.00  0.00    -0.352 N 
ATOM     23  C   UNL A   1      41.438  24.637  26.221  1.00  0.00     0.251 C 
ATOM     24  H   UNL A   1      40.941  22.854  25.479  1.00  0.00     0.163 HD
ATOM     25  O   UNL A   1      42.358  24.765  25.416  1.00  0.00    -0.269 OA
BRANCH  23  26
ATOM     26  C   UNL A   1      41.245  25.661  27.278  1.00  0.00     0.039 A 
ATOM     27  C   UNL A   1      41.890  26.895  27.127  1.00  0.00     0.014 A 
ATOM     28  C   UNL A   1      40.537  25.395  28.454  1.00  0.00     0.014 A 
ATOM     29  C   UNL A   1      41.788  27.873  28.123  1.00  0.00     0.010 A 
ATOM     30  C   UNL A   1      40.404  26.385  29.433  1.00  0.00     0.010 A 
ATOM     31  C   UNL A   1      41.031  27.631  29.278  1.00  0.00    -0.014 A 
BRANCH  31  32
ATOM     32  C   UNL A   1      40.911  28.658  30.344  1.00  0.00     0.031 A 
ATOM     33  C   UNL A   1      41.888  28.685  31.485  1.00  0.00     0.074 A 
ATOM     34  C   UNL A   1      39.908  29.556  30.311  1.00  0.00     0.049 A 
ATOM     35  N   UNL A   1      41.848  29.388  32.588  1.00  0.00    -0.248 NA
ATOM     36  C   UNL A   1      43.054  27.797  31.375  1.00  0.00     0.031 C 
ATOM     37  C   UNL A   1      38.888  29.651  29.267  1.00  0.00     0.029 A 
ATOM     38  N   UNL A   1      39.586  30.560  31.189  1.00  0.00    -0.354 N 
ATOM     39  C   UNL A   1      42.945  28.979  33.335  1.00  0.00     0.074 A 
ATOM     40  C   UNL A   1      43.657  27.999  32.539  1.00  0.00     0.031 C 
ATOM     41  C   UNL A   1      38.067  30.677  29.553  1.00  0.00     0.029 A 
ATOM     42  C   UNL A   1      38.485  31.288  30.811  1.00  0.00     0.049 A 
ATOM     43  H   UNL A   1      40.096  30.742  32.011  1.00  0.00     0.167 HD
ATOM     44  C   UNL A   1      43.313  29.367  34.580  1.00  0.00     0.037 A 
ATOM     45  C   UNL A   1      37.876  32.325  31.414  1.00  0.00     0.037 A 
ATOM     46  C   UNL A   1      42.644  30.374  35.359  1.00  0.00     0.049 A 
ATOM     47  C   UNL A   1      38.375  32.826  32.736  1.00  0.00     0.074 A 
ATOM     48  C   UNL A   1      42.907  30.788  36.653  1.00  0.00     0.029 A 
ATOM     49  N   UNL A   1      41.594  31.151  34.898  1.00  0.00    -0.354 N 
ATOM     50  N   UNL A   1      39.355  32.362  33.472  1.00  0.00    -0.248 NA
ATOM     51  C   UNL A   1      37.679  33.985  33.315  1.00  0.00     0.031 C 
ATOM     52  C   UNL A   1      42.028  31.835  36.966  1.00  0.00     0.029 A 
ATOM     53  C   UNL A   1      41.218  32.067  35.867  1.00  0.00     0.049 A 
ATOM     54  H   UNL A   1      41.176  31.066  34.010  1.00  0.00     0.167 HD
ATOM     55  C   UNL A   1      39.380  33.156  34.612  1.00  0.00     0.074 A 
ATOM     56  C   UNL A   1      38.334  34.147  34.458  1.00  0.00     0.031 C 
ATOM     57  C   UNL A   1      40.186  33.056  35.697  1.00  0.00     0.037 A 
BRANCH  44  58
ATOM     58  C   UNL A   1      44.485  28.653  35.177  1.00  0.00     0.058 A 
ATOM     59  C   UNL A   1      45.794  29.125  35.006  1.00  0.00     0.135 A 
ATOM     60  C   UNL A   1      44.298  27.460  35.892  1.00  0.00     0.135 A 
ATOM     61  F   UNL A   1      46.021  30.251  34.315  1.00  0.00    -0.206 F 
ATOM     62  C   UNL A   1      46.887  28.420  35.502  1.00  0.00     0.059 A 
ATOM     63  C   UNL A   1      45.373  26.741  36.397  1.00  0.00     0.059 A 
ATOM     64  F   UNL A   1      43.062  26.965  36.069  1.00  0.00    -0.206 F 
ATOM     65  C   UNL A   1      46.667  27.219  36.180  1.00  0.00     0.060 A 
BRANCH  65  66
ATOM     66  S   UNL A   1      48.066  26.250  36.784  1.00  0.00     0.124 S 
ATOM     67  O   UNL A   1      48.318  25.370  35.646  1.00  0.00    -0.237 OA
ATOM     68  O   UNL A   1      49.088  27.261  37.036  1.00  0.00    -0.237 OA
ATOM     69  O   UNL A   1      47.521  25.605  37.973  1.00  0.00    -0.744 OA
ENDBRANCH  65  66
ENDBRANCH  44  58
BRANCH  45  70
ATOM     70  C   UNL A   1      36.710  32.957  30.757  1.00  0.00     0.058 A 
ATOM     71  C   UNL A   1      35.411  32.715  31.224  1.00  0.00     0.135 A 
ATOM     72  C   UNL A   1      36.877  33.852  29.692  1.00  0.00     0.135 A 
ATOM     73  F   UNL A   1      35.212  31.864  32.241  1.00  0.00    -0.206 F 
ATOM     74  C   UNL A   1      34.309  33.351  30.664  1.00  0.00     0.059 A 
ATOM     75  C   UNL A   1      35.791  34.503  29.118  1.00  0.00     0.059 A 
ATOM     76  F   UNL A   1      38.106  34.114  29.221  1.00  0.00    -0.206 F 
ATOM     77  C   UNL A   1      34.510  34.246  29.611  1.00  0.00     0.060 A 
BRANCH  77  78
ATOM     78  S   UNL A   1      33.106  35.152  28.926  1.00  0.00     0.124 S 
ATOM     79  O   UNL A   1      32.582  34.195  27.961  1.00  0.00    -0.237 OA
ATOM     80  O   UNL A   1      32.270  35.396  30.098  1.00  0.00    -0.237 OA
ATOM     81  O   UNL A   1      33.740  36.342  28.365  1.00  0.00    -0.744 OA
ENDBRANCH  77  78
ENDBRANCH  45  70
BRANCH  57  82
ATOM     82  C   UNL A   1      39.961  34.044  36.800  1.00  0.00     0.058 A 
ATOM     83  C   UNL A   1      40.605  35.290  36.790  1.00  0.00     0.135 A 
ATOM     84  C   UNL A   1      39.093  33.755  37.862  1.00  0.00     0.135 A 
ATOM     85  F   UNL A   1      41.447  35.607  35.794  1.00  0.00    -0.206 F 
ATOM     86  C   UNL A   1      40.403  36.218  37.806  1.00  0.00     0.059 A 
ATOM     87  C   UNL A   1      38.877  34.669  38.889  1.00  0.00     0.059 A 
ATOM     88  F   UNL A   1      38.461  32.572  37.915  1.00  0.00    -0.206 F 
ATOM     89  C   UNL A   1      39.544  35.894  38.857  1.00  0.00     0.060 A 
BRANCH  89  90
ATOM     90  S   UNL A   1      39.260  37.095  40.178  1.00  0.00     0.124 S 
ATOM     91  O   UNL A   1      38.505  38.128  39.475  1.00  0.00    -0.237 OA
ATOM     92  O   UNL A   1      38.510  36.326  41.166  1.00  0.00    -0.237 OA
ATOM     93  O   UNL A   1      40.614  37.464  40.579  1.00  0.00    -0.744 OA
ENDBRANCH  89  90
ENDBRANCH  57  82
ENDBRANCH  31  32
ENDBRANCH  23  26
ENDBRANCH  21  22
ENDBRANCH   1  21
TORSDOF 18
ENDMDL
