MODEL 1
REMARK VINA RESULT:     -12.7      0.000      0.000
REMARK SMILES CC(C)[C@H](NC(=O)Cn1ccc2c(Br)cccc21)C(=O)NCCCNC(=O)c1ccc(-c2c3nc(c(-c4c(F)cc(S(=O)(=O)[O-])cc4F)c4ccc([nH]4)c(-c4c(F)cc(S(=O)(=O)[O-])cc4F)c4nc(c(-c5c(F)cc(S(=O)(=O)[O-])cc5F)c5ccc2[nH]5)C=C4)C=C3)cc1
REMARK SMILES IDX 23 1 22 2 21 3 19 4 20 5 4 7 2 8 1 9 3 10 5 11 6 12 7 14
REMARK SMILES IDX 8 15 9 16 10 17 18 18 11 19 12 20 17 21 13 22 16 23 14 24
REMARK SMILES IDX 15 25 24 26 25 27 26 28 27 30 28 31 29 32 93 33 30 34 92 35
REMARK SMILES IDX 31 36 32 37 33 38 86 39 34 40 91 41 85 42 87 43 35 44 90 45
REMARK SMILES IDX 84 46 83 47 36 49 70 50 49 51 69 52 50 53 53 54 68 55 88 56
REMARK SMILES IDX 51 57 52 58 67 60 89 61 54 62 37 63 38 64 47 65 39 66 40 67
REMARK SMILES IDX 46 68 48 69 41 70 42 71 43 72 44 73 45 74 71 75 72 76 81 77
REMARK SMILES IDX 73 78 74 79 80 80 82 81 75 82 76 83 77 84 78 85 79 86 55 87
REMARK SMILES IDX 56 88 65 89 57 90 58 91 64 92 66 93 59 94 60 95 61 96 62 97
REMARK SMILES IDX 63 98
REMARK H PARENT 21 6 5 13 25 29 87 48 53 59
REMARK Flexibility Score: inf
ROOT
ATOM      1  C   UNL A   1      37.285  21.927  24.637  1.00  0.00     0.042 C 
ENDROOT
BRANCH   1   2
ATOM      2  C   UNL A   1      36.196  21.057  25.276  1.00  0.00     0.117 C 
BRANCH   2   3
ATOM      3  N   UNL A   1      35.542  21.714  26.389  1.00  0.00    -0.354 N 
ATOM      4  C   UNL A   1      34.311  22.289  26.466  1.00  0.00     0.242 C 
ATOM      5  O   UNL A   1      33.871  22.543  27.592  1.00  0.00    -0.273 OA
ATOM      6  H   UNL A   1      36.070  21.750  27.219  1.00  0.00     0.163 HD
BRANCH   4   7
ATOM      7  C   UNL A   1      33.418  22.511  25.216  1.00  0.00     0.173 C 
BRANCH   7   8
ATOM      8  C   UNL A   1      33.723  23.804  24.443  1.00  0.00     0.015 C 
ATOM      9  C   UNL A   1      34.599  24.835  25.159  1.00  0.00     0.010 C 
ATOM     10  C   UNL A   1      34.358  23.469  23.086  1.00  0.00     0.010 C 
ENDBRANCH   7   8
BRANCH   7  11
ATOM     11  N   UNL A   1      31.994  22.216  25.523  1.00  0.00    -0.343 N 
ATOM     12  C   UNL A   1      30.920  22.812  26.104  1.00  0.00     0.240 C 
ATOM     13  H   UNL A   1      31.756  21.313  25.210  1.00  0.00     0.164 HD
ATOM     14  O   UNL A   1      29.936  22.078  26.268  1.00  0.00    -0.273 OA
BRANCH  12  15
ATOM     15  C   UNL A   1      30.820  24.276  26.506  1.00  0.00     0.222 C 
BRANCH  15  16
ATOM     16  N   UNL A   1      30.807  25.223  25.393  1.00  0.00    -0.338 N 
ATOM     17  C   UNL A   1      30.347  24.949  24.132  1.00  0.00     0.087 A 
ATOM     18  C   UNL A   1      31.245  26.538  25.441  1.00  0.00     0.050 A 
ATOM     19  C   UNL A   1      30.249  26.146  23.459  1.00  0.00     0.029 A 
ATOM     20  C   UNL A   1      30.718  27.176  24.314  1.00  0.00     0.014 A 
ATOM     21  C   UNL A   1      31.991  27.241  26.399  1.00  0.00     0.027 A 
ATOM     22  C   UNL A   1      30.789  28.580  24.231  1.00  0.00     0.027 A 
ATOM     23  C   UNL A   1      32.105  28.629  26.258  1.00  0.00     0.003 A 
ATOM     24  Br  UNL A   1      29.919  29.518  22.833  1.00  0.00    -0.050 Br
ATOM     25  C   UNL A   1      31.478  29.298  25.211  1.00  0.00     0.016 A 
ENDBRANCH  15  16
ENDBRANCH  12  15
ENDBRANCH   7  11
ENDBRANCH   4   7
ENDBRANCH   2   3
ENDBRANCH   1   2
BRANCH   1  26
ATOM     26  C   UNL A   1      37.993  22.793  25.674  1.00  0.00     0.118 C 
BRANCH  26  27
ATOM     27  N   UNL A   1      38.928  22.022  26.495  1.00  0.00    -0.352 N 
ATOM     28  C   UNL A   1      40.044  22.435  27.199  1.00  0.00     0.251 C 
ATOM     29  H   UNL A   1      38.731  21.059  26.555  1.00  0.00     0.163 HD
ATOM     30  O   UNL A   1      40.858  21.642  27.632  1.00  0.00    -0.269 OA
BRANCH  28  31
ATOM     31  C   UNL A   1      40.237  23.878  27.372  1.00  0.00     0.039 A 
ATOM     32  C   UNL A   1      39.137  24.714  27.580  1.00  0.00     0.014 A 
ATOM     33  C   UNL A   1      41.540  24.329  27.520  1.00  0.00     0.014 A 
ATOM     34  C   UNL A   1      39.360  25.991  28.088  1.00  0.00     0.010 A 
ATOM     35  C   UNL A   1      41.740  25.516  28.173  1.00  0.00     0.010 A 
ATOM     36  C   UNL A   1      40.663  26.370  28.435  1.00  0.00    -0.014 A 
BRANCH  36  37
ATOM     37  C   UNL A   1      40.915  27.604  29.174  1.00  0.00     0.031 A 
ATOM     38  C   UNL A   1      42.004  28.500  28.671  1.00  0.00     0.074 A 
ATOM     39  C   UNL A   1      40.030  28.090  30.069  1.00  0.00     0.049 A 
ATOM     40  N   UNL A   1      43.063  28.913  29.291  1.00  0.00    -0.248 NA
ATOM     41  C   UNL A   1      41.915  28.969  27.278  1.00  0.00     0.031 C 
ATOM     42  C   UNL A   1      38.718  27.545  30.449  1.00  0.00     0.029 A 
ATOM     43  N   UNL A   1      40.069  29.274  30.732  1.00  0.00    -0.354 N 
ATOM     44  C   UNL A   1      43.687  29.828  28.441  1.00  0.00     0.074 A 
ATOM     45  C   UNL A   1      43.005  29.730  27.173  1.00  0.00     0.031 C 
ATOM     46  C   UNL A   1      37.997  28.503  31.065  1.00  0.00     0.029 A 
ATOM     47  C   UNL A   1      38.864  29.637  31.309  1.00  0.00     0.049 A 
ATOM     48  H   UNL A   1      40.881  29.825  30.797  1.00  0.00     0.167 HD
ATOM     49  C   UNL A   1      44.609  30.734  28.875  1.00  0.00     0.037 A 
ATOM     50  C   UNL A   1      38.589  30.798  31.939  1.00  0.00     0.037 A 
ATOM     51  C   UNL A   1      45.077  30.436  30.201  1.00  0.00     0.049 A 
ATOM     52  C   UNL A   1      39.887  31.374  32.370  1.00  0.00     0.074 A 
ATOM     53  C   UNL A   1      45.762  29.387  30.782  1.00  0.00     0.029 A 
ATOM     54  N   UNL A   1      44.523  31.140  31.241  1.00  0.00    -0.354 N 
ATOM     55  N   UNL A   1      40.686  30.810  33.237  1.00  0.00    -0.248 NA
ATOM     56  C   UNL A   1      40.494  32.413  31.555  1.00  0.00     0.031 C 
ATOM     57  C   UNL A   1      45.191  29.245  32.082  1.00  0.00     0.029 A 
ATOM     58  C   UNL A   1      44.218  30.237  32.230  1.00  0.00     0.049 A 
ATOM     59  H   UNL A   1      44.373  32.113  31.273  1.00  0.00     0.167 HD
ATOM     60  C   UNL A   1      41.966  31.129  32.809  1.00  0.00     0.074 A 
ATOM     61  C   UNL A   1      41.779  32.224  31.863  1.00  0.00     0.031 C 
ATOM     62  C   UNL A   1      43.026  30.301  33.054  1.00  0.00     0.037 A 
BRANCH  49  63
ATOM     63  C   UNL A   1      44.882  32.059  28.206  1.00  0.00     0.058 A 
ATOM     64  C   UNL A   1      46.124  32.316  27.593  1.00  0.00     0.135 A 
ATOM     65  C   UNL A   1      44.031  33.176  28.355  1.00  0.00     0.135 A 
ATOM     66  F   UNL A   1      47.025  31.332  27.440  1.00  0.00    -0.206 F 
ATOM     67  C   UNL A   1      46.498  33.594  27.167  1.00  0.00     0.059 A 
ATOM     68  C   UNL A   1      44.361  34.447  27.894  1.00  0.00     0.059 A 
ATOM     69  F   UNL A   1      42.879  33.091  29.035  1.00  0.00    -0.206 F 
ATOM     70  C   UNL A   1      45.611  34.655  27.329  1.00  0.00     0.060 A 
BRANCH  70  71
ATOM     71  S   UNL A   1      46.111  36.320  26.845  1.00  0.00     0.124 S 
ATOM     72  O   UNL A   1      46.874  36.053  25.630  1.00  0.00    -0.237 OA
ATOM     73  O   UNL A   1      44.826  36.987  26.658  1.00  0.00    -0.237 OA
ATOM     74  O   UNL A   1      46.887  36.782  27.991  1.00  0.00    -0.744 OA
ENDBRANCH  70  71
ENDBRANCH  49  63
BRANCH  50  75
ATOM     75  C   UNL A   1      37.315  31.551  31.925  1.00  0.00     0.058 A 
ATOM     76  C   UNL A   1      36.702  31.942  33.123  1.00  0.00     0.135 A 
ATOM     77  C   UNL A   1      36.820  32.138  30.741  1.00  0.00     0.135 A 
ATOM     78  F   UNL A   1      37.124  31.438  34.292  1.00  0.00    -0.206 F 
ATOM     79  C   UNL A   1      35.698  32.912  33.157  1.00  0.00     0.059 A 
ATOM     80  C   UNL A   1      35.810  33.096  30.748  1.00  0.00     0.059 A 
ATOM     81  F   UNL A   1      37.370  31.864  29.547  1.00  0.00    -0.206 F 
ATOM     82  C   UNL A   1      35.279  33.504  31.965  1.00  0.00     0.060 A 
BRANCH  82  83
ATOM     83  S   UNL A   1      34.141  34.905  32.036  1.00  0.00     0.124 S 
ATOM     84  O   UNL A   1      33.924  35.188  30.621  1.00  0.00    -0.237 OA
ATOM     85  O   UNL A   1      33.006  34.338  32.756  1.00  0.00    -0.237 OA
ATOM     86  O   UNL A   1      34.896  35.919  32.767  1.00  0.00    -0.744 OA
ENDBRANCH  82  83
ENDBRANCH  50  75
BRANCH  62  87
ATOM     87  C   UNL A   1      42.846  29.201  34.076  1.00  0.00     0.058 A 
ATOM     88  C   UNL A   1      42.931  29.395  35.465  1.00  0.00     0.135 A 
ATOM     89  C   UNL A   1      42.420  27.938  33.640  1.00  0.00     0.135 A 
ATOM     90  F   UNL A   1      43.226  30.595  35.976  1.00  0.00    -0.206 F 
ATOM     91  C   UNL A   1      42.646  28.377  36.378  1.00  0.00     0.059 A 
ATOM     92  C   UNL A   1      42.100  26.914  34.531  1.00  0.00     0.059 A 
ATOM     93  F   UNL A   1      42.255  27.703  32.327  1.00  0.00    -0.206 F 
ATOM     94  C   UNL A   1      42.226  27.138  35.901  1.00  0.00     0.060 A 
BRANCH  94  95
ATOM     95  S   UNL A   1      41.768  25.855  37.087  1.00  0.00     0.124 S 
ATOM     96  O   UNL A   1      41.466  24.724  36.215  1.00  0.00    -0.237 OA
ATOM     97  O   UNL A   1      42.974  25.724  37.899  1.00  0.00    -0.237 OA
ATOM     98  O   UNL A   1      40.618  26.429  37.783  1.00  0.00    -0.744 OA
ENDBRANCH  94  95
ENDBRANCH  62  87
ENDBRANCH  36  37
ENDBRANCH  28  31
ENDBRANCH  26  27
ENDBRANCH   1  26
TORSDOF 17
ENDMDL
MODEL 2
REMARK VINA RESULT:     -12.6      1.788      2.590
REMARK SMILES CC(C)[C@H](NC(=O)Cn1ccc2c(Br)cccc21)C(=O)NCCCNC(=O)c1ccc(-c2c3nc(c(-c4c(F)cc(S(=O)(=O)[O-])cc4F)c4ccc([nH]4)c(-c4c(F)cc(S(=O)(=O)[O-])cc4F)c4nc(c(-c5c(F)cc(S(=O)(=O)[O-])cc5F)c5ccc2[nH]5)C=C4)C=C3)cc1
REMARK SMILES IDX 23 1 22 2 21 3 19 4 20 5 4 7 2 8 1 9 3 10 5 11 6 12 7 14
REMARK SMILES IDX 8 15 9 16 10 17 18 18 11 19 12 20 17 21 13 22 16 23 14 24
REMARK SMILES IDX 15 25 24 26 25 27 26 28 27 30 28 31 29 32 93 33 30 34 92 35
REMARK SMILES IDX 31 36 32 37 33 38 86 39 34 40 91 41 85 42 87 43 35 44 90 45
REMARK SMILES IDX 84 46 83 47 36 49 70 50 49 51 69 52 50 53 53 54 68 55 88 56
REMARK SMILES IDX 51 57 52 58 67 60 89 61 54 62 37 63 38 64 47 65 39 66 40 67
REMARK SMILES IDX 46 68 48 69 41 70 42 71 43 72 44 73 45 74 71 75 72 76 81 77
REMARK SMILES IDX 73 78 74 79 80 80 82 81 75 82 76 83 77 84 78 85 79 86 55 87
REMARK SMILES IDX 56 88 65 89 57 90 58 91 64 92 66 93 59 94 60 95 61 96 62 97
REMARK SMILES IDX 63 98
REMARK H PARENT 21 6 5 13 25 29 87 48 53 59
REMARK Flexibility Score: inf
ROOT
ATOM      1  C   UNL A   1      38.541  23.418  26.173  1.00  0.00     0.042 C 
ENDROOT
BRANCH   1   2
ATOM      2  C   UNL A   1      37.961  22.138  25.559  1.00  0.00     0.117 C 
BRANCH   2   3
ATOM      3  N   UNL A   1      37.510  22.331  24.196  1.00  0.00    -0.354 N 
ATOM      4  C   UNL A   1      36.277  22.653  23.718  1.00  0.00     0.242 C 
ATOM      5  O   UNL A   1      36.201  23.026  22.543  1.00  0.00    -0.273 OA
ATOM      6  H   UNL A   1      38.204  22.211  23.508  1.00  0.00     0.163 HD
BRANCH   4   7
ATOM      7  C   UNL A   1      35.018  22.684  24.625  1.00  0.00     0.173 C 
BRANCH   7   8
ATOM      8  C   UNL A   1      35.115  23.659  25.809  1.00  0.00     0.015 C 
ATOM      9  C   UNL A   1      34.752  25.118  25.521  1.00  0.00     0.010 C 
ATOM     10  C   UNL A   1      34.255  23.155  26.977  1.00  0.00     0.010 C 
ENDBRANCH   7   8
BRANCH   7  11
ATOM     11  N   UNL A   1      34.535  21.307  24.908  1.00  0.00    -0.343 N 
ATOM     12  C   UNL A   1      33.382  20.589  24.860  1.00  0.00     0.240 C 
ATOM     13  H   UNL A   1      35.276  20.744  25.228  1.00  0.00     0.164 HD
ATOM     14  O   UNL A   1      33.448  19.457  25.361  1.00  0.00    -0.273 OA
BRANCH  12  15
ATOM     15  C   UNL A   1      32.079  21.033  24.213  1.00  0.00     0.222 C 
BRANCH  15  16
ATOM     16  N   UNL A   1      31.493  22.247  24.774  1.00  0.00    -0.338 N 
ATOM     17  C   UNL A   1      30.840  22.323  25.976  1.00  0.00     0.087 A 
ATOM     18  C   UNL A   1      31.511  23.503  24.187  1.00  0.00     0.050 A 
ATOM     19  C   UNL A   1      30.676  23.658  26.274  1.00  0.00     0.029 A 
ATOM     20  C   UNL A   1      31.190  24.419  25.194  1.00  0.00     0.014 A 
ATOM     21  C   UNL A   1      31.846  23.927  22.892  1.00  0.00     0.027 A 
ATOM     22  C   UNL A   1      31.380  25.794  24.950  1.00  0.00     0.027 A 
ATOM     23  C   UNL A   1      31.962  25.301  22.656  1.00  0.00     0.003 A 
ATOM     24  Br  UNL A   1      31.158  27.068  26.334  1.00  0.00    -0.050 Br
ATOM     25  C   UNL A   1      31.772  26.224  23.681  1.00  0.00     0.016 A 
ENDBRANCH  15  16
ENDBRANCH  12  15
ENDBRANCH   7  11
ENDBRANCH   4   7
ENDBRANCH   2   3
ENDBRANCH   1   2
BRANCH   1  26
ATOM     26  C   UNL A   1      39.723  23.118  27.088  1.00  0.00     0.118 C 
BRANCH  26  27
ATOM     27  N   UNL A   1      40.872  22.586  26.353  1.00  0.00    -0.352 N 
ATOM     28  C   UNL A   1      41.965  23.239  25.815  1.00  0.00     0.251 C 
ATOM     29  H   UNL A   1      40.864  21.610  26.221  1.00  0.00     0.163 HD
ATOM     30  O   UNL A   1      42.711  22.696  25.023  1.00  0.00    -0.269 OA
BRANCH  28  31
ATOM     31  C   UNL A   1      42.174  24.637  26.205  1.00  0.00     0.039 A 
ATOM     32  C   UNL A   1      41.399  25.650  25.635  1.00  0.00     0.014 A 
ATOM     33  C   UNL A   1      43.011  24.874  27.285  1.00  0.00     0.014 A 
ATOM     34  C   UNL A   1      41.361  26.891  26.262  1.00  0.00     0.010 A 
ATOM     35  C   UNL A   1      42.841  26.037  27.988  1.00  0.00     0.010 A 
ATOM     36  C   UNL A   1      42.045  27.065  27.472  1.00  0.00    -0.014 A 
BRANCH  36  37
ATOM     37  C   UNL A   1      41.854  28.270  28.276  1.00  0.00     0.031 A 
ATOM     38  C   UNL A   1      42.879  29.354  28.149  1.00  0.00     0.074 A 
ATOM     39  C   UNL A   1      40.673  28.553  28.863  1.00  0.00     0.049 A 
ATOM     40  N   UNL A   1      43.619  29.879  29.072  1.00  0.00    -0.248 NA
ATOM     41  C   UNL A   1      43.137  29.898  26.805  1.00  0.00     0.031 C 
ATOM     42  C   UNL A   1      39.417  27.790  28.810  1.00  0.00     0.029 A 
ATOM     43  N   UNL A   1      40.314  29.681  29.528  1.00  0.00    -0.354 N 
ATOM     44  C   UNL A   1      44.309  30.935  28.473  1.00  0.00     0.074 A 
ATOM     45  C   UNL A   1      44.067  30.822  27.055  1.00  0.00     0.031 C 
ATOM     46  C   UNL A   1      38.395  28.583  29.192  1.00  0.00     0.029 A 
ATOM     47  C   UNL A   1      38.949  29.817  29.713  1.00  0.00     0.049 A 
ATOM     48  H   UNL A   1      40.966  30.344  29.850  1.00  0.00     0.167 HD
ATOM     49  C   UNL A   1      44.894  31.939  29.186  1.00  0.00     0.037 A 
ATOM     50  C   UNL A   1      38.308  30.877  30.248  1.00  0.00     0.037 A 
ATOM     51  C   UNL A   1      44.984  31.625  30.586  1.00  0.00     0.049 A 
ATOM     52  C   UNL A   1      39.302  31.612  31.069  1.00  0.00     0.074 A 
ATOM     53  C   UNL A   1      45.626  30.656  31.331  1.00  0.00     0.029 A 
ATOM     54  N   UNL A   1      44.035  32.164  31.419  1.00  0.00    -0.354 N 
ATOM     55  N   UNL A   1      39.885  31.119  32.129  1.00  0.00    -0.248 NA
ATOM     56  C   UNL A   1      39.945  32.785  30.499  1.00  0.00     0.031 C 
ATOM     57  C   UNL A   1      44.722  30.340  32.389  1.00  0.00     0.029 A 
ATOM     58  C   UNL A   1      43.600  31.160  32.249  1.00  0.00     0.049 A 
ATOM     59  H   UNL A   1      43.722  33.098  31.420  1.00  0.00     0.167 HD
ATOM     60  C   UNL A   1      41.163  31.657  32.122  1.00  0.00     0.074 A 
ATOM     61  C   UNL A   1      41.091  32.773  31.185  1.00  0.00     0.031 C 
ATOM     62  C   UNL A   1      42.222  30.986  32.666  1.00  0.00     0.037 A 
BRANCH  49  63
ATOM     63  C   UNL A   1      45.132  33.333  28.659  1.00  0.00     0.058 A 
ATOM     64  C   UNL A   1      46.434  33.867  28.592  1.00  0.00     0.135 A 
ATOM     65  C   UNL A   1      44.083  34.249  28.432  1.00  0.00     0.135 A 
ATOM     66  F   UNL A   1      47.503  33.090  28.833  1.00  0.00    -0.206 F 
ATOM     67  C   UNL A   1      46.676  35.219  28.328  1.00  0.00     0.059 A 
ATOM     68  C   UNL A   1      44.300  35.588  28.118  1.00  0.00     0.059 A 
ATOM     69  F   UNL A   1      42.800  33.897  28.593  1.00  0.00    -0.206 F 
ATOM     70  C   UNL A   1      45.600  36.073  28.099  1.00  0.00     0.060 A 
BRANCH  70  71
ATOM     71  S   UNL A   1      45.898  37.831  27.826  1.00  0.00     0.124 S 
ATOM     72  O   UNL A   1      46.606  38.199  29.047  1.00  0.00    -0.237 OA
ATOM     73  O   UNL A   1      46.696  37.823  26.604  1.00  0.00    -0.237 OA
ATOM     74  O   UNL A   1      44.554  38.380  27.684  1.00  0.00    -0.744 OA
ENDBRANCH  70  71
ENDBRANCH  49  63
BRANCH  50  75
ATOM     75  C   UNL A   1      36.991  31.426  29.856  1.00  0.00     0.058 A 
ATOM     76  C   UNL A   1      36.119  31.951  30.819  1.00  0.00     0.135 A 
ATOM     77  C   UNL A   1      36.679  31.698  28.507  1.00  0.00     0.135 A 
ATOM     78  F   UNL A   1      36.354  31.745  32.124  1.00  0.00    -0.206 F 
ATOM     79  C   UNL A   1      35.034  32.757  30.473  1.00  0.00     0.059 A 
ATOM     80  C   UNL A   1      35.595  32.489  28.136  1.00  0.00     0.059 A 
ATOM     81  F   UNL A   1      37.477  31.280  27.512  1.00  0.00    -0.206 F 
ATOM     82  C   UNL A   1      34.797  33.044  29.128  1.00  0.00     0.060 A 
BRANCH  82  83
ATOM     83  S   UNL A   1      33.530  34.259  28.701  1.00  0.00     0.124 S 
ATOM     84  O   UNL A   1      32.651  33.484  27.833  1.00  0.00    -0.237 OA
ATOM     85  O   UNL A   1      32.990  34.607  30.012  1.00  0.00    -0.237 OA
ATOM     86  O   UNL A   1      34.286  35.319  28.039  1.00  0.00    -0.744 OA
ENDBRANCH  82  83
ENDBRANCH  50  75
BRANCH  62  87
ATOM     87  C   UNL A   1      41.928  29.804  33.563  1.00  0.00     0.058 A 
ATOM     88  C   UNL A   1      41.878  28.471  33.120  1.00  0.00     0.135 A 
ATOM     89  C   UNL A   1      41.848  30.012  34.948  1.00  0.00     0.135 A 
ATOM     90  F   UNL A   1      42.053  28.168  31.830  1.00  0.00    -0.206 F 
ATOM     91  C   UNL A   1      41.718  27.400  34.001  1.00  0.00     0.059 A 
ATOM     92  C   UNL A   1      41.718  28.957  35.851  1.00  0.00     0.059 A 
ATOM     93  F   UNL A   1      41.953  31.256  35.446  1.00  0.00    -0.206 F 
ATOM     94  C   UNL A   1      41.642  27.652  35.368  1.00  0.00     0.060 A 
BRANCH  94  95
ATOM     95  S   UNL A   1      41.530  26.256  36.509  1.00  0.00     0.124 S 
ATOM     96  O   UNL A   1      40.795  25.272  35.720  1.00  0.00    -0.237 OA
ATOM     97  O   UNL A   1      42.931  25.940  36.767  1.00  0.00    -0.237 OA
ATOM     98  O   UNL A   1      40.804  26.807  37.652  1.00  0.00    -0.744 OA
ENDBRANCH  94  95
ENDBRANCH  62  87
ENDBRANCH  36  37
ENDBRANCH  28  31
ENDBRANCH  26  27
ENDBRANCH   1  26
TORSDOF 17
ENDMDL
MODEL 3
REMARK VINA RESULT:     -12.6      1.223      1.852
REMARK SMILES CC(C)[C@H](NC(=O)Cn1ccc2c(Br)cccc21)C(=O)NCCCNC(=O)c1ccc(-c2c3nc(c(-c4c(F)cc(S(=O)(=O)[O-])cc4F)c4ccc([nH]4)c(-c4c(F)cc(S(=O)(=O)[O-])cc4F)c4nc(c(-c5c(F)cc(S(=O)(=O)[O-])cc5F)c5ccc2[nH]5)C=C4)C=C3)cc1
REMARK SMILES IDX 23 1 22 2 21 3 19 4 20 5 4 7 2 8 1 9 3 10 5 11 6 12 7 14
REMARK SMILES IDX 8 15 9 16 10 17 18 18 11 19 12 20 17 21 13 22 16 23 14 24
REMARK SMILES IDX 15 25 24 26 25 27 26 28 27 30 28 31 29 32 93 33 30 34 92 35
REMARK SMILES IDX 31 36 32 37 33 38 86 39 34 40 91 41 85 42 87 43 35 44 90 45
REMARK SMILES IDX 84 46 83 47 36 49 70 50 49 51 69 52 50 53 53 54 68 55 88 56
REMARK SMILES IDX 51 57 52 58 67 60 89 61 54 62 37 63 38 64 47 65 39 66 40 67
REMARK SMILES IDX 46 68 48 69 41 70 42 71 43 72 44 73 45 74 71 75 72 76 81 77
REMARK SMILES IDX 73 78 74 79 80 80 82 81 75 82 76 83 77 84 78 85 79 86 55 87
REMARK SMILES IDX 56 88 65 89 57 90 58 91 64 92 66 93 59 94 60 95 61 96 62 97
REMARK SMILES IDX 63 98
REMARK H PARENT 21 6 5 13 25 29 87 48 53 59
REMARK Flexibility Score: inf
ROOT
ATOM      1  C   UNL A   1      37.033  23.434  25.107  1.00  0.00     0.042 C 
ENDROOT
BRANCH   1   2
ATOM      2  C   UNL A   1      35.679  24.056  25.467  1.00  0.00     0.117 C 
BRANCH   2   3
ATOM      3  N   UNL A   1      34.744  24.032  24.360  1.00  0.00    -0.354 N 
ATOM      4  C   UNL A   1      33.644  23.256  24.159  1.00  0.00     0.242 C 
ATOM      5  O   UNL A   1      32.857  23.604  23.272  1.00  0.00    -0.273 OA
ATOM      6  H   UNL A   1      34.935  24.678  23.641  1.00  0.00     0.163 HD
BRANCH   4   7
ATOM      7  C   UNL A   1      33.299  22.051  25.074  1.00  0.00     0.173 C 
BRANCH   7   8
ATOM      8  C   UNL A   1      33.717  20.685  24.506  1.00  0.00     0.015 C 
ATOM      9  C   UNL A   1      35.093  20.165  24.928  1.00  0.00     0.010 C 
ATOM     10  C   UNL A   1      32.659  19.626  24.848  1.00  0.00     0.010 C 
ENDBRANCH   7   8
BRANCH   7  11
ATOM     11  N   UNL A   1      31.920  22.175  25.614  1.00  0.00    -0.343 N 
ATOM     12  C   UNL A   1      31.169  23.053  26.330  1.00  0.00     0.240 C 
ATOM     13  H   UNL A   1      31.389  21.379  25.384  1.00  0.00     0.164 HD
ATOM     14  O   UNL A   1      30.058  22.630  26.680  1.00  0.00    -0.273 OA
BRANCH  12  15
ATOM     15  C   UNL A   1      31.553  24.484  26.674  1.00  0.00     0.222 C 
BRANCH  15  16
ATOM     16  N   UNL A   1      31.187  25.481  25.672  1.00  0.00    -0.338 N 
ATOM     17  C   UNL A   1      30.130  25.376  24.807  1.00  0.00     0.087 A 
ATOM     18  C   UNL A   1      31.841  26.684  25.447  1.00  0.00     0.050 A 
ATOM     19  C   UNL A   1      29.953  26.609  24.219  1.00  0.00     0.029 A 
ATOM     20  C   UNL A   1      30.969  27.477  24.694  1.00  0.00     0.014 A 
ATOM     21  C   UNL A   1      33.078  27.174  25.890  1.00  0.00     0.027 A 
ATOM     22  C   UNL A   1      31.263  28.845  24.530  1.00  0.00     0.027 A 
ATOM     23  C   UNL A   1      33.378  28.520  25.655  1.00  0.00     0.003 A 
ATOM     24  Br  UNL A   1      30.027  30.013  23.697  1.00  0.00    -0.050 Br
ATOM     25  C   UNL A   1      32.466  29.358  25.020  1.00  0.00     0.016 A 
ENDBRANCH  15  16
ENDBRANCH  12  15
ENDBRANCH   7  11
ENDBRANCH   4   7
ENDBRANCH   2   3
ENDBRANCH   1   2
BRANCH   1  26
ATOM     26  C   UNL A   1      38.096  23.758  26.151  1.00  0.00     0.118 C 
BRANCH  26  27
ATOM     27  N   UNL A   1      39.169  22.763  26.176  1.00  0.00    -0.352 N 
ATOM     28  C   UNL A   1      40.537  22.931  26.295  1.00  0.00     0.251 C 
ATOM     29  H   UNL A   1      38.870  21.828  26.095  1.00  0.00     0.163 HD
ATOM     30  O   UNL A   1      41.316  22.029  26.054  1.00  0.00    -0.269 OA
BRANCH  28  31
ATOM     31  C   UNL A   1      41.022  24.258  26.686  1.00  0.00     0.039 A 
ATOM     32  C   UNL A   1      40.601  25.394  25.990  1.00  0.00     0.014 A 
ATOM     33  C   UNL A   1      41.732  24.346  27.873  1.00  0.00     0.014 A 
ATOM     34  C   UNL A   1      40.779  26.640  26.582  1.00  0.00     0.010 A 
ATOM     35  C   UNL A   1      41.753  25.552  28.522  1.00  0.00     0.010 A 
ATOM     36  C   UNL A   1      41.309  26.711  27.877  1.00  0.00    -0.014 A 
BRANCH  36  37
ATOM     37  C   UNL A   1      41.306  27.968  28.622  1.00  0.00     0.031 A 
ATOM     38  C   UNL A   1      42.404  28.944  28.333  1.00  0.00     0.074 A 
ATOM     39  C   UNL A   1      40.220  28.388  29.302  1.00  0.00     0.049 A 
ATOM     40  N   UNL A   1      43.276  29.445  29.148  1.00  0.00    -0.248 NA
ATOM     41  C   UNL A   1      42.572  29.393  26.940  1.00  0.00     0.031 C 
ATOM     42  C   UNL A   1      38.903  27.744  29.415  1.00  0.00     0.029 A 
ATOM     43  N   UNL A   1      40.029  29.577  29.929  1.00  0.00    -0.354 N 
ATOM     44  C   UNL A   1      43.992  30.400  28.423  1.00  0.00     0.074 A 
ATOM     45  C   UNL A   1      43.599  30.238  27.044  1.00  0.00     0.031 C 
ATOM     46  C   UNL A   1      37.998  28.646  29.845  1.00  0.00     0.029 A 
ATOM     47  C   UNL A   1      38.707  29.848  30.235  1.00  0.00     0.049 A 
ATOM     48  H   UNL A   1      40.766  30.192  30.147  1.00  0.00     0.167 HD
ATOM     49  C   UNL A   1      44.731  31.381  29.016  1.00  0.00     0.037 A 
ATOM     50  C   UNL A   1      38.218  30.989  30.765  1.00  0.00     0.037 A 
ATOM     51  C   UNL A   1      44.934  31.132  30.417  1.00  0.00     0.049 A 
ATOM     52  C   UNL A   1      39.350  31.669  31.442  1.00  0.00     0.074 A 
ATOM     53  C   UNL A   1      45.561  30.146  31.153  1.00  0.00     0.029 A 
ATOM     54  N   UNL A   1      44.124  31.798  31.303  1.00  0.00    -0.354 N 
ATOM     55  N   UNL A   1      39.992  31.179  32.468  1.00  0.00    -0.248 NA
ATOM     56  C   UNL A   1      40.032  32.748  30.744  1.00  0.00     0.031 C 
ATOM     57  C   UNL A   1      44.744  29.969  32.310  1.00  0.00     0.029 A 
ATOM     58  C   UNL A   1      43.690  30.882  32.230  1.00  0.00     0.049 A 
ATOM     59  H   UNL A   1      43.896  32.755  31.279  1.00  0.00     0.167 HD
ATOM     60  C   UNL A   1      41.305  31.595  32.307  1.00  0.00     0.074 A 
ATOM     61  C   UNL A   1      41.236  32.664  31.316  1.00  0.00     0.031 C 
ATOM     62  C   UNL A   1      42.350  30.857  32.786  1.00  0.00     0.037 A 
BRANCH  49  63
ATOM     63  C   UNL A   1      45.035  32.718  28.386  1.00  0.00     0.058 A 
ATOM     64  C   UNL A   1      46.361  33.089  28.085  1.00  0.00     0.135 A 
ATOM     65  C   UNL A   1      44.074  33.746  28.282  1.00  0.00     0.135 A 
ATOM     66  F   UNL A   1      47.360  32.198  28.192  1.00  0.00    -0.206 F 
ATOM     67  C   UNL A   1      46.707  34.393  27.717  1.00  0.00     0.059 A 
ATOM     68  C   UNL A   1      44.387  35.037  27.869  1.00  0.00     0.059 A 
ATOM     69  F   UNL A   1      42.803  33.555  28.663  1.00  0.00    -0.206 F 
ATOM     70  C   UNL A   1      45.712  35.362  27.618  1.00  0.00     0.060 A 
BRANCH  70  71
ATOM     71  S   UNL A   1      46.158  37.062  27.210  1.00  0.00     0.124 S 
ATOM     72  O   UNL A   1      47.178  37.344  28.215  1.00  0.00    -0.237 OA
ATOM     73  O   UNL A   1      46.634  36.935  25.836  1.00  0.00    -0.237 OA
ATOM     74  O   UNL A   1      44.900  37.784  27.365  1.00  0.00    -0.744 OA
ENDBRANCH  70  71
ENDBRANCH  49  63
BRANCH  50  75
ATOM     75  C   UNL A   1      36.921  31.637  30.469  1.00  0.00     0.058 A 
ATOM     76  C   UNL A   1      36.045  31.989  31.504  1.00  0.00     0.135 A 
ATOM     77  C   UNL A   1      36.640  32.171  29.194  1.00  0.00     0.135 A 
ATOM     78  F   UNL A   1      36.252  31.531  32.748  1.00  0.00    -0.206 F 
ATOM     79  C   UNL A   1      34.985  32.875  31.306  1.00  0.00     0.059 A 
ATOM     80  C   UNL A   1      35.580  33.046  28.968  1.00  0.00     0.059 A 
ATOM     81  F   UNL A   1      37.445  31.931  28.147  1.00  0.00    -0.206 F 
ATOM     82  C   UNL A   1      34.778  33.421  30.038  1.00  0.00     0.060 A 
BRANCH  82  83
ATOM     83  S   UNL A   1      33.548  34.728  29.837  1.00  0.00     0.124 S 
ATOM     84  O   UNL A   1      34.338  35.794  29.231  1.00  0.00    -0.237 OA
ATOM     85  O   UNL A   1      32.565  34.087  28.968  1.00  0.00    -0.237 OA
ATOM     86  O   UNL A   1      33.096  34.983  31.202  1.00  0.00    -0.744 OA
ENDBRANCH  82  83
ENDBRANCH  50  75
BRANCH  62  87
ATOM     87  C   UNL A   1      42.047  29.755  33.776  1.00  0.00     0.058 A 
ATOM     88  C   UNL A   1      41.817  28.415  33.418  1.00  0.00     0.135 A 
ATOM     89  C   UNL A   1      42.145  30.034  35.147  1.00  0.00     0.135 A 
ATOM     90  F   UNL A   1      41.814  28.036  32.136  1.00  0.00    -0.206 F 
ATOM     91  C   UNL A   1      41.654  27.408  34.372  1.00  0.00     0.059 A 
ATOM     92  C   UNL A   1      42.016  29.041  36.118  1.00  0.00     0.059 A 
ATOM     93  F   UNL A   1      42.427  31.282  35.559  1.00  0.00    -0.206 F 
ATOM     94  C   UNL A   1      41.759  27.729  35.722  1.00  0.00     0.060 A 
BRANCH  94  95
ATOM     95  S   UNL A   1      41.642  26.407  36.947  1.00  0.00     0.124 S 
ATOM     96  O   UNL A   1      40.385  26.721  37.620  1.00  0.00    -0.237 OA
ATOM     97  O   UNL A   1      41.632  25.205  36.119  1.00  0.00    -0.237 OA
ATOM     98  O   UNL A   1      42.844  26.585  37.758  1.00  0.00    -0.744 OA
ENDBRANCH  94  95
ENDBRANCH  62  87
ENDBRANCH  36  37
ENDBRANCH  28  31
ENDBRANCH  26  27
ENDBRANCH   1  26
TORSDOF 17
ENDMDL
