MODEL 1
REMARK VINA RESULT:     -10.6      0.000      0.000
REMARK SMILES [NH3+][C@H](CCC(=O)NCCCNC(=O)c1ccc(-c2c3nc(c(-c4c(F)cc(S(=O)(=O)[O-])cc4F)c4ccc([nH]4)c(-c4c(F)cc(S(=O)(=O)[O-])cc4F)c4nc(c(-c5c(F)cc(S(=O)(=O)[O-])cc5F)c5ccc2[nH]5)C=C4)C=C3)cc1)c1nccc2[nH]ccc12
REMARK SMILES IDX 9 1 8 2 7 3 5 4 6 5 4 7 3 8 2 9 1 10 80 14 81 15 88 16 82 17
REMARK SMILES IDX 84 18 87 19 83 20 85 21 86 22 10 24 11 25 12 26 13 28 14 29
REMARK SMILES IDX 15 30 79 31 16 32 78 33 17 34 18 35 19 36 72 37 20 38 77 39
REMARK SMILES IDX 71 40 73 41 21 42 76 43 70 44 69 45 22 47 56 48 35 49 55 50
REMARK SMILES IDX 36 51 39 52 54 53 74 54 37 55 38 56 53 58 75 59 40 60 23 61
REMARK SMILES IDX 24 62 33 63 25 64 26 65 32 66 34 67 27 68 28 69 29 70 30 71
REMARK SMILES IDX 31 72 57 73 58 74 67 75 59 76 60 77 66 78 68 79 61 80 62 81
REMARK SMILES IDX 63 82 64 83 65 84 41 85 42 86 51 87 43 88 44 89 50 90 52 91
REMARK SMILES IDX 45 92 46 93 47 94 48 95 49 96
REMARK H PARENT 7 6 1 11 1 12 1 13 85 23 11 27 73 46 39 57
REMARK Flexibility Score: inf
ROOT
ATOM      1  C   UNL A   1      33.835  33.875  28.642  1.00  0.00     0.042 C 
ENDROOT
BRANCH   1   2
ATOM      2  C   UNL A   1      34.577  35.142  29.064  1.00  0.00     0.117 C 
BRANCH   2   3
ATOM      3  N   UNL A   1      33.661  36.097  29.663  1.00  0.00    -0.356 N 
ATOM      4  C   UNL A   1      33.054  36.082  30.883  1.00  0.00     0.220 C 
ATOM      5  O   UNL A   1      32.149  36.896  31.080  1.00  0.00    -0.275 OA
ATOM      6  H   UNL A   1      33.445  36.875  29.100  1.00  0.00     0.163 HD
BRANCH   4   7
ATOM      7  C   UNL A   1      33.528  35.164  31.998  1.00  0.00     0.106 C 
BRANCH   7   8
ATOM      8  C   UNL A   1      34.726  35.678  32.811  1.00  0.00     0.082 C 
BRANCH   8   9
ATOM      9  C   UNL A   1      35.359  34.762  33.883  1.00  0.00     0.232 C 
BRANCH   9  10
ATOM     10  N   UNL A   1      34.432  33.659  34.213  1.00  0.00    -0.350 N 
ATOM     11  H   UNL A   1      34.953  32.894  34.642  1.00  0.00     0.345 HD
ATOM     12  H   UNL A   1      33.980  33.328  33.361  1.00  0.00     0.345 HD
ATOM     13  H   UNL A   1      33.723  33.995  34.865  1.00  0.00     0.345 HD
ENDBRANCH   9  10
BRANCH   9  14
ATOM     14  C   UNL A   1      36.740  34.146  33.573  1.00  0.00     0.107 A 
ATOM     15  N   UNL A   1      36.985  33.985  32.228  1.00  0.00    -0.254 NA
ATOM     16  C   UNL A   1      37.319  33.169  34.429  1.00  0.00     0.027 A 
ATOM     17  C   UNL A   1      37.362  32.780  31.756  1.00  0.00     0.114 A 
ATOM     18  C   UNL A   1      37.537  31.898  33.892  1.00  0.00     0.049 A 
ATOM     19  C   UNL A   1      37.760  33.102  35.784  1.00  0.00     0.030 A 
ATOM     20  C   UNL A   1      37.479  31.643  32.529  1.00  0.00     0.047 A 
ATOM     21  N   UNL A   1      37.763  31.050  34.949  1.00  0.00    -0.361 N 
ATOM     22  C   UNL A   1      38.097  31.792  36.051  1.00  0.00     0.083 A 
ATOM     23  H   UNL A   1      37.695  30.068  34.920  1.00  0.00     0.166 HD
ENDBRANCH   9  14
ENDBRANCH   8   9
ENDBRANCH   7   8
ENDBRANCH   4   7
ENDBRANCH   2   3
ENDBRANCH   1   2
BRANCH   1  24
ATOM     24  C   UNL A   1      34.759  32.681  28.436  1.00  0.00     0.118 C 
BRANCH  24  25
ATOM     25  N   UNL A   1      34.010  31.450  28.227  1.00  0.00    -0.352 N 
ATOM     26  C   UNL A   1      34.457  30.166  28.021  1.00  0.00     0.251 C 
ATOM     27  H   UNL A   1      33.031  31.553  28.235  1.00  0.00     0.163 HD
ATOM     28  O   UNL A   1      33.671  29.324  27.592  1.00  0.00    -0.269 OA
BRANCH  26  29
ATOM     29  C   UNL A   1      35.867  29.787  28.289  1.00  0.00     0.039 A 
ATOM     30  C   UNL A   1      36.798  29.844  27.246  1.00  0.00     0.014 A 
ATOM     31  C   UNL A   1      36.270  29.319  29.542  1.00  0.00     0.014 A 
ATOM     32  C   UNL A   1      38.134  29.495  27.475  1.00  0.00     0.010 A 
ATOM     33  C   UNL A   1      37.615  29.056  29.793  1.00  0.00     0.010 A 
ATOM     34  C   UNL A   1      38.563  29.129  28.761  1.00  0.00    -0.014 A 
BRANCH  34  35
ATOM     35  C   UNL A   1      39.983  28.792  29.054  1.00  0.00     0.031 A 
ATOM     36  C   UNL A   1      40.904  29.844  29.618  1.00  0.00     0.074 A 
ATOM     37  C   UNL A   1      40.469  27.575  28.735  1.00  0.00     0.049 A 
ATOM     38  N   UNL A   1      42.198  29.800  29.805  1.00  0.00    -0.248 NA
ATOM     39  C   UNL A   1      40.290  31.129  29.993  1.00  0.00     0.031 C 
ATOM     40  C   UNL A   1      39.691  26.480  28.153  1.00  0.00     0.029 A 
ATOM     41  N   UNL A   1      41.740  27.062  28.834  1.00  0.00    -0.354 N 
ATOM     42  C   UNL A   1      42.556  31.053  30.291  1.00  0.00     0.074 A 
ATOM     43  C   UNL A   1      41.349  31.851  30.327  1.00  0.00     0.031 C 
ATOM     44  C   UNL A   1      40.497  25.423  27.956  1.00  0.00     0.029 A 
ATOM     45  C   UNL A   1      41.856  25.778  28.351  1.00  0.00     0.049 A 
ATOM     46  H   UNL A   1      42.495  27.565  29.214  1.00  0.00     0.167 HD
ATOM     47  C   UNL A   1      43.774  31.493  30.687  1.00  0.00     0.037 A 
ATOM     48  C   UNL A   1      42.938  24.984  28.222  1.00  0.00     0.037 A 
ATOM     49  C   UNL A   1      44.964  30.683  30.681  1.00  0.00     0.049 A 
ATOM     50  C   UNL A   1      44.283  25.495  28.664  1.00  0.00     0.074 A 
ATOM     51  C   UNL A   1      46.233  31.017  31.118  1.00  0.00     0.029 A 
ATOM     52  N   UNL A   1      45.030  29.377  30.217  1.00  0.00    -0.354 N 
ATOM     53  N   UNL A   1      44.593  26.667  29.167  1.00  0.00    -0.248 NA
ATOM     54  C   UNL A   1      45.425  24.580  28.526  1.00  0.00     0.031 C 
ATOM     55  C   UNL A   1      47.078  29.928  30.876  1.00  0.00     0.029 A 
ATOM     56  C   UNL A   1      46.323  28.897  30.340  1.00  0.00     0.049 A 
ATOM     57  H   UNL A   1      44.270  28.867  29.853  1.00  0.00     0.167 HD
ATOM     58  C   UNL A   1      45.957  26.616  29.436  1.00  0.00     0.074 A 
ATOM     59  C   UNL A   1      46.412  25.299  29.042  1.00  0.00     0.031 C 
ATOM     60  C   UNL A   1      46.757  27.574  29.964  1.00  0.00     0.037 A 
BRANCH  47  61
ATOM     61  C   UNL A   1      43.884  32.917  31.167  1.00  0.00     0.058 A 
ATOM     62  C   UNL A   1      43.992  33.992  30.269  1.00  0.00     0.135 A 
ATOM     63  C   UNL A   1      43.841  33.213  32.539  1.00  0.00     0.135 A 
ATOM     64  F   UNL A   1      44.051  33.767  28.948  1.00  0.00    -0.206 F 
ATOM     65  C   UNL A   1      44.089  35.305  30.716  1.00  0.00     0.059 A 
ATOM     66  C   UNL A   1      43.906  34.523  33.007  1.00  0.00     0.059 A 
ATOM     67  F   UNL A   1      43.736  32.225  33.441  1.00  0.00    -0.206 F 
ATOM     68  C   UNL A   1      44.045  35.561  32.087  1.00  0.00     0.060 A 
BRANCH  68  69
ATOM     69  S   UNL A   1      44.167  37.271  32.656  1.00  0.00     0.124 S 
ATOM     70  O   UNL A   1      45.460  37.252  33.344  1.00  0.00    -0.237 OA
ATOM     71  O   UNL A   1      44.141  38.018  31.396  1.00  0.00    -0.237 OA
ATOM     72  O   UNL A   1      43.006  37.437  33.505  1.00  0.00    -0.744 OA
ENDBRANCH  68  69
ENDBRANCH  47  61
BRANCH  48  73
ATOM     73  C   UNL A   1      42.789  23.613  27.660  1.00  0.00     0.058 A 
ATOM     74  C   UNL A   1      42.527  22.517  28.496  1.00  0.00     0.135 A 
ATOM     75  C   UNL A   1      42.887  23.373  26.280  1.00  0.00     0.135 A 
ATOM     76  F   UNL A   1      42.433  22.693  29.823  1.00  0.00    -0.206 F 
ATOM     77  C   UNL A   1      42.379  21.231  27.987  1.00  0.00     0.059 A 
ATOM     78  C   UNL A   1      42.716  22.100  25.745  1.00  0.00     0.059 A 
ATOM     79  F   UNL A   1      43.122  24.389  25.437  1.00  0.00    -0.206 F 
ATOM     80  C   UNL A   1      42.469  21.033  26.608  1.00  0.00     0.060 A 
BRANCH  80  81
ATOM     81  S   UNL A   1      42.215  19.368  25.956  1.00  0.00     0.124 S 
ATOM     82  O   UNL A   1      40.774  19.356  25.733  1.00  0.00    -0.237 OA
ATOM     83  O   UNL A   1      43.047  19.381  24.756  1.00  0.00    -0.237 OA
ATOM     84  O   UNL A   1      42.697  18.508  27.032  1.00  0.00    -0.744 OA
ENDBRANCH  80  81
ENDBRANCH  48  73
BRANCH  60  85
ATOM     85  C   UNL A   1      48.201  27.229  30.203  1.00  0.00     0.058 A 
ATOM     86  C   UNL A   1      49.198  27.526  29.264  1.00  0.00     0.135 A 
ATOM     87  C   UNL A   1      48.599  26.679  31.434  1.00  0.00     0.135 A 
ATOM     88  F   UNL A   1      48.869  28.045  28.069  1.00  0.00    -0.206 F 
ATOM     89  C   UNL A   1      50.542  27.284  29.532  1.00  0.00     0.059 A 
ATOM     90  C   UNL A   1      49.938  26.453  31.732  1.00  0.00     0.059 A 
ATOM     91  F   UNL A   1      47.684  26.384  32.370  1.00  0.00    -0.206 F 
ATOM     92  C   UNL A   1      50.903  26.756  30.772  1.00  0.00     0.060 A 
BRANCH  92  93
ATOM     93  S   UNL A   1      52.655  26.513  31.133  1.00  0.00     0.124 S 
ATOM     94  O   UNL A   1      52.641  25.224  31.816  1.00  0.00    -0.237 OA
ATOM     95  O   UNL A   1      53.251  26.518  29.800  1.00  0.00    -0.237 OA
ATOM     96  O   UNL A   1      52.994  27.663  31.967  1.00  0.00    -0.744 OA
ENDBRANCH  92  93
ENDBRANCH  60  85
ENDBRANCH  34  35
ENDBRANCH  26  29
ENDBRANCH  24  25
ENDBRANCH   1  24
TORSDOF 17
ENDMDL
MODEL 2
REMARK VINA RESULT:     -10.4      3.384     11.991
REMARK SMILES [NH3+][C@H](CCC(=O)NCCCNC(=O)c1ccc(-c2c3nc(c(-c4c(F)cc(S(=O)(=O)[O-])cc4F)c4ccc([nH]4)c(-c4c(F)cc(S(=O)(=O)[O-])cc4F)c4nc(c(-c5c(F)cc(S(=O)(=O)[O-])cc5F)c5ccc2[nH]5)C=C4)C=C3)cc1)c1nccc2[nH]ccc12
REMARK SMILES IDX 9 1 8 2 7 3 5 4 6 5 4 7 3 8 2 9 1 10 80 14 81 15 88 16 82 17
REMARK SMILES IDX 84 18 87 19 83 20 85 21 86 22 10 24 11 25 12 26 13 28 14 29
REMARK SMILES IDX 15 30 79 31 16 32 78 33 17 34 18 35 19 36 72 37 20 38 77 39
REMARK SMILES IDX 71 40 73 41 21 42 76 43 70 44 69 45 22 47 56 48 35 49 55 50
REMARK SMILES IDX 36 51 39 52 54 53 74 54 37 55 38 56 53 58 75 59 40 60 23 61
REMARK SMILES IDX 24 62 33 63 25 64 26 65 32 66 34 67 27 68 28 69 29 70 30 71
REMARK SMILES IDX 31 72 57 73 58 74 67 75 59 76 60 77 66 78 68 79 61 80 62 81
REMARK SMILES IDX 63 82 64 83 65 84 41 85 42 86 51 87 43 88 44 89 50 90 52 91
REMARK SMILES IDX 45 92 46 93 47 94 48 95 49 96
REMARK H PARENT 7 6 1 11 1 12 1 13 85 23 11 27 73 46 39 57
REMARK Flexibility Score: inf
ROOT
ATOM      1  C   UNL A   1      41.440  20.702  26.066  1.00  0.00     0.042 C 
ENDROOT
BRANCH   1   2
ATOM      2  C   UNL A   1      42.941  20.928  26.244  1.00  0.00     0.117 C 
BRANCH   2   3
ATOM      3  N   UNL A   1      43.656  19.664  26.209  1.00  0.00    -0.356 N 
ATOM      4  C   UNL A   1      44.524  19.175  25.279  1.00  0.00     0.220 C 
ATOM      5  O   UNL A   1      44.838  17.985  25.362  1.00  0.00    -0.275 OA
ATOM      6  H   UNL A   1      43.489  19.070  26.976  1.00  0.00     0.163 HD
BRANCH   4   7
ATOM      7  C   UNL A   1      45.159  20.073  24.231  1.00  0.00     0.106 C 
BRANCH   7   8
ATOM      8  C   UNL A   1      46.239  21.034  24.751  1.00  0.00     0.082 C 
BRANCH   8   9
ATOM      9  C   UNL A   1      46.140  22.537  24.408  1.00  0.00     0.232 C 
BRANCH   9  10
ATOM     10  N   UNL A   1      44.868  22.811  23.706  1.00  0.00    -0.350 N 
ATOM     11  H   UNL A   1      44.955  23.673  23.168  1.00  0.00     0.345 HD
ATOM     12  H   UNL A   1      44.117  22.909  24.389  1.00  0.00     0.345 HD
ATOM     13  H   UNL A   1      44.655  22.037  23.076  1.00  0.00     0.345 HD
ENDBRANCH   9  10
BRANCH   9  14
ATOM     14  C   UNL A   1      46.269  23.546  25.568  1.00  0.00     0.107 A 
ATOM     15  N   UNL A   1      45.551  23.196  26.690  1.00  0.00    -0.254 NA
ATOM     16  C   UNL A   1      46.388  24.942  25.321  1.00  0.00     0.027 A 
ATOM     17  C   UNL A   1      44.687  24.077  27.233  1.00  0.00     0.114 A 
ATOM     18  C   UNL A   1      45.365  25.764  25.797  1.00  0.00     0.049 A 
ATOM     19  C   UNL A   1      47.313  25.807  24.665  1.00  0.00     0.030 A 
ATOM     20  C   UNL A   1      44.419  25.326  26.714  1.00  0.00     0.047 A 
ATOM     21  N   UNL A   1      45.499  26.977  25.165  1.00  0.00    -0.361 N 
ATOM     22  C   UNL A   1      46.765  27.073  24.651  1.00  0.00     0.083 A 
ATOM     23  H   UNL A   1      44.799  27.665  25.093  1.00  0.00     0.166 HD
ENDBRANCH   9  14
ENDBRANCH   8   9
ENDBRANCH   7   8
ENDBRANCH   4   7
ENDBRANCH   2   3
ENDBRANCH   1   2
BRANCH   1  24
ATOM     24  C   UNL A   1      40.589  21.742  26.783  1.00  0.00     0.118 C 
BRANCH  24  25
ATOM     25  N   UNL A   1      39.487  22.204  25.950  1.00  0.00    -0.352 N 
ATOM     26  C   UNL A   1      38.757  23.368  26.013  1.00  0.00     0.251 C 
ATOM     27  H   UNL A   1      39.224  21.586  25.230  1.00  0.00     0.163 HD
ATOM     28  O   UNL A   1      37.695  23.438  25.396  1.00  0.00    -0.269 OA
BRANCH  26  29
ATOM     29  C   UNL A   1      39.217  24.525  26.819  1.00  0.00     0.039 A 
ATOM     30  C   UNL A   1      40.084  25.458  26.238  1.00  0.00     0.014 A 
ATOM     31  C   UNL A   1      38.852  24.672  28.159  1.00  0.00     0.014 A 
ATOM     32  C   UNL A   1      40.529  26.561  26.977  1.00  0.00     0.010 A 
ATOM     33  C   UNL A   1      39.224  25.813  28.867  1.00  0.00     0.010 A 
ATOM     34  C   UNL A   1      40.076  26.767  28.290  1.00  0.00    -0.014 A 
BRANCH  34  35
ATOM     35  C   UNL A   1      40.494  27.949  29.093  1.00  0.00     0.031 A 
ATOM     36  C   UNL A   1      41.796  27.919  29.852  1.00  0.00     0.074 A 
ATOM     37  C   UNL A   1      39.669  29.009  29.214  1.00  0.00     0.049 A 
ATOM     38  N   UNL A   1      42.270  28.775  30.719  1.00  0.00    -0.248 NA
ATOM     39  C   UNL A   1      42.667  26.753  29.626  1.00  0.00     0.031 C 
ATOM     40  C   UNL A   1      38.367  29.147  28.559  1.00  0.00     0.029 A 
ATOM     41  N   UNL A   1      39.794  30.164  29.949  1.00  0.00    -0.354 N 
ATOM     42  C   UNL A   1      43.476  28.242  31.162  1.00  0.00     0.074 A 
ATOM     43  C   UNL A   1      43.639  26.965  30.501  1.00  0.00     0.031 C 
ATOM     44  C   UNL A   1      37.819  30.322  28.913  1.00  0.00     0.029 A 
ATOM     45  C   UNL A   1      38.704  30.999  29.855  1.00  0.00     0.049 A 
ATOM     46  H   UNL A   1      40.588  30.373  30.491  1.00  0.00     0.167 HD
ATOM     47  C   UNL A   1      44.374  28.775  32.026  1.00  0.00     0.037 A 
ATOM     48  C   UNL A   1      38.438  32.167  30.472  1.00  0.00     0.037 A 
ATOM     49  C   UNL A   1      44.221  30.061  32.652  1.00  0.00     0.049 A 
ATOM     50  C   UNL A   1      39.448  32.739  31.432  1.00  0.00     0.074 A 
ATOM     51  C   UNL A   1      45.101  30.716  33.496  1.00  0.00     0.029 A 
ATOM     52  N   UNL A   1      43.118  30.889  32.503  1.00  0.00    -0.354 N 
ATOM     53  N   UNL A   1      40.605  32.242  31.801  1.00  0.00    -0.248 NA
ATOM     54  C   UNL A   1      39.120  34.027  32.059  1.00  0.00     0.031 C 
ATOM     55  C   UNL A   1      44.511  31.920  33.893  1.00  0.00     0.029 A 
ATOM     56  C   UNL A   1      43.288  32.042  33.253  1.00  0.00     0.049 A 
ATOM     57  H   UNL A   1      42.331  30.689  31.946  1.00  0.00     0.167 HD
ATOM     58  C   UNL A   1      41.157  33.174  32.674  1.00  0.00     0.074 A 
ATOM     59  C   UNL A   1      40.209  34.263  32.778  1.00  0.00     0.031 C 
ATOM     60  C   UNL A   1      42.344  33.129  33.327  1.00  0.00     0.037 A 
BRANCH  47  61
ATOM     61  C   UNL A   1      45.606  27.969  32.343  1.00  0.00     0.058 A 
ATOM     62  C   UNL A   1      46.811  28.158  31.647  1.00  0.00     0.135 A 
ATOM     63  C   UNL A   1      45.592  27.024  33.381  1.00  0.00     0.135 A 
ATOM     64  F   UNL A   1      46.879  29.038  30.636  1.00  0.00    -0.206 F 
ATOM     65  C   UNL A   1      47.948  27.415  31.947  1.00  0.00     0.059 A 
ATOM     66  C   UNL A   1      46.728  26.291  33.718  1.00  0.00     0.059 A 
ATOM     67  F   UNL A   1      44.469  26.804  34.082  1.00  0.00    -0.206 F 
ATOM     68  C   UNL A   1      47.897  26.483  32.984  1.00  0.00     0.060 A 
BRANCH  68  69
ATOM     69  S   UNL A   1      49.380  25.527  33.367  1.00  0.00     0.124 S 
ATOM     70  O   UNL A   1      49.758  25.040  32.038  1.00  0.00    -0.237 OA
ATOM     71  O   UNL A   1      50.266  26.546  33.935  1.00  0.00    -0.237 OA
ATOM     72  O   UNL A   1      48.911  24.519  34.295  1.00  0.00    -0.744 OA
ENDBRANCH  68  69
ENDBRANCH  47  61
BRANCH  48  73
ATOM     73  C   UNL A   1      37.164  32.883  30.190  1.00  0.00     0.058 A 
ATOM     74  C   UNL A   1      37.070  33.793  29.126  1.00  0.00     0.135 A 
ATOM     75  C   UNL A   1      36.012  32.660  30.961  1.00  0.00     0.135 A 
ATOM     76  F   UNL A   1      38.145  34.047  28.364  1.00  0.00    -0.206 F 
ATOM     77  C   UNL A   1      35.885  34.465  28.843  1.00  0.00     0.059 A 
ATOM     78  C   UNL A   1      34.809  33.300  30.682  1.00  0.00     0.059 A 
ATOM     79  F   UNL A   1      36.045  31.788  31.981  1.00  0.00    -0.206 F 
ATOM     80  C   UNL A   1      34.757  34.207  29.624  1.00  0.00     0.060 A 
BRANCH  80  81
ATOM     81  S   UNL A   1      33.210  35.042  29.209  1.00  0.00     0.124 S 
ATOM     82  O   UNL A   1      33.690  36.335  28.739  1.00  0.00    -0.237 OA
ATOM     83  O   UNL A   1      32.651  34.158  28.189  1.00  0.00    -0.237 OA
ATOM     84  O   UNL A   1      32.486  35.056  30.477  1.00  0.00    -0.744 OA
ENDBRANCH  80  81
ENDBRANCH  48  73
BRANCH  60  85
ATOM     85  C   UNL A   1      42.722  34.312  34.176  1.00  0.00     0.058 A 
ATOM     86  C   UNL A   1      42.476  34.342  35.556  1.00  0.00     0.135 A 
ATOM     87  C   UNL A   1      43.426  35.388  33.610  1.00  0.00     0.135 A 
ATOM     88  F   UNL A   1      41.801  33.342  36.145  1.00  0.00    -0.206 F 
ATOM     89  C   UNL A   1      42.911  35.401  36.347  1.00  0.00     0.059 A 
ATOM     90  C   UNL A   1      43.891  36.445  34.386  1.00  0.00     0.059 A 
ATOM     91  F   UNL A   1      43.694  35.404  32.294  1.00  0.00    -0.206 F 
ATOM     92  C   UNL A   1      43.625  36.443  35.754  1.00  0.00     0.060 A 
BRANCH  92  93
ATOM     93  S   UNL A   1      44.242  37.776  36.804  1.00  0.00     0.124 S 
ATOM     94  O   UNL A   1      45.589  37.309  37.114  1.00  0.00    -0.237 OA
ATOM     95  O   UNL A   1      44.161  38.934  35.917  1.00  0.00    -0.237 OA
ATOM     96  O   UNL A   1      43.307  37.788  37.925  1.00  0.00    -0.744 OA
ENDBRANCH  92  93
ENDBRANCH  60  85
ENDBRANCH  34  35
ENDBRANCH  26  29
ENDBRANCH  24  25
ENDBRANCH   1  24
TORSDOF 17
ENDMDL
MODEL 3
REMARK VINA RESULT:     -10.4      2.613      3.484
REMARK SMILES [NH3+][C@H](CCC(=O)NCCCNC(=O)c1ccc(-c2c3nc(c(-c4c(F)cc(S(=O)(=O)[O-])cc4F)c4ccc([nH]4)c(-c4c(F)cc(S(=O)(=O)[O-])cc4F)c4nc(c(-c5c(F)cc(S(=O)(=O)[O-])cc5F)c5ccc2[nH]5)C=C4)C=C3)cc1)c1nccc2[nH]ccc12
REMARK SMILES IDX 9 1 8 2 7 3 5 4 6 5 4 7 3 8 2 9 1 10 80 14 81 15 88 16 82 17
REMARK SMILES IDX 84 18 87 19 83 20 85 21 86 22 10 24 11 25 12 26 13 28 14 29
REMARK SMILES IDX 15 30 79 31 16 32 78 33 17 34 18 35 19 36 72 37 20 38 77 39
REMARK SMILES IDX 71 40 73 41 21 42 76 43 70 44 69 45 22 47 56 48 35 49 55 50
REMARK SMILES IDX 36 51 39 52 54 53 74 54 37 55 38 56 53 58 75 59 40 60 23 61
REMARK SMILES IDX 24 62 33 63 25 64 26 65 32 66 34 67 27 68 28 69 29 70 30 71
REMARK SMILES IDX 31 72 57 73 58 74 67 75 59 76 60 77 66 78 68 79 61 80 62 81
REMARK SMILES IDX 63 82 64 83 65 84 41 85 42 86 51 87 43 88 44 89 50 90 52 91
REMARK SMILES IDX 45 92 46 93 47 94 48 95 49 96
REMARK H PARENT 7 6 1 11 1 12 1 13 85 23 11 27 73 46 39 57
REMARK Flexibility Score: inf
ROOT
ATOM      1  C   UNL A   1      34.431  33.865  29.236  1.00  0.00     0.042 C 
ENDROOT
BRANCH   1   2
ATOM      2  C   UNL A   1      33.123  34.604  28.959  1.00  0.00     0.117 C 
BRANCH   2   3
ATOM      3  N   UNL A   1      33.203  35.977  29.424  1.00  0.00    -0.356 N 
ATOM      4  C   UNL A   1      32.983  36.496  30.665  1.00  0.00     0.220 C 
ATOM      5  O   UNL A   1      32.903  37.723  30.764  1.00  0.00    -0.275 OA
ATOM      6  H   UNL A   1      33.456  36.635  28.736  1.00  0.00     0.163 HD
BRANCH   4   7
ATOM      7  C   UNL A   1      32.928  35.613  31.900  1.00  0.00     0.106 C 
BRANCH   7   8
ATOM      8  C   UNL A   1      34.263  35.424  32.636  1.00  0.00     0.082 C 
BRANCH   8   9
ATOM      9  C   UNL A   1      34.408  34.269  33.652  1.00  0.00     0.232 C 
BRANCH   9  10
ATOM     10  N   UNL A   1      33.347  33.265  33.427  1.00  0.00    -0.350 N 
ATOM     11  H   UNL A   1      32.495  33.734  33.120  1.00  0.00     0.345 HD
ATOM     12  H   UNL A   1      33.166  32.762  34.295  1.00  0.00     0.345 HD
ATOM     13  H   UNL A   1      33.650  32.606  32.710  1.00  0.00     0.345 HD
ENDBRANCH   9  10
BRANCH   9  14
ATOM     14  C   UNL A   1      35.761  33.528  33.705  1.00  0.00     0.107 A 
ATOM     15  N   UNL A   1      36.280  33.413  34.976  1.00  0.00    -0.254 NA
ATOM     16  C   UNL A   1      36.714  33.659  32.657  1.00  0.00     0.027 A 
ATOM     17  C   UNL A   1      37.538  33.827  35.225  1.00  0.00     0.114 A 
ATOM     18  C   UNL A   1      37.943  34.239  32.981  1.00  0.00     0.049 A 
ATOM     19  C   UNL A   1      36.776  33.361  31.264  1.00  0.00     0.030 A 
ATOM     20  C   UNL A   1      38.361  34.422  34.292  1.00  0.00     0.047 A 
ATOM     21  N   UNL A   1      38.550  34.577  31.796  1.00  0.00    -0.361 N 
ATOM     22  C   UNL A   1      37.958  33.878  30.777  1.00  0.00     0.083 A 
ATOM     23  H   UNL A   1      39.290  35.219  31.694  1.00  0.00     0.166 HD
ENDBRANCH   9  14
ENDBRANCH   8   9
ENDBRANCH   7   8
ENDBRANCH   4   7
ENDBRANCH   2   3
ENDBRANCH   1   2
BRANCH   1  24
ATOM     24  C   UNL A   1      35.002  33.176  28.003  1.00  0.00     0.118 C 
BRANCH  24  25
ATOM     25  N   UNL A   1      34.227  32.000  27.633  1.00  0.00    -0.352 N 
ATOM     26  C   UNL A   1      34.595  30.676  27.583  1.00  0.00     0.251 C 
ATOM     27  H   UNL A   1      33.292  32.182  27.380  1.00  0.00     0.163 HD
ATOM     28  O   UNL A   1      33.875  29.881  26.982  1.00  0.00    -0.269 OA
BRANCH  26  29
ATOM     29  C   UNL A   1      35.846  30.198  28.223  1.00  0.00     0.039 A 
ATOM     30  C   UNL A   1      37.032  30.192  27.480  1.00  0.00     0.014 A 
ATOM     31  C   UNL A   1      35.853  29.700  29.528  1.00  0.00     0.014 A 
ATOM     32  C   UNL A   1      38.225  29.750  28.062  1.00  0.00     0.010 A 
ATOM     33  C   UNL A   1      37.055  29.343  30.135  1.00  0.00     0.010 A 
ATOM     34  C   UNL A   1      38.255  29.351  29.408  1.00  0.00    -0.014 A 
BRANCH  34  35
ATOM     35  C   UNL A   1      39.512  28.914  30.075  1.00  0.00     0.031 A 
ATOM     36  C   UNL A   1      40.026  29.668  31.276  1.00  0.00     0.074 A 
ATOM     37  C   UNL A   1      40.236  27.902  29.556  1.00  0.00     0.049 A 
ATOM     38  N   UNL A   1      41.164  29.544  31.907  1.00  0.00    -0.248 NA
ATOM     39  C   UNL A   1      39.154  30.724  31.818  1.00  0.00     0.031 C 
ATOM     40  C   UNL A   1      39.866  27.114  28.379  1.00  0.00     0.029 A 
ATOM     41  N   UNL A   1      41.447  27.376  29.939  1.00  0.00    -0.354 N 
ATOM     42  C   UNL A   1      41.159  30.518  32.900  1.00  0.00     0.074 A 
ATOM     43  C   UNL A   1      39.922  31.256  32.757  1.00  0.00     0.031 C 
ATOM     44  C   UNL A   1      40.823  26.201  28.141  1.00  0.00     0.029 A 
ATOM     45  C   UNL A   1      41.896  26.367  29.117  1.00  0.00     0.049 A 
ATOM     46  H   UNL A   1      41.946  27.692  30.726  1.00  0.00     0.167 HD
ATOM     47  C   UNL A   1      42.088  30.764  33.853  1.00  0.00     0.037 A 
ATOM     48  C   UNL A   1      43.049  25.669  29.134  1.00  0.00     0.037 A 
ATOM     49  C   UNL A   1      43.300  30.004  34.010  1.00  0.00     0.049 A 
ATOM     50  C   UNL A   1      44.071  25.963  30.200  1.00  0.00     0.074 A 
ATOM     51  C   UNL A   1      44.278  30.136  34.980  1.00  0.00     0.029 A 
ATOM     52  N   UNL A   1      43.699  28.969  33.178  1.00  0.00    -0.354 N 
ATOM     53  N   UNL A   1      44.025  26.856  31.160  1.00  0.00    -0.248 NA
ATOM     54  C   UNL A   1      45.299  25.156  30.189  1.00  0.00     0.031 C 
ATOM     55  C   UNL A   1      45.290  29.210  34.709  1.00  0.00     0.029 A 
ATOM     56  C   UNL A   1      44.918  28.464  33.602  1.00  0.00     0.049 A 
ATOM     57  H   UNL A   1      43.191  28.640  32.401  1.00  0.00     0.167 HD
ATOM     58  C   UNL A   1      45.200  26.694  31.886  1.00  0.00     0.074 A 
ATOM     59  C   UNL A   1      45.936  25.618  31.257  1.00  0.00     0.031 C 
ATOM     60  C   UNL A   1      45.627  27.375  32.977  1.00  0.00     0.037 A 
BRANCH  47  61
ATOM     61  C   UNL A   1      41.832  31.902  34.806  1.00  0.00     0.058 A 
ATOM     62  C   UNL A   1      42.314  33.197  34.557  1.00  0.00     0.135 A 
ATOM     63  C   UNL A   1      41.062  31.703  35.964  1.00  0.00     0.135 A 
ATOM     64  F   UNL A   1      43.066  33.443  33.473  1.00  0.00    -0.206 F 
ATOM     65  C   UNL A   1      42.070  34.246  35.437  1.00  0.00     0.059 A 
ATOM     66  C   UNL A   1      40.781  32.746  36.844  1.00  0.00     0.059 A 
ATOM     67  F   UNL A   1      40.574  30.486  36.251  1.00  0.00    -0.206 F 
ATOM     68  C   UNL A   1      41.303  34.011  36.579  1.00  0.00     0.060 A 
BRANCH  68  69
ATOM     69  S   UNL A   1      40.990  35.380  37.713  1.00  0.00     0.124 S 
ATOM     70  O   UNL A   1      42.169  36.219  37.482  1.00  0.00    -0.237 OA
ATOM     71  O   UNL A   1      39.728  35.922  37.203  1.00  0.00    -0.237 OA
ATOM     72  O   UNL A   1      40.917  34.743  39.011  1.00  0.00    -0.744 OA
ENDBRANCH  68  69
ENDBRANCH  47  61
BRANCH  48  73
ATOM     73  C   UNL A   1      43.291  24.612  28.115  1.00  0.00     0.058 A 
ATOM     74  C   UNL A   1      43.942  24.911  26.908  1.00  0.00     0.135 A 
ATOM     75  C   UNL A   1      42.897  23.282  28.331  1.00  0.00     0.135 A 
ATOM     76  F   UNL A   1      44.331  26.170  26.650  1.00  0.00    -0.206 F 
ATOM     77  C   UNL A   1      44.183  23.935  25.947  1.00  0.00     0.059 A 
ATOM     78  C   UNL A   1      43.151  22.282  27.397  1.00  0.00     0.059 A 
ATOM     79  F   UNL A   1      42.285  22.940  29.475  1.00  0.00    -0.206 F 
ATOM     80  C   UNL A   1      43.789  22.620  26.204  1.00  0.00     0.060 A 
BRANCH  80  81
ATOM     81  S   UNL A   1      44.162  21.351  24.974  1.00  0.00     0.124 S 
ATOM     82  O   UNL A   1      43.052  20.424  25.163  1.00  0.00    -0.237 OA
ATOM     83  O   UNL A   1      44.149  22.117  23.731  1.00  0.00    -0.237 OA
ATOM     84  O   UNL A   1      45.474  20.861  25.385  1.00  0.00    -0.744 OA
ENDBRANCH  80  81
ENDBRANCH  48  73
BRANCH  60  85
ATOM     85  C   UNL A   1      46.927  26.951  33.605  1.00  0.00     0.058 A 
ATOM     86  C   UNL A   1      46.987  25.931  34.564  1.00  0.00     0.135 A 
ATOM     87  C   UNL A   1      48.137  27.514  33.167  1.00  0.00     0.135 A 
ATOM     88  F   UNL A   1      45.858  25.365  35.023  1.00  0.00    -0.206 F 
ATOM     89  C   UNL A   1      48.203  25.484  35.073  1.00  0.00     0.059 A 
ATOM     90  C   UNL A   1      49.365  27.067  33.643  1.00  0.00     0.059 A 
ATOM     91  F   UNL A   1      48.134  28.489  32.244  1.00  0.00    -0.206 F 
ATOM     92  C   UNL A   1      49.387  26.052  34.599  1.00  0.00     0.060 A 
BRANCH  92  93
ATOM     93  S   UNL A   1      50.960  25.416  35.216  1.00  0.00     0.124 S 
ATOM     94  O   UNL A   1      51.888  26.457  34.789  1.00  0.00    -0.237 OA
ATOM     95  O   UNL A   1      50.719  25.332  36.654  1.00  0.00    -0.237 OA
ATOM     96  O   UNL A   1      51.099  24.132  34.535  1.00  0.00    -0.744 OA
ENDBRANCH  92  93
ENDBRANCH  60  85
ENDBRANCH  34  35
ENDBRANCH  26  29
ENDBRANCH  24  25
ENDBRANCH   1  24
TORSDOF 17
ENDMDL
