MODEL 1
REMARK VINA RESULT:     -10.7      0.000      0.000
REMARK SMILES C[C@@H]1c2ccccc2-c2ccc(C(=O)NCCCNC(=O)c3ccc(-c4c5nc(c(-c6c(F)cc(S(=O)(=O)[O-])cc6F)c6ccc([nH]6)c(-c6c(F)cc(S(=O)(=O)[O-])cc6F)c6nc(c(-c7c(F)cc(S(=O)(=O)[O-])cc7F)c7ccc4[nH]7)C=C6)C=C5)cc3)cc21
REMARK SMILES IDX 19 1 20 2 21 3 18 5 17 6 16 7 15 8 13 9 14 10 12 12 1 13
REMARK SMILES IDX 2 14 3 15 89 16 4 17 8 18 9 19 88 20 5 21 7 22 10 23 6 24
REMARK SMILES IDX 11 25 22 26 23 27 87 28 24 29 86 30 25 31 26 32 27 33 80 34
REMARK SMILES IDX 28 35 85 36 79 37 81 38 29 39 84 40 78 41 77 42 30 44 64 45
REMARK SMILES IDX 43 46 63 47 44 48 47 49 62 50 82 51 45 52 46 53 61 55 83 56
REMARK SMILES IDX 48 57 31 58 32 59 41 60 33 61 34 62 40 63 42 64 35 65 36 66
REMARK SMILES IDX 37 67 38 68 39 69 65 70 66 71 75 72 67 73 68 74 74 75 76 76
REMARK SMILES IDX 69 77 70 78 71 79 72 80 73 81 49 82 50 83 59 84 51 85 52 86
REMARK SMILES IDX 58 87 60 88 53 89 54 90 55 91 56 92 57 93
REMARK H PARENT 19 4 15 11 81 43 47 54
REMARK Flexibility Score: inf
ROOT
ATOM      1  N   UNL A   1      33.901  31.368  28.042  1.00  0.00    -0.352 N 
ATOM      2  C   UNL A   1      34.430  30.106  27.956  1.00  0.00     0.251 C 
ATOM      3  O   UNL A   1      33.693  29.182  27.622  1.00  0.00    -0.269 OA
ATOM      4  H   UNL A   1      32.917  31.405  28.026  1.00  0.00     0.163 HD
ENDROOT
BRANCH   1   5
ATOM      5  C   UNL A   1      34.557  32.661  28.155  1.00  0.00     0.118 C 
BRANCH   5   6
ATOM      6  C   UNL A   1      33.554  33.780  28.424  1.00  0.00     0.042 C 
BRANCH   6   7
ATOM      7  C   UNL A   1      34.193  35.050  28.990  1.00  0.00     0.118 C 
BRANCH   7   8
ATOM      8  N   UNL A   1      33.649  35.383  30.294  1.00  0.00    -0.352 N 
ATOM      9  C   UNL A   1      33.991  35.010  31.568  1.00  0.00     0.251 C 
ATOM     10  O   UNL A   1      33.367  35.540  32.490  1.00  0.00    -0.269 OA
ATOM     11  H   UNL A   1      32.881  35.999  30.255  1.00  0.00     0.163 HD
BRANCH   9  12
ATOM     12  C   UNL A   1      35.086  34.049  31.896  1.00  0.00     0.040 A 
ATOM     13  C   UNL A   1      39.595  34.481  32.288  1.00  0.00     0.018 C 
ATOM     14  C   UNL A   1      38.708  33.594  33.150  1.00  0.00     0.047 C 
ATOM     15  C   UNL A   1      39.177  32.149  33.232  1.00  0.00    -0.033 A 
ATOM     16  C   UNL A   1      37.297  33.425  32.599  1.00  0.00    -0.032 A 
ATOM     17  C   UNL A   1      40.409  31.665  33.645  1.00  0.00     0.005 A 
ATOM     18  C   UNL A   1      38.139  31.275  32.841  1.00  0.00    -0.014 A 
ATOM     19  C   UNL A   1      36.979  32.059  32.473  1.00  0.00    -0.014 A 
ATOM     20  C   UNL A   1      36.379  34.418  32.279  1.00  0.00     0.018 A 
ATOM     21  C   UNL A   1      40.604  30.284  33.648  1.00  0.00     0.000 A 
ATOM     22  C   UNL A   1      38.335  29.904  32.841  1.00  0.00     0.009 A 
ATOM     23  C   UNL A   1      35.722  31.673  32.049  1.00  0.00     0.010 A 
ATOM     24  C   UNL A   1      39.579  29.411  33.246  1.00  0.00     0.001 A 
ATOM     25  C   UNL A   1      34.777  32.672  31.772  1.00  0.00     0.014 A 
ENDBRANCH   9  12
ENDBRANCH   7   8
ENDBRANCH   6   7
ENDBRANCH   5   6
ENDBRANCH   1   5
BRANCH   2  26
ATOM     26  C   UNL A   1      35.857  29.841  28.255  1.00  0.00     0.039 A 
ATOM     27  C   UNL A   1      36.793  30.017  27.232  1.00  0.00     0.014 A 
ATOM     28  C   UNL A   1      36.271  29.340  29.494  1.00  0.00     0.014 A 
ATOM     29  C   UNL A   1      38.139  29.716  27.455  1.00  0.00     0.010 A 
ATOM     30  C   UNL A   1      37.624  29.103  29.736  1.00  0.00     0.010 A 
ATOM     31  C   UNL A   1      38.569  29.269  28.714  1.00  0.00    -0.014 A 
BRANCH  31  32
ATOM     32  C   UNL A   1      39.999  28.948  28.957  1.00  0.00     0.031 A 
ATOM     33  C   UNL A   1      40.919  29.979  29.555  1.00  0.00     0.074 A 
ATOM     34  C   UNL A   1      40.475  27.736  28.610  1.00  0.00     0.049 A 
ATOM     35  N   UNL A   1      42.198  29.890  29.822  1.00  0.00    -0.248 NA
ATOM     36  C   UNL A   1      40.331  31.290  29.873  1.00  0.00     0.031 C 
ATOM     37  C   UNL A   1      39.695  26.671  27.975  1.00  0.00     0.029 A 
ATOM     38  N   UNL A   1      41.730  27.197  28.738  1.00  0.00    -0.354 N 
ATOM     39  C   UNL A   1      42.569  31.133  30.323  1.00  0.00     0.074 A 
ATOM     40  C   UNL A   1      41.392  31.974  30.278  1.00  0.00     0.031 C 
ATOM     41  C   UNL A   1      40.482  25.599  27.793  1.00  0.00     0.029 A 
ATOM     42  C   UNL A   1      41.826  25.907  28.271  1.00  0.00     0.049 A 
ATOM     43  H   UNL A   1      42.490  27.687  29.127  1.00  0.00     0.167 HD
ATOM     44  C   UNL A   1      43.774  31.531  30.799  1.00  0.00     0.037 A 
ATOM     45  C   UNL A   1      42.877  25.067  28.237  1.00  0.00     0.037 A 
ATOM     46  C   UNL A   1      44.934  30.681  30.870  1.00  0.00     0.049 A 
ATOM     47  C   UNL A   1      44.195  25.519  28.804  1.00  0.00     0.074 A 
ATOM     48  C   UNL A   1      46.188  30.971  31.380  1.00  0.00     0.029 A 
ATOM     49  N   UNL A   1      44.982  29.369  30.421  1.00  0.00    -0.354 N 
ATOM     50  N   UNL A   1      44.514  26.681  29.324  1.00  0.00    -0.248 NA
ATOM     51  C   UNL A   1      45.291  24.541  28.796  1.00  0.00     0.031 C 
ATOM     52  C   UNL A   1      47.002  29.844  31.213  1.00  0.00     0.029 A 
ATOM     53  C   UNL A   1      46.244  28.839  30.635  1.00  0.00     0.049 A 
ATOM     54  H   UNL A   1      44.229  28.886  30.009  1.00  0.00     0.167 HD
ATOM     55  C   UNL A   1      45.840  26.566  29.726  1.00  0.00     0.074 A 
ATOM     56  C   UNL A   1      46.257  25.215  29.402  1.00  0.00     0.031 C 
ATOM     57  C   UNL A   1      46.640  27.492  30.308  1.00  0.00     0.037 A 
BRANCH  44  58
ATOM     58  C   UNL A   1      43.895  32.950  31.286  1.00  0.00     0.058 A 
ATOM     59  C   UNL A   1      43.762  33.275  32.647  1.00  0.00     0.135 A 
ATOM     60  C   UNL A   1      44.168  33.996  30.390  1.00  0.00     0.135 A 
ATOM     61  F   UNL A   1      43.486  32.317  33.546  1.00  0.00    -0.206 F 
ATOM     62  C   UNL A   1      43.863  34.587  33.096  1.00  0.00     0.059 A 
ATOM     63  C   UNL A   1      44.300  35.313  30.821  1.00  0.00     0.059 A 
ATOM     64  F   UNL A   1      44.305  33.743  29.079  1.00  0.00    -0.206 F 
ATOM     65  C   UNL A   1      44.128  35.601  32.175  1.00  0.00     0.060 A 
BRANCH  65  66
ATOM     66  S   UNL A   1      44.253  37.301  32.772  1.00  0.00     0.124 S 
ATOM     67  O   UNL A   1      43.976  38.057  31.555  1.00  0.00    -0.237 OA
ATOM     68  O   UNL A   1      43.216  37.350  33.798  1.00  0.00    -0.237 OA
ATOM     69  O   UNL A   1      45.623  37.387  33.267  1.00  0.00    -0.744 OA
ENDBRANCH  65  66
ENDBRANCH  44  58
BRANCH  45  70
ATOM     70  C   UNL A   1      42.714  23.698  27.681  1.00  0.00     0.058 A 
ATOM     71  C   UNL A   1      42.826  23.462  26.303  1.00  0.00     0.135 A 
ATOM     72  C   UNL A   1      42.462  22.599  28.517  1.00  0.00     0.135 A 
ATOM     73  F   UNL A   1      43.062  24.482  25.465  1.00  0.00    -0.206 F 
ATOM     74  C   UNL A   1      42.680  22.185  25.769  1.00  0.00     0.059 A 
ATOM     75  C   UNL A   1      42.334  21.310  28.008  1.00  0.00     0.059 A 
ATOM     76  F   UNL A   1      42.364  22.771  29.844  1.00  0.00    -0.206 F 
ATOM     77  C   UNL A   1      42.435  21.115  26.631  1.00  0.00     0.060 A 
BRANCH  77  78
ATOM     78  S   UNL A   1      42.301  19.454  25.935  1.00  0.00     0.124 S 
ATOM     79  O   UNL A   1      40.872  19.368  25.656  1.00  0.00    -0.237 OA
ATOM     80  O   UNL A   1      43.177  19.536  24.770  1.00  0.00    -0.237 OA
ATOM     81  O   UNL A   1      42.789  18.600  27.014  1.00  0.00    -0.744 OA
ENDBRANCH  77  78
ENDBRANCH  45  70
BRANCH  57  82
ATOM     82  C   UNL A   1      48.036  27.062  30.662  1.00  0.00     0.058 A 
ATOM     83  C   UNL A   1      48.323  26.408  31.871  1.00  0.00     0.135 A 
ATOM     84  C   UNL A   1      49.098  27.293  29.772  1.00  0.00     0.135 A 
ATOM     85  F   UNL A   1      47.344  26.168  32.757  1.00  0.00    -0.206 F 
ATOM     86  C   UNL A   1      49.620  26.033  32.203  1.00  0.00     0.059 A 
ATOM     87  C   UNL A   1      50.399  26.904  30.073  1.00  0.00     0.059 A 
ATOM     88  F   UNL A   1      48.874  27.903  28.597  1.00  0.00    -0.206 F 
ATOM     89  C   UNL A   1      50.653  26.292  31.300  1.00  0.00     0.060 A 
BRANCH  89  90
ATOM     90  S   UNL A   1      52.334  25.803  31.738  1.00  0.00     0.124 S 
ATOM     91  O   UNL A   1      52.640  26.740  32.813  1.00  0.00    -0.237 OA
ATOM     92  O   UNL A   1      52.163  24.410  32.141  1.00  0.00    -0.237 OA
ATOM     93  O   UNL A   1      53.079  26.003  30.499  1.00  0.00    -0.744 OA
ENDBRANCH  89  90
ENDBRANCH  57  82
ENDBRANCH  31  32
ENDBRANCH   2  26
TORSDOF 13
ENDMDL
MODEL 2
REMARK VINA RESULT:     -10.6      2.901     11.065
REMARK SMILES C[C@@H]1c2ccccc2-c2ccc(C(=O)NCCCNC(=O)c3ccc(-c4c5nc(c(-c6c(F)cc(S(=O)(=O)[O-])cc6F)c6ccc([nH]6)c(-c6c(F)cc(S(=O)(=O)[O-])cc6F)c6nc(c(-c7c(F)cc(S(=O)(=O)[O-])cc7F)c7ccc4[nH]7)C=C6)C=C5)cc3)cc21
REMARK SMILES IDX 19 1 20 2 21 3 18 5 17 6 16 7 15 8 13 9 14 10 12 12 1 13
REMARK SMILES IDX 2 14 3 15 89 16 4 17 8 18 9 19 88 20 5 21 7 22 10 23 6 24
REMARK SMILES IDX 11 25 22 26 23 27 87 28 24 29 86 30 25 31 26 32 27 33 80 34
REMARK SMILES IDX 28 35 85 36 79 37 81 38 29 39 84 40 78 41 77 42 30 44 64 45
REMARK SMILES IDX 43 46 63 47 44 48 47 49 62 50 82 51 45 52 46 53 61 55 83 56
REMARK SMILES IDX 48 57 31 58 32 59 41 60 33 61 34 62 40 63 42 64 35 65 36 66
REMARK SMILES IDX 37 67 38 68 39 69 65 70 66 71 75 72 67 73 68 74 74 75 76 76
REMARK SMILES IDX 69 77 70 78 71 79 72 80 73 81 49 82 50 83 59 84 51 85 52 86
REMARK SMILES IDX 58 87 60 88 53 89 54 90 55 91 56 92 57 93
REMARK H PARENT 19 4 15 11 81 43 47 54
REMARK Flexibility Score: inf
ROOT
ATOM      1  N   UNL A   1      39.441  22.005  25.848  1.00  0.00    -0.352 N 
ATOM      2  C   UNL A   1      38.691  23.154  25.847  1.00  0.00     0.251 C 
ATOM      3  O   UNL A   1      37.686  23.198  25.141  1.00  0.00    -0.269 OA
ATOM      4  H   UNL A   1      39.227  21.371  25.126  1.00  0.00     0.163 HD
ENDROOT
BRANCH   1   5
ATOM      5  C   UNL A   1      40.501  21.571  26.745  1.00  0.00     0.118 C 
BRANCH   5   6
ATOM      6  C   UNL A   1      41.149  20.275  26.264  1.00  0.00     0.042 C 
BRANCH   6   7
ATOM      7  C   UNL A   1      42.519  20.009  26.891  1.00  0.00     0.118 C 
BRANCH   7   8
ATOM      8  N   UNL A   1      43.551  19.886  25.878  1.00  0.00    -0.352 N 
ATOM      9  C   UNL A   1      44.385  20.797  25.283  1.00  0.00     0.251 C 
ATOM     10  O   UNL A   1      45.225  20.355  24.497  1.00  0.00    -0.269 OA
ATOM     11  H   UNL A   1      43.677  18.965  25.553  1.00  0.00     0.163 HD
BRANCH   9  12
ATOM     12  C   UNL A   1      44.362  22.265  25.564  1.00  0.00     0.040 A 
ATOM     13  C   UNL A   1      46.347  24.862  28.724  1.00  0.00     0.018 C 
ATOM     14  C   UNL A   1      46.118  25.248  27.270  1.00  0.00     0.047 C 
ATOM     15  C   UNL A   1      45.418  26.586  27.092  1.00  0.00    -0.033 A 
ATOM     16  C   UNL A   1      45.172  24.308  26.532  1.00  0.00    -0.032 A 
ATOM     17  C   UNL A   1      45.798  27.830  27.574  1.00  0.00     0.005 A 
ATOM     18  C   UNL A   1      44.260  26.431  26.298  1.00  0.00    -0.014 A 
ATOM     19  C   UNL A   1      44.123  25.036  25.938  1.00  0.00    -0.014 A 
ATOM     20  C   UNL A   1      45.277  22.931  26.385  1.00  0.00     0.018 A 
ATOM     21  C   UNL A   1      44.994  28.927  27.268  1.00  0.00     0.000 A 
ATOM     22  C   UNL A   1      43.460  27.520  25.997  1.00  0.00     0.009 A 
ATOM     23  C   UNL A   1      43.179  24.388  25.163  1.00  0.00     0.010 A 
ATOM     24  C   UNL A   1      43.834  28.774  26.490  1.00  0.00     0.001 A 
ATOM     25  C   UNL A   1      43.310  23.005  24.972  1.00  0.00     0.014 A 
ENDBRANCH   9  12
ENDBRANCH   7   8
ENDBRANCH   6   7
ENDBRANCH   5   6
ENDBRANCH   1   5
BRANCH   2  26
ATOM     26  C   UNL A   1      39.068  24.327  26.668  1.00  0.00     0.039 A 
ATOM     27  C   UNL A   1      39.931  25.276  26.112  1.00  0.00     0.014 A 
ATOM     28  C   UNL A   1      38.659  24.460  27.999  1.00  0.00     0.014 A 
ATOM     29  C   UNL A   1      40.361  26.364  26.876  1.00  0.00     0.010 A 
ATOM     30  C   UNL A   1      39.036  25.580  28.739  1.00  0.00     0.010 A 
ATOM     31  C   UNL A   1      39.907  26.533  28.192  1.00  0.00    -0.014 A 
BRANCH  31  32
ATOM     32  C   UNL A   1      40.361  27.687  29.010  1.00  0.00     0.031 A 
ATOM     33  C   UNL A   1      41.713  27.665  29.672  1.00  0.00     0.074 A 
ATOM     34  C   UNL A   1      39.541  28.743  29.181  1.00  0.00     0.049 A 
ATOM     35  N   UNL A   1      42.274  28.567  30.438  1.00  0.00    -0.248 NA
ATOM     36  C   UNL A   1      42.535  26.461  29.467  1.00  0.00     0.031 C 
ATOM     37  C   UNL A   1      38.188  28.859  28.633  1.00  0.00     0.029 A 
ATOM     38  N   UNL A   1      39.724  29.917  29.867  1.00  0.00    -0.354 N 
ATOM     39  C   UNL A   1      43.501  28.036  30.817  1.00  0.00     0.074 A 
ATOM     40  C   UNL A   1      43.584  26.712  30.237  1.00  0.00     0.031 C 
ATOM     41  C   UNL A   1      37.673  30.049  28.984  1.00  0.00     0.029 A 
ATOM     42  C   UNL A   1      38.646  30.768  29.801  1.00  0.00     0.049 A 
ATOM     43  H   UNL A   1      40.549  30.131  30.360  1.00  0.00     0.167 HD
ATOM     44  C   UNL A   1      44.480  28.606  31.561  1.00  0.00     0.037 A 
ATOM     45  C   UNL A   1      38.464  31.990  30.334  1.00  0.00     0.037 A 
ATOM     46  C   UNL A   1      44.405  29.935  32.111  1.00  0.00     0.049 A 
ATOM     47  C   UNL A   1      39.579  32.617  31.125  1.00  0.00     0.074 A 
ATOM     48  C   UNL A   1      45.362  30.625  32.836  1.00  0.00     0.029 A 
ATOM     49  N   UNL A   1      43.311  30.780  31.990  1.00  0.00    -0.354 N 
ATOM     50  N   UNL A   1      40.755  32.121  31.428  1.00  0.00    -0.248 NA
ATOM     51  C   UNL A   1      39.349  33.976  31.633  1.00  0.00     0.031 C 
ATOM     52  C   UNL A   1      44.834  31.876  33.179  1.00  0.00     0.029 A 
ATOM     53  C   UNL A   1      43.565  31.980  32.634  1.00  0.00     0.049 A 
ATOM     54  H   UNL A   1      42.477  30.558  31.518  1.00  0.00     0.167 HD
ATOM     55  C   UNL A   1      41.414  33.116  32.141  1.00  0.00     0.074 A 
ATOM     56  C   UNL A   1      40.510  34.247  32.210  1.00  0.00     0.031 C 
ATOM     57  C   UNL A   1      42.654  33.096  32.690  1.00  0.00     0.037 A 
BRANCH  44  58
ATOM     58  C   UNL A   1      45.721  27.793  31.817  1.00  0.00     0.058 A 
ATOM     59  C   UNL A   1      45.744  26.768  32.778  1.00  0.00     0.135 A 
ATOM     60  C   UNL A   1      46.894  28.024  31.081  1.00  0.00     0.135 A 
ATOM     61  F   UNL A   1      44.656  26.515  33.522  1.00  0.00    -0.206 F 
ATOM     62  C   UNL A   1      46.894  26.025  33.023  1.00  0.00     0.059 A 
ATOM     63  C   UNL A   1      48.049  27.274  31.290  1.00  0.00     0.059 A 
ATOM     64  F   UNL A   1      46.928  28.989  30.149  1.00  0.00    -0.206 F 
ATOM     65  C   UNL A   1      48.043  26.288  32.276  1.00  0.00     0.060 A 
BRANCH  65  66
ATOM     66  S   UNL A   1      49.530  25.317  32.607  1.00  0.00     0.124 S 
ATOM     67  O   UNL A   1      49.894  24.876  31.265  1.00  0.00    -0.237 OA
ATOM     68  O   UNL A   1      50.420  26.303  33.213  1.00  0.00    -0.237 OA
ATOM     69  O   UNL A   1      49.057  24.269  33.506  1.00  0.00    -0.744 OA
ENDBRANCH  65  66
ENDBRANCH  44  58
BRANCH  45  70
ATOM     70  C   UNL A   1      37.189  32.717  30.101  1.00  0.00     0.058 A 
ATOM     71  C   UNL A   1      36.088  32.532  30.951  1.00  0.00     0.135 A 
ATOM     72  C   UNL A   1      37.052  33.625  29.040  1.00  0.00     0.135 A 
ATOM     73  F   UNL A   1      36.171  31.671  31.977  1.00  0.00    -0.206 F 
ATOM     74  C   UNL A   1      34.890  33.209  30.749  1.00  0.00     0.059 A 
ATOM     75  C   UNL A   1      35.871  34.331  28.831  1.00  0.00     0.059 A 
ATOM     76  F   UNL A   1      38.083  33.851  28.210  1.00  0.00    -0.206 F 
ATOM     77  C   UNL A   1      34.792  34.108  29.685  1.00  0.00     0.060 A 
BRANCH  77  78
ATOM     78  S   UNL A   1      33.251  35.023  29.462  1.00  0.00     0.124 S 
ATOM     79  O   UNL A   1      33.743  36.323  29.022  1.00  0.00    -0.237 OA
ATOM     80  O   UNL A   1      32.561  34.225  28.453  1.00  0.00    -0.237 OA
ATOM     81  O   UNL A   1      32.649  34.991  30.792  1.00  0.00    -0.744 OA
ENDBRANCH  77  78
ENDBRANCH  45  70
BRANCH  57  82
ATOM     82  C   UNL A   1      43.113  34.348  33.383  1.00  0.00     0.058 A 
ATOM     83  C   UNL A   1      42.931  34.537  34.762  1.00  0.00     0.135 A 
ATOM     84  C   UNL A   1      43.758  35.364  32.659  1.00  0.00     0.135 A 
ATOM     85  F   UNL A   1      42.316  33.597  35.497  1.00  0.00    -0.206 F 
ATOM     86  C   UNL A   1      43.337  35.708  35.394  1.00  0.00     0.059 A 
ATOM     87  C   UNL A   1      44.195  36.533  33.275  1.00  0.00     0.059 A 
ATOM     88  F   UNL A   1      43.968  35.227  31.340  1.00  0.00    -0.206 F 
ATOM     89  C   UNL A   1      43.962  36.703  34.640  1.00  0.00     0.060 A 
BRANCH  89  90
ATOM     90  S   UNL A   1      44.486  38.220  35.467  1.00  0.00     0.124 S 
ATOM     91  O   UNL A   1      43.865  39.239  34.628  1.00  0.00    -0.237 OA
ATOM     92  O   UNL A   1      43.917  38.065  36.802  1.00  0.00    -0.237 OA
ATOM     93  O   UNL A   1      45.942  38.155  35.402  1.00  0.00    -0.744 OA
ENDBRANCH  89  90
ENDBRANCH  57  82
ENDBRANCH  31  32
ENDBRANCH   2  26
TORSDOF 13
ENDMDL
MODEL 3
REMARK VINA RESULT:     -10.5      0.599      8.347
REMARK SMILES C[C@@H]1c2ccccc2-c2ccc(C(=O)NCCCNC(=O)c3ccc(-c4c5nc(c(-c6c(F)cc(S(=O)(=O)[O-])cc6F)c6ccc([nH]6)c(-c6c(F)cc(S(=O)(=O)[O-])cc6F)c6nc(c(-c7c(F)cc(S(=O)(=O)[O-])cc7F)c7ccc4[nH]7)C=C6)C=C5)cc3)cc21
REMARK SMILES IDX 19 1 20 2 21 3 18 5 17 6 16 7 15 8 13 9 14 10 12 12 1 13
REMARK SMILES IDX 2 14 3 15 89 16 4 17 8 18 9 19 88 20 5 21 7 22 10 23 6 24
REMARK SMILES IDX 11 25 22 26 23 27 87 28 24 29 86 30 25 31 26 32 27 33 80 34
REMARK SMILES IDX 28 35 85 36 79 37 81 38 29 39 84 40 78 41 77 42 30 44 64 45
REMARK SMILES IDX 43 46 63 47 44 48 47 49 62 50 82 51 45 52 46 53 61 55 83 56
REMARK SMILES IDX 48 57 31 58 32 59 41 60 33 61 34 62 40 63 42 64 35 65 36 66
REMARK SMILES IDX 37 67 38 68 39 69 65 70 66 71 75 72 67 73 68 74 74 75 76 76
REMARK SMILES IDX 69 77 70 78 71 79 72 80 73 81 49 82 50 83 59 84 51 85 52 86
REMARK SMILES IDX 58 87 60 88 53 89 54 90 55 91 56 92 57 93
REMARK H PARENT 19 4 15 11 81 43 47 54
REMARK Flexibility Score: inf
ROOT
ATOM      1  N   UNL A   1      33.817  31.302  28.075  1.00  0.00    -0.352 N 
ATOM      2  C   UNL A   1      34.329  30.038  27.927  1.00  0.00     0.251 C 
ATOM      3  O   UNL A   1      33.565  29.129  27.613  1.00  0.00    -0.269 OA
ATOM      4  H   UNL A   1      32.834  31.348  28.117  1.00  0.00     0.163 HD
ENDROOT
BRANCH   1   5
ATOM      5  C   UNL A   1      34.491  32.587  28.182  1.00  0.00     0.118 C 
BRANCH   5   6
ATOM      6  C   UNL A   1      33.500  33.723  28.425  1.00  0.00     0.042 C 
BRANCH   6   7
ATOM      7  C   UNL A   1      34.145  34.977  29.019  1.00  0.00     0.118 C 
BRANCH   7   8
ATOM      8  N   UNL A   1      33.579  35.302  30.316  1.00  0.00    -0.352 N 
ATOM      9  C   UNL A   1      33.914  34.939  31.595  1.00  0.00     0.251 C 
ATOM     10  O   UNL A   1      33.269  35.458  32.509  1.00  0.00    -0.269 OA
ATOM     11  H   UNL A   1      32.799  35.901  30.267  1.00  0.00     0.163 HD
BRANCH   9  12
ATOM     12  C   UNL A   1      35.025  34.001  31.938  1.00  0.00     0.040 A 
ATOM     13  C   UNL A   1      39.493  34.566  32.569  1.00  0.00     0.018 C 
ATOM     14  C   UNL A   1      38.596  33.615  33.349  1.00  0.00     0.047 C 
ATOM     15  C   UNL A   1      39.112  32.184  33.397  1.00  0.00    -0.033 A 
ATOM     16  C   UNL A   1      37.221  33.423  32.723  1.00  0.00    -0.032 A 
ATOM     17  C   UNL A   1      40.338  31.724  33.850  1.00  0.00     0.005 A 
ATOM     18  C   UNL A   1      38.124  31.293  32.920  1.00  0.00    -0.014 A 
ATOM     19  C   UNL A   1      36.958  32.054  32.528  1.00  0.00    -0.014 A 
ATOM     20  C   UNL A   1      36.285  34.397  32.398  1.00  0.00     0.018 A 
ATOM     21  C   UNL A   1      40.582  30.351  33.807  1.00  0.00     0.000 A 
ATOM     22  C   UNL A   1      38.368  29.931  32.875  1.00  0.00     0.009 A 
ATOM     23  C   UNL A   1      35.736  31.644  32.026  1.00  0.00     0.010 A 
ATOM     24  C   UNL A   1      39.608  29.463  33.321  1.00  0.00     0.001 A 
ATOM     25  C   UNL A   1      34.771  32.621  31.743  1.00  0.00     0.014 A 
ENDBRANCH   9  12
ENDBRANCH   7   8
ENDBRANCH   6   7
ENDBRANCH   5   6
ENDBRANCH   1   5
BRANCH   2  26
ATOM     26  C   UNL A   1      35.767  29.755  28.136  1.00  0.00     0.039 A 
ATOM     27  C   UNL A   1      36.183  29.339  29.404  1.00  0.00     0.014 A 
ATOM     28  C   UNL A   1      36.718  29.975  27.134  1.00  0.00     0.014 A 
ATOM     29  C   UNL A   1      37.540  29.123  29.661  1.00  0.00     0.010 A 
ATOM     30  C   UNL A   1      38.063  29.696  27.371  1.00  0.00     0.010 A 
ATOM     31  C   UNL A   1      38.491  29.287  28.642  1.00  0.00    -0.014 A 
BRANCH  31  32
ATOM     32  C   UNL A   1      39.935  29.059  28.908  1.00  0.00     0.031 A 
ATOM     33  C   UNL A   1      40.570  27.735  28.573  1.00  0.00     0.074 A 
ATOM     34  C   UNL A   1      40.666  30.034  29.481  1.00  0.00     0.049 A 
ATOM     35  N   UNL A   1      41.806  27.343  28.750  1.00  0.00    -0.248 NA
ATOM     36  C   UNL A   1      39.696  26.708  27.984  1.00  0.00     0.031 C 
ATOM     37  C   UNL A   1      40.153  31.341  29.899  1.00  0.00     0.029 A 
ATOM     38  N   UNL A   1      41.996  30.078  29.815  1.00  0.00    -0.354 N 
ATOM     39  C   UNL A   1      41.855  26.025  28.310  1.00  0.00     0.074 A 
ATOM     40  C   UNL A   1      40.513  25.668  27.902  1.00  0.00     0.031 C 
ATOM     41  C   UNL A   1      41.161  32.066  30.410  1.00  0.00     0.029 A 
ATOM     42  C   UNL A   1      42.384  31.270  30.380  1.00  0.00     0.049 A 
ATOM     43  H   UNL A   1      42.615  29.328  29.663  1.00  0.00     0.167 HD
ATOM     44  C   UNL A   1      42.924  25.196  28.230  1.00  0.00     0.037 A 
ATOM     45  C   UNL A   1      43.589  31.677  30.821  1.00  0.00     0.037 A 
ATOM     46  C   UNL A   1      44.263  25.566  28.609  1.00  0.00     0.049 A 
ATOM     47  C   UNL A   1      44.768  30.751  30.688  1.00  0.00     0.074 A 
ATOM     48  C   UNL A   1      45.424  24.817  28.520  1.00  0.00     0.029 A 
ATOM     49  N   UNL A   1      44.622  26.795  29.144  1.00  0.00    -0.354 N 
ATOM     50  N   UNL A   1      44.806  29.526  30.219  1.00  0.00    -0.248 NA
ATOM     51  C   UNL A   1      46.070  31.268  31.130  1.00  0.00     0.031 C 
ATOM     52  C   UNL A   1      46.480  25.583  29.029  1.00  0.00     0.029 A 
ATOM     53  C   UNL A   1      45.984  26.823  29.397  1.00  0.00     0.049 A 
ATOM     54  H   UNL A   1      44.000  27.538  29.318  1.00  0.00     0.167 HD
ATOM     55  C   UNL A   1      46.137  29.135  30.287  1.00  0.00     0.074 A 
ATOM     56  C   UNL A   1      46.875  30.260  30.828  1.00  0.00     0.031 C 
ATOM     57  C   UNL A   1      46.700  27.953  29.934  1.00  0.00     0.037 A 
BRANCH  44  58
ATOM     58  C   UNL A   1      42.686  23.805  27.707  1.00  0.00     0.058 A 
ATOM     59  C   UNL A   1      42.470  22.719  28.573  1.00  0.00     0.135 A 
ATOM     60  C   UNL A   1      42.652  23.554  26.326  1.00  0.00     0.135 A 
ATOM     61  F   UNL A   1      42.507  22.898  29.903  1.00  0.00    -0.206 F 
ATOM     62  C   UNL A   1      42.261  21.432  28.089  1.00  0.00     0.059 A 
ATOM     63  C   UNL A   1      42.418  22.279  25.819  1.00  0.00     0.059 A 
ATOM     64  F   UNL A   1      42.851  24.554  25.453  1.00  0.00    -0.206 F 
ATOM     65  C   UNL A   1      42.241  21.220  26.710  1.00  0.00     0.060 A 
BRANCH  65  66
ATOM     66  S   UNL A   1      41.973  19.543  26.096  1.00  0.00     0.124 S 
ATOM     67  O   UNL A   1      42.894  19.497  24.966  1.00  0.00    -0.237 OA
ATOM     68  O   UNL A   1      42.341  18.725  27.248  1.00  0.00    -0.237 OA
ATOM     69  O   UNL A   1      40.554  19.531  25.752  1.00  0.00    -0.744 OA
ENDBRANCH  65  66
ENDBRANCH  44  58
BRANCH  45  70
ATOM     70  C   UNL A   1      43.748  33.040  31.391  1.00  0.00     0.058 A 
ATOM     71  C   UNL A   1      43.895  34.157  30.555  1.00  0.00     0.135 A 
ATOM     72  C   UNL A   1      43.737  33.255  32.777  1.00  0.00     0.135 A 
ATOM     73  F   UNL A   1      43.916  33.999  29.223  1.00  0.00    -0.206 F 
ATOM     74  C   UNL A   1      44.041  35.440  31.073  1.00  0.00     0.059 A 
ATOM     75  C   UNL A   1      43.858  34.532  33.318  1.00  0.00     0.059 A 
ATOM     76  F   UNL A   1      43.580  32.221  33.618  1.00  0.00    -0.206 F 
ATOM     77  C   UNL A   1      44.020  35.616  32.458  1.00  0.00     0.060 A 
BRANCH  77  78
ATOM     78  S   UNL A   1      44.155  37.291  33.121  1.00  0.00     0.124 S 
ATOM     79  O   UNL A   1      42.992  37.354  33.999  1.00  0.00    -0.237 OA
ATOM     80  O   UNL A   1      45.456  37.258  33.782  1.00  0.00    -0.237 OA
ATOM     81  O   UNL A   1      44.092  38.129  31.926  1.00  0.00    -0.744 OA
ENDBRANCH  77  78
ENDBRANCH  45  70
BRANCH  57  82
ATOM     82  C   UNL A   1      48.190  27.832  30.093  1.00  0.00     0.058 A 
ATOM     83  C   UNL A   1      48.768  27.332  31.270  1.00  0.00     0.135 A 
ATOM     84  C   UNL A   1      49.049  28.209  29.048  1.00  0.00     0.135 A 
ATOM     85  F   UNL A   1      47.991  26.962  32.300  1.00  0.00    -0.206 F 
ATOM     86  C   UNL A   1      50.148  27.245  31.422  1.00  0.00     0.059 A 
ATOM     87  C   UNL A   1      50.431  28.107  29.167  1.00  0.00     0.059 A 
ATOM     88  F   UNL A   1      48.546  28.683  27.897  1.00  0.00    -0.206 F 
ATOM     89  C   UNL A   1      50.972  27.642  30.366  1.00  0.00     0.060 A 
BRANCH  89  90
ATOM     90  S   UNL A   1      52.761  27.526  30.569  1.00  0.00     0.124 S 
ATOM     91  O   UNL A   1      52.885  27.429  32.020  1.00  0.00    -0.237 OA
ATOM     92  O   UNL A   1      53.087  26.314  29.823  1.00  0.00    -0.237 OA
ATOM     93  O   UNL A   1      53.250  28.768  29.979  1.00  0.00    -0.744 OA
ENDBRANCH  89  90
ENDBRANCH  57  82
ENDBRANCH  31  32
ENDBRANCH   2  26
TORSDOF 13
ENDMDL
