MODEL 1
REMARK VINA RESULT:     -12.5      0.000      0.000
REMARK SMILES C[C@H](NC(=O)N1CC[C@@H](C(=O)NCCCNC(=O)c2ccc(-c3c4nc(c(-c5c(F)cc(S(=O)(=O)[O-])cc5F)c5ccc([nH]5)c(-c5c(F)cc(S(=O)(=O)[O-])cc5F)c5nc(c(-c6c(F)cc(S(=O)(=O)[O-])cc6F)c6ccc3[nH]6)C=C5)C=C4)cc2)[C@H]1C)c1ccc(Cl)cc1
REMARK SMILES IDX 14 1 13 2 12 3 10 4 11 5 9 7 6 8 7 9 85 10 8 11 86 12 4 13
REMARK SMILES IDX 3 14 5 16 2 17 1 18 87 19 88 20 93 21 89 22 92 23 90 24
REMARK SMILES IDX 91 25 15 26 16 27 17 28 18 30 19 31 20 32 84 33 21 34 83 35
REMARK SMILES IDX 22 36 23 37 24 38 77 39 25 40 82 41 76 42 78 43 26 44 81 45
REMARK SMILES IDX 75 46 74 47 27 49 61 50 40 51 60 52 41 53 44 54 59 55 79 56
REMARK SMILES IDX 42 57 43 58 58 60 80 61 45 62 28 63 29 64 38 65 30 66 31 67
REMARK SMILES IDX 37 68 39 69 32 70 33 71 34 72 35 73 36 74 62 75 63 76 72 77
REMARK SMILES IDX 64 78 65 79 71 80 73 81 66 82 67 83 68 84 69 85 70 86 46 87
REMARK SMILES IDX 47 88 56 89 48 90 49 91 55 92 57 93 50 94 51 95 52 96 53 97
REMARK SMILES IDX 54 98
REMARK H PARENT 12 6 3 15 16 29 78 48 44 59
REMARK Flexibility Score: inf
ROOT
ATOM      1  C   UNL A   1      38.521  23.499  26.395  1.00  0.00     0.042 C 
ENDROOT
BRANCH   1   2
ATOM      2  C   UNL A   1      37.998  22.208  25.750  1.00  0.00     0.117 C 
BRANCH   2   3
ATOM      3  N   UNL A   1      37.363  22.405  24.447  1.00  0.00    -0.356 N 
ATOM      4  C   UNL A   1      36.085  22.571  24.013  1.00  0.00     0.225 C 
ATOM      5  O   UNL A   1      35.962  22.753  22.793  1.00  0.00    -0.275 OA
ATOM      6  H   UNL A   1      38.015  22.422  23.711  1.00  0.00     0.163 HD
BRANCH   4   7
ATOM      7  C   UNL A   1      34.816  22.526  24.870  1.00  0.00     0.102 C 
ATOM      8  N   UNL A   1      32.883  23.694  25.683  1.00  0.00    -0.321 N 
ATOM      9  C   UNL A   1      32.475  22.394  25.162  1.00  0.00     0.122 C 
ATOM     10  C   UNL A   1      34.354  23.817  25.601  1.00  0.00     0.096 C 
ATOM     11  C   UNL A   1      33.567  21.965  24.207  1.00  0.00     0.037 C 
ATOM     12  C   UNL A   1      34.837  25.050  24.898  1.00  0.00     0.032 C 
BRANCH   8  13
ATOM     13  C   UNL A   1      32.028  24.256  26.580  1.00  0.00     0.318 C 
ATOM     14  N   UNL A   1      31.599  25.520  26.556  1.00  0.00    -0.331 N 
ATOM     15  H   UNL A   1      31.138  25.713  27.405  1.00  0.00     0.165 HD
ATOM     16  O   UNL A   1      31.494  23.560  27.453  1.00  0.00    -0.249 OA
BRANCH  14  17
ATOM     17  C   UNL A   1      31.563  26.728  25.723  1.00  0.00     0.111 C 
ATOM     18  C   UNL A   1      30.243  26.946  24.972  1.00  0.00     0.036 C 
BRANCH  17  19
ATOM     19  C   UNL A   1      32.308  27.963  26.224  1.00  0.00    -0.026 A 
ATOM     20  C   UNL A   1      31.726  29.229  26.368  1.00  0.00     0.007 A 
ATOM     21  C   UNL A   1      33.656  27.826  26.618  1.00  0.00     0.007 A 
ATOM     22  C   UNL A   1      32.455  30.319  26.858  1.00  0.00     0.021 A 
ATOM     23  C   UNL A   1      34.380  28.905  27.142  1.00  0.00     0.021 A 
ATOM     24  C   UNL A   1      33.776  30.151  27.254  1.00  0.00     0.041 A 
ATOM     25  Cl  UNL A   1      34.650  31.484  27.899  1.00  0.00    -0.084 Cl
ENDBRANCH  17  19
ENDBRANCH  14  17
ENDBRANCH   8  13
ENDBRANCH   4   7
ENDBRANCH   2   3
ENDBRANCH   1   2
BRANCH   1  26
ATOM     26  C   UNL A   1      39.942  23.440  26.925  1.00  0.00     0.118 C 
BRANCH  26  27
ATOM     27  N   UNL A   1      40.881  24.071  26.017  1.00  0.00    -0.352 N 
ATOM     28  C   UNL A   1      41.407  25.342  26.012  1.00  0.00     0.251 C 
ATOM     29  H   UNL A   1      41.193  23.494  25.284  1.00  0.00     0.163 HD
ATOM     30  O   UNL A   1      41.957  25.733  24.984  1.00  0.00    -0.269 OA
BRANCH  28  31
ATOM     31  C   UNL A   1      41.330  26.248  27.191  1.00  0.00     0.039 A 
ATOM     32  C   UNL A   1      40.372  25.980  28.177  1.00  0.00     0.014 A 
ATOM     33  C   UNL A   1      42.094  27.414  27.296  1.00  0.00     0.014 A 
ATOM     34  C   UNL A   1      40.200  26.852  29.259  1.00  0.00     0.010 A 
ATOM     35  C   UNL A   1      41.987  28.236  28.422  1.00  0.00     0.010 A 
ATOM     36  C   UNL A   1      41.016  27.985  29.403  1.00  0.00    -0.014 A 
BRANCH  36  37
ATOM     37  C   UNL A   1      40.834  28.940  30.533  1.00  0.00     0.031 A 
ATOM     38  C   UNL A   1      41.709  28.840  31.760  1.00  0.00     0.074 A 
ATOM     39  C   UNL A   1      39.861  29.871  30.484  1.00  0.00     0.049 A 
ATOM     40  N   UNL A   1      41.658  29.528  32.873  1.00  0.00    -0.248 NA
ATOM     41  C   UNL A   1      42.763  27.813  31.744  1.00  0.00     0.031 C 
ATOM     42  C   UNL A   1      38.921  30.054  29.375  1.00  0.00     0.029 A 
ATOM     43  N   UNL A   1      39.494  30.834  31.391  1.00  0.00    -0.354 N 
ATOM     44  C   UNL A   1      42.653  29.004  33.694  1.00  0.00     0.074 A 
ATOM     45  C   UNL A   1      43.258  27.908  32.969  1.00  0.00     0.031 C 
ATOM     46  C   UNL A   1      38.102  31.080  29.659  1.00  0.00     0.029 A 
ATOM     47  C   UNL A   1      38.429  31.603  30.983  1.00  0.00     0.049 A 
ATOM     48  H   UNL A   1      39.950  30.962  32.254  1.00  0.00     0.167 HD
ATOM     49  C   UNL A   1      43.045  29.411  34.926  1.00  0.00     0.037 A 
ATOM     50  C   UNL A   1      37.784  32.612  31.603  1.00  0.00     0.037 A 
ATOM     51  C   UNL A   1      42.470  30.528  35.628  1.00  0.00     0.049 A 
ATOM     52  C   UNL A   1      38.244  33.056  32.965  1.00  0.00     0.074 A 
ATOM     53  C   UNL A   1      42.838  31.055  36.855  1.00  0.00     0.029 A 
ATOM     54  N   UNL A   1      41.411  31.296  35.166  1.00  0.00    -0.354 N 
ATOM     55  N   UNL A   1      39.217  32.577  33.702  1.00  0.00    -0.248 NA
ATOM     56  C   UNL A   1      37.523  34.180  33.578  1.00  0.00     0.031 C 
ATOM     57  C   UNL A   1      41.978  32.117  37.151  1.00  0.00     0.029 A 
ATOM     58  C   UNL A   1      41.102  32.281  36.089  1.00  0.00     0.049 A 
ATOM     59  H   UNL A   1      40.948  31.159  34.308  1.00  0.00     0.167 HD
ATOM     60  C   UNL A   1      39.243  33.358  34.853  1.00  0.00     0.074 A 
ATOM     61  C   UNL A   1      38.194  34.347  34.710  1.00  0.00     0.031 C 
ATOM     62  C   UNL A   1      40.061  33.266  35.930  1.00  0.00     0.037 A 
BRANCH  49  63
ATOM     63  C   UNL A   1      44.157  28.645  35.594  1.00  0.00     0.058 A 
ATOM     64  C   UNL A   1      45.507  28.956  35.365  1.00  0.00     0.135 A 
ATOM     65  C   UNL A   1      43.870  27.613  36.501  1.00  0.00     0.135 A 
ATOM     66  F   UNL A   1      45.840  29.927  34.498  1.00  0.00    -0.206 F 
ATOM     67  C   UNL A   1      46.532  28.249  35.985  1.00  0.00     0.059 A 
ATOM     68  C   UNL A   1      44.880  26.909  37.154  1.00  0.00     0.059 A 
ATOM     69  F   UNL A   1      42.597  27.275  36.760  1.00  0.00    -0.206 F 
ATOM     70  C   UNL A   1      46.209  27.225  36.875  1.00  0.00     0.060 A 
BRANCH  70  71
ATOM     71  S   UNL A   1      47.549  26.313  37.670  1.00  0.00     0.124 S 
ATOM     72  O   UNL A   1      48.322  27.399  38.270  1.00  0.00    -0.237 OA
ATOM     73  O   UNL A   1      46.829  25.458  38.612  1.00  0.00    -0.237 OA
ATOM     74  O   UNL A   1      48.193  25.619  36.565  1.00  0.00    -0.744 OA
ENDBRANCH  70  71
ENDBRANCH  49  63
BRANCH  50  75
ATOM     75  C   UNL A   1      36.643  33.286  30.929  1.00  0.00     0.058 A 
ATOM     76  C   UNL A   1      35.324  33.076  31.358  1.00  0.00     0.135 A 
ATOM     77  C   UNL A   1      36.848  34.168  29.856  1.00  0.00     0.135 A 
ATOM     78  F   UNL A   1      35.076  32.237  32.375  1.00  0.00    -0.206 F 
ATOM     79  C   UNL A   1      34.247  33.704  30.741  1.00  0.00     0.059 A 
ATOM     80  C   UNL A   1      35.789  34.826  29.238  1.00  0.00     0.059 A 
ATOM     81  F   UNL A   1      38.092  34.417  29.418  1.00  0.00    -0.206 F 
ATOM     82  C   UNL A   1      34.491  34.581  29.683  1.00  0.00     0.060 A 
BRANCH  82  83
ATOM     83  S   UNL A   1      33.095  35.440  28.925  1.00  0.00     0.124 S 
ATOM     84  O   UNL A   1      32.353  35.885  30.099  1.00  0.00    -0.237 OA
ATOM     85  O   UNL A   1      33.758  36.486  28.153  1.00  0.00    -0.237 OA
ATOM     86  O   UNL A   1      32.454  34.397  28.129  1.00  0.00    -0.744 OA
ENDBRANCH  82  83
ENDBRANCH  50  75
BRANCH  62  87
ATOM     87  C   UNL A   1      39.884  34.278  37.026  1.00  0.00     0.058 A 
ATOM     88  C   UNL A   1      40.442  35.563  36.940  1.00  0.00     0.135 A 
ATOM     89  C   UNL A   1      39.100  33.977  38.152  1.00  0.00     0.135 A 
ATOM     90  F   UNL A   1      41.204  35.900  35.888  1.00  0.00    -0.206 F 
ATOM     91  C   UNL A   1      40.246  36.509  37.943  1.00  0.00     0.059 A 
ATOM     92  C   UNL A   1      38.870  34.914  39.154  1.00  0.00     0.059 A 
ATOM     93  F   UNL A   1      38.535  32.766  38.277  1.00  0.00    -0.206 F 
ATOM     94  C   UNL A   1      39.457  36.175  39.045  1.00  0.00     0.060 A 
BRANCH  94  95
ATOM     95  S   UNL A   1      39.181  37.421  40.322  1.00  0.00     0.124 S 
ATOM     96  O   UNL A   1      40.535  37.909  40.555  1.00  0.00    -0.237 OA
ATOM     97  O   UNL A   1      38.275  38.354  39.658  1.00  0.00    -0.237 OA
ATOM     98  O   UNL A   1      38.590  36.659  41.418  1.00  0.00    -0.744 OA
ENDBRANCH  94  95
ENDBRANCH  62  87
ENDBRANCH  36  37
ENDBRANCH  28  31
ENDBRANCH  26  27
ENDBRANCH   1  26
TORSDOF 16
ENDMDL
MODEL 2
REMARK VINA RESULT:     -12.3      0.565      8.171
REMARK SMILES C[C@H](NC(=O)N1CC[C@@H](C(=O)NCCCNC(=O)c2ccc(-c3c4nc(c(-c5c(F)cc(S(=O)(=O)[O-])cc5F)c5ccc([nH]5)c(-c5c(F)cc(S(=O)(=O)[O-])cc5F)c5nc(c(-c6c(F)cc(S(=O)(=O)[O-])cc6F)c6ccc3[nH]6)C=C5)C=C4)cc2)[C@H]1C)c1ccc(Cl)cc1
REMARK SMILES IDX 14 1 13 2 12 3 10 4 11 5 9 7 6 8 7 9 85 10 8 11 86 12 4 13
REMARK SMILES IDX 3 14 5 16 2 17 1 18 87 19 88 20 93 21 89 22 92 23 90 24
REMARK SMILES IDX 91 25 15 26 16 27 17 28 18 30 19 31 20 32 84 33 21 34 83 35
REMARK SMILES IDX 22 36 23 37 24 38 77 39 25 40 82 41 76 42 78 43 26 44 81 45
REMARK SMILES IDX 75 46 74 47 27 49 61 50 40 51 60 52 41 53 44 54 59 55 79 56
REMARK SMILES IDX 42 57 43 58 58 60 80 61 45 62 28 63 29 64 38 65 30 66 31 67
REMARK SMILES IDX 37 68 39 69 32 70 33 71 34 72 35 73 36 74 62 75 63 76 72 77
REMARK SMILES IDX 64 78 65 79 71 80 73 81 66 82 67 83 68 84 69 85 70 86 46 87
REMARK SMILES IDX 47 88 56 89 48 90 49 91 55 92 57 93 50 94 51 95 52 96 53 97
REMARK SMILES IDX 54 98
REMARK H PARENT 12 6 3 15 16 29 78 48 44 59
REMARK Flexibility Score: inf
ROOT
ATOM      1  C   UNL A   1      38.375  23.274  26.499  1.00  0.00     0.042 C 
ENDROOT
BRANCH   1   2
ATOM      2  C   UNL A   1      38.010  22.023  25.689  1.00  0.00     0.117 C 
BRANCH   2   3
ATOM      3  N   UNL A   1      37.393  22.309  24.394  1.00  0.00    -0.356 N 
ATOM      4  C   UNL A   1      36.124  22.536  23.959  1.00  0.00     0.225 C 
ATOM      5  O   UNL A   1      36.018  22.786  22.750  1.00  0.00    -0.275 OA
ATOM      6  H   UNL A   1      38.052  22.346  23.665  1.00  0.00     0.163 HD
BRANCH   4   7
ATOM      7  C   UNL A   1      34.847  22.484  24.803  1.00  0.00     0.102 C 
ATOM      8  N   UNL A   1      32.961  23.673  25.692  1.00  0.00    -0.321 N 
ATOM      9  C   UNL A   1      32.500  22.437  25.070  1.00  0.00     0.122 C 
ATOM     10  C   UNL A   1      34.437  23.734  25.629  1.00  0.00     0.096 C 
ATOM     11  C   UNL A   1      33.580  22.033  24.091  1.00  0.00     0.037 C 
ATOM     12  C   UNL A   1      34.982  24.994  25.026  1.00  0.00     0.032 C 
BRANCH   8  13
ATOM     13  C   UNL A   1      32.124  24.203  26.625  1.00  0.00     0.318 C 
ATOM     14  N   UNL A   1      31.701  25.469  26.658  1.00  0.00    -0.331 N 
ATOM     15  H   UNL A   1      31.256  25.630  27.521  1.00  0.00     0.165 HD
ATOM     16  O   UNL A   1      31.601  23.475  27.479  1.00  0.00    -0.249 OA
BRANCH  14  17
ATOM     17  C   UNL A   1      31.658  26.709  25.875  1.00  0.00     0.111 C 
ATOM     18  C   UNL A   1      30.317  26.977  25.177  1.00  0.00     0.036 C 
BRANCH  17  19
ATOM     19  C   UNL A   1      32.440  27.911  26.396  1.00  0.00    -0.026 A 
ATOM     20  C   UNL A   1      33.830  27.933  26.567  1.00  0.00     0.007 A 
ATOM     21  C   UNL A   1      31.740  29.103  26.682  1.00  0.00     0.007 A 
ATOM     22  C   UNL A   1      34.496  29.076  27.025  1.00  0.00     0.021 A 
ATOM     23  C   UNL A   1      32.404  30.261  27.107  1.00  0.00     0.021 A 
ATOM     24  C   UNL A   1      33.782  30.239  27.283  1.00  0.00     0.041 A 
ATOM     25  Cl  UNL A   1      34.612  31.653  27.800  1.00  0.00    -0.084 Cl
ENDBRANCH  17  19
ENDBRANCH  14  17
ENDBRANCH   8  13
ENDBRANCH   4   7
ENDBRANCH   2   3
ENDBRANCH   1   2
BRANCH   1  26
ATOM     26  C   UNL A   1      39.805  23.334  27.009  1.00  0.00     0.118 C 
BRANCH  26  27
ATOM     27  N   UNL A   1      40.666  24.074  26.107  1.00  0.00    -0.352 N 
ATOM     28  C   UNL A   1      41.019  25.403  26.093  1.00  0.00     0.251 C 
ATOM     29  H   UNL A   1      41.064  23.535  25.385  1.00  0.00     0.163 HD
ATOM     30  O   UNL A   1      41.529  25.852  25.068  1.00  0.00    -0.269 OA
BRANCH  28  31
ATOM     31  C   UNL A   1      40.803  26.304  27.258  1.00  0.00     0.039 A 
ATOM     32  C   UNL A   1      41.620  27.434  27.388  1.00  0.00     0.014 A 
ATOM     33  C   UNL A   1      39.899  26.008  28.282  1.00  0.00     0.014 A 
ATOM     34  C   UNL A   1      41.517  28.264  28.512  1.00  0.00     0.010 A 
ATOM     35  C   UNL A   1      39.731  26.884  29.359  1.00  0.00     0.010 A 
ATOM     36  C   UNL A   1      40.559  28.007  29.505  1.00  0.00    -0.014 A 
BRANCH  36  37
ATOM     37  C   UNL A   1      40.449  28.862  30.721  1.00  0.00     0.031 A 
ATOM     38  C   UNL A   1      39.412  29.958  30.787  1.00  0.00     0.074 A 
ATOM     39  C   UNL A   1      41.299  28.688  31.753  1.00  0.00     0.049 A 
ATOM     40  N   UNL A   1      39.207  30.851  31.723  1.00  0.00    -0.248 NA
ATOM     41  C   UNL A   1      38.504  30.086  29.635  1.00  0.00     0.031 C 
ATOM     42  C   UNL A   1      42.370  27.690  31.806  1.00  0.00     0.029 A 
ATOM     43  N   UNL A   1      41.403  29.349  32.951  1.00  0.00    -0.354 N 
ATOM     44  C   UNL A   1      38.168  31.655  31.265  1.00  0.00     0.074 A 
ATOM     45  C   UNL A   1      37.818  31.175  29.946  1.00  0.00     0.031 C 
ATOM     46  C   UNL A   1      43.007  27.792  32.985  1.00  0.00     0.029 A 
ATOM     47  C   UNL A   1      42.419  28.884  33.755  1.00  0.00     0.049 A 
ATOM     48  H   UNL A   1      40.807  30.088  33.212  1.00  0.00     0.167 HD
ATOM     49  C   UNL A   1      37.543  32.682  31.892  1.00  0.00     0.037 A 
ATOM     50  C   UNL A   1      42.834  29.292  34.970  1.00  0.00     0.037 A 
ATOM     51  C   UNL A   1      37.864  33.132  33.221  1.00  0.00     0.049 A 
ATOM     52  C   UNL A   1      42.119  30.426  35.654  1.00  0.00     0.074 A 
ATOM     53  C   UNL A   1      37.250  34.125  33.966  1.00  0.00     0.029 A 
ATOM     54  N   UNL A   1      38.882  32.615  34.009  1.00  0.00    -0.354 N 
ATOM     55  N   UNL A   1      41.107  31.141  35.222  1.00  0.00    -0.248 NA
ATOM     56  C   UNL A   1      42.596  30.805  36.991  1.00  0.00     0.031 C 
ATOM     57  C   UNL A   1      37.921  34.235  35.188  1.00  0.00     0.029 A 
ATOM     58  C   UNL A   1      38.924  33.279  35.224  1.00  0.00     0.049 A 
ATOM     59  H   UNL A   1      39.486  31.885  33.743  1.00  0.00     0.167 HD
ATOM     60  C   UNL A   1      40.811  32.036  36.246  1.00  0.00     0.074 A 
ATOM     61  C   UNL A   1      41.743  31.766  37.321  1.00  0.00     0.031 C 
ATOM     62  C   UNL A   1      39.852  32.993  36.290  1.00  0.00     0.037 A 
BRANCH  49  63
ATOM     63  C   UNL A   1      36.441  33.389  31.148  1.00  0.00     0.058 A 
ATOM     64  C   UNL A   1      36.708  34.219  30.047  1.00  0.00     0.135 A 
ATOM     65  C   UNL A   1      35.098  33.207  31.517  1.00  0.00     0.135 A 
ATOM     66  F   UNL A   1      37.974  34.437  29.657  1.00  0.00    -0.206 F 
ATOM     67  C   UNL A   1      35.688  34.869  29.361  1.00  0.00     0.059 A 
ATOM     68  C   UNL A   1      34.058  33.827  30.827  1.00  0.00     0.059 A 
ATOM     69  F   UNL A   1      34.784  32.422  32.560  1.00  0.00    -0.206 F 
ATOM     70  C   UNL A   1      34.366  34.669  29.760  1.00  0.00     0.060 A 
BRANCH  70  71
ATOM     71  S   UNL A   1      33.052  35.522  28.863  1.00  0.00     0.124 S 
ATOM     72  O   UNL A   1      32.450  34.420  28.114  1.00  0.00    -0.237 OA
ATOM     73  O   UNL A   1      32.236  36.067  29.946  1.00  0.00    -0.237 OA
ATOM     74  O   UNL A   1      33.767  36.507  28.064  1.00  0.00    -0.744 OA
ENDBRANCH  70  71
ENDBRANCH  49  63
BRANCH  50  75
ATOM     75  C   UNL A   1      43.977  28.606  35.631  1.00  0.00     0.058 A 
ATOM     76  C   UNL A   1      43.765  27.535  36.511  1.00  0.00     0.135 A 
ATOM     77  C   UNL A   1      45.303  28.995  35.382  1.00  0.00     0.135 A 
ATOM     78  F   UNL A   1      42.516  27.131  36.786  1.00  0.00    -0.206 F 
ATOM     79  C   UNL A   1      44.824  26.879  37.131  1.00  0.00     0.059 A 
ATOM     80  C   UNL A   1      46.379  28.340  35.972  1.00  0.00     0.059 A 
ATOM     81  F   UNL A   1      45.560  30.004  34.534  1.00  0.00    -0.206 F 
ATOM     82  C   UNL A   1      46.129  27.289  36.852  1.00  0.00     0.060 A 
BRANCH  82  83
ATOM     83  S   UNL A   1      47.502  26.396  37.613  1.00  0.00     0.124 S 
ATOM     84  O   UNL A   1      48.647  26.964  36.911  1.00  0.00    -0.237 OA
ATOM     85  O   UNL A   1      47.367  26.764  39.019  1.00  0.00    -0.237 OA
ATOM     86  O   UNL A   1      47.201  25.000  37.309  1.00  0.00    -0.744 OA
ENDBRANCH  82  83
ENDBRANCH  50  75
BRANCH  62  87
ATOM     87  C   UNL A   1      39.735  33.800  37.553  1.00  0.00     0.058 A 
ATOM     88  C   UNL A   1      40.391  35.031  37.706  1.00  0.00     0.135 A 
ATOM     89  C   UNL A   1      38.911  33.360  38.603  1.00  0.00     0.135 A 
ATOM     90  F   UNL A   1      41.195  35.493  36.735  1.00  0.00    -0.206 F 
ATOM     91  C   UNL A   1      40.251  35.790  38.864  1.00  0.00     0.059 A 
ATOM     92  C   UNL A   1      38.736  34.114  39.758  1.00  0.00     0.059 A 
ATOM     93  F   UNL A   1      38.252  32.195  38.502  1.00  0.00    -0.206 F 
ATOM     94  C   UNL A   1      39.420  35.323  39.884  1.00  0.00     0.060 A 
BRANCH  94  95
ATOM     95  S   UNL A   1      39.218  36.333  41.368  1.00  0.00     0.124 S 
ATOM     96  O   UNL A   1      39.051  37.665  40.796  1.00  0.00    -0.237 OA
ATOM     97  O   UNL A   1      38.028  35.752  41.982  1.00  0.00    -0.237 OA
ATOM     98  O   UNL A   1      40.462  36.114  42.099  1.00  0.00    -0.744 OA
ENDBRANCH  94  95
ENDBRANCH  62  87
ENDBRANCH  36  37
ENDBRANCH  28  31
ENDBRANCH  26  27
ENDBRANCH   1  26
TORSDOF 16
ENDMDL
MODEL 3
REMARK VINA RESULT:     -12.3      6.532     12.190
REMARK SMILES C[C@H](NC(=O)N1CC[C@@H](C(=O)NCCCNC(=O)c2ccc(-c3c4nc(c(-c5c(F)cc(S(=O)(=O)[O-])cc5F)c5ccc([nH]5)c(-c5c(F)cc(S(=O)(=O)[O-])cc5F)c5nc(c(-c6c(F)cc(S(=O)(=O)[O-])cc6F)c6ccc3[nH]6)C=C5)C=C4)cc2)[C@H]1C)c1ccc(Cl)cc1
REMARK SMILES IDX 14 1 13 2 12 3 10 4 11 5 9 7 6 8 7 9 85 10 8 11 86 12 4 13
REMARK SMILES IDX 3 14 5 16 2 17 1 18 87 19 88 20 93 21 89 22 92 23 90 24
REMARK SMILES IDX 91 25 15 26 16 27 17 28 18 30 19 31 20 32 84 33 21 34 83 35
REMARK SMILES IDX 22 36 23 37 24 38 77 39 25 40 82 41 76 42 78 43 26 44 81 45
REMARK SMILES IDX 75 46 74 47 27 49 61 50 40 51 60 52 41 53 44 54 59 55 79 56
REMARK SMILES IDX 42 57 43 58 58 60 80 61 45 62 28 63 29 64 38 65 30 66 31 67
REMARK SMILES IDX 37 68 39 69 32 70 33 71 34 72 35 73 36 74 62 75 63 76 72 77
REMARK SMILES IDX 64 78 65 79 71 80 73 81 66 82 67 83 68 84 69 85 70 86 46 87
REMARK SMILES IDX 47 88 56 89 48 90 49 91 55 92 57 93 50 94 51 95 52 96 53 97
REMARK SMILES IDX 54 98
REMARK H PARENT 12 6 3 15 16 29 78 48 44 59
REMARK Flexibility Score: inf
ROOT
ATOM      1  C   UNL A   1      34.676  32.027  27.939  1.00  0.00     0.042 C 
ENDROOT
BRANCH   1   2
ATOM      2  C   UNL A   1      34.531  30.638  27.302  1.00  0.00     0.117 C 
BRANCH   2   3
ATOM      3  N   UNL A   1      33.253  29.983  27.581  1.00  0.00    -0.356 N 
ATOM      4  C   UNL A   1      32.392  29.207  26.869  1.00  0.00     0.225 C 
ATOM      5  O   UNL A   1      31.403  28.804  27.498  1.00  0.00    -0.275 OA
ATOM      6  H   UNL A   1      32.943  30.143  28.501  1.00  0.00     0.163 HD
BRANCH   4   7
ATOM      7  C   UNL A   1      32.519  28.819  25.393  1.00  0.00     0.102 C 
ATOM      8  N   UNL A   1      32.929  27.083  23.787  1.00  0.00    -0.321 N 
ATOM      9  C   UNL A   1      31.731  27.820  23.402  1.00  0.00     0.122 C 
ATOM     10  C   UNL A   1      33.523  27.703  24.990  1.00  0.00     0.096 C 
ATOM     11  C   UNL A   1      31.226  28.486  24.664  1.00  0.00     0.037 C 
ATOM     12  C   UNL A   1      33.771  26.752  26.123  1.00  0.00     0.032 C 
BRANCH   8  13
ATOM     13  C   UNL A   1      33.549  26.412  22.778  1.00  0.00     0.318 C 
ATOM     14  N   UNL A   1      34.024  25.167  22.851  1.00  0.00    -0.331 N 
ATOM     15  H   UNL A   1      34.573  24.992  22.052  1.00  0.00     0.165 HD
ATOM     16  O   UNL A   1      33.617  26.912  21.647  1.00  0.00    -0.249 OA
BRANCH  14  17
ATOM     17  C   UNL A   1      34.026  23.962  23.689  1.00  0.00     0.111 C 
ATOM     18  C   UNL A   1      33.060  22.863  23.228  1.00  0.00     0.036 C 
BRANCH  17  19
ATOM     19  C   UNL A   1      35.349  23.529  24.315  1.00  0.00    -0.026 A 
ATOM     20  C   UNL A   1      35.880  24.075  25.491  1.00  0.00     0.007 A 
ATOM     21  C   UNL A   1      36.072  22.478  23.710  1.00  0.00     0.007 A 
ATOM     22  C   UNL A   1      37.087  23.617  26.032  1.00  0.00     0.021 A 
ATOM     23  C   UNL A   1      37.262  21.992  24.266  1.00  0.00     0.021 A 
ATOM     24  C   UNL A   1      37.769  22.570  25.424  1.00  0.00     0.041 A 
ATOM     25  Cl  UNL A   1      39.227  21.982  26.119  1.00  0.00    -0.084 Cl
ENDBRANCH  17  19
ENDBRANCH  14  17
ENDBRANCH   8  13
ENDBRANCH   4   7
ENDBRANCH   2   3
ENDBRANCH   1   2
BRANCH   1  26
ATOM     26  C   UNL A   1      35.887  32.217  28.835  1.00  0.00     0.118 C 
BRANCH  26  27
ATOM     27  N   UNL A   1      35.713  31.564  30.119  1.00  0.00    -0.352 N 
ATOM     28  C   UNL A   1      36.389  30.510  30.688  1.00  0.00     0.251 C 
ATOM     29  H   UNL A   1      34.992  31.939  30.675  1.00  0.00     0.163 HD
ATOM     30  O   UNL A   1      35.875  29.954  31.657  1.00  0.00    -0.269 OA
BRANCH  28  31
ATOM     31  C   UNL A   1      37.699  30.025  30.174  1.00  0.00     0.039 A 
ATOM     32  C   UNL A   1      38.672  29.625  31.100  1.00  0.00     0.014 A 
ATOM     33  C   UNL A   1      38.036  30.058  28.818  1.00  0.00     0.014 A 
ATOM     34  C   UNL A   1      39.950  29.246  30.672  1.00  0.00     0.010 A 
ATOM     35  C   UNL A   1      39.281  29.592  28.383  1.00  0.00     0.010 A 
ATOM     36  C   UNL A   1      40.266  29.210  29.305  1.00  0.00    -0.014 A 
BRANCH  36  37
ATOM     37  C   UNL A   1      41.627  28.833  28.828  1.00  0.00     0.031 A 
ATOM     38  C   UNL A   1      42.716  29.876  28.737  1.00  0.00     0.074 A 
ATOM     39  C   UNL A   1      41.883  27.569  28.437  1.00  0.00     0.049 A 
ATOM     40  N   UNL A   1      43.938  29.762  28.280  1.00  0.00    -0.248 NA
ATOM     41  C   UNL A   1      42.376  31.234  29.194  1.00  0.00     0.031 C 
ATOM     42  C   UNL A   1      40.914  26.470  28.440  1.00  0.00     0.029 A 
ATOM     43  N   UNL A   1      43.033  26.994  27.954  1.00  0.00    -0.354 N 
ATOM     44  C   UNL A   1      44.502  31.031  28.373  1.00  0.00     0.074 A 
ATOM     45  C   UNL A   1      43.472  31.910  28.884  1.00  0.00     0.031 C 
ATOM     46  C   UNL A   1      41.516  25.352  28.001  1.00  0.00     0.029 A 
ATOM     47  C   UNL A   1      42.900  25.659  27.650  1.00  0.00     0.049 A 
ATOM     48  H   UNL A   1      43.874  27.492  27.836  1.00  0.00     0.167 HD
ATOM     49  C   UNL A   1      45.766  31.426  28.086  1.00  0.00     0.037 A 
ATOM     50  C   UNL A   1      43.787  24.781  27.141  1.00  0.00     0.037 A 
ATOM     51  C   UNL A   1      46.801  30.543  27.617  1.00  0.00     0.049 A 
ATOM     52  C   UNL A   1      45.189  25.238  26.840  1.00  0.00     0.074 A 
ATOM     53  C   UNL A   1      48.129  30.835  27.354  1.00  0.00     0.029 A 
ATOM     54  N   UNL A   1      46.630  29.192  27.348  1.00  0.00    -0.354 N 
ATOM     55  N   UNL A   1      45.714  26.431  26.981  1.00  0.00    -0.248 NA
ATOM     56  C   UNL A   1      46.121  24.229  26.317  1.00  0.00     0.031 C 
ATOM     57  C   UNL A   1      48.751  29.671  26.889  1.00  0.00     0.029 A 
ATOM     58  C   UNL A   1      47.822  28.642  26.906  1.00  0.00     0.049 A 
ATOM     59  H   UNL A   1      45.785  28.699  27.454  1.00  0.00     0.167 HD
ATOM     60  C   UNL A   1      47.044  26.310  26.590  1.00  0.00     0.074 A 
ATOM     61  C   UNL A   1      47.245  24.925  26.216  1.00  0.00     0.031 C 
ATOM     62  C   UNL A   1      48.011  27.259  26.546  1.00  0.00     0.037 A 
BRANCH  49  63
ATOM     63  C   UNL A   1      46.104  32.881  28.276  1.00  0.00     0.058 A 
ATOM     64  C   UNL A   1      45.901  33.825  27.256  1.00  0.00     0.135 A 
ATOM     65  C   UNL A   1      46.604  33.344  29.504  1.00  0.00     0.135 A 
ATOM     66  F   UNL A   1      45.436  33.436  26.058  1.00  0.00    -0.206 F 
ATOM     67  C   UNL A   1      46.213  35.169  27.436  1.00  0.00     0.059 A 
ATOM     68  C   UNL A   1      46.898  34.690  29.715  1.00  0.00     0.059 A 
ATOM     69  F   UNL A   1      46.815  32.487  30.515  1.00  0.00    -0.206 F 
ATOM     70  C   UNL A   1      46.714  35.591  28.667  1.00  0.00     0.060 A 
BRANCH  70  71
ATOM     71  S   UNL A   1      47.118  37.338  28.885  1.00  0.00     0.124 S 
ATOM     72  O   UNL A   1      46.396  37.944  27.768  1.00  0.00    -0.237 OA
ATOM     73  O   UNL A   1      46.576  37.621  30.213  1.00  0.00    -0.237 OA
ATOM     74  O   UNL A   1      48.570  37.368  28.785  1.00  0.00    -0.744 OA
ENDBRANCH  70  71
ENDBRANCH  49  63
BRANCH  50  75
ATOM     75  C   UNL A   1      43.379  23.371  26.902  1.00  0.00     0.058 A 
ATOM     76  C   UNL A   1      43.186  22.885  25.601  1.00  0.00     0.135 A 
ATOM     77  C   UNL A   1      43.193  22.476  27.968  1.00  0.00     0.135 A 
ATOM     78  F   UNL A   1      43.345  23.704  24.550  1.00  0.00    -0.206 F 
ATOM     79  C   UNL A   1      42.811  21.567  25.362  1.00  0.00     0.059 A 
ATOM     80  C   UNL A   1      42.841  21.147  27.753  1.00  0.00     0.059 A 
ATOM     81  F   UNL A   1      43.382  22.886  29.232  1.00  0.00    -0.206 F 
ATOM     82  C   UNL A   1      42.643  20.704  26.446  1.00  0.00     0.060 A 
BRANCH  82  83
ATOM     83  S   UNL A   1      42.215  18.980  26.127  1.00  0.00     0.124 S 
ATOM     84  O   UNL A   1      42.550  18.353  27.400  1.00  0.00    -0.237 OA
ATOM     85  O   UNL A   1      40.792  19.069  25.813  1.00  0.00    -0.237 OA
ATOM     86  O   UNL A   1      43.074  18.626  25.001  1.00  0.00    -0.744 OA
ENDBRANCH  82  83
ENDBRANCH  50  75
BRANCH  62  87
ATOM     87  C   UNL A   1      49.384  26.832  26.111  1.00  0.00     0.058 A 
ATOM     88  C   UNL A   1      50.273  26.199  26.993  1.00  0.00     0.135 A 
ATOM     89  C   UNL A   1      49.796  27.009  24.780  1.00  0.00     0.135 A 
ATOM     90  F   UNL A   1      49.931  26.011  28.278  1.00  0.00    -0.206 F 
ATOM     91  C   UNL A   1      51.532  25.775  26.577  1.00  0.00     0.059 A 
ATOM     92  C   UNL A   1      51.038  26.570  24.335  1.00  0.00     0.059 A 
ATOM     93  F   UNL A   1      48.979  27.599  23.892  1.00  0.00    -0.206 F 
ATOM     94  C   UNL A   1      51.904  25.964  25.244  1.00  0.00     0.060 A 
BRANCH  94  95
ATOM     95  S   UNL A   1      53.525  25.377  24.706  1.00  0.00     0.124 S 
ATOM     96  O   UNL A   1      53.437  23.953  25.007  1.00  0.00    -0.237 OA
ATOM     97  O   UNL A   1      53.530  25.727  23.289  1.00  0.00    -0.237 OA
ATOM     98  O   UNL A   1      54.454  26.139  25.535  1.00  0.00    -0.744 OA
ENDBRANCH  94  95
ENDBRANCH  62  87
ENDBRANCH  36  37
ENDBRANCH  28  31
ENDBRANCH  26  27
ENDBRANCH   1  26
TORSDOF 16
ENDMDL
