MODEL 1
REMARK VINA RESULT:     -12.5      0.000      0.000
REMARK SMILES C[C@@H]1[C@H](C(=O)NCCCNC(=O)c2ccc(-c3c4nc(c(-c5c(F)cc(S(=O)(=O)[O-])cc5F)c5ccc([nH]5)c(-c5c(F)cc(S(=O)(=O)[O-])cc5F)c5nc(c(-c6c(F)cc(S(=O)(=O)[O-])cc6F)c6ccc3[nH]6)C=C5)C=C4)cc2)CC[N@@H+]1Cc1cnn(-c2ccccc2)c1
REMARK SMILES IDX 8 1 7 2 6 3 4 4 5 5 3 7 1 8 2 9 81 10 79 11 80 12 82 14
REMARK SMILES IDX 83 15 84 16 93 17 85 18 86 19 87 20 88 21 92 22 89 23 91 24
REMARK SMILES IDX 90 25 9 26 10 27 11 28 12 30 13 31 14 32 78 33 15 34 77 35
REMARK SMILES IDX 16 36 17 37 18 38 71 39 19 40 76 41 70 42 72 43 20 44 75 45
REMARK SMILES IDX 69 46 68 47 21 49 55 50 34 51 54 52 35 53 38 54 53 55 73 56
REMARK SMILES IDX 36 57 37 58 52 60 74 61 39 62 22 63 23 64 32 65 24 66 25 67
REMARK SMILES IDX 31 68 33 69 26 70 27 71 28 72 29 73 30 74 56 75 57 76 66 77
REMARK SMILES IDX 58 78 59 79 65 80 67 81 60 82 61 83 62 84 63 85 64 86 40 87
REMARK SMILES IDX 41 88 50 89 42 90 43 91 49 92 51 93 44 94 45 95 46 96 47 97
REMARK SMILES IDX 48 98
REMARK H PARENT 6 6 81 13 10 29 72 48 38 59
REMARK Flexibility Score: inf
ROOT
ATOM      1  C   UNL A   1      33.849  30.601  27.278  1.00  0.00     0.042 C 
ENDROOT
BRANCH   1   2
ATOM      2  C   UNL A   1      32.800  29.492  27.264  1.00  0.00     0.117 C 
BRANCH   2   3
ATOM      3  N   UNL A   1      31.894  29.611  26.136  1.00  0.00    -0.356 N 
ATOM      4  C   UNL A   1      31.733  28.877  25.008  1.00  0.00     0.229 C 
ATOM      5  O   UNL A   1      30.897  29.303  24.200  1.00  0.00    -0.275 OA
ATOM      6  H   UNL A   1      31.275  30.374  26.203  1.00  0.00     0.163 HD
BRANCH   4   7
ATOM      7  C   UNL A   1      32.482  27.591  24.687  1.00  0.00     0.142 C 
ATOM      8  C   UNL A   1      30.511  26.199  25.712  1.00  0.00     0.076 C 
ATOM      9  C   UNL A   1      31.921  26.233  25.147  1.00  0.00     0.193 C 
ATOM     10  N   UNL A   1      32.249  25.312  24.058  1.00  0.00    -0.328 N 
ATOM     11  C   UNL A   1      32.931  27.400  23.242  1.00  0.00     0.081 C 
ATOM     12  C   UNL A   1      33.213  25.911  23.157  1.00  0.00     0.263 C 
ATOM     13  H   UNL A   1      32.663  24.531  24.566  1.00  0.00     0.348 HD
BRANCH  10  14
ATOM     14  C   UNL A   1      31.358  24.278  23.572  1.00  0.00     0.302 C 
BRANCH  14  15
ATOM     15  C   UNL A   1      31.691  22.909  24.064  1.00  0.00     0.045 A 
ATOM     16  C   UNL A   1      31.408  22.327  25.316  1.00  0.00     0.145 A 
ATOM     17  C   UNL A   1      32.252  21.864  23.355  1.00  0.00     0.124 A 
ATOM     18  N   UNL A   1      31.782  21.051  25.404  1.00  0.00    -0.176 NA
ATOM     19  N   UNL A   1      32.318  20.768  24.190  1.00  0.00    -0.240 N 
BRANCH  19  20
ATOM     20  C   UNL A   1      32.886  19.497  23.916  1.00  0.00     0.065 A 
ATOM     21  C   UNL A   1      34.033  19.078  24.608  1.00  0.00     0.028 A 
ATOM     22  C   UNL A   1      32.332  18.667  22.938  1.00  0.00     0.028 A 
ATOM     23  C   UNL A   1      34.608  17.835  24.332  1.00  0.00     0.002 A 
ATOM     24  C   UNL A   1      32.932  17.444  22.652  1.00  0.00     0.002 A 
ATOM     25  C   UNL A   1      34.057  17.019  23.351  1.00  0.00     0.000 A 
ENDBRANCH  19  20
ENDBRANCH  14  15
ENDBRANCH  10  14
ENDBRANCH   4   7
ENDBRANCH   2   3
ENDBRANCH   1   2
BRANCH   1  26
ATOM     26  C   UNL A   1      35.173  30.258  27.941  1.00  0.00     0.118 C 
BRANCH  26  27
ATOM     27  N   UNL A   1      35.272  30.722  29.315  1.00  0.00    -0.352 N 
ATOM     28  C   UNL A   1      36.314  30.728  30.214  1.00  0.00     0.251 C 
ATOM     29  H   UNL A   1      34.436  31.106  29.668  1.00  0.00     0.163 HD
ATOM     30  O   UNL A   1      36.083  31.119  31.359  1.00  0.00    -0.269 OA
BRANCH  28  31
ATOM     31  C   UNL A   1      37.683  30.253  29.872  1.00  0.00     0.039 A 
ATOM     32  C   UNL A   1      38.038  30.178  28.517  1.00  0.00     0.014 A 
ATOM     33  C   UNL A   1      38.609  29.830  30.827  1.00  0.00     0.014 A 
ATOM     34  C   UNL A   1      39.328  29.787  28.132  1.00  0.00     0.010 A 
ATOM     35  C   UNL A   1      39.917  29.511  30.454  1.00  0.00     0.010 A 
ATOM     36  C   UNL A   1      40.290  29.483  29.103  1.00  0.00    -0.014 A 
BRANCH  36  37
ATOM     37  C   UNL A   1      41.662  29.045  28.737  1.00  0.00     0.031 A 
ATOM     38  C   UNL A   1      42.765  30.062  28.675  1.00  0.00     0.074 A 
ATOM     39  C   UNL A   1      41.911  27.764  28.398  1.00  0.00     0.049 A 
ATOM     40  N   UNL A   1      44.008  29.909  28.304  1.00  0.00    -0.248 NA
ATOM     41  C   UNL A   1      42.415  31.439  29.062  1.00  0.00     0.031 C 
ATOM     42  C   UNL A   1      40.924  26.691  28.393  1.00  0.00     0.029 A 
ATOM     43  N   UNL A   1      43.062  27.148  27.972  1.00  0.00    -0.354 N 
ATOM     44  C   UNL A   1      44.589  31.165  28.412  1.00  0.00     0.074 A 
ATOM     45  C   UNL A   1      43.549  32.081  28.829  1.00  0.00     0.031 C 
ATOM     46  C   UNL A   1      41.498  25.549  27.983  1.00  0.00     0.029 A 
ATOM     47  C   UNL A   1      42.897  25.814  27.672  1.00  0.00     0.049 A 
ATOM     48  H   UNL A   1      43.924  27.615  27.889  1.00  0.00     0.167 HD
ATOM     49  C   UNL A   1      45.880  31.519  28.209  1.00  0.00     0.037 A 
ATOM     50  C   UNL A   1      43.771  24.907  27.193  1.00  0.00     0.037 A 
ATOM     51  C   UNL A   1      46.912  30.604  27.801  1.00  0.00     0.049 A 
ATOM     52  C   UNL A   1      45.191  25.330  26.945  1.00  0.00     0.074 A 
ATOM     53  C   UNL A   1      48.256  30.857  27.601  1.00  0.00     0.029 A 
ATOM     54  N   UNL A   1      46.711  29.259  27.526  1.00  0.00    -0.354 N 
ATOM     55  N   UNL A   1      45.737  26.511  27.110  1.00  0.00    -0.248 NA
ATOM     56  C   UNL A   1      46.118  24.299  26.459  1.00  0.00     0.031 C 
ATOM     57  C   UNL A   1      48.864  29.670  27.175  1.00  0.00     0.029 A 
ATOM     58  C   UNL A   1      47.905  28.671  27.145  1.00  0.00     0.049 A 
ATOM     59  H   UNL A   1      45.847  28.791  27.593  1.00  0.00     0.167 HD
ATOM     60  C   UNL A   1      47.078  26.358  26.780  1.00  0.00     0.074 A 
ATOM     61  C   UNL A   1      47.261  24.970  26.409  1.00  0.00     0.031 C 
ATOM     62  C   UNL A   1      48.069  27.283  26.790  1.00  0.00     0.037 A 
BRANCH  49  63
ATOM     63  C   UNL A   1      46.235  32.960  28.433  1.00  0.00     0.058 A 
ATOM     64  C   UNL A   1      46.178  33.896  27.387  1.00  0.00     0.135 A 
ATOM     65  C   UNL A   1      46.641  33.411  29.697  1.00  0.00     0.135 A 
ATOM     66  F   UNL A   1      45.818  33.510  26.153  1.00  0.00    -0.206 F 
ATOM     67  C   UNL A   1      46.543  35.223  27.580  1.00  0.00     0.059 A 
ATOM     68  C   UNL A   1      46.987  34.741  29.919  1.00  0.00     0.059 A 
ATOM     69  F   UNL A   1      46.718  32.556  30.728  1.00  0.00    -0.206 F 
ATOM     70  C   UNL A   1      46.952  35.635  28.849  1.00  0.00     0.060 A 
BRANCH  70  71
ATOM     71  S   UNL A   1      47.439  37.358  29.081  1.00  0.00     0.124 S 
ATOM     72  O   UNL A   1      46.199  38.056  28.756  1.00  0.00    -0.237 OA
ATOM     73  O   UNL A   1      47.831  37.386  30.487  1.00  0.00    -0.237 OA
ATOM     74  O   UNL A   1      48.528  37.533  28.127  1.00  0.00    -0.744 OA
ENDBRANCH  70  71
ENDBRANCH  49  63
BRANCH  50  75
ATOM     75  C   UNL A   1      43.336  23.507  26.943  1.00  0.00     0.058 A 
ATOM     76  C   UNL A   1      43.081  23.055  25.640  1.00  0.00     0.135 A 
ATOM     77  C   UNL A   1      43.170  22.593  27.996  1.00  0.00     0.135 A 
ATOM     78  F   UNL A   1      43.222  23.893  24.602  1.00  0.00    -0.206 F 
ATOM     79  C   UNL A   1      42.657  21.754  25.389  1.00  0.00     0.059 A 
ATOM     80  C   UNL A   1      42.767  21.281  27.768  1.00  0.00     0.059 A 
ATOM     81  F   UNL A   1      43.419  22.971  29.260  1.00  0.00    -0.206 F 
ATOM     82  C   UNL A   1      42.501  20.874  26.461  1.00  0.00     0.060 A 
BRANCH  82  83
ATOM     83  S   UNL A   1      41.984  19.177  26.121  1.00  0.00     0.124 S 
ATOM     84  O   UNL A   1      42.752  18.871  24.920  1.00  0.00    -0.237 OA
ATOM     85  O   UNL A   1      42.396  18.480  27.336  1.00  0.00    -0.237 OA
ATOM     86  O   UNL A   1      40.541  19.298  25.936  1.00  0.00    -0.744 OA
ENDBRANCH  82  83
ENDBRANCH  50  75
BRANCH  62  87
ATOM     87  C   UNL A   1      49.448  26.817  26.426  1.00  0.00     0.058 A 
ATOM     88  C   UNL A   1      50.259  26.133  27.344  1.00  0.00     0.135 A 
ATOM     89  C   UNL A   1      49.939  27.008  25.126  1.00  0.00     0.135 A 
ATOM     90  F   UNL A   1      49.836  25.933  28.602  1.00  0.00    -0.206 F 
ATOM     91  C   UNL A   1      51.519  25.664  26.987  1.00  0.00     0.059 A 
ATOM     92  C   UNL A   1      51.186  26.528  24.741  1.00  0.00     0.059 A 
ATOM     93  F   UNL A   1      49.198  27.651  24.210  1.00  0.00    -0.206 F 
ATOM     94  C   UNL A   1      51.973  25.865  25.682  1.00  0.00     0.060 A 
BRANCH  94  95
ATOM     95  S   UNL A   1      53.590  25.213  25.216  1.00  0.00     0.124 S 
ATOM     96  O   UNL A   1      53.666  25.592  23.810  1.00  0.00    -0.237 OA
ATOM     97  O   UNL A   1      54.488  25.930  26.116  1.00  0.00    -0.237 OA
ATOM     98  O   UNL A   1      53.466  23.782  25.478  1.00  0.00    -0.744 OA
ENDBRANCH  94  95
ENDBRANCH  62  87
ENDBRANCH  36  37
ENDBRANCH  28  31
ENDBRANCH  26  27
ENDBRANCH   1  26
TORSDOF 16
ENDMDL
MODEL 2
REMARK VINA RESULT:     -12.4      6.664     12.407
REMARK SMILES C[C@@H]1[C@H](C(=O)NCCCNC(=O)c2ccc(-c3c4nc(c(-c5c(F)cc(S(=O)(=O)[O-])cc5F)c5ccc([nH]5)c(-c5c(F)cc(S(=O)(=O)[O-])cc5F)c5nc(c(-c6c(F)cc(S(=O)(=O)[O-])cc6F)c6ccc3[nH]6)C=C5)C=C4)cc2)CC[N@@H+]1Cc1cnn(-c2ccccc2)c1
REMARK SMILES IDX 8 1 7 2 6 3 4 4 5 5 3 7 1 8 2 9 81 10 79 11 80 12 82 14
REMARK SMILES IDX 83 15 84 16 93 17 85 18 86 19 87 20 88 21 92 22 89 23 91 24
REMARK SMILES IDX 90 25 9 26 10 27 11 28 12 30 13 31 14 32 78 33 15 34 77 35
REMARK SMILES IDX 16 36 17 37 18 38 71 39 19 40 76 41 70 42 72 43 20 44 75 45
REMARK SMILES IDX 69 46 68 47 21 49 55 50 34 51 54 52 35 53 38 54 53 55 73 56
REMARK SMILES IDX 36 57 37 58 52 60 74 61 39 62 22 63 23 64 32 65 24 66 25 67
REMARK SMILES IDX 31 68 33 69 26 70 27 71 28 72 29 73 30 74 56 75 57 76 66 77
REMARK SMILES IDX 58 78 59 79 65 80 67 81 60 82 61 83 62 84 63 85 64 86 40 87
REMARK SMILES IDX 41 88 50 89 42 90 43 91 49 92 51 93 44 94 45 95 46 96 47 97
REMARK SMILES IDX 48 98
REMARK H PARENT 6 6 81 13 10 29 72 48 38 59
REMARK Flexibility Score: inf
ROOT
ATOM      1  C   UNL A   1      37.341  23.358  25.409  1.00  0.00     0.042 C 
ENDROOT
BRANCH   1   2
ATOM      2  C   UNL A   1      35.859  23.258  25.760  1.00  0.00     0.117 C 
BRANCH   2   3
ATOM      3  N   UNL A   1      35.301  21.963  25.412  1.00  0.00    -0.356 N 
ATOM      4  C   UNL A   1      34.229  21.597  24.668  1.00  0.00     0.229 C 
ATOM      5  O   UNL A   1      33.986  20.383  24.629  1.00  0.00    -0.275 OA
ATOM      6  H   UNL A   1      35.799  21.203  25.790  1.00  0.00     0.163 HD
BRANCH   4   7
ATOM      7  C   UNL A   1      33.338  22.553  23.887  1.00  0.00     0.142 C 
ATOM      8  C   UNL A   1      32.172  23.273  26.122  1.00  0.00     0.076 C 
ATOM      9  C   UNL A   1      32.213  23.321  24.604  1.00  0.00     0.193 C 
ATOM     10  N   UNL A   1      32.192  24.633  23.956  1.00  0.00    -0.328 N 
ATOM     11  C   UNL A   1      34.039  23.566  22.988  1.00  0.00     0.081 C 
ATOM     12  C   UNL A   1      32.966  24.609  22.731  1.00  0.00     0.263 C 
ATOM     13  H   UNL A   1      31.199  24.748  23.755  1.00  0.00     0.348 HD
BRANCH  10  14
ATOM     14  C   UNL A   1      32.001  25.884  24.660  1.00  0.00     0.302 C 
BRANCH  14  15
ATOM     15  C   UNL A   1      30.872  26.709  24.137  1.00  0.00     0.045 A 
ATOM     16  C   UNL A   1      29.535  26.328  23.903  1.00  0.00     0.145 A 
ATOM     17  C   UNL A   1      30.859  28.065  23.876  1.00  0.00     0.124 A 
ATOM     18  N   UNL A   1      28.760  27.336  23.501  1.00  0.00    -0.176 NA
ATOM     19  N   UNL A   1      29.586  28.411  23.472  1.00  0.00    -0.240 N 
BRANCH  19  20
ATOM     20  C   UNL A   1      29.126  29.679  23.031  1.00  0.00     0.065 A 
ATOM     21  C   UNL A   1      29.243  30.797  23.871  1.00  0.00     0.028 A 
ATOM     22  C   UNL A   1      28.528  29.821  21.776  1.00  0.00     0.028 A 
ATOM     23  C   UNL A   1      28.777  32.046  23.452  1.00  0.00     0.002 A 
ATOM     24  C   UNL A   1      28.040  31.065  21.383  1.00  0.00     0.002 A 
ATOM     25  C   UNL A   1      28.174  32.178  22.207  1.00  0.00     0.000 A 
ENDBRANCH  19  20
ENDBRANCH  14  15
ENDBRANCH  10  14
ENDBRANCH   4   7
ENDBRANCH   2   3
ENDBRANCH   1   2
BRANCH   1  26
ATOM     26  C   UNL A   1      38.219  24.077  26.420  1.00  0.00     0.118 C 
BRANCH  26  27
ATOM     27  N   UNL A   1      39.639  23.983  26.126  1.00  0.00    -0.352 N 
ATOM     28  C   UNL A   1      40.732  24.647  26.635  1.00  0.00     0.251 C 
ATOM     29  H   UNL A   1      39.861  23.319  25.434  1.00  0.00     0.163 HD
ATOM     30  O   UNL A   1      41.832  24.415  26.131  1.00  0.00    -0.269 OA
BRANCH  28  31
ATOM     31  C   UNL A   1      40.635  25.649  27.733  1.00  0.00     0.039 A 
ATOM     32  C   UNL A   1      41.634  26.630  27.822  1.00  0.00     0.014 A 
ATOM     33  C   UNL A   1      39.633  25.628  28.703  1.00  0.00     0.014 A 
ATOM     34  C   UNL A   1      41.572  27.631  28.802  1.00  0.00     0.010 A 
ATOM     35  C   UNL A   1      39.526  26.664  29.634  1.00  0.00     0.010 A 
ATOM     36  C   UNL A   1      40.496  27.675  29.696  1.00  0.00    -0.014 A 
BRANCH  36  37
ATOM     37  C   UNL A   1      40.404  28.707  30.762  1.00  0.00     0.031 A 
ATOM     38  C   UNL A   1      41.262  28.573  31.987  1.00  0.00     0.074 A 
ATOM     39  C   UNL A   1      39.517  29.717  30.671  1.00  0.00     0.049 A 
ATOM     40  N   UNL A   1      41.282  29.312  33.064  1.00  0.00    -0.248 NA
ATOM     41  C   UNL A   1      42.208  27.445  32.010  1.00  0.00     0.031 C 
ATOM     42  C   UNL A   1      38.612  29.940  29.550  1.00  0.00     0.029 A 
ATOM     43  N   UNL A   1      39.210  30.733  31.542  1.00  0.00    -0.354 N 
ATOM     44  C   UNL A   1      42.239  28.742  33.892  1.00  0.00     0.074 A 
ATOM     45  C   UNL A   1      42.737  27.563  33.218  1.00  0.00     0.031 C 
ATOM     46  C   UNL A   1      37.848  31.017  29.791  1.00  0.00     0.029 A 
ATOM     47  C   UNL A   1      38.192  31.551  31.103  1.00  0.00     0.049 A 
ATOM     48  H   UNL A   1      39.674  30.866  32.400  1.00  0.00     0.167 HD
ATOM     49  C   UNL A   1      42.682  29.177  35.095  1.00  0.00     0.037 A 
ATOM     50  C   UNL A   1      37.599  32.607  31.692  1.00  0.00     0.037 A 
ATOM     51  C   UNL A   1      42.188  30.353  35.759  1.00  0.00     0.049 A 
ATOM     52  C   UNL A   1      38.086  33.054  33.041  1.00  0.00     0.074 A 
ATOM     53  C   UNL A   1      42.596  30.897  36.963  1.00  0.00     0.029 A 
ATOM     54  N   UNL A   1      41.173  31.166  35.275  1.00  0.00    -0.354 N 
ATOM     55  N   UNL A   1      39.035  32.536  33.784  1.00  0.00    -0.248 NA
ATOM     56  C   UNL A   1      37.435  34.232  33.629  1.00  0.00     0.031 C 
ATOM     57  C   UNL A   1      41.805  32.023  37.223  1.00  0.00     0.029 A 
ATOM     58  C   UNL A   1      40.931  32.199  36.162  1.00  0.00     0.049 A 
ATOM     59  H   UNL A   1      40.696  31.028  34.424  1.00  0.00     0.167 HD
ATOM     60  C   UNL A   1      39.117  33.344  34.911  1.00  0.00     0.074 A 
ATOM     61  C   UNL A   1      38.124  34.387  34.750  1.00  0.00     0.031 C 
ATOM     62  C   UNL A   1      39.945  33.236  35.979  1.00  0.00     0.037 A 
BRANCH  49  63
ATOM     63  C   UNL A   1      43.759  28.369  35.758  1.00  0.00     0.058 A 
ATOM     64  C   UNL A   1      43.447  27.335  36.657  1.00  0.00     0.135 A 
ATOM     65  C   UNL A   1      45.113  28.628  35.500  1.00  0.00     0.135 A 
ATOM     66  F   UNL A   1      42.166  27.063  36.956  1.00  0.00    -0.206 F 
ATOM     67  C   UNL A   1      44.441  26.610  37.303  1.00  0.00     0.059 A 
ATOM     68  C   UNL A   1      46.125  27.897  36.116  1.00  0.00     0.059 A 
ATOM     69  F   UNL A   1      45.465  29.607  34.653  1.00  0.00    -0.206 F 
ATOM     70  C   UNL A   1      45.778  26.902  37.030  1.00  0.00     0.060 A 
BRANCH  70  71
ATOM     71  S   UNL A   1      47.058  25.962  37.888  1.00  0.00     0.124 S 
ATOM     72  O   UNL A   1      47.402  24.959  36.886  1.00  0.00    -0.237 OA
ATOM     73  O   UNL A   1      48.075  26.978  38.141  1.00  0.00    -0.237 OA
ATOM     74  O   UNL A   1      46.372  25.458  39.073  1.00  0.00    -0.744 OA
ENDBRANCH  70  71
ENDBRANCH  49  63
BRANCH  50  75
ATOM     75  C   UNL A   1      36.499  33.330  30.999  1.00  0.00     0.058 A 
ATOM     76  C   UNL A   1      36.766  34.175  29.912  1.00  0.00     0.135 A 
ATOM     77  C   UNL A   1      35.162  33.191  31.405  1.00  0.00     0.135 A 
ATOM     78  F   UNL A   1      38.028  34.344  29.489  1.00  0.00    -0.206 F 
ATOM     79  C   UNL A   1      35.751  34.873  29.263  1.00  0.00     0.059 A 
ATOM     80  C   UNL A   1      34.128  33.862  30.759  1.00  0.00     0.059 A 
ATOM     81  F   UNL A   1      34.852  32.380  32.429  1.00  0.00    -0.206 F 
ATOM     82  C   UNL A   1      34.435  34.710  29.696  1.00  0.00     0.060 A 
BRANCH  82  83
ATOM     83  S   UNL A   1      33.121  35.592  28.825  1.00  0.00     0.124 S 
ATOM     84  O   UNL A   1      32.308  36.077  29.934  1.00  0.00    -0.237 OA
ATOM     85  O   UNL A   1      33.867  36.607  28.088  1.00  0.00    -0.237 OA
ATOM     86  O   UNL A   1      32.510  34.552  28.001  1.00  0.00    -0.744 OA
ENDBRANCH  82  83
ENDBRANCH  50  75
BRANCH  62  87
ATOM     87  C   UNL A   1      39.841  34.293  37.040  1.00  0.00     0.058 A 
ATOM     88  C   UNL A   1      40.498  35.525  36.915  1.00  0.00     0.135 A 
ATOM     89  C   UNL A   1      39.028  34.088  38.164  1.00  0.00     0.135 A 
ATOM     90  F   UNL A   1      41.294  35.764  35.862  1.00  0.00    -0.206 F 
ATOM     91  C   UNL A   1      40.362  36.517  37.881  1.00  0.00     0.059 A 
ATOM     92  C   UNL A   1      38.859  35.075  39.130  1.00  0.00     0.059 A 
ATOM     93  F   UNL A   1      38.373  32.927  38.324  1.00  0.00    -0.206 F 
ATOM     94  C   UNL A   1      39.538  36.283  38.983  1.00  0.00     0.060 A 
BRANCH  94  95
ATOM     95  S   UNL A   1      39.333  37.594  40.206  1.00  0.00     0.124 S 
ATOM     96  O   UNL A   1      40.658  38.205  40.208  1.00  0.00    -0.237 OA
ATOM     97  O   UNL A   1      38.264  38.401  39.626  1.00  0.00    -0.237 OA
ATOM     98  O   UNL A   1      38.971  36.870  41.421  1.00  0.00    -0.744 OA
ENDBRANCH  94  95
ENDBRANCH  62  87
ENDBRANCH  36  37
ENDBRANCH  28  31
ENDBRANCH  26  27
ENDBRANCH   1  26
TORSDOF 16
ENDMDL
MODEL 3
REMARK VINA RESULT:     -12.2      6.400     12.004
REMARK SMILES C[C@@H]1[C@H](C(=O)NCCCNC(=O)c2ccc(-c3c4nc(c(-c5c(F)cc(S(=O)(=O)[O-])cc5F)c5ccc([nH]5)c(-c5c(F)cc(S(=O)(=O)[O-])cc5F)c5nc(c(-c6c(F)cc(S(=O)(=O)[O-])cc6F)c6ccc3[nH]6)C=C5)C=C4)cc2)CC[N@@H+]1Cc1cnn(-c2ccccc2)c1
REMARK SMILES IDX 8 1 7 2 6 3 4 4 5 5 3 7 1 8 2 9 81 10 79 11 80 12 82 14
REMARK SMILES IDX 83 15 84 16 93 17 85 18 86 19 87 20 88 21 92 22 89 23 91 24
REMARK SMILES IDX 90 25 9 26 10 27 11 28 12 30 13 31 14 32 78 33 15 34 77 35
REMARK SMILES IDX 16 36 17 37 18 38 71 39 19 40 76 41 70 42 72 43 20 44 75 45
REMARK SMILES IDX 69 46 68 47 21 49 55 50 34 51 54 52 35 53 38 54 53 55 73 56
REMARK SMILES IDX 36 57 37 58 52 60 74 61 39 62 22 63 23 64 32 65 24 66 25 67
REMARK SMILES IDX 31 68 33 69 26 70 27 71 28 72 29 73 30 74 56 75 57 76 66 77
REMARK SMILES IDX 58 78 59 79 65 80 67 81 60 82 61 83 62 84 63 85 64 86 40 87
REMARK SMILES IDX 41 88 50 89 42 90 43 91 49 92 51 93 44 94 45 95 46 96 47 97
REMARK SMILES IDX 48 98
REMARK H PARENT 6 6 81 13 10 29 72 48 38 59
REMARK Flexibility Score: inf
ROOT
ATOM      1  C   UNL A   1      39.922  21.456  26.517  1.00  0.00     0.042 C 
ENDROOT
BRANCH   1   2
ATOM      2  C   UNL A   1      38.585  21.534  25.787  1.00  0.00     0.117 C 
BRANCH   2   3
ATOM      3  N   UNL A   1      37.917  22.805  26.004  1.00  0.00    -0.356 N 
ATOM      4  C   UNL A   1      36.713  23.286  25.612  1.00  0.00     0.229 C 
ATOM      5  O   UNL A   1      36.475  24.463  25.915  1.00  0.00    -0.275 OA
ATOM      6  H   UNL A   1      38.442  23.441  26.542  1.00  0.00     0.163 HD
BRANCH   4   7
ATOM      7  C   UNL A   1      35.657  22.492  24.855  1.00  0.00     0.142 C 
ATOM      8  C   UNL A   1      34.335  22.138  27.092  1.00  0.00     0.076 C 
ATOM      9  C   UNL A   1      34.509  21.807  25.619  1.00  0.00     0.193 C 
ATOM     10  N   UNL A   1      33.348  21.947  24.740  1.00  0.00    -0.328 N 
ATOM     11  C   UNL A   1      35.020  23.171  23.648  1.00  0.00     0.081 C 
ATOM     12  C   UNL A   1      33.759  22.359  23.413  1.00  0.00     0.263 C 
ATOM     13  H   UNL A   1      32.982  20.996  24.728  1.00  0.00     0.348 HD
BRANCH  10  14
ATOM     14  C   UNL A   1      32.010  22.253  25.204  1.00  0.00     0.302 C 
BRANCH  14  15
ATOM     15  C   UNL A   1      31.616  23.680  25.022  1.00  0.00     0.045 A 
ATOM     16  C   UNL A   1      30.656  24.227  24.146  1.00  0.00     0.145 A 
ATOM     17  C   UNL A   1      32.024  24.776  25.758  1.00  0.00     0.124 A 
ATOM     18  N   UNL A   1      30.496  25.543  24.289  1.00  0.00    -0.176 NA
ATOM     19  N   UNL A   1      31.356  25.885  25.281  1.00  0.00    -0.240 N 
BRANCH  19  20
ATOM     20  C   UNL A   1      31.512  27.236  25.685  1.00  0.00     0.065 A 
ATOM     21  C   UNL A   1      31.804  27.539  27.024  1.00  0.00     0.028 A 
ATOM     22  C   UNL A   1      31.346  28.276  24.766  1.00  0.00     0.028 A 
ATOM     23  C   UNL A   1      31.943  28.867  27.433  1.00  0.00     0.002 A 
ATOM     24  C   UNL A   1      31.456  29.596  25.193  1.00  0.00     0.002 A 
ATOM     25  C   UNL A   1      31.767  29.897  26.515  1.00  0.00     0.000 A 
ENDBRANCH  19  20
ENDBRANCH  14  15
ENDBRANCH  10  14
ENDBRANCH   4   7
ENDBRANCH   2   3
ENDBRANCH   1   2
BRANCH   1  26
ATOM     26  C   UNL A   1      40.461  22.767  27.065  1.00  0.00     0.118 C 
BRANCH  26  27
ATOM     27  N   UNL A   1      41.279  23.502  26.115  1.00  0.00    -0.352 N 
ATOM     28  C   UNL A   1      41.776  24.785  26.124  1.00  0.00     0.251 C 
ATOM     29  H   UNL A   1      41.523  22.984  25.314  1.00  0.00     0.163 HD
ATOM     30  O   UNL A   1      42.385  25.174  25.126  1.00  0.00    -0.269 OA
BRANCH  28  31
ATOM     31  C   UNL A   1      41.581  25.723  27.264  1.00  0.00     0.039 A 
ATOM     32  C   UNL A   1      42.545  26.722  27.471  1.00  0.00     0.014 A 
ATOM     33  C   UNL A   1      40.519  25.627  28.164  1.00  0.00     0.014 A 
ATOM     34  C   UNL A   1      42.393  27.666  28.496  1.00  0.00     0.010 A 
ATOM     35  C   UNL A   1      40.324  26.608  29.139  1.00  0.00     0.010 A 
ATOM     36  C   UNL A   1      41.260  27.637  29.318  1.00  0.00    -0.014 A 
BRANCH  36  37
ATOM     37  C   UNL A   1      41.070  28.607  30.428  1.00  0.00     0.031 A 
ATOM     38  C   UNL A   1      41.914  28.480  31.663  1.00  0.00     0.074 A 
ATOM     39  C   UNL A   1      40.111  29.550  30.365  1.00  0.00     0.049 A 
ATOM     40  N   UNL A   1      41.859  29.165  32.774  1.00  0.00    -0.248 NA
ATOM     41  C   UNL A   1      42.943  27.426  31.654  1.00  0.00     0.031 C 
ATOM     42  C   UNL A   1      39.212  29.758  29.236  1.00  0.00     0.029 A 
ATOM     43  N   UNL A   1      39.712  30.498  31.275  1.00  0.00    -0.354 N 
ATOM     44  C   UNL A   1      42.841  28.630  33.595  1.00  0.00     0.074 A 
ATOM     45  C   UNL A   1      43.440  27.525  32.877  1.00  0.00     0.031 C 
ATOM     46  C   UNL A   1      38.364  30.762  29.510  1.00  0.00     0.029 A 
ATOM     47  C   UNL A   1      38.643  31.257  30.852  1.00  0.00     0.049 A 
ATOM     48  H   UNL A   1      40.150  30.624  32.148  1.00  0.00     0.167 HD
ATOM     49  C   UNL A   1      43.229  29.039  34.826  1.00  0.00     0.037 A 
ATOM     50  C   UNL A   1      37.961  32.237  31.477  1.00  0.00     0.037 A 
ATOM     51  C   UNL A   1      42.635  30.142  35.533  1.00  0.00     0.049 A 
ATOM     52  C   UNL A   1      38.389  32.654  32.855  1.00  0.00     0.074 A 
ATOM     53  C   UNL A   1      42.979  30.658  36.769  1.00  0.00     0.029 A 
ATOM     54  N   UNL A   1      41.570  30.898  35.065  1.00  0.00    -0.354 N 
ATOM     55  N   UNL A   1      39.361  32.174  33.594  1.00  0.00    -0.248 NA
ATOM     56  C   UNL A   1      37.639  33.751  33.483  1.00  0.00     0.031 C 
ATOM     57  C   UNL A   1      42.100  31.706  37.064  1.00  0.00     0.029 A 
ATOM     58  C   UNL A   1      41.234  31.867  35.994  1.00  0.00     0.049 A 
ATOM     59  H   UNL A   1      41.120  30.766  34.199  1.00  0.00     0.167 HD
ATOM     60  C   UNL A   1      39.362  32.931  34.758  1.00  0.00     0.074 A 
ATOM     61  C   UNL A   1      38.295  33.903  34.624  1.00  0.00     0.031 C 
ATOM     62  C   UNL A   1      40.176  32.834  35.837  1.00  0.00     0.037 A 
BRANCH  49  63
ATOM     63  C   UNL A   1      44.352  28.284  35.474  1.00  0.00     0.058 A 
ATOM     64  C   UNL A   1      45.688  28.692  35.325  1.00  0.00     0.135 A 
ATOM     65  C   UNL A   1      44.097  27.141  36.245  1.00  0.00     0.135 A 
ATOM     66  F   UNL A   1      45.987  29.766  34.577  1.00  0.00    -0.206 F 
ATOM     67  C   UNL A   1      46.735  27.974  35.890  1.00  0.00     0.059 A 
ATOM     68  C   UNL A   1      45.128  26.420  36.842  1.00  0.00     0.059 A 
ATOM     69  F   UNL A   1      42.839  26.705  36.414  1.00  0.00    -0.206 F 
ATOM     70  C   UNL A   1      46.444  26.835  36.643  1.00  0.00     0.060 A 
BRANCH  70  71
ATOM     71  S   UNL A   1      47.814  25.902  37.359  1.00  0.00     0.124 S 
ATOM     72  O   UNL A   1      47.301  25.612  38.693  1.00  0.00    -0.237 OA
ATOM     73  O   UNL A   1      47.919  24.758  36.458  1.00  0.00    -0.237 OA
ATOM     74  O   UNL A   1      48.929  26.842  37.304  1.00  0.00    -0.744 OA
ENDBRANCH  70  71
ENDBRANCH  49  63
BRANCH  50  75
ATOM     75  C   UNL A   1      36.822  32.907  30.795  1.00  0.00     0.058 A 
ATOM     76  C   UNL A   1      37.045  33.894  29.823  1.00  0.00     0.135 A 
ATOM     77  C   UNL A   1      35.491  32.576  31.097  1.00  0.00     0.135 A 
ATOM     78  F   UNL A   1      38.299  34.247  29.503  1.00  0.00    -0.206 F 
ATOM     79  C   UNL A   1      35.991  34.544  29.187  1.00  0.00     0.059 A 
ATOM     80  C   UNL A   1      34.420  33.197  30.460  1.00  0.00     0.059 A 
ATOM     81  F   UNL A   1      35.225  31.626  32.007  1.00  0.00    -0.206 F 
ATOM     82  C   UNL A   1      34.681  34.189  29.514  1.00  0.00     0.060 A 
BRANCH  82  83
ATOM     83  S   UNL A   1      33.320  35.013  28.659  1.00  0.00     0.124 S 
ATOM     84  O   UNL A   1      32.536  35.522  29.777  1.00  0.00    -0.237 OA
ATOM     85  O   UNL A   1      34.020  36.015  27.861  1.00  0.00    -0.237 OA
ATOM     86  O   UNL A   1      32.704  33.932  27.894  1.00  0.00    -0.744 OA
ENDBRANCH  82  83
ENDBRANCH  50  75
BRANCH  62  87
ATOM     87  C   UNL A   1      39.973  33.829  36.943  1.00  0.00     0.058 A 
ATOM     88  C   UNL A   1      40.593  35.087  36.923  1.00  0.00     0.135 A 
ATOM     89  C   UNL A   1      39.103  33.538  38.005  1.00  0.00     0.135 A 
ATOM     90  F   UNL A   1      41.441  35.407  35.934  1.00  0.00    -0.206 F 
ATOM     91  C   UNL A   1      40.366  36.020  37.929  1.00  0.00     0.059 A 
ATOM     92  C   UNL A   1      38.843  34.466  39.008  1.00  0.00     0.059 A 
ATOM     93  F   UNL A   1      38.480  32.350  38.064  1.00  0.00    -0.206 F 
ATOM     94  C   UNL A   1      39.488  35.701  38.966  1.00  0.00     0.060 A 
BRANCH  94  95
ATOM     95  S   UNL A   1      39.166  36.937  40.241  1.00  0.00     0.124 S 
ATOM     96  O   UNL A   1      38.270  36.212  41.134  1.00  0.00    -0.237 OA
ATOM     97  O   UNL A   1      40.502  37.206  40.763  1.00  0.00    -0.237 OA
ATOM     98  O   UNL A   1      38.559  38.039  39.499  1.00  0.00    -0.744 OA
ENDBRANCH  94  95
ENDBRANCH  62  87
ENDBRANCH  36  37
ENDBRANCH  28  31
ENDBRANCH  26  27
ENDBRANCH   1  26
TORSDOF 16
ENDMDL
