MODEL 1
REMARK VINA RESULT:     -12.6      0.000      0.000
REMARK SMILES Cc1nc2cc(C(=O)NCCCNC(=O)c3ccc(-c4c5nc(c(-c6c(F)cc(S(=O)(=O)[O-])cc6F)c6ccc([nH]6)c(-c6c(F)cc(S(=O)(=O)[O-])cc6F)c6nc(c(-c7c(F)cc(S(=O)(=O)[O-])cc7F)c7ccc4[nH]7)C=C6)C=C5)cc3)ccc2n1CCC[NH+]1CCOCC1
REMARK SMILES IDX 10 1 9 2 7 3 8 4 6 6 1 7 2 8 3 9 85 10 4 11 84 12 5 13 83 14
REMARK SMILES IDX 82 15 86 16 87 17 88 18 89 19 90 20 94 21 91 23 93 24 92 25
REMARK SMILES IDX 11 26 12 27 13 28 14 29 15 31 16 32 17 33 81 34 18 35 80 36
REMARK SMILES IDX 19 37 20 38 21 39 74 40 22 41 79 42 73 43 75 44 23 45 78 46
REMARK SMILES IDX 72 47 71 48 24 50 58 51 37 52 57 53 38 54 41 55 56 56 76 57
REMARK SMILES IDX 39 58 40 59 55 61 77 62 42 63 25 64 26 65 35 66 27 67 28 68
REMARK SMILES IDX 34 69 36 70 29 71 30 72 31 73 32 74 33 75 59 76 60 77 69 78
REMARK SMILES IDX 61 79 62 80 68 81 70 82 63 83 64 84 65 85 66 86 67 87 43 88
REMARK SMILES IDX 44 89 53 90 45 91 46 92 52 93 54 94 47 95 48 96 49 97 50 98
REMARK SMILES IDX 51 99
REMARK H PARENT 9 5 89 22 13 30 75 49 41 60
REMARK Flexibility Score: inf
ROOT
ATOM      1  C   UNL A   1      39.734  20.860  25.990  1.00  0.00     0.118 C 
ENDROOT
BRANCH   1   2
ATOM      2  N   UNL A   1      39.630  22.272  26.288  1.00  0.00    -0.352 N 
ATOM      3  C   UNL A   1      38.623  23.179  26.124  1.00  0.00     0.251 C 
ATOM      4  O   UNL A   1      38.874  24.345  26.437  1.00  0.00    -0.269 OA
ATOM      5  H   UNL A   1      40.445  22.653  26.686  1.00  0.00     0.163 HD
BRANCH   3   6
ATOM      6  C   UNL A   1      37.251  22.828  25.659  1.00  0.00     0.042 A 
ATOM      7  C   UNL A   1      31.409  23.204  26.534  1.00  0.00     0.088 C 
ATOM      8  C   UNL A   1      32.784  22.834  26.183  1.00  0.00     0.106 A 
ATOM      9  N   UNL A   1      33.795  23.157  26.954  1.00  0.00    -0.233 NA
ATOM     10  N   UNL A   1      33.198  22.206  25.022  1.00  0.00    -0.328 N 
ATOM     11  C   UNL A   1      34.906  22.873  26.230  1.00  0.00     0.090 A 
ATOM     12  C   UNL A   1      34.585  22.279  25.014  1.00  0.00     0.068 A 
ATOM     13  C   UNL A   1      36.232  23.144  26.564  1.00  0.00     0.044 A 
ATOM     14  C   UNL A   1      35.576  21.947  24.084  1.00  0.00     0.029 A 
ATOM     15  C   UNL A   1      36.908  22.263  24.423  1.00  0.00     0.016 A 
BRANCH  10  16
ATOM     16  C   UNL A   1      32.373  21.762  23.901  1.00  0.00     0.130 C 
BRANCH  16  17
ATOM     17  C   UNL A   1      32.434  20.274  23.531  1.00  0.00     0.083 C 
BRANCH  17  18
ATOM     18  C   UNL A   1      32.635  19.217  24.639  1.00  0.00     0.264 C 
BRANCH  18  19
ATOM     19  N   UNL A   1      32.133  17.859  24.350  1.00  0.00    -0.331 N 
ATOM     20  C   UNL A   1      32.461  16.819  25.355  1.00  0.00     0.291 C 
ATOM     21  C   UNL A   1      32.664  17.354  23.055  1.00  0.00     0.291 C 
ATOM     22  H   UNL A   1      31.122  17.992  24.346  1.00  0.00     0.348 HD
ATOM     23  C   UNL A   1      33.941  16.371  25.368  1.00  0.00     0.221 C 
ATOM     24  C   UNL A   1      34.154  16.968  23.111  1.00  0.00     0.221 C 
ATOM     25  O   UNL A   1      34.374  15.932  24.077  1.00  0.00    -0.370 OA
ENDBRANCH  18  19
ENDBRANCH  17  18
ENDBRANCH  16  17
ENDBRANCH  10  16
ENDBRANCH   3   6
ENDBRANCH   1   2
BRANCH   1  26
ATOM     26  C   UNL A   1      41.186  20.393  26.102  1.00  0.00     0.042 C 
BRANCH  26  27
ATOM     27  C   UNL A   1      42.121  21.484  26.624  1.00  0.00     0.118 C 
BRANCH  27  28
ATOM     28  N   UNL A   1      42.879  22.140  25.576  1.00  0.00    -0.352 N 
ATOM     29  C   UNL A   1      43.225  23.429  25.287  1.00  0.00     0.251 C 
ATOM     30  H   UNL A   1      43.229  21.501  24.913  1.00  0.00     0.163 HD
ATOM     31  O   UNL A   1      43.892  23.579  24.260  1.00  0.00    -0.269 OA
BRANCH  29  32
ATOM     32  C   UNL A   1      42.838  24.635  26.074  1.00  0.00     0.039 A 
ATOM     33  C   UNL A   1      43.247  24.930  27.373  1.00  0.00     0.014 A 
ATOM     34  C   UNL A   1      41.978  25.545  25.424  1.00  0.00     0.014 A 
ATOM     35  C   UNL A   1      42.762  26.067  28.020  1.00  0.00     0.010 A 
ATOM     36  C   UNL A   1      41.510  26.696  26.058  1.00  0.00     0.010 A 
ATOM     37  C   UNL A   1      41.884  26.949  27.370  1.00  0.00    -0.014 A 
BRANCH  37  38
ATOM     38  C   UNL A   1      41.569  28.215  28.042  1.00  0.00     0.031 A 
ATOM     39  C   UNL A   1      42.647  29.229  27.884  1.00  0.00     0.074 A 
ATOM     40  C   UNL A   1      40.418  28.532  28.675  1.00  0.00     0.049 A 
ATOM     41  N   UNL A   1      43.501  29.603  28.779  1.00  0.00    -0.248 NA
ATOM     42  C   UNL A   1      42.926  29.758  26.540  1.00  0.00     0.031 C 
ATOM     43  C   UNL A   1      39.163  27.779  28.675  1.00  0.00     0.029 A 
ATOM     44  N   UNL A   1      40.100  29.650  29.406  1.00  0.00    -0.354 N 
ATOM     45  C   UNL A   1      44.250  30.613  28.184  1.00  0.00     0.074 A 
ATOM     46  C   UNL A   1      43.996  30.524  26.772  1.00  0.00     0.031 C 
ATOM     47  C   UNL A   1      38.171  28.550  29.179  1.00  0.00     0.029 A 
ATOM     48  C   UNL A   1      38.741  29.788  29.687  1.00  0.00     0.049 A 
ATOM     49  H   UNL A   1      40.775  30.300  29.707  1.00  0.00     0.167 HD
ATOM     50  C   UNL A   1      44.769  31.618  28.944  1.00  0.00     0.037 A 
ATOM     51  C   UNL A   1      38.125  30.837  30.294  1.00  0.00     0.037 A 
ATOM     52  C   UNL A   1      44.719  31.276  30.341  1.00  0.00     0.049 A 
ATOM     53  C   UNL A   1      39.136  31.517  31.135  1.00  0.00     0.074 A 
ATOM     54  C   UNL A   1      45.410  30.463  31.213  1.00  0.00     0.029 A 
ATOM     55  N   UNL A   1      43.533  31.604  30.937  1.00  0.00    -0.354 N 
ATOM     56  N   UNL A   1      39.679  30.976  32.191  1.00  0.00    -0.248 NA
ATOM     57  C   UNL A   1      39.786  32.726  30.642  1.00  0.00     0.031 C 
ATOM     58  C   UNL A   1      44.522  30.197  32.298  1.00  0.00     0.029 A 
ATOM     59  C   UNL A   1      43.330  30.884  32.080  1.00  0.00     0.049 A 
ATOM     60  H   UNL A   1      42.903  32.275  30.586  1.00  0.00     0.167 HD
ATOM     61  C   UNL A   1      40.947  31.514  32.229  1.00  0.00     0.074 A 
ATOM     62  C   UNL A   1      40.898  32.697  31.380  1.00  0.00     0.031 C 
ATOM     63  C   UNL A   1      42.007  30.773  32.652  1.00  0.00     0.037 A 
BRANCH  50  64
ATOM     64  C   UNL A   1      44.829  33.076  28.525  1.00  0.00     0.058 A 
ATOM     65  C   UNL A   1      46.090  33.712  28.443  1.00  0.00     0.135 A 
ATOM     66  C   UNL A   1      43.716  33.945  28.525  1.00  0.00     0.135 A 
ATOM     67  F   UNL A   1      47.222  32.988  28.446  1.00  0.00    -0.206 F 
ATOM     68  C   UNL A   1      46.232  35.101  28.431  1.00  0.00     0.059 A 
ATOM     69  C   UNL A   1      43.835  35.330  28.465  1.00  0.00     0.059 A 
ATOM     70  F   UNL A   1      42.464  33.506  28.684  1.00  0.00    -0.206 F 
ATOM     71  C   UNL A   1      45.096  35.902  28.454  1.00  0.00     0.060 A 
BRANCH  71  72
ATOM     72  S   UNL A   1      45.275  37.693  28.511  1.00  0.00     0.124 S 
ATOM     73  O   UNL A   1      44.789  37.995  29.852  1.00  0.00    -0.237 OA
ATOM     74  O   UNL A   1      46.708  37.858  28.294  1.00  0.00    -0.237 OA
ATOM     75  O   UNL A   1      44.425  38.148  27.413  1.00  0.00    -0.744 OA
ENDBRANCH  71  72
ENDBRANCH  50  64
BRANCH  51  76
ATOM     76  C   UNL A   1      36.783  31.446  30.062  1.00  0.00     0.058 A 
ATOM     77  C   UNL A   1      36.095  32.101  31.105  1.00  0.00     0.135 A 
ATOM     78  C   UNL A   1      36.309  31.692  28.760  1.00  0.00     0.135 A 
ATOM     79  F   UNL A   1      36.469  31.922  32.381  1.00  0.00    -0.206 F 
ATOM     80  C   UNL A   1      35.068  33.021  30.865  1.00  0.00     0.059 A 
ATOM     81  C   UNL A   1      35.278  32.599  28.497  1.00  0.00     0.059 A 
ATOM     82  F   UNL A   1      36.901  31.132  27.695  1.00  0.00    -0.206 F 
ATOM     83  C   UNL A   1      34.690  33.289  29.551  1.00  0.00     0.060 A 
BRANCH  83  84
ATOM     84  S   UNL A   1      33.527  34.638  29.227  1.00  0.00     0.124 S 
ATOM     85  O   UNL A   1      32.963  34.878  30.551  1.00  0.00    -0.237 OA
ATOM     86  O   UNL A   1      34.404  35.682  28.710  1.00  0.00    -0.237 OA
ATOM     87  O   UNL A   1      32.605  34.062  28.252  1.00  0.00    -0.744 OA
ENDBRANCH  83  84
ENDBRANCH  51  76
BRANCH  63  88
ATOM     88  C   UNL A   1      41.764  29.689  33.653  1.00  0.00     0.058 A 
ATOM     89  C   UNL A   1      41.459  28.354  33.349  1.00  0.00     0.135 A 
ATOM     90  C   UNL A   1      41.989  30.016  35.000  1.00  0.00     0.135 A 
ATOM     91  F   UNL A   1      41.289  27.956  32.079  1.00  0.00    -0.206 F 
ATOM     92  C   UNL A   1      41.389  27.383  34.350  1.00  0.00     0.059 A 
ATOM     93  C   UNL A   1      41.953  29.062  36.006  1.00  0.00     0.059 A 
ATOM     94  F   UNL A   1      42.313  31.275  35.341  1.00  0.00    -0.206 F 
ATOM     95  C   UNL A   1      41.656  27.743  35.673  1.00  0.00     0.060 A 
BRANCH  95  96
ATOM     96  S   UNL A   1      41.707  26.467  36.949  1.00  0.00     0.124 S 
ATOM     97  O   UNL A   1      42.898  26.842  37.711  1.00  0.00    -0.237 OA
ATOM     98  O   UNL A   1      40.431  26.663  37.637  1.00  0.00    -0.237 OA
ATOM     99  O   UNL A   1      41.813  25.228  36.195  1.00  0.00    -0.744 OA
ENDBRANCH  95  96
ENDBRANCH  63  88
ENDBRANCH  37  38
ENDBRANCH  29  32
ENDBRANCH  27  28
ENDBRANCH  26  27
ENDBRANCH   1  26
TORSDOF 17
ENDMDL
MODEL 2
REMARK VINA RESULT:     -12.6      3.330      5.411
REMARK SMILES Cc1nc2cc(C(=O)NCCCNC(=O)c3ccc(-c4c5nc(c(-c6c(F)cc(S(=O)(=O)[O-])cc6F)c6ccc([nH]6)c(-c6c(F)cc(S(=O)(=O)[O-])cc6F)c6nc(c(-c7c(F)cc(S(=O)(=O)[O-])cc7F)c7ccc4[nH]7)C=C6)C=C5)cc3)ccc2n1CCC[NH+]1CCOCC1
REMARK SMILES IDX 10 1 9 2 7 3 8 4 6 6 1 7 2 8 3 9 85 10 4 11 84 12 5 13 83 14
REMARK SMILES IDX 82 15 86 16 87 17 88 18 89 19 90 20 94 21 91 23 93 24 92 25
REMARK SMILES IDX 11 26 12 27 13 28 14 29 15 31 16 32 17 33 81 34 18 35 80 36
REMARK SMILES IDX 19 37 20 38 21 39 74 40 22 41 79 42 73 43 75 44 23 45 78 46
REMARK SMILES IDX 72 47 71 48 24 50 58 51 37 52 57 53 38 54 41 55 56 56 76 57
REMARK SMILES IDX 39 58 40 59 55 61 77 62 42 63 25 64 26 65 35 66 27 67 28 68
REMARK SMILES IDX 34 69 36 70 29 71 30 72 31 73 32 74 33 75 59 76 60 77 69 78
REMARK SMILES IDX 61 79 62 80 68 81 70 82 63 83 64 84 65 85 66 86 67 87 43 88
REMARK SMILES IDX 44 89 53 90 45 91 46 92 52 93 54 94 47 95 48 96 49 97 50 98
REMARK SMILES IDX 51 99
REMARK H PARENT 9 5 89 22 13 30 75 49 41 60
REMARK Flexibility Score: inf
ROOT
ATOM      1  C   UNL A   1      35.265  21.285  24.558  1.00  0.00     0.118 C 
ENDROOT
BRANCH   1   2
ATOM      2  N   UNL A   1      33.984  20.689  24.870  1.00  0.00    -0.352 N 
ATOM      3  C   UNL A   1      32.718  21.195  24.920  1.00  0.00     0.251 C 
ATOM      4  O   UNL A   1      31.827  20.420  25.278  1.00  0.00    -0.269 OA
ATOM      5  H   UNL A   1      34.037  19.730  25.089  1.00  0.00     0.163 HD
BRANCH   3   6
ATOM      6  C   UNL A   1      32.356  22.583  24.513  1.00  0.00     0.042 A 
ATOM      7  C   UNL A   1      31.750  28.265  26.056  1.00  0.00     0.088 C 
ATOM      8  C   UNL A   1      31.668  26.923  25.469  1.00  0.00     0.106 A 
ATOM      9  N   UNL A   1      31.870  25.848  26.194  1.00  0.00    -0.233 NA
ATOM     10  N   UNL A   1      31.464  26.618  24.136  1.00  0.00    -0.328 N 
ATOM     11  C   UNL A   1      31.948  24.825  25.308  1.00  0.00     0.090 A 
ATOM     12  C   UNL A   1      31.703  25.255  24.009  1.00  0.00     0.068 A 
ATOM     13  C   UNL A   1      32.266  23.493  25.571  1.00  0.00     0.044 A 
ATOM     14  C   UNL A   1      31.782  24.373  22.925  1.00  0.00     0.029 A 
ATOM     15  C   UNL A   1      32.142  23.039  23.206  1.00  0.00     0.016 A 
BRANCH  10  16
ATOM     16  C   UNL A   1      31.273  27.545  23.023  1.00  0.00     0.130 C 
BRANCH  16  17
ATOM     17  C   UNL A   1      29.904  28.228  22.906  1.00  0.00     0.083 C 
BRANCH  17  18
ATOM     18  C   UNL A   1      29.765  29.530  22.086  1.00  0.00     0.264 C 
BRANCH  18  19
ATOM     19  N   UNL A   1      28.398  29.900  21.669  1.00  0.00    -0.331 N 
ATOM     20  C   UNL A   1      28.271  31.177  20.926  1.00  0.00     0.291 C 
ATOM     21  C   UNL A   1      27.492  30.021  22.844  1.00  0.00     0.291 C 
ATOM     22  H   UNL A   1      28.144  29.138  21.041  1.00  0.00     0.348 HD
ATOM     23  C   UNL A   1      28.454  32.450  21.785  1.00  0.00     0.221 C 
ATOM     24  C   UNL A   1      27.750  31.281  23.691  1.00  0.00     0.221 C 
ATOM     25  O   UNL A   1      27.567  32.467  22.906  1.00  0.00    -0.370 OA
ENDBRANCH  18  19
ENDBRANCH  17  18
ENDBRANCH  16  17
ENDBRANCH  10  16
ENDBRANCH   3   6
ENDBRANCH   1   2
BRANCH   1  26
ATOM     26  C   UNL A   1      35.959  21.764  25.834  1.00  0.00     0.042 C 
BRANCH  26  27
ATOM     27  C   UNL A   1      37.297  22.452  25.560  1.00  0.00     0.118 C 
BRANCH  27  28
ATOM     28  N   UNL A   1      38.427  21.762  26.150  1.00  0.00    -0.352 N 
ATOM     29  C   UNL A   1      39.511  22.130  26.896  1.00  0.00     0.251 C 
ATOM     30  H   UNL A   1      38.409  20.793  25.970  1.00  0.00     0.163 HD
ATOM     31  O   UNL A   1      40.277  21.212  27.203  1.00  0.00    -0.269 OA
BRANCH  29  32
ATOM     32  C   UNL A   1      39.847  23.518  27.321  1.00  0.00     0.039 A 
ATOM     33  C   UNL A   1      39.001  24.623  27.253  1.00  0.00     0.014 A 
ATOM     34  C   UNL A   1      41.147  23.708  27.836  1.00  0.00     0.014 A 
ATOM     35  C   UNL A   1      39.462  25.885  27.629  1.00  0.00     0.010 A 
ATOM     36  C   UNL A   1      41.604  24.963  28.238  1.00  0.00     0.010 A 
ATOM     37  C   UNL A   1      40.767  26.062  28.113  1.00  0.00    -0.014 A 
BRANCH  37  38
ATOM     38  C   UNL A   1      41.117  27.376  28.666  1.00  0.00     0.031 A 
ATOM     39  C   UNL A   1      42.349  27.945  28.054  1.00  0.00     0.074 A 
ATOM     40  C   UNL A   1      40.406  28.093  29.564  1.00  0.00     0.049 A 
ATOM     41  N   UNL A   1      43.522  28.019  28.592  1.00  0.00    -0.248 NA
ATOM     42  C   UNL A   1      42.326  28.307  26.628  1.00  0.00     0.031 C 
ATOM     43  C   UNL A   1      39.049  27.826  30.044  1.00  0.00     0.029 A 
ATOM     44  N   UNL A   1      40.724  29.270  30.195  1.00  0.00    -0.354 N 
ATOM     45  C   UNL A   1      44.317  28.687  27.666  1.00  0.00     0.074 A 
ATOM     46  C   UNL A   1      43.599  28.655  26.422  1.00  0.00     0.031 C 
ATOM     47  C   UNL A   1      38.582  28.909  30.710  1.00  0.00     0.029 A 
ATOM     48  C   UNL A   1      39.654  29.883  30.847  1.00  0.00     0.049 A 
ATOM     49  H   UNL A   1      41.631  29.650  30.187  1.00  0.00     0.167 HD
ATOM     50  C   UNL A   1      45.351  29.466  28.090  1.00  0.00     0.037 A 
ATOM     51  C   UNL A   1      39.645  31.097  31.460  1.00  0.00     0.037 A 
ATOM     52  C   UNL A   1      45.656  29.200  29.471  1.00  0.00     0.049 A 
ATOM     53  C   UNL A   1      41.039  31.401  31.858  1.00  0.00     0.074 A 
ATOM     54  C   UNL A   1      46.293  28.220  30.200  1.00  0.00     0.029 A 
ATOM     55  N   UNL A   1      44.905  29.939  30.343  1.00  0.00    -0.354 N 
ATOM     56  N   UNL A   1      41.693  30.733  32.767  1.00  0.00    -0.248 NA
ATOM     57  C   UNL A   1      41.844  32.293  31.030  1.00  0.00     0.031 C 
ATOM     58  C   UNL A   1      45.776  28.311  31.526  1.00  0.00     0.029 A 
ATOM     59  C   UNL A   1      44.868  29.365  31.583  1.00  0.00     0.049 A 
ATOM     60  H   UNL A   1      44.447  30.778  30.107  1.00  0.00     0.167 HD
ATOM     61  C   UNL A   1      43.005  30.794  32.349  1.00  0.00     0.074 A 
ATOM     62  C   UNL A   1      43.064  31.896  31.399  1.00  0.00     0.031 C 
ATOM     63  C   UNL A   1      43.845  29.740  32.534  1.00  0.00     0.037 A 
BRANCH  50  64
ATOM     64  C   UNL A   1      45.738  30.800  27.474  1.00  0.00     0.058 A 
ATOM     65  C   UNL A   1      47.079  31.005  27.077  1.00  0.00     0.135 A 
ATOM     66  C   UNL A   1      44.950  31.968  27.562  1.00  0.00     0.135 A 
ATOM     67  F   UNL A   1      47.927  29.969  26.969  1.00  0.00    -0.206 F 
ATOM     68  C   UNL A   1      47.610  32.277  26.852  1.00  0.00     0.059 A 
ATOM     69  C   UNL A   1      45.447  33.240  27.296  1.00  0.00     0.059 A 
ATOM     70  F   UNL A   1      43.690  31.951  28.006  1.00  0.00    -0.206 F 
ATOM     71  C   UNL A   1      46.786  33.390  26.975  1.00  0.00     0.060 A 
BRANCH  71  72
ATOM     72  S   UNL A   1      47.482  35.037  26.756  1.00  0.00     0.124 S 
ATOM     73  O   UNL A   1      48.566  34.775  25.816  1.00  0.00    -0.237 OA
ATOM     74  O   UNL A   1      46.340  35.778  26.231  1.00  0.00    -0.237 OA
ATOM     75  O   UNL A   1      47.892  35.408  28.109  1.00  0.00    -0.744 OA
ENDBRANCH  71  72
ENDBRANCH  50  64
BRANCH  51  76
ATOM     76  C   UNL A   1      38.575  32.130  31.558  1.00  0.00     0.058 A 
ATOM     77  C   UNL A   1      37.918  32.604  30.402  1.00  0.00     0.135 A 
ATOM     78  C   UNL A   1      37.950  32.420  32.784  1.00  0.00     0.135 A 
ATOM     79  F   UNL A   1      38.440  32.383  29.186  1.00  0.00    -0.206 F 
ATOM     80  C   UNL A   1      36.670  33.234  30.454  1.00  0.00     0.059 A 
ATOM     81  C   UNL A   1      36.709  33.058  32.861  1.00  0.00     0.059 A 
ATOM     82  F   UNL A   1      38.483  32.002  33.942  1.00  0.00    -0.206 F 
ATOM     83  C   UNL A   1      36.056  33.426  31.690  1.00  0.00     0.060 A 
BRANCH  83  84
ATOM     84  S   UNL A   1      34.351  34.031  31.743  1.00  0.00     0.124 S 
ATOM     85  O   UNL A   1      34.529  35.401  32.211  1.00  0.00    -0.237 OA
ATOM     86  O   UNL A   1      33.928  33.882  30.356  1.00  0.00    -0.237 OA
ATOM     87  O   UNL A   1      33.702  33.128  32.691  1.00  0.00    -0.744 OA
ENDBRANCH  83  84
ENDBRANCH  51  76
BRANCH  63  88
ATOM     88  C   UNL A   1      43.610  28.836  33.701  1.00  0.00     0.058 A 
ATOM     89  C   UNL A   1      44.070  29.058  35.008  1.00  0.00     0.135 A 
ATOM     90  C   UNL A   1      42.751  27.747  33.489  1.00  0.00     0.135 A 
ATOM     91  F   UNL A   1      44.848  30.113  35.297  1.00  0.00    -0.206 F 
ATOM     92  C   UNL A   1      43.680  28.229  36.062  1.00  0.00     0.059 A 
ATOM     93  C   UNL A   1      42.327  26.928  34.527  1.00  0.00     0.059 A 
ATOM     94  F   UNL A   1      42.258  27.507  32.262  1.00  0.00    -0.206 F 
ATOM     95  C   UNL A   1      42.794  27.178  35.814  1.00  0.00     0.060 A 
BRANCH  95  96
ATOM     96  S   UNL A   1      42.176  26.193  37.195  1.00  0.00     0.124 S 
ATOM     97  O   UNL A   1      42.145  24.847  36.623  1.00  0.00    -0.237 OA
ATOM     98  O   UNL A   1      43.196  26.417  38.220  1.00  0.00    -0.237 OA
ATOM     99  O   UNL A   1      40.877  26.778  37.484  1.00  0.00    -0.744 OA
ENDBRANCH  95  96
ENDBRANCH  63  88
ENDBRANCH  37  38
ENDBRANCH  29  32
ENDBRANCH  27  28
ENDBRANCH  26  27
ENDBRANCH   1  26
TORSDOF 17
ENDMDL
MODEL 3
REMARK VINA RESULT:     -12.2      2.857      4.480
REMARK SMILES Cc1nc2cc(C(=O)NCCCNC(=O)c3ccc(-c4c5nc(c(-c6c(F)cc(S(=O)(=O)[O-])cc6F)c6ccc([nH]6)c(-c6c(F)cc(S(=O)(=O)[O-])cc6F)c6nc(c(-c7c(F)cc(S(=O)(=O)[O-])cc7F)c7ccc4[nH]7)C=C6)C=C5)cc3)ccc2n1CCC[NH+]1CCOCC1
REMARK SMILES IDX 10 1 9 2 7 3 8 4 6 6 1 7 2 8 3 9 85 10 4 11 84 12 5 13 83 14
REMARK SMILES IDX 82 15 86 16 87 17 88 18 89 19 90 20 94 21 91 23 93 24 92 25
REMARK SMILES IDX 11 26 12 27 13 28 14 29 15 31 16 32 17 33 81 34 18 35 80 36
REMARK SMILES IDX 19 37 20 38 21 39 74 40 22 41 79 42 73 43 75 44 23 45 78 46
REMARK SMILES IDX 72 47 71 48 24 50 58 51 37 52 57 53 38 54 41 55 56 56 76 57
REMARK SMILES IDX 39 58 40 59 55 61 77 62 42 63 25 64 26 65 35 66 27 67 28 68
REMARK SMILES IDX 34 69 36 70 29 71 30 72 31 73 32 74 33 75 59 76 60 77 69 78
REMARK SMILES IDX 61 79 62 80 68 81 70 82 63 83 64 84 65 85 66 86 67 87 43 88
REMARK SMILES IDX 44 89 53 90 45 91 46 92 52 93 54 94 47 95 48 96 49 97 50 98
REMARK SMILES IDX 51 99
REMARK H PARENT 9 5 89 22 13 30 75 49 41 60
REMARK Flexibility Score: inf
ROOT
ATOM      1  C   UNL A   1      37.499  23.237  26.147  1.00  0.00     0.118 C 
ENDROOT
BRANCH   1   2
ATOM      2  N   UNL A   1      36.328  22.467  26.508  1.00  0.00    -0.352 N 
ATOM      3  C   UNL A   1      34.993  22.669  26.308  1.00  0.00     0.251 C 
ATOM      4  O   UNL A   1      34.230  21.832  26.795  1.00  0.00    -0.269 OA
ATOM      5  H   UNL A   1      36.535  21.635  26.991  1.00  0.00     0.163 HD
BRANCH   3   6
ATOM      6  C   UNL A   1      34.429  23.786  25.498  1.00  0.00     0.042 A 
ATOM      7  C   UNL A   1      32.371  25.649  20.270  1.00  0.00     0.088 C 
ATOM      8  C   UNL A   1      32.970  25.488  21.600  1.00  0.00     0.106 A 
ATOM      9  N   UNL A   1      33.590  24.383  21.939  1.00  0.00    -0.233 NA
ATOM     10  N   UNL A   1      32.900  26.386  22.649  1.00  0.00    -0.328 N 
ATOM     11  C   UNL A   1      33.806  24.487  23.274  1.00  0.00     0.090 A 
ATOM     12  C   UNL A   1      33.391  25.719  23.764  1.00  0.00     0.068 A 
ATOM     13  C   UNL A   1      34.333  23.518  24.129  1.00  0.00     0.044 A 
ATOM     14  C   UNL A   1      33.473  26.024  25.128  1.00  0.00     0.029 A 
ATOM     15  C   UNL A   1      33.973  25.019  25.982  1.00  0.00     0.016 A 
BRANCH  10  16
ATOM     16  C   UNL A   1      32.235  27.687  22.673  1.00  0.00     0.130 C 
BRANCH  16  17
ATOM     17  C   UNL A   1      31.014  27.834  23.590  1.00  0.00     0.083 C 
BRANCH  17  18
ATOM     18  C   UNL A   1      29.788  28.643  23.111  1.00  0.00     0.264 C 
BRANCH  18  19
ATOM     19  N   UNL A   1      30.006  30.084  22.874  1.00  0.00    -0.331 N 
ATOM     20  C   UNL A   1      29.288  31.006  23.787  1.00  0.00     0.291 C 
ATOM     21  C   UNL A   1      29.592  30.471  21.498  1.00  0.00     0.291 C 
ATOM     22  H   UNL A   1      31.007  30.188  23.038  1.00  0.00     0.348 HD
ATOM     23  C   UNL A   1      27.763  31.101  23.548  1.00  0.00     0.221 C 
ATOM     24  C   UNL A   1      28.065  30.503  21.302  1.00  0.00     0.221 C 
ATOM     25  O   UNL A   1      27.458  31.446  22.194  1.00  0.00    -0.370 OA
ENDBRANCH  18  19
ENDBRANCH  17  18
ENDBRANCH  16  17
ENDBRANCH  10  16
ENDBRANCH   3   6
ENDBRANCH   1   2
BRANCH   1  26
ATOM     26  C   UNL A   1      38.505  22.363  25.394  1.00  0.00     0.042 C 
BRANCH  26  27
ATOM     27  C   UNL A   1      39.563  21.752  26.313  1.00  0.00     0.118 C 
BRANCH  27  28
ATOM     28  N   UNL A   1      40.912  21.877  25.795  1.00  0.00    -0.352 N 
ATOM     29  C   UNL A   1      41.860  22.860  25.777  1.00  0.00     0.251 C 
ATOM     30  H   UNL A   1      41.219  21.053  25.349  1.00  0.00     0.163 HD
ATOM     31  O   UNL A   1      42.915  22.566  25.207  1.00  0.00    -0.269 OA
BRANCH  29  32
ATOM     32  C   UNL A   1      41.708  24.231  26.342  1.00  0.00     0.039 A 
ATOM     33  C   UNL A   1      40.984  25.275  25.772  1.00  0.00     0.014 A 
ATOM     34  C   UNL A   1      42.368  24.469  27.567  1.00  0.00     0.014 A 
ATOM     35  C   UNL A   1      40.972  26.533  26.376  1.00  0.00     0.010 A 
ATOM     36  C   UNL A   1      42.338  25.718  28.187  1.00  0.00     0.010 A 
ATOM     37  C   UNL A   1      41.656  26.763  27.580  1.00  0.00    -0.014 A 
BRANCH  37  38
ATOM     38  C   UNL A   1      41.442  28.050  28.251  1.00  0.00     0.031 A 
ATOM     39  C   UNL A   1      42.572  28.997  28.045  1.00  0.00     0.074 A 
ATOM     40  C   UNL A   1      40.337  28.440  28.922  1.00  0.00     0.049 A 
ATOM     41  N   UNL A   1      43.479  29.325  28.906  1.00  0.00    -0.248 NA
ATOM     42  C   UNL A   1      42.833  29.499  26.687  1.00  0.00     0.031 C 
ATOM     43  C   UNL A   1      39.039  27.763  28.974  1.00  0.00     0.029 A 
ATOM     44  N   UNL A   1      40.113  29.580  29.654  1.00  0.00    -0.354 N 
ATOM     45  C   UNL A   1      44.265  30.284  28.275  1.00  0.00     0.074 A 
ATOM     46  C   UNL A   1      43.955  30.200  26.874  1.00  0.00     0.031 C 
ATOM     47  C   UNL A   1      38.114  28.596  29.507  1.00  0.00     0.029 A 
ATOM     48  C   UNL A   1      38.775  29.801  29.982  1.00  0.00     0.049 A 
ATOM     49  H   UNL A   1      40.835  30.190  29.925  1.00  0.00     0.167 HD
ATOM     50  C   UNL A   1      44.870  31.261  29.007  1.00  0.00     0.037 A 
ATOM     51  C   UNL A   1      38.245  30.890  30.602  1.00  0.00     0.037 A 
ATOM     52  C   UNL A   1      44.852  30.932  30.408  1.00  0.00     0.049 A 
ATOM     53  C   UNL A   1      39.325  31.513  31.400  1.00  0.00     0.074 A 
ATOM     54  C   UNL A   1      45.523  30.085  31.261  1.00  0.00     0.029 A 
ATOM     55  N   UNL A   1      43.710  31.335  31.043  1.00  0.00    -0.354 N 
ATOM     56  N   UNL A   1      39.873  30.948  32.440  1.00  0.00    -0.248 NA
ATOM     57  C   UNL A   1      40.028  32.678  30.873  1.00  0.00     0.031 C 
ATOM     58  C   UNL A   1      44.662  29.881  32.380  1.00  0.00     0.029 A 
ATOM     59  C   UNL A   1      43.506  30.636  32.199  1.00  0.00     0.049 A 
ATOM     60  H   UNL A   1      43.109  32.040  30.709  1.00  0.00     0.167 HD
ATOM     61  C   UNL A   1      41.171  31.409  32.428  1.00  0.00     0.074 A 
ATOM     62  C   UNL A   1      41.162  32.587  31.571  1.00  0.00     0.031 C 
ATOM     63  C   UNL A   1      42.200  30.608  32.819  1.00  0.00     0.037 A 
BRANCH  50  64
ATOM     64  C   UNL A   1      45.002  32.710  28.573  1.00  0.00     0.058 A 
ATOM     65  C   UNL A   1      46.292  33.283  28.489  1.00  0.00     0.135 A 
ATOM     66  C   UNL A   1      43.932  33.632  28.559  1.00  0.00     0.135 A 
ATOM     67  F   UNL A   1      47.388  32.507  28.505  1.00  0.00    -0.206 F 
ATOM     68  C   UNL A   1      46.502  34.664  28.464  1.00  0.00     0.059 A 
ATOM     69  C   UNL A   1      44.118  35.008  28.485  1.00  0.00     0.059 A 
ATOM     70  F   UNL A   1      42.660  33.254  28.716  1.00  0.00    -0.206 F 
ATOM     71  C   UNL A   1      45.405  35.519  28.473  1.00  0.00     0.060 A 
BRANCH  71  72
ATOM     72  S   UNL A   1      45.670  37.300  28.512  1.00  0.00     0.124 S 
ATOM     73  O   UNL A   1      44.573  37.742  29.366  1.00  0.00    -0.237 OA
ATOM     74  O   UNL A   1      47.008  37.392  29.086  1.00  0.00    -0.237 OA
ATOM     75  O   UNL A   1      45.571  37.683  27.106  1.00  0.00    -0.744 OA
ENDBRANCH  71  72
ENDBRANCH  50  64
BRANCH  51  76
ATOM     76  C   UNL A   1      36.935  31.576  30.413  1.00  0.00     0.058 A 
ATOM     77  C   UNL A   1      36.292  32.219  31.492  1.00  0.00     0.135 A 
ATOM     78  C   UNL A   1      36.461  31.904  29.129  1.00  0.00     0.135 A 
ATOM     79  F   UNL A   1      36.668  31.965  32.754  1.00  0.00    -0.206 F 
ATOM     80  C   UNL A   1      35.312  33.200  31.305  1.00  0.00     0.059 A 
ATOM     81  C   UNL A   1      35.477  32.873  28.918  1.00  0.00     0.059 A 
ATOM     82  F   UNL A   1      37.014  31.362  28.034  1.00  0.00    -0.206 F 
ATOM     83  C   UNL A   1      34.935  33.546  30.009  1.00  0.00     0.060 A 
BRANCH  83  84
ATOM     84  S   UNL A   1      33.841  34.965  29.758  1.00  0.00     0.124 S 
ATOM     85  O   UNL A   1      34.560  35.727  28.743  1.00  0.00    -0.237 OA
ATOM     86  O   UNL A   1      32.605  34.328  29.318  1.00  0.00    -0.237 OA
ATOM     87  O   UNL A   1      33.784  35.586  31.079  1.00  0.00    -0.744 OA
ENDBRANCH  83  84
ENDBRANCH  51  76
BRANCH  63  88
ATOM     88  C   UNL A   1      41.930  29.548  33.838  1.00  0.00     0.058 A 
ATOM     89  C   UNL A   1      41.450  28.259  33.563  1.00  0.00     0.135 A 
ATOM     90  C   UNL A   1      42.312  29.834  35.158  1.00  0.00     0.135 A 
ATOM     91  F   UNL A   1      41.121  27.896  32.313  1.00  0.00    -0.206 F 
ATOM     92  C   UNL A   1      41.363  27.291  34.566  1.00  0.00     0.059 A 
ATOM     93  C   UNL A   1      42.261  28.879  36.164  1.00  0.00     0.059 A 
ATOM     94  F   UNL A   1      42.805  31.045  35.469  1.00  0.00    -0.206 F 
ATOM     95  C   UNL A   1      41.789  27.605  35.859  1.00  0.00     0.060 A 
BRANCH  95  96
ATOM     96  S   UNL A   1      41.812  26.317  37.124  1.00  0.00     0.124 S 
ATOM     97  O   UNL A   1      42.960  26.712  37.942  1.00  0.00    -0.237 OA
ATOM     98  O   UNL A   1      40.503  26.478  37.757  1.00  0.00    -0.237 OA
ATOM     99  O   UNL A   1      41.981  25.089  36.365  1.00  0.00    -0.744 OA
ENDBRANCH  95  96
ENDBRANCH  63  88
ENDBRANCH  37  38
ENDBRANCH  29  32
ENDBRANCH  27  28
ENDBRANCH  26  27
ENDBRANCH   1  26
TORSDOF 17
ENDMDL
