MODEL 1
REMARK VINA RESULT:     -11.0      0.000      0.000
REMARK SMILES O=CN[C@@H](Cc1cc(Cl)ccc1[N+](=O)[O-])C(=O)NCCCNC(=O)c1ccc(-c2c3nc(c(-c4c(F)cc(S(=O)(=O)[O-])cc4F)c4ccc([nH]4)c(-c4c(F)cc(S(=O)(=O)[O-])cc4F)c4nc(c(-c5c(F)cc(S(=O)(=O)[O-])cc5F)c5ccc2[nH]5)C=C4)C=C3)cc1
REMARK SMILES IDX 20 1 19 2 18 3 16 4 17 5 4 7 3 8 1 9 2 10 5 12 6 13 7 14
REMARK SMILES IDX 12 15 8 16 11 17 9 18 10 19 13 20 14 21 15 22 21 23 22 24
REMARK SMILES IDX 23 25 24 27 25 28 26 29 90 30 27 31 89 32 28 33 29 34 30 35
REMARK SMILES IDX 83 36 31 37 88 38 82 39 84 40 32 41 87 42 81 43 80 44 33 46
REMARK SMILES IDX 67 47 46 48 66 49 47 50 50 51 65 52 85 53 48 54 49 55 64 57
REMARK SMILES IDX 86 58 51 59 34 60 35 61 44 62 36 63 37 64 43 65 45 66 38 67
REMARK SMILES IDX 39 68 40 69 41 70 42 71 68 72 69 73 78 74 70 75 71 76 77 77
REMARK SMILES IDX 79 78 72 79 73 80 74 81 75 82 76 83 52 84 53 85 62 86 54 87
REMARK SMILES IDX 55 88 61 89 63 90 56 91 57 92 58 93 59 94 60 95
REMARK H PARENT 18 6 3 11 22 26 84 45 50 56
REMARK Flexibility Score: inf
ROOT
ATOM      1  C   UNL A   1      32.648  28.325  26.058  1.00  0.00     0.042 C 
ENDROOT
BRANCH   1   2
ATOM      2  C   UNL A   1      33.366  27.330  25.170  1.00  0.00     0.117 C 
BRANCH   2   3
ATOM      3  N   UNL A   1      32.509  26.593  24.262  1.00  0.00    -0.354 N 
ATOM      4  C   UNL A   1      31.773  25.465  24.487  1.00  0.00     0.242 C 
ATOM      5  O   UNL A   1      30.824  25.252  23.725  1.00  0.00    -0.273 OA
ATOM      6  H   UNL A   1      32.447  26.959  23.350  1.00  0.00     0.163 HD
BRANCH   4   7
ATOM      7  C   UNL A   1      31.993  24.546  25.713  1.00  0.00     0.175 C 
BRANCH   7   8
ATOM      8  N   UNL A   1      30.833  24.456  26.581  1.00  0.00    -0.347 N 
ATOM      9  O   UNL A   1      29.275  23.219  27.679  1.00  0.00    -0.279 OA
ATOM     10  C   UNL A   1      30.245  23.279  26.939  1.00  0.00     0.337 C 
ATOM     11  H   UNL A   1      30.448  25.293  26.932  1.00  0.00     0.164 HD
ENDBRANCH   7   8
BRANCH   7  12
ATOM     12  C   UNL A   1      32.651  23.185  25.361  1.00  0.00     0.078 C 
BRANCH  12  13
ATOM     13  C   UNL A   1      34.046  23.195  24.759  1.00  0.00     0.034 A 
ATOM     14  C   UNL A   1      35.124  23.302  25.670  1.00  0.00     0.031 A 
ATOM     15  C   UNL A   1      34.368  23.128  23.383  1.00  0.00     0.272 A 
ATOM     16  C   UNL A   1      36.445  23.424  25.229  1.00  0.00     0.041 A 
ATOM     17  C   UNL A   1      35.703  23.261  22.946  1.00  0.00     0.087 A 
ATOM     18  Cl  UNL A   1      37.704  23.652  26.375  1.00  0.00    -0.084 Cl
ATOM     19  C   UNL A   1      36.737  23.425  23.870  1.00  0.00     0.027 A 
BRANCH  15  20
ATOM     20  N   UNL A   1      33.363  22.905  22.333  1.00  0.00     0.062 N 
ATOM     21  O   UNL A   1      33.323  23.717  21.399  1.00  0.00    -0.258 OA
ATOM     22  O   UNL A   1      32.605  21.937  22.453  1.00  0.00    -0.258 OA
ENDBRANCH  15  20
ENDBRANCH  12  13
ENDBRANCH   7  12
ENDBRANCH   4   7
ENDBRANCH   2   3
ENDBRANCH   1   2
BRANCH   1  23
ATOM     23  C   UNL A   1      33.348  28.598  27.385  1.00  0.00     0.118 C 
BRANCH  23  24
ATOM     24  N   UNL A   1      33.486  30.019  27.706  1.00  0.00    -0.352 N 
ATOM     25  C   UNL A   1      34.563  30.729  28.190  1.00  0.00     0.251 C 
ATOM     26  H   UNL A   1      32.676  30.557  27.549  1.00  0.00     0.163 HD
ATOM     27  O   UNL A   1      34.413  31.900  28.529  1.00  0.00    -0.269 OA
BRANCH  25  28
ATOM     28  C   UNL A   1      35.879  30.072  28.341  1.00  0.00     0.039 A 
ATOM     29  C   UNL A   1      36.779  30.087  27.272  1.00  0.00     0.014 A 
ATOM     30  C   UNL A   1      36.245  29.481  29.550  1.00  0.00     0.014 A 
ATOM     31  C   UNL A   1      38.084  29.622  27.460  1.00  0.00     0.010 A 
ATOM     32  C   UNL A   1      37.570  29.129  29.771  1.00  0.00     0.010 A 
ATOM     33  C   UNL A   1      38.509  29.206  28.731  1.00  0.00    -0.014 A 
BRANCH  33  34
ATOM     34  C   UNL A   1      39.927  28.863  29.015  1.00  0.00     0.031 A 
ATOM     35  C   UNL A   1      40.854  29.906  29.580  1.00  0.00     0.074 A 
ATOM     36  C   UNL A   1      40.404  27.652  28.660  1.00  0.00     0.049 A 
ATOM     37  N   UNL A   1      42.147  29.851  29.766  1.00  0.00    -0.248 NA
ATOM     38  C   UNL A   1      40.253  31.201  29.943  1.00  0.00     0.031 C 
ATOM     39  C   UNL A   1      39.624  26.581  28.033  1.00  0.00     0.029 A 
ATOM     40  N   UNL A   1      41.666  27.121  28.759  1.00  0.00    -0.354 N 
ATOM     41  C   UNL A   1      42.517  31.107  30.232  1.00  0.00     0.074 A 
ATOM     42  C   UNL A   1      41.322  31.921  30.249  1.00  0.00     0.031 C 
ATOM     43  C   UNL A   1      40.414  25.515  27.834  1.00  0.00     0.029 A 
ATOM     44  C   UNL A   1      41.765  25.835  28.279  1.00  0.00     0.049 A 
ATOM     45  H   UNL A   1      42.428  27.614  29.139  1.00  0.00     0.167 HD
ATOM     46  C   UNL A   1      43.735  31.536  30.639  1.00  0.00     0.037 A 
ATOM     47  C   UNL A   1      42.827  25.010  28.203  1.00  0.00     0.037 A 
ATOM     48  C   UNL A   1      44.907  30.703  30.671  1.00  0.00     0.049 A 
ATOM     49  C   UNL A   1      44.161  25.491  28.707  1.00  0.00     0.074 A 
ATOM     50  C   UNL A   1      46.174  31.013  31.131  1.00  0.00     0.029 A 
ATOM     51  N   UNL A   1      44.953  29.386  30.232  1.00  0.00    -0.354 N 
ATOM     52  N   UNL A   1      44.478  26.664  29.201  1.00  0.00    -0.248 NA
ATOM     53  C   UNL A   1      45.276  24.538  28.650  1.00  0.00     0.031 C 
ATOM     54  C   UNL A   1      46.992  29.893  30.947  1.00  0.00     0.029 A 
ATOM     55  C   UNL A   1      46.226  28.874  30.406  1.00  0.00     0.049 A 
ATOM     56  H   UNL A   1      44.191  28.890  29.853  1.00  0.00     0.167 HD
ATOM     57  C   UNL A   1      45.824  26.581  29.537  1.00  0.00     0.074 A 
ATOM     58  C   UNL A   1      46.257  25.241  29.201  1.00  0.00     0.031 C 
ATOM     59  C   UNL A   1      46.630  27.529  30.075  1.00  0.00     0.037 A 
BRANCH  46  60
ATOM     60  C   UNL A   1      43.851  32.962  31.101  1.00  0.00     0.058 A 
ATOM     61  C   UNL A   1      43.672  33.316  32.448  1.00  0.00     0.135 A 
ATOM     62  C   UNL A   1      44.155  33.988  30.191  1.00  0.00     0.135 A 
ATOM     63  F   UNL A   1      43.362  32.377  33.357  1.00  0.00    -0.206 F 
ATOM     64  C   UNL A   1      43.753  34.637  32.872  1.00  0.00     0.059 A 
ATOM     65  C   UNL A   1      44.269  35.314  30.597  1.00  0.00     0.059 A 
ATOM     66  F   UNL A   1      44.336  33.707  28.891  1.00  0.00    -0.206 F 
ATOM     67  C   UNL A   1      44.049  35.631  31.937  1.00  0.00     0.060 A 
BRANCH  67  68
ATOM     68  S   UNL A   1      44.143  37.344  32.501  1.00  0.00     0.124 S 
ATOM     69  O   UNL A   1      43.140  37.354  33.563  1.00  0.00    -0.237 OA
ATOM     70  O   UNL A   1      45.530  37.454  32.939  1.00  0.00    -0.237 OA
ATOM     71  O   UNL A   1      43.802  38.112  31.308  1.00  0.00    -0.744 OA
ENDBRANCH  67  68
ENDBRANCH  46  60
BRANCH  47  72
ATOM     72  C   UNL A   1      42.664  23.634  27.663  1.00  0.00     0.058 A 
ATOM     73  C   UNL A   1      42.796  23.384  26.289  1.00  0.00     0.135 A 
ATOM     74  C   UNL A   1      42.398  22.543  28.503  1.00  0.00     0.135 A 
ATOM     75  F   UNL A   1      43.048  24.396  25.445  1.00  0.00    -0.206 F 
ATOM     76  C   UNL A   1      42.653  22.104  25.764  1.00  0.00     0.059 A 
ATOM     77  C   UNL A   1      42.273  21.249  28.004  1.00  0.00     0.059 A 
ATOM     78  F   UNL A   1      42.283  22.726  29.828  1.00  0.00    -0.206 F 
ATOM     79  C   UNL A   1      42.393  21.041  26.630  1.00  0.00     0.060 A 
BRANCH  79  80
ATOM     80  S   UNL A   1      42.260  19.376  25.942  1.00  0.00     0.124 S 
ATOM     81  O   UNL A   1      42.807  18.568  27.025  1.00  0.00    -0.237 OA
ATOM     82  O   UNL A   1      40.824  19.252  25.714  1.00  0.00    -0.237 OA
ATOM     83  O   UNL A   1      43.075  19.448  24.732  1.00  0.00    -0.744 OA
ENDBRANCH  79  80
ENDBRANCH  47  72
BRANCH  59  84
ATOM     84  C   UNL A   1      48.051  27.141  30.366  1.00  0.00     0.058 A 
ATOM     85  C   UNL A   1      49.083  27.389  29.450  1.00  0.00     0.135 A 
ATOM     86  C   UNL A   1      48.390  26.565  31.601  1.00  0.00     0.135 A 
ATOM     87  F   UNL A   1      48.808  27.932  28.252  1.00  0.00    -0.206 F 
ATOM     88  C   UNL A   1      50.404  27.064  29.741  1.00  0.00     0.059 A 
ATOM     89  C   UNL A   1      49.706  26.254  31.922  1.00  0.00     0.059 A 
ATOM     90  F   UNL A   1      47.438  26.317  32.515  1.00  0.00    -0.206 F 
ATOM     91  C   UNL A   1      50.705  26.498  30.980  1.00  0.00     0.060 A 
BRANCH  91  92
ATOM     92  S   UNL A   1      52.428  26.117  31.363  1.00  0.00     0.124 S 
ATOM     93  O   UNL A   1      52.769  27.197  32.283  1.00  0.00    -0.237 OA
ATOM     94  O   UNL A   1      52.332  24.787  31.954  1.00  0.00    -0.237 OA
ATOM     95  O   UNL A   1      53.084  26.172  30.060  1.00  0.00    -0.744 OA
ENDBRANCH  91  92
ENDBRANCH  59  84
ENDBRANCH  33  34
ENDBRANCH  25  28
ENDBRANCH  23  24
ENDBRANCH   1  23
TORSDOF 17
ENDMDL
MODEL 2
REMARK VINA RESULT:     -10.9      1.028      2.350
REMARK SMILES O=CN[C@@H](Cc1cc(Cl)ccc1[N+](=O)[O-])C(=O)NCCCNC(=O)c1ccc(-c2c3nc(c(-c4c(F)cc(S(=O)(=O)[O-])cc4F)c4ccc([nH]4)c(-c4c(F)cc(S(=O)(=O)[O-])cc4F)c4nc(c(-c5c(F)cc(S(=O)(=O)[O-])cc5F)c5ccc2[nH]5)C=C4)C=C3)cc1
REMARK SMILES IDX 20 1 19 2 18 3 16 4 17 5 4 7 3 8 1 9 2 10 5 12 6 13 7 14
REMARK SMILES IDX 12 15 8 16 11 17 9 18 10 19 13 20 14 21 15 22 21 23 22 24
REMARK SMILES IDX 23 25 24 27 25 28 26 29 90 30 27 31 89 32 28 33 29 34 30 35
REMARK SMILES IDX 83 36 31 37 88 38 82 39 84 40 32 41 87 42 81 43 80 44 33 46
REMARK SMILES IDX 67 47 46 48 66 49 47 50 50 51 65 52 85 53 48 54 49 55 64 57
REMARK SMILES IDX 86 58 51 59 34 60 35 61 44 62 36 63 37 64 43 65 45 66 38 67
REMARK SMILES IDX 39 68 40 69 41 70 42 71 68 72 69 73 78 74 70 75 71 76 77 77
REMARK SMILES IDX 79 78 72 79 73 80 74 81 75 82 76 83 52 84 53 85 62 86 54 87
REMARK SMILES IDX 55 88 61 89 63 90 56 91 57 92 58 93 59 94 60 95
REMARK H PARENT 18 6 3 11 22 26 84 45 50 56
REMARK Flexibility Score: inf
ROOT
ATOM      1  C   UNL A   1      31.991  28.344  26.989  1.00  0.00     0.042 C 
ENDROOT
BRANCH   1   2
ATOM      2  C   UNL A   1      31.614  28.546  25.536  1.00  0.00     0.117 C 
BRANCH   2   3
ATOM      3  N   UNL A   1      32.717  28.909  24.665  1.00  0.00    -0.354 N 
ATOM      4  C   UNL A   1      33.418  28.134  23.787  1.00  0.00     0.242 C 
ATOM      5  O   UNL A   1      34.018  28.718  22.877  1.00  0.00    -0.273 OA
ATOM      6  H   UNL A   1      33.000  29.850  24.714  1.00  0.00     0.163 HD
BRANCH   4   7
ATOM      7  C   UNL A   1      33.377  26.587  23.807  1.00  0.00     0.175 C 
BRANCH   7   8
ATOM      8  N   UNL A   1      33.710  25.985  22.528  1.00  0.00    -0.347 N 
ATOM      9  O   UNL A   1      33.118  25.335  20.433  1.00  0.00    -0.279 OA
ATOM     10  C   UNL A   1      32.819  25.834  21.508  1.00  0.00     0.337 C 
ATOM     11  H   UNL A   1      34.633  25.668  22.391  1.00  0.00     0.164 HD
ENDBRANCH   7   8
BRANCH   7  12
ATOM     12  C   UNL A   1      34.097  25.961  25.031  1.00  0.00     0.078 C 
BRANCH  12  13
ATOM     13  C   UNL A   1      34.154  24.446  25.134  1.00  0.00     0.034 A 
ATOM     14  C   UNL A   1      35.389  23.838  24.806  1.00  0.00     0.031 A 
ATOM     15  C   UNL A   1      33.090  23.589  25.506  1.00  0.00     0.272 A 
ATOM     16  C   UNL A   1      35.531  22.447  24.764  1.00  0.00     0.041 A 
ATOM     17  C   UNL A   1      33.240  22.187  25.452  1.00  0.00     0.087 A 
ATOM     18  Cl  UNL A   1      37.024  21.762  24.261  1.00  0.00    -0.084 Cl
ATOM     19  C   UNL A   1      34.456  21.620  25.065  1.00  0.00     0.027 A 
BRANCH  15  20
ATOM     20  N   UNL A   1      31.788  24.083  25.978  1.00  0.00     0.062 N 
ATOM     21  O   UNL A   1      30.953  24.400  25.120  1.00  0.00    -0.258 OA
ATOM     22  O   UNL A   1      31.610  24.173  27.196  1.00  0.00    -0.258 OA
ENDBRANCH  15  20
ENDBRANCH  12  13
ENDBRANCH   7  12
ENDBRANCH   4   7
ENDBRANCH   2   3
ENDBRANCH   1   2
BRANCH   1  23
ATOM     23  C   UNL A   1      33.407  28.793  27.336  1.00  0.00     0.118 C 
BRANCH  23  24
ATOM     24  N   UNL A   1      33.499  30.181  27.789  1.00  0.00    -0.352 N 
ATOM     25  C   UNL A   1      34.541  30.866  28.375  1.00  0.00     0.251 C 
ATOM     26  H   UNL A   1      32.682  30.714  27.652  1.00  0.00     0.163 HD
ATOM     27  O   UNL A   1      34.350  31.998  28.813  1.00  0.00    -0.269 OA
BRANCH  25  28
ATOM     28  C   UNL A   1      35.867  30.227  28.514  1.00  0.00     0.039 A 
ATOM     29  C   UNL A   1      36.759  30.259  27.438  1.00  0.00     0.014 A 
ATOM     30  C   UNL A   1      36.249  29.635  29.717  1.00  0.00     0.014 A 
ATOM     31  C   UNL A   1      38.071  29.811  27.615  1.00  0.00     0.010 A 
ATOM     32  C   UNL A   1      37.580  29.301  29.927  1.00  0.00     0.010 A 
ATOM     33  C   UNL A   1      38.510  29.395  28.882  1.00  0.00    -0.014 A 
BRANCH  33  34
ATOM     34  C   UNL A   1      39.935  29.070  29.154  1.00  0.00     0.031 A 
ATOM     35  C   UNL A   1      40.846  30.117  29.739  1.00  0.00     0.074 A 
ATOM     36  C   UNL A   1      40.431  27.875  28.773  1.00  0.00     0.049 A 
ATOM     37  N   UNL A   1      42.141  30.079  29.919  1.00  0.00    -0.248 NA
ATOM     38  C   UNL A   1      40.225  31.394  30.129  1.00  0.00     0.031 C 
ATOM     39  C   UNL A   1      39.667  26.804  28.126  1.00  0.00     0.029 A 
ATOM     40  N   UNL A   1      41.702  27.363  28.858  1.00  0.00    -0.354 N 
ATOM     41  C   UNL A   1      42.491  31.332  30.410  1.00  0.00     0.074 A 
ATOM     42  C   UNL A   1      41.282  32.125  30.447  1.00  0.00     0.031 C 
ATOM     43  C   UNL A   1      40.474  25.756  27.904  1.00  0.00     0.029 A 
ATOM     44  C   UNL A   1      41.821  26.089  28.351  1.00  0.00     0.049 A 
ATOM     45  H   UNL A   1      42.457  27.861  29.246  1.00  0.00     0.167 HD
ATOM     46  C   UNL A   1      43.703  31.772  30.822  1.00  0.00     0.037 A 
ATOM     47  C   UNL A   1      42.896  25.284  28.255  1.00  0.00     0.037 A 
ATOM     48  C   UNL A   1      44.889  30.958  30.833  1.00  0.00     0.049 A 
ATOM     49  C   UNL A   1      44.223  25.776  28.765  1.00  0.00     0.074 A 
ATOM     50  C   UNL A   1      46.152  31.281  31.296  1.00  0.00     0.029 A 
ATOM     51  N   UNL A   1      44.955  29.652  30.367  1.00  0.00    -0.354 N 
ATOM     52  N   UNL A   1      44.523  26.944  29.282  1.00  0.00    -0.248 NA
ATOM     53  C   UNL A   1      45.354  24.843  28.685  1.00  0.00     0.031 C 
ATOM     54  C   UNL A   1      46.988  30.179  31.087  1.00  0.00     0.029 A 
ATOM     55  C   UNL A   1      46.238  29.158  30.527  1.00  0.00     0.049 A 
ATOM     56  H   UNL A   1      44.201  29.152  29.980  1.00  0.00     0.167 HD
ATOM     57  C   UNL A   1      45.871  26.877  29.613  1.00  0.00     0.074 A 
ATOM     58  C   UNL A   1      46.325  25.551  29.247  1.00  0.00     0.031 C 
ATOM     59  C   UNL A   1      46.663  27.827  30.168  1.00  0.00     0.037 A 
BRANCH  46  60
ATOM     60  C   UNL A   1      43.797  33.191  31.313  1.00  0.00     0.058 A 
ATOM     61  C   UNL A   1      43.597  33.516  32.664  1.00  0.00     0.135 A 
ATOM     62  C   UNL A   1      44.100  34.237  30.427  1.00  0.00     0.135 A 
ATOM     63  F   UNL A   1      43.287  32.557  33.551  1.00  0.00    -0.206 F 
ATOM     64  C   UNL A   1      43.658  34.830  33.114  1.00  0.00     0.059 A 
ATOM     65  C   UNL A   1      44.194  35.557  30.860  1.00  0.00     0.059 A 
ATOM     66  F   UNL A   1      44.300  33.984  29.124  1.00  0.00    -0.206 F 
ATOM     67  C   UNL A   1      43.953  35.845  32.202  1.00  0.00     0.060 A 
BRANCH  67  68
ATOM     68  S   UNL A   1      44.020  37.547  32.800  1.00  0.00     0.124 S 
ATOM     69  O   UNL A   1      42.927  37.557  33.769  1.00  0.00    -0.237 OA
ATOM     70  O   UNL A   1      45.364  37.630  33.363  1.00  0.00    -0.237 OA
ATOM     71  O   UNL A   1      43.799  38.339  31.595  1.00  0.00    -0.744 OA
ENDBRANCH  67  68
ENDBRANCH  46  60
BRANCH  47  72
ATOM     72  C   UNL A   1      42.755  23.916  27.688  1.00  0.00     0.058 A 
ATOM     73  C   UNL A   1      42.536  22.813  28.527  1.00  0.00     0.135 A 
ATOM     74  C   UNL A   1      42.812  23.684  26.306  1.00  0.00     0.135 A 
ATOM     75  F   UNL A   1      42.476  22.985  29.856  1.00  0.00    -0.206 F 
ATOM     76  C   UNL A   1      42.396  21.526  28.019  1.00  0.00     0.059 A 
ATOM     77  C   UNL A   1      42.652  22.409  25.771  1.00  0.00     0.059 A 
ATOM     78  F   UNL A   1      42.999  24.709  25.459  1.00  0.00    -0.206 F 
ATOM     79  C   UNL A   1      42.453  21.334  26.638  1.00  0.00     0.060 A 
BRANCH  79  80
ATOM     80  S   UNL A   1      42.219  19.665  25.986  1.00  0.00     0.124 S 
ATOM     81  O   UNL A   1      40.843  19.729  25.508  1.00  0.00    -0.237 OA
ATOM     82  O   UNL A   1      43.251  19.590  24.957  1.00  0.00    -0.237 OA
ATOM     83  O   UNL A   1      42.446  18.816  27.152  1.00  0.00    -0.744 OA
ENDBRANCH  79  80
ENDBRANCH  47  72
BRANCH  59  84
ATOM     84  C   UNL A   1      48.091  27.457  30.446  1.00  0.00     0.058 A 
ATOM     85  C   UNL A   1      48.453  26.733  31.591  1.00  0.00     0.135 A 
ATOM     86  C   UNL A   1      49.100  27.783  29.526  1.00  0.00     0.135 A 
ATOM     87  F   UNL A   1      47.525  26.403  32.504  1.00  0.00    -0.206 F 
ATOM     88  C   UNL A   1      49.772  26.357  31.824  1.00  0.00     0.059 A 
ATOM     89  C   UNL A   1      50.420  27.398  29.726  1.00  0.00     0.059 A 
ATOM     90  F   UNL A   1      48.802  28.468  28.409  1.00  0.00    -0.206 F 
ATOM     91  C   UNL A   1      50.748  26.694  30.885  1.00  0.00     0.060 A 
BRANCH  91  92
ATOM     92  S   UNL A   1      52.450  26.167  31.177  1.00  0.00     0.124 S 
ATOM     93  O   UNL A   1      52.971  26.091  29.817  1.00  0.00    -0.237 OA
ATOM     94  O   UNL A   1      52.978  27.250  32.000  1.00  0.00    -0.237 OA
ATOM     95  O   UNL A   1      52.294  24.887  31.863  1.00  0.00    -0.744 OA
ENDBRANCH  91  92
ENDBRANCH  59  84
ENDBRANCH  33  34
ENDBRANCH  25  28
ENDBRANCH  23  24
ENDBRANCH   1  23
TORSDOF 17
ENDMDL
MODEL 3
REMARK VINA RESULT:     -10.8      1.786      2.691
REMARK SMILES O=CN[C@@H](Cc1cc(Cl)ccc1[N+](=O)[O-])C(=O)NCCCNC(=O)c1ccc(-c2c3nc(c(-c4c(F)cc(S(=O)(=O)[O-])cc4F)c4ccc([nH]4)c(-c4c(F)cc(S(=O)(=O)[O-])cc4F)c4nc(c(-c5c(F)cc(S(=O)(=O)[O-])cc5F)c5ccc2[nH]5)C=C4)C=C3)cc1
REMARK SMILES IDX 20 1 19 2 18 3 16 4 17 5 4 7 3 8 1 9 2 10 5 12 6 13 7 14
REMARK SMILES IDX 12 15 8 16 11 17 9 18 10 19 13 20 14 21 15 22 21 23 22 24
REMARK SMILES IDX 23 25 24 27 25 28 26 29 90 30 27 31 89 32 28 33 29 34 30 35
REMARK SMILES IDX 83 36 31 37 88 38 82 39 84 40 32 41 87 42 81 43 80 44 33 46
REMARK SMILES IDX 67 47 46 48 66 49 47 50 50 51 65 52 85 53 48 54 49 55 64 57
REMARK SMILES IDX 86 58 51 59 34 60 35 61 44 62 36 63 37 64 43 65 45 66 38 67
REMARK SMILES IDX 39 68 40 69 41 70 42 71 68 72 69 73 78 74 70 75 71 76 77 77
REMARK SMILES IDX 79 78 72 79 73 80 74 81 75 82 76 83 52 84 53 85 62 86 54 87
REMARK SMILES IDX 55 88 61 89 63 90 56 91 57 92 58 93 59 94 60 95
REMARK H PARENT 18 6 3 11 22 26 84 45 50 56
REMARK Flexibility Score: inf
ROOT
ATOM      1  C   UNL A   1      31.882  28.343  27.222  1.00  0.00     0.042 C 
ENDROOT
BRANCH   1   2
ATOM      2  C   UNL A   1      31.728  26.987  26.564  1.00  0.00     0.117 C 
BRANCH   2   3
ATOM      3  N   UNL A   1      32.974  26.294  26.296  1.00  0.00    -0.354 N 
ATOM      4  C   UNL A   1      33.237  25.298  25.401  1.00  0.00     0.242 C 
ATOM      5  O   UNL A   1      34.415  25.147  25.058  1.00  0.00    -0.273 OA
ATOM      6  H   UNL A   1      33.743  26.585  26.838  1.00  0.00     0.163 HD
BRANCH   4   7
ATOM      7  C   UNL A   1      32.126  24.467  24.714  1.00  0.00     0.175 C 
BRANCH   7   8
ATOM      8  N   UNL A   1      31.013  24.155  25.592  1.00  0.00    -0.347 N 
ATOM      9  O   UNL A   1      30.182  23.144  27.450  1.00  0.00    -0.279 OA
ATOM     10  C   UNL A   1      31.126  23.390  26.715  1.00  0.00     0.337 C 
ATOM     11  H   UNL A   1      30.125  24.516  25.363  1.00  0.00     0.164 HD
ENDBRANCH   7   8
BRANCH   7  12
ATOM     12  C   UNL A   1      31.723  25.003  23.315  1.00  0.00     0.078 C 
BRANCH  12  13
ATOM     13  C   UNL A   1      31.184  26.421  23.215  1.00  0.00     0.034 A 
ATOM     14  C   UNL A   1      29.795  26.583  23.430  1.00  0.00     0.031 A 
ATOM     15  C   UNL A   1      31.931  27.584  22.911  1.00  0.00     0.272 A 
ATOM     16  C   UNL A   1      29.169  27.822  23.263  1.00  0.00     0.041 A 
ATOM     17  C   UNL A   1      31.289  28.828  22.736  1.00  0.00     0.087 A 
ATOM     18  Cl  UNL A   1      27.464  27.941  23.437  1.00  0.00    -0.084 Cl
ATOM     19  C   UNL A   1      29.907  28.941  22.896  1.00  0.00     0.027 A 
BRANCH  15  20
ATOM     20  N   UNL A   1      33.395  27.585  22.773  1.00  0.00     0.062 N 
ATOM     21  O   UNL A   1      34.055  28.087  23.693  1.00  0.00    -0.258 OA
ATOM     22  O   UNL A   1      33.879  27.108  21.742  1.00  0.00    -0.258 OA
ENDBRANCH  15  20
ENDBRANCH  12  13
ENDBRANCH   7  12
ENDBRANCH   4   7
ENDBRANCH   2   3
ENDBRANCH   1   2
BRANCH   1  23
ATOM     23  C   UNL A   1      33.323  28.833  27.312  1.00  0.00     0.118 C 
BRANCH  23  24
ATOM     24  N   UNL A   1      33.453  30.231  27.724  1.00  0.00    -0.352 N 
ATOM     25  C   UNL A   1      34.515  30.905  28.287  1.00  0.00     0.251 C 
ATOM     26  H   UNL A   1      32.651  30.781  27.574  1.00  0.00     0.163 HD
ATOM     27  O   UNL A   1      34.357  32.054  28.692  1.00  0.00    -0.269 OA
BRANCH  25  28
ATOM     28  C   UNL A   1      35.825  30.235  28.441  1.00  0.00     0.039 A 
ATOM     29  C   UNL A   1      36.717  30.219  27.365  1.00  0.00     0.014 A 
ATOM     30  C   UNL A   1      36.191  29.660  29.657  1.00  0.00     0.014 A 
ATOM     31  C   UNL A   1      38.017  29.741  27.553  1.00  0.00     0.010 A 
ATOM     32  C   UNL A   1      37.513  29.297  29.876  1.00  0.00     0.010 A 
ATOM     33  C   UNL A   1      38.446  29.342  28.829  1.00  0.00    -0.014 A 
BRANCH  33  34
ATOM     34  C   UNL A   1      39.861  28.987  29.109  1.00  0.00     0.031 A 
ATOM     35  C   UNL A   1      40.795  30.018  29.685  1.00  0.00     0.074 A 
ATOM     36  C   UNL A   1      40.330  27.776  28.743  1.00  0.00     0.049 A 
ATOM     37  N   UNL A   1      42.088  29.952  29.869  1.00  0.00    -0.248 NA
ATOM     38  C   UNL A   1      40.203  31.314  30.060  1.00  0.00     0.031 C 
ATOM     39  C   UNL A   1      39.542  26.717  28.105  1.00  0.00     0.029 A 
ATOM     40  N   UNL A   1      41.588  27.236  28.837  1.00  0.00    -0.354 N 
ATOM     41  C   UNL A   1      42.466  31.201  30.349  1.00  0.00     0.074 A 
ATOM     42  C   UNL A   1      41.277  32.023  30.373  1.00  0.00     0.031 C 
ATOM     43  C   UNL A   1      40.325  25.647  27.896  1.00  0.00     0.029 A 
ATOM     44  C   UNL A   1      41.679  25.954  28.344  1.00  0.00     0.049 A 
ATOM     45  H   UNL A   1      42.354  27.720  29.222  1.00  0.00     0.167 HD
ATOM     46  C   UNL A   1      43.688  31.617  30.760  1.00  0.00     0.037 A 
ATOM     47  C   UNL A   1      42.734  25.123  28.260  1.00  0.00     0.037 A 
ATOM     48  C   UNL A   1      44.854  30.776  30.783  1.00  0.00     0.049 A 
ATOM     49  C   UNL A   1      44.071  25.588  28.769  1.00  0.00     0.074 A 
ATOM     50  C   UNL A   1      46.123  31.073  31.247  1.00  0.00     0.029 A 
ATOM     51  N   UNL A   1      44.890  29.463  30.331  1.00  0.00    -0.354 N 
ATOM     52  N   UNL A   1      44.397  26.755  29.275  1.00  0.00    -0.248 NA
ATOM     53  C   UNL A   1      45.180  24.628  28.702  1.00  0.00     0.031 C 
ATOM     54  C   UNL A   1      46.934  29.949  31.052  1.00  0.00     0.029 A 
ATOM     55  C   UNL A   1      46.160  28.940  30.501  1.00  0.00     0.049 A 
ATOM     56  H   UNL A   1      44.125  28.976  29.948  1.00  0.00     0.167 HD
ATOM     57  C   UNL A   1      45.742  26.659  29.610  1.00  0.00     0.074 A 
ATOM     58  C   UNL A   1      46.166  25.319  29.260  1.00  0.00     0.031 C 
ATOM     59  C   UNL A   1      46.555  27.596  30.157  1.00  0.00     0.037 A 
BRANCH  46  60
ATOM     60  C   UNL A   1      43.814  33.038  31.235  1.00  0.00     0.058 A 
ATOM     61  C   UNL A   1      43.564  33.391  32.571  1.00  0.00     0.135 A 
ATOM     62  C   UNL A   1      44.199  34.059  30.351  1.00  0.00     0.135 A 
ATOM     63  F   UNL A   1      43.175  32.458  33.455  1.00  0.00    -0.206 F 
ATOM     64  C   UNL A   1      43.655  34.709  33.006  1.00  0.00     0.059 A 
ATOM     65  C   UNL A   1      44.324  35.380  30.770  1.00  0.00     0.059 A 
ATOM     66  F   UNL A   1      44.450  33.779  29.062  1.00  0.00    -0.206 F 
ATOM     67  C   UNL A   1      44.032  35.698  32.096  1.00  0.00     0.060 A 
BRANCH  67  68
ATOM     68  S   UNL A   1      44.137  37.405  32.674  1.00  0.00     0.124 S 
ATOM     69  O   UNL A   1      43.865  38.144  31.444  1.00  0.00    -0.237 OA
ATOM     70  O   UNL A   1      43.090  37.459  33.689  1.00  0.00    -0.237 OA
ATOM     71  O   UNL A   1      45.502  37.508  33.179  1.00  0.00    -0.744 OA
ENDBRANCH  67  68
ENDBRANCH  46  60
BRANCH  47  72
ATOM     72  C   UNL A   1      42.562  23.752  27.707  1.00  0.00     0.058 A 
ATOM     73  C   UNL A   1      42.439  22.646  28.562  1.00  0.00     0.135 A 
ATOM     74  C   UNL A   1      42.495  23.520  26.326  1.00  0.00     0.135 A 
ATOM     75  F   UNL A   1      42.499  22.818  29.891  1.00  0.00    -0.206 F 
ATOM     76  C   UNL A   1      42.272  21.357  28.068  1.00  0.00     0.059 A 
ATOM     77  C   UNL A   1      42.306  22.242  25.807  1.00  0.00     0.059 A 
ATOM     78  F   UNL A   1      42.588  24.547  25.466  1.00  0.00    -0.206 F 
ATOM     79  C   UNL A   1      42.205  21.165  26.688  1.00  0.00     0.060 A 
BRANCH  79  80
ATOM     80  S   UNL A   1      41.936  19.492  26.058  1.00  0.00     0.124 S 
ATOM     81  O   UNL A   1      42.401  18.681  27.177  1.00  0.00    -0.237 OA
ATOM     82  O   UNL A   1      40.497  19.483  25.816  1.00  0.00    -0.237 OA
ATOM     83  O   UNL A   1      42.766  19.451  24.857  1.00  0.00    -0.744 OA
ENDBRANCH  79  80
ENDBRANCH  47  72
BRANCH  59  84
ATOM     84  C   UNL A   1      47.973  27.195  30.444  1.00  0.00     0.058 A 
ATOM     85  C   UNL A   1      48.973  27.277  29.464  1.00  0.00     0.135 A 
ATOM     86  C   UNL A   1      48.345  26.779  31.732  1.00  0.00     0.135 A 
ATOM     87  F   UNL A   1      48.666  27.664  28.215  1.00  0.00    -0.206 F 
ATOM     88  C   UNL A   1      50.293  26.943  29.747  1.00  0.00     0.059 A 
ATOM     89  C   UNL A   1      49.662  26.462  32.043  1.00  0.00     0.059 A 
ATOM     90  F   UNL A   1      47.425  26.694  32.707  1.00  0.00    -0.206 F 
ATOM     91  C   UNL A   1      50.627  26.537  31.040  1.00  0.00     0.060 A 
BRANCH  91  92
ATOM     92  S   UNL A   1      52.351  26.144  31.405  1.00  0.00     0.124 S 
ATOM     93  O   UNL A   1      52.980  26.348  30.105  1.00  0.00    -0.237 OA
ATOM     94  O   UNL A   1      52.686  27.125  32.433  1.00  0.00    -0.237 OA
ATOM     95  O   UNL A   1      52.293  24.759  31.865  1.00  0.00    -0.744 OA
ENDBRANCH  91  92
ENDBRANCH  59  84
ENDBRANCH  33  34
ENDBRANCH  25  28
ENDBRANCH  23  24
ENDBRANCH   1  23
TORSDOF 17
ENDMDL
