MODEL 1
REMARK VINA RESULT:     -11.7      0.000      0.000
REMARK SMILES C[C@H](CN(C)C(=O)c1ccc(F)c(F)c1F)C(=O)NCCCNC(=O)c1ccc(-c2c3nc(c(-c4c(F)cc(S(=O)(=O)[O-])cc4F)c4ccc([nH]4)c(-c4c(F)cc(S(=O)(=O)[O-])cc4F)c4nc(c(-c5c(F)cc(S(=O)(=O)[O-])cc5F)c5ccc2[nH]5)C=C4)C=C3)cc1
REMARK SMILES IDX 20 1 19 2 17 3 18 4 2 6 1 7 3 8 4 9 5 10 6 11 7 12 8 13 9 14
REMARK SMILES IDX 15 15 10 16 13 17 16 18 11 19 14 20 12 21 21 22 22 23 23 24
REMARK SMILES IDX 24 25 25 27 26 28 27 29 91 30 28 31 90 32 29 33 30 34 31 35
REMARK SMILES IDX 84 36 32 37 89 38 83 39 85 40 33 41 88 42 82 43 81 44 34 46
REMARK SMILES IDX 68 47 47 48 67 49 48 50 51 51 66 52 86 53 49 54 50 55 65 57
REMARK SMILES IDX 87 58 52 59 35 60 36 61 45 62 37 63 38 64 44 65 46 66 39 67
REMARK SMILES IDX 40 68 41 69 42 70 43 71 69 72 70 73 79 74 71 75 72 76 78 77
REMARK SMILES IDX 80 78 73 79 74 80 75 81 76 82 77 83 53 84 54 85 63 86 55 87
REMARK SMILES IDX 56 88 62 89 64 90 57 91 58 92 59 93 60 94 61 95
REMARK H PARENT 19 5 23 26 85 45 51 56
REMARK Flexibility Score: inf
ROOT
ATOM      1  C   UNL A   1      34.180  29.503  27.216  1.00  0.00     0.117 C 
ENDROOT
BRANCH   1   2
ATOM      2  N   UNL A   1      34.175  29.325  25.773  1.00  0.00    -0.356 N 
ATOM      3  C   UNL A   1      33.851  28.240  25.018  1.00  0.00     0.224 C 
ATOM      4  O   UNL A   1      33.969  28.345  23.793  1.00  0.00    -0.275 OA
ATOM      5  H   UNL A   1      34.450  30.118  25.259  1.00  0.00     0.163 HD
BRANCH   3   6
ATOM      6  C   UNL A   1      33.324  26.938  25.624  1.00  0.00     0.095 C 
ATOM      7  C   UNL A   1      34.073  25.726  25.074  1.00  0.00     0.020 C 
BRANCH   6   8
ATOM      8  C   UNL A   1      31.781  26.891  25.654  1.00  0.00     0.132 C 
BRANCH   8   9
ATOM      9  N   UNL A   1      31.158  25.919  24.745  1.00  0.00    -0.341 N 
ATOM     10  C   UNL A   1      30.546  24.735  25.323  1.00  0.00     0.147 C 
BRANCH   9  11
ATOM     11  C   UNL A   1      30.842  26.333  23.455  1.00  0.00     0.256 C 
ATOM     12  O   UNL A   1      31.140  25.706  22.444  1.00  0.00    -0.269 OA
BRANCH  11  13
ATOM     13  C   UNL A   1      30.057  27.556  23.246  1.00  0.00     0.079 A 
ATOM     14  C   UNL A   1      30.634  28.634  22.566  1.00  0.00     0.020 A 
ATOM     15  C   UNL A   1      28.680  27.522  23.475  1.00  0.00     0.174 A 
ATOM     16  C   UNL A   1      29.822  29.684  22.127  1.00  0.00     0.043 A 
ATOM     17  C   UNL A   1      27.877  28.565  23.029  1.00  0.00     0.195 A 
ATOM     18  F   UNL A   1      28.106  26.471  24.078  1.00  0.00    -0.203 F 
ATOM     19  C   UNL A   1      28.447  29.636  22.354  1.00  0.00     0.161 A 
ATOM     20  F   UNL A   1      26.551  28.520  23.224  1.00  0.00    -0.200 F 
ATOM     21  F   UNL A   1      27.672  30.627  21.895  1.00  0.00    -0.204 F 
ENDBRANCH  11  13
ENDBRANCH   9  11
ENDBRANCH   8   9
ENDBRANCH   6   8
ENDBRANCH   3   6
ENDBRANCH   1   2
BRANCH   1  22
ATOM     22  C   UNL A   1      34.163  30.974  27.617  1.00  0.00     0.042 C 
BRANCH  22  23
ATOM     23  C   UNL A   1      35.462  31.467  28.235  1.00  0.00     0.118 C 
BRANCH  23  24
ATOM     24  N   UNL A   1      35.499  31.230  29.673  1.00  0.00    -0.352 N 
ATOM     25  C   UNL A   1      36.378  30.533  30.467  1.00  0.00     0.251 C 
ATOM     26  H   UNL A   1      34.755  31.645  30.167  1.00  0.00     0.163 HD
ATOM     27  O   UNL A   1      36.016  30.247  31.609  1.00  0.00    -0.269 OA
BRANCH  25  28
ATOM     28  C   UNL A   1      37.730  30.118  30.008  1.00  0.00     0.039 A 
ATOM     29  C   UNL A   1      38.684  29.764  30.973  1.00  0.00     0.014 A 
ATOM     30  C   UNL A   1      38.118  30.160  28.669  1.00  0.00     0.014 A 
ATOM     31  C   UNL A   1      39.988  29.424  30.593  1.00  0.00     0.010 A 
ATOM     32  C   UNL A   1      39.383  29.714  28.280  1.00  0.00     0.010 A 
ATOM     33  C   UNL A   1      40.344  29.365  29.236  1.00  0.00    -0.014 A 
BRANCH  33  34
ATOM     34  C   UNL A   1      41.717  28.972  28.805  1.00  0.00     0.031 A 
ATOM     35  C   UNL A   1      42.829  29.993  28.769  1.00  0.00     0.074 A 
ATOM     36  C   UNL A   1      41.954  27.711  28.391  1.00  0.00     0.049 A 
ATOM     37  N   UNL A   1      44.065  29.858  28.356  1.00  0.00    -0.248 NA
ATOM     38  C   UNL A   1      42.501  31.355  29.222  1.00  0.00     0.031 C 
ATOM     39  C   UNL A   1      40.954  26.644  28.315  1.00  0.00     0.029 A 
ATOM     40  N   UNL A   1      43.109  27.113  27.950  1.00  0.00    -0.354 N 
ATOM     41  C   UNL A   1      44.647  31.117  28.470  1.00  0.00     0.074 A 
ATOM     42  C   UNL A   1      43.616  32.014  28.942  1.00  0.00     0.031 C 
ATOM     43  C   UNL A   1      41.544  25.516  27.888  1.00  0.00     0.029 A 
ATOM     44  C   UNL A   1      42.954  25.786  27.625  1.00  0.00     0.049 A 
ATOM     45  H   UNL A   1      43.967  27.589  27.874  1.00  0.00     0.167 HD
ATOM     46  C   UNL A   1      45.929  31.489  28.231  1.00  0.00     0.037 A 
ATOM     47  C   UNL A   1      43.845  24.885  27.168  1.00  0.00     0.037 A 
ATOM     48  C   UNL A   1      46.966  30.583  27.811  1.00  0.00     0.049 A 
ATOM     49  C   UNL A   1      45.274  25.306  26.964  1.00  0.00     0.074 A 
ATOM     50  C   UNL A   1      48.311  30.846  27.605  1.00  0.00     0.029 A 
ATOM     51  N   UNL A   1      46.779  29.235  27.543  1.00  0.00    -0.354 N 
ATOM     52  N   UNL A   1      45.815  26.490  27.128  1.00  0.00    -0.248 NA
ATOM     53  C   UNL A   1      46.216  24.267  26.529  1.00  0.00     0.031 C 
ATOM     54  C   UNL A   1      48.928  29.662  27.184  1.00  0.00     0.029 A 
ATOM     55  C   UNL A   1      47.979  28.654  27.169  1.00  0.00     0.049 A 
ATOM     56  H   UNL A   1      45.918  28.761  27.610  1.00  0.00     0.167 HD
ATOM     57  C   UNL A   1      47.167  26.333  26.837  1.00  0.00     0.074 A 
ATOM     58  C   UNL A   1      47.361  24.936  26.505  1.00  0.00     0.031 C 
ATOM     59  C   UNL A   1      48.156  27.261  26.844  1.00  0.00     0.037 A 
BRANCH  46  60
ATOM     60  C   UNL A   1      46.286  32.940  28.434  1.00  0.00     0.058 A 
ATOM     61  C   UNL A   1      46.723  33.425  29.678  1.00  0.00     0.135 A 
ATOM     62  C   UNL A   1      46.216  33.850  27.366  1.00  0.00     0.135 A 
ATOM     63  F   UNL A   1      46.796  32.604  30.736  1.00  0.00    -0.206 F 
ATOM     64  C   UNL A   1      47.045  34.766  29.864  1.00  0.00     0.059 A 
ATOM     65  C   UNL A   1      46.561  35.191  27.524  1.00  0.00     0.059 A 
ATOM     66  F   UNL A   1      45.808  33.442  26.155  1.00  0.00    -0.206 F 
ATOM     67  C   UNL A   1      46.959  35.643  28.781  1.00  0.00     0.060 A 
BRANCH  67  68
ATOM     68  S   UNL A   1      47.381  37.379  29.040  1.00  0.00     0.124 S 
ATOM     69  O   UNL A   1      46.061  37.977  29.209  1.00  0.00    -0.237 OA
ATOM     70  O   UNL A   1      48.211  37.324  30.240  1.00  0.00    -0.237 OA
ATOM     71  O   UNL A   1      48.083  37.744  27.814  1.00  0.00    -0.744 OA
ENDBRANCH  67  68
ENDBRANCH  46  60
BRANCH  47  72
ATOM     72  C   UNL A   1      43.417  23.484  26.912  1.00  0.00     0.058 A 
ATOM     73  C   UNL A   1      43.233  23.015  25.603  1.00  0.00     0.135 A 
ATOM     74  C   UNL A   1      43.208  22.579  27.965  1.00  0.00     0.135 A 
ATOM     75  F   UNL A   1      43.417  23.843  24.563  1.00  0.00    -0.206 F 
ATOM     76  C   UNL A   1      42.844  21.705  25.344  1.00  0.00     0.059 A 
ATOM     77  C   UNL A   1      42.842  21.258  27.731  1.00  0.00     0.059 A 
ATOM     78  F   UNL A   1      43.388  22.973  29.236  1.00  0.00    -0.206 F 
ATOM     79  C   UNL A   1      42.654  20.832  26.417  1.00  0.00     0.060 A 
BRANCH  79  80
ATOM     80  S   UNL A   1      42.208  19.115  26.070  1.00  0.00     0.124 S 
ATOM     81  O   UNL A   1      43.035  18.827  24.904  1.00  0.00    -0.237 OA
ATOM     82  O   UNL A   1      42.590  18.441  27.307  1.00  0.00    -0.237 OA
ATOM     83  O   UNL A   1      40.770  19.187  25.824  1.00  0.00    -0.744 OA
ENDBRANCH  79  80
ENDBRANCH  47  72
BRANCH  59  84
ATOM     84  C   UNL A   1      49.543  26.783  26.514  1.00  0.00     0.058 A 
ATOM     85  C   UNL A   1      50.022  26.764  25.195  1.00  0.00     0.135 A 
ATOM     86  C   UNL A   1      50.405  26.350  27.534  1.00  0.00     0.135 A 
ATOM     87  F   UNL A   1      49.236  27.165  24.183  1.00  0.00    -0.206 F 
ATOM     88  C   UNL A   1      51.296  26.294  24.893  1.00  0.00     0.059 A 
ATOM     89  C   UNL A   1      51.692  25.901  27.257  1.00  0.00     0.059 A 
ATOM     90  F   UNL A   1      49.999  26.360  28.813  1.00  0.00    -0.206 F 
ATOM     91  C   UNL A   1      52.122  25.859  25.932  1.00  0.00     0.060 A 
BRANCH  91  92
ATOM     92  S   UNL A   1      53.773  25.247  25.532  1.00  0.00     0.124 S 
ATOM     93  O   UNL A   1      54.382  26.426  24.924  1.00  0.00    -0.237 OA
ATOM     94  O   UNL A   1      54.294  24.867  26.841  1.00  0.00    -0.237 OA
ATOM     95  O   UNL A   1      53.510  24.135  24.623  1.00  0.00    -0.744 OA
ENDBRANCH  91  92
ENDBRANCH  59  84
ENDBRANCH  33  34
ENDBRANCH  25  28
ENDBRANCH  23  24
ENDBRANCH  22  23
ENDBRANCH   1  22
TORSDOF 17
ENDMDL
MODEL 2
REMARK VINA RESULT:     -11.5      4.596      7.165
REMARK SMILES C[C@H](CN(C)C(=O)c1ccc(F)c(F)c1F)C(=O)NCCCNC(=O)c1ccc(-c2c3nc(c(-c4c(F)cc(S(=O)(=O)[O-])cc4F)c4ccc([nH]4)c(-c4c(F)cc(S(=O)(=O)[O-])cc4F)c4nc(c(-c5c(F)cc(S(=O)(=O)[O-])cc5F)c5ccc2[nH]5)C=C4)C=C3)cc1
REMARK SMILES IDX 20 1 19 2 17 3 18 4 2 6 1 7 3 8 4 9 5 10 6 11 7 12 8 13 9 14
REMARK SMILES IDX 15 15 10 16 13 17 16 18 11 19 14 20 12 21 21 22 22 23 23 24
REMARK SMILES IDX 24 25 25 27 26 28 27 29 91 30 28 31 90 32 29 33 30 34 31 35
REMARK SMILES IDX 84 36 32 37 89 38 83 39 85 40 33 41 88 42 82 43 81 44 34 46
REMARK SMILES IDX 68 47 47 48 67 49 48 50 51 51 66 52 86 53 49 54 50 55 65 57
REMARK SMILES IDX 87 58 52 59 35 60 36 61 45 62 37 63 38 64 44 65 46 66 39 67
REMARK SMILES IDX 40 68 41 69 42 70 43 71 69 72 70 73 79 74 71 75 72 76 78 77
REMARK SMILES IDX 80 78 73 79 74 80 75 81 76 82 77 83 53 84 54 85 63 86 55 87
REMARK SMILES IDX 56 88 62 89 64 90 57 91 58 92 59 93 60 94 61 95
REMARK H PARENT 19 5 23 26 85 45 51 56
REMARK Flexibility Score: inf
ROOT
ATOM      1  C   UNL A   1      34.038  35.206  28.912  1.00  0.00     0.117 C 
ENDROOT
BRANCH   1   2
ATOM      2  N   UNL A   1      33.590  35.536  30.255  1.00  0.00    -0.356 N 
ATOM      3  C   UNL A   1      34.002  35.066  31.464  1.00  0.00     0.224 C 
ATOM      4  O   UNL A   1      33.421  35.493  32.467  1.00  0.00    -0.275 OA
ATOM      5  H   UNL A   1      32.872  36.209  30.297  1.00  0.00     0.163 HD
BRANCH   3   6
ATOM      6  C   UNL A   1      35.158  34.076  31.616  1.00  0.00     0.095 C 
ATOM      7  C   UNL A   1      34.660  32.632  31.591  1.00  0.00     0.020 C 
BRANCH   6   8
ATOM      8  C   UNL A   1      36.138  34.491  32.735  1.00  0.00     0.132 C 
BRANCH   8   9
ATOM      9  N   UNL A   1      37.439  33.807  32.725  1.00  0.00    -0.341 N 
ATOM     10  C   UNL A   1      38.507  34.378  31.922  1.00  0.00     0.147 C 
BRANCH   9  11
ATOM     11  C   UNL A   1      37.712  32.898  33.742  1.00  0.00     0.256 C 
ATOM     12  O   UNL A   1      37.229  32.966  34.867  1.00  0.00    -0.269 OA
BRANCH  11  13
ATOM     13  C   UNL A   1      38.578  31.742  33.482  1.00  0.00     0.079 A 
ATOM     14  C   UNL A   1      39.924  31.793  33.864  1.00  0.00     0.020 A 
ATOM     15  C   UNL A   1      37.993  30.526  33.121  1.00  0.00     0.174 A 
ATOM     16  C   UNL A   1      40.681  30.618  33.870  1.00  0.00     0.043 A 
ATOM     17  C   UNL A   1      38.749  29.361  33.138  1.00  0.00     0.195 A 
ATOM     18  F   UNL A   1      36.692  30.454  32.806  1.00  0.00    -0.203 F 
ATOM     19  C   UNL A   1      40.085  29.408  33.516  1.00  0.00     0.161 A 
ATOM     20  F   UNL A   1      38.180  28.189  32.819  1.00  0.00    -0.200 F 
ATOM     21  F   UNL A   1      40.807  28.282  33.565  1.00  0.00    -0.204 F 
ENDBRANCH  11  13
ENDBRANCH   9  11
ENDBRANCH   8   9
ENDBRANCH   6   8
ENDBRANCH   3   6
ENDBRANCH   1   2
BRANCH   1  22
ATOM     22  C   UNL A   1      33.402  33.921  28.391  1.00  0.00     0.042 C 
BRANCH  22  23
ATOM     23  C   UNL A   1      34.402  32.841  28.009  1.00  0.00     0.118 C 
BRANCH  23  24
ATOM     24  N   UNL A   1      33.777  31.525  27.951  1.00  0.00    -0.352 N 
ATOM     25  C   UNL A   1      34.307  30.258  27.907  1.00  0.00     0.251 C 
ATOM     26  H   UNL A   1      32.792  31.549  27.942  1.00  0.00     0.163 HD
ATOM     27  O   UNL A   1      33.561  29.336  27.569  1.00  0.00    -0.269 OA
BRANCH  25  28
ATOM     28  C   UNL A   1      35.723  29.959  28.246  1.00  0.00     0.039 A 
ATOM     29  C   UNL A   1      36.689  30.069  27.236  1.00  0.00     0.014 A 
ATOM     30  C   UNL A   1      36.114  29.480  29.497  1.00  0.00     0.014 A 
ATOM     31  C   UNL A   1      38.027  29.740  27.493  1.00  0.00     0.010 A 
ATOM     32  C   UNL A   1      37.463  29.259  29.785  1.00  0.00     0.010 A 
ATOM     33  C   UNL A   1      38.434  29.360  28.781  1.00  0.00    -0.014 A 
BRANCH  33  34
ATOM     34  C   UNL A   1      39.858  29.038  29.087  1.00  0.00     0.031 A 
ATOM     35  C   UNL A   1      40.753  30.065  29.739  1.00  0.00     0.074 A 
ATOM     36  C   UNL A   1      40.366  27.841  28.728  1.00  0.00     0.049 A 
ATOM     37  N   UNL A   1      42.031  29.994  30.016  1.00  0.00    -0.248 NA
ATOM     38  C   UNL A   1      40.140  31.355  30.094  1.00  0.00     0.031 C 
ATOM     39  C   UNL A   1      39.628  26.783  28.033  1.00  0.00     0.029 A 
ATOM     40  N   UNL A   1      41.623  27.313  28.890  1.00  0.00    -0.354 N 
ATOM     41  C   UNL A   1      42.379  31.233  30.545  1.00  0.00     0.074 A 
ATOM     42  C   UNL A   1      41.189  32.055  30.503  1.00  0.00     0.031 C 
ATOM     43  C   UNL A   1      40.433  25.723  27.860  1.00  0.00     0.029 A 
ATOM     44  C   UNL A   1      41.755  26.037  28.397  1.00  0.00     0.049 A 
ATOM     45  H   UNL A   1      42.360  27.803  29.320  1.00  0.00     0.167 HD
ATOM     46  C   UNL A   1      43.570  31.644  31.045  1.00  0.00     0.037 A 
ATOM     47  C   UNL A   1      42.817  25.209  28.378  1.00  0.00     0.037 A 
ATOM     48  C   UNL A   1      44.739  30.807  31.133  1.00  0.00     0.049 A 
ATOM     49  C   UNL A   1      44.112  25.665  28.990  1.00  0.00     0.074 A 
ATOM     50  C   UNL A   1      45.975  31.105  31.682  1.00  0.00     0.029 A 
ATOM     51  N   UNL A   1      44.814  29.502  30.669  1.00  0.00    -0.354 N 
ATOM     52  N   UNL A   1      44.405  26.823  29.532  1.00  0.00    -0.248 NA
ATOM     53  C   UNL A   1      45.217  24.697  29.001  1.00  0.00     0.031 C 
ATOM     54  C   UNL A   1      46.805  29.990  31.523  1.00  0.00     0.029 A 
ATOM     55  C   UNL A   1      46.075  28.983  30.913  1.00  0.00     0.049 A 
ATOM     56  H   UNL A   1      44.079  29.016  30.230  1.00  0.00     0.167 HD
ATOM     57  C   UNL A   1      45.721  26.716  29.970  1.00  0.00     0.074 A 
ATOM     58  C   UNL A   1      46.159  25.374  29.644  1.00  0.00     0.031 C 
ATOM     59  C   UNL A   1      46.495  27.644  30.585  1.00  0.00     0.037 A 
BRANCH  46  60
ATOM     60  C   UNL A   1      43.665  33.060  31.553  1.00  0.00     0.058 A 
ATOM     61  C   UNL A   1      43.836  34.147  30.681  1.00  0.00     0.135 A 
ATOM     62  C   UNL A   1      43.555  33.337  32.926  1.00  0.00     0.135 A 
ATOM     63  F   UNL A   1      43.961  33.941  29.361  1.00  0.00    -0.206 F 
ATOM     64  C   UNL A   1      43.930  35.453  31.153  1.00  0.00     0.059 A 
ATOM     65  C   UNL A   1      43.617  34.639  33.418  1.00  0.00     0.059 A 
ATOM     66  F   UNL A   1      43.387  32.337  33.806  1.00  0.00    -0.206 F 
ATOM     67  C   UNL A   1      43.821  35.689  32.524  1.00  0.00     0.060 A 
BRANCH  67  68
ATOM     68  S   UNL A   1      43.944  37.388  33.120  1.00  0.00     0.124 S 
ATOM     69  O   UNL A   1      45.208  37.351  33.848  1.00  0.00    -0.237 OA
ATOM     70  O   UNL A   1      43.950  38.157  31.879  1.00  0.00    -0.237 OA
ATOM     71  O   UNL A   1      42.750  37.547  33.944  1.00  0.00    -0.744 OA
ENDBRANCH  67  68
ENDBRANCH  46  60
BRANCH  47  72
ATOM     72  C   UNL A   1      42.685  23.847  27.794  1.00  0.00     0.058 A 
ATOM     73  C   UNL A   1      42.530  22.723  28.618  1.00  0.00     0.135 A 
ATOM     74  C   UNL A   1      42.686  23.644  26.405  1.00  0.00     0.135 A 
ATOM     75  F   UNL A   1      42.528  22.866  29.952  1.00  0.00    -0.206 F 
ATOM     76  C   UNL A   1      42.394  21.443  28.089  1.00  0.00     0.059 A 
ATOM     77  C   UNL A   1      42.528  22.378  25.852  1.00  0.00     0.059 A 
ATOM     78  F   UNL A   1      42.813  24.689  25.572  1.00  0.00    -0.206 F 
ATOM     79  C   UNL A   1      42.391  21.281  26.703  1.00  0.00     0.060 A 
BRANCH  79  80
ATOM     80  S   UNL A   1      42.152  19.624  26.023  1.00  0.00     0.124 S 
ATOM     81  O   UNL A   1      43.116  19.614  24.929  1.00  0.00    -0.237 OA
ATOM     82  O   UNL A   1      42.472  18.773  27.165  1.00  0.00    -0.237 OA
ATOM     83  O   UNL A   1      40.746  19.625  25.629  1.00  0.00    -0.744 OA
ENDBRANCH  79  80
ENDBRANCH  47  72
BRANCH  59  84
ATOM     84  C   UNL A   1      47.885  27.224  30.975  1.00  0.00     0.058 A 
ATOM     85  C   UNL A   1      48.988  27.455  30.138  1.00  0.00     0.135 A 
ATOM     86  C   UNL A   1      48.116  26.592  32.207  1.00  0.00     0.135 A 
ATOM     87  F   UNL A   1      48.820  28.052  28.947  1.00  0.00    -0.206 F 
ATOM     88  C   UNL A   1      50.267  27.039  30.492  1.00  0.00     0.059 A 
ATOM     89  C   UNL A   1      49.390  26.192  32.593  1.00  0.00     0.059 A 
ATOM     90  F   UNL A   1      47.097  26.360  33.049  1.00  0.00    -0.206 F 
ATOM     91  C   UNL A   1      50.457  26.402  31.721  1.00  0.00     0.060 A 
BRANCH  91  92
ATOM     92  S   UNL A   1      52.119  25.861  32.171  1.00  0.00     0.124 S 
ATOM     93  O   UNL A   1      52.535  26.921  33.083  1.00  0.00    -0.237 OA
ATOM     94  O   UNL A   1      51.872  24.559  32.783  1.00  0.00    -0.237 OA
ATOM     95  O   UNL A   1      52.820  25.821  30.891  1.00  0.00    -0.744 OA
ENDBRANCH  91  92
ENDBRANCH  59  84
ENDBRANCH  33  34
ENDBRANCH  25  28
ENDBRANCH  23  24
ENDBRANCH  22  23
ENDBRANCH   1  22
TORSDOF 17
ENDMDL
MODEL 3
REMARK VINA RESULT:     -11.3      4.895      6.698
REMARK SMILES C[C@H](CN(C)C(=O)c1ccc(F)c(F)c1F)C(=O)NCCCNC(=O)c1ccc(-c2c3nc(c(-c4c(F)cc(S(=O)(=O)[O-])cc4F)c4ccc([nH]4)c(-c4c(F)cc(S(=O)(=O)[O-])cc4F)c4nc(c(-c5c(F)cc(S(=O)(=O)[O-])cc5F)c5ccc2[nH]5)C=C4)C=C3)cc1
REMARK SMILES IDX 20 1 19 2 17 3 18 4 2 6 1 7 3 8 4 9 5 10 6 11 7 12 8 13 9 14
REMARK SMILES IDX 15 15 10 16 13 17 16 18 11 19 14 20 12 21 21 22 22 23 23 24
REMARK SMILES IDX 24 25 25 27 26 28 27 29 91 30 28 31 90 32 29 33 30 34 31 35
REMARK SMILES IDX 84 36 32 37 89 38 83 39 85 40 33 41 88 42 82 43 81 44 34 46
REMARK SMILES IDX 68 47 47 48 67 49 48 50 51 51 66 52 86 53 49 54 50 55 65 57
REMARK SMILES IDX 87 58 52 59 35 60 36 61 45 62 37 63 38 64 44 65 46 66 39 67
REMARK SMILES IDX 40 68 41 69 42 70 43 71 69 72 70 73 79 74 71 75 72 76 78 77
REMARK SMILES IDX 80 78 73 79 74 80 75 81 76 82 77 83 53 84 54 85 63 86 55 87
REMARK SMILES IDX 56 88 62 89 64 90 57 91 58 92 59 93 60 94 61 95
REMARK H PARENT 19 5 23 26 85 45 51 56
REMARK Flexibility Score: inf
ROOT
ATOM      1  C   UNL A   1      34.262  34.202  29.624  1.00  0.00     0.117 C 
ENDROOT
BRANCH   1   2
ATOM      2  N   UNL A   1      33.856  35.592  29.759  1.00  0.00    -0.356 N 
ATOM      3  C   UNL A   1      33.282  36.247  30.804  1.00  0.00     0.224 C 
ATOM      4  O   UNL A   1      33.000  37.439  30.642  1.00  0.00    -0.275 OA
ATOM      5  H   UNL A   1      34.024  36.149  28.964  1.00  0.00     0.163 HD
BRANCH   3   6
ATOM      6  C   UNL A   1      33.014  35.578  32.153  1.00  0.00     0.095 C 
ATOM      7  C   UNL A   1      31.658  35.993  32.720  1.00  0.00     0.020 C 
BRANCH   6   8
ATOM      8  C   UNL A   1      34.244  35.633  33.086  1.00  0.00     0.132 C 
BRANCH   8   9
ATOM      9  N   UNL A   1      34.814  34.332  33.463  1.00  0.00    -0.341 N 
ATOM     10  C   UNL A   1      34.006  33.142  33.249  1.00  0.00     0.147 C 
BRANCH   9  11
ATOM     11  C   UNL A   1      36.190  34.243  33.639  1.00  0.00     0.256 C 
ATOM     12  O   UNL A   1      36.981  35.112  33.291  1.00  0.00    -0.269 OA
BRANCH  11  13
ATOM     13  C   UNL A   1      36.770  33.085  34.331  1.00  0.00     0.079 A 
ATOM     14  C   UNL A   1      37.301  32.031  33.578  1.00  0.00     0.020 A 
ATOM     15  C   UNL A   1      37.033  33.177  35.699  1.00  0.00     0.174 A 
ATOM     16  C   UNL A   1      38.088  31.064  34.210  1.00  0.00     0.043 A 
ATOM     17  C   UNL A   1      37.824  32.217  36.319  1.00  0.00     0.195 A 
ATOM     18  F   UNL A   1      36.576  34.209  36.422  1.00  0.00    -0.203 F 
ATOM     19  C   UNL A   1      38.352  31.170  35.575  1.00  0.00     0.161 A 
ATOM     20  F   UNL A   1      38.100  32.320  37.628  1.00  0.00    -0.200 F 
ATOM     21  F   UNL A   1      39.140  30.261  36.163  1.00  0.00    -0.204 F 
ENDBRANCH  11  13
ENDBRANCH   9  11
ENDBRANCH   8   9
ENDBRANCH   6   8
ENDBRANCH   3   6
ENDBRANCH   1   2
BRANCH   1  22
ATOM     22  C   UNL A   1      35.518  34.047  28.774  1.00  0.00     0.042 C 
BRANCH  22  23
ATOM     23  C   UNL A   1      36.627  33.248  29.440  1.00  0.00     0.118 C 
BRANCH  23  24
ATOM     24  N   UNL A   1      36.099  32.107  30.180  1.00  0.00    -0.352 N 
ATOM     25  C   UNL A   1      36.508  30.798  30.264  1.00  0.00     0.251 C 
ATOM     26  H   UNL A   1      35.301  32.314  30.719  1.00  0.00     0.163 HD
ATOM     27  O   UNL A   1      35.715  29.978  30.729  1.00  0.00    -0.269 OA
BRANCH  25  28
ATOM     28  C   UNL A   1      37.851  30.338  29.822  1.00  0.00     0.039 A 
ATOM     29  C   UNL A   1      38.855  30.180  30.789  1.00  0.00     0.014 A 
ATOM     30  C   UNL A   1      38.181  30.153  28.479  1.00  0.00     0.014 A 
ATOM     31  C   UNL A   1      40.152  29.807  30.413  1.00  0.00     0.010 A 
ATOM     32  C   UNL A   1      39.441  29.674  28.115  1.00  0.00     0.010 A 
ATOM     33  C   UNL A   1      40.452  29.518  29.073  1.00  0.00    -0.014 A 
BRANCH  33  34
ATOM     34  C   UNL A   1      41.816  29.087  28.653  1.00  0.00     0.031 A 
ATOM     35  C   UNL A   1      42.948  30.084  28.585  1.00  0.00     0.074 A 
ATOM     36  C   UNL A   1      42.028  27.809  28.277  1.00  0.00     0.049 A 
ATOM     37  N   UNL A   1      44.181  29.913  28.177  1.00  0.00    -0.248 NA
ATOM     38  C   UNL A   1      42.647  31.465  28.998  1.00  0.00     0.031 C 
ATOM     39  C   UNL A   1      41.007  26.760  28.233  1.00  0.00     0.029 A 
ATOM     40  N   UNL A   1      43.171  27.175  27.853  1.00  0.00    -0.354 N 
ATOM     41  C   UNL A   1      44.788  31.163  28.252  1.00  0.00     0.074 A 
ATOM     42  C   UNL A   1      43.774  32.094  28.697  1.00  0.00     0.031 C 
ATOM     43  C   UNL A   1      41.574  25.608  27.840  1.00  0.00     0.029 A 
ATOM     44  C   UNL A   1      42.990  25.843  27.568  1.00  0.00     0.049 A 
ATOM     45  H   UNL A   1      44.037  27.632  27.763  1.00  0.00     0.167 HD
ATOM     46  C   UNL A   1      46.076  31.502  28.002  1.00  0.00     0.037 A 
ATOM     47  C   UNL A   1      43.862  24.911  27.138  1.00  0.00     0.037 A 
ATOM     48  C   UNL A   1      47.095  30.564  27.608  1.00  0.00     0.049 A 
ATOM     49  C   UNL A   1      45.299  25.298  26.921  1.00  0.00     0.074 A 
ATOM     50  C   UNL A   1      48.444  30.794  27.394  1.00  0.00     0.029 A 
ATOM     51  N   UNL A   1      46.881  29.212  27.381  1.00  0.00    -0.354 N 
ATOM     52  N   UNL A   1      45.864  26.476  27.049  1.00  0.00    -0.248 NA
ATOM     53  C   UNL A   1      46.220  24.228  26.517  1.00  0.00     0.031 C 
ATOM     54  C   UNL A   1      49.038  29.587  27.008  1.00  0.00     0.029 A 
ATOM     55  C   UNL A   1      48.069  28.597  27.024  1.00  0.00     0.049 A 
ATOM     56  H   UNL A   1      46.011  28.758  27.462  1.00  0.00     0.167 HD
ATOM     57  C   UNL A   1      47.211  26.283  26.762  1.00  0.00     0.074 A 
ATOM     58  C   UNL A   1      47.378  24.874  26.473  1.00  0.00     0.031 C 
ATOM     59  C   UNL A   1      48.218  27.191  26.741  1.00  0.00     0.037 A 
BRANCH  46  60
ATOM     60  C   UNL A   1      46.461  32.951  28.161  1.00  0.00     0.058 A 
ATOM     61  C   UNL A   1      46.334  33.870  27.106  1.00  0.00     0.135 A 
ATOM     62  C   UNL A   1      46.937  33.434  29.392  1.00  0.00     0.135 A 
ATOM     63  F   UNL A   1      45.898  33.462  25.905  1.00  0.00    -0.206 F 
ATOM     64  C   UNL A   1      46.696  35.205  27.255  1.00  0.00     0.059 A 
ATOM     65  C   UNL A   1      47.279  34.772  29.570  1.00  0.00     0.059 A 
ATOM     66  F   UNL A   1      47.077  32.602  30.436  1.00  0.00    -0.206 F 
ATOM     67  C   UNL A   1      47.170  35.647  28.491  1.00  0.00     0.060 A 
BRANCH  67  68
ATOM     68  S   UNL A   1      47.635  37.382  28.666  1.00  0.00     0.124 S 
ATOM     69  O   UNL A   1      48.758  37.291  29.593  1.00  0.00    -0.237 OA
ATOM     70  O   UNL A   1      47.973  37.757  27.297  1.00  0.00    -0.237 OA
ATOM     71  O   UNL A   1      46.429  38.005  29.202  1.00  0.00    -0.744 OA
ENDBRANCH  67  68
ENDBRANCH  46  60
BRANCH  47  72
ATOM     72  C   UNL A   1      43.407  23.511  26.925  1.00  0.00     0.058 A 
ATOM     73  C   UNL A   1      43.268  22.989  25.630  1.00  0.00     0.135 A 
ATOM     74  C   UNL A   1      43.126  22.661  28.005  1.00  0.00     0.135 A 
ATOM     75  F   UNL A   1      43.520  23.765  24.564  1.00  0.00    -0.206 F 
ATOM     76  C   UNL A   1      42.854  21.680  25.412  1.00  0.00     0.059 A 
ATOM     77  C   UNL A   1      42.733  21.340  27.813  1.00  0.00     0.059 A 
ATOM     78  F   UNL A   1      43.261  23.107  29.264  1.00  0.00    -0.206 F 
ATOM     79  C   UNL A   1      42.592  20.861  26.511  1.00  0.00     0.060 A 
BRANCH  79  80
ATOM     80  S   UNL A   1      42.114  19.143  26.220  1.00  0.00     0.124 S 
ATOM     81  O   UNL A   1      42.333  18.551  27.534  1.00  0.00    -0.237 OA
ATOM     82  O   UNL A   1      40.722  19.275  25.802  1.00  0.00    -0.237 OA
ATOM     83  O   UNL A   1      43.035  18.714  25.171  1.00  0.00    -0.744 OA
ENDBRANCH  79  80
ENDBRANCH  47  72
BRANCH  59  84
ATOM     84  C   UNL A   1      49.595  26.677  26.425  1.00  0.00     0.058 A 
ATOM     85  C   UNL A   1      50.413  26.103  27.411  1.00  0.00     0.135 A 
ATOM     86  C   UNL A   1      50.096  26.748  25.115  1.00  0.00     0.135 A 
ATOM     87  F   UNL A   1      49.982  26.014  28.679  1.00  0.00    -0.206 F 
ATOM     88  C   UNL A   1      51.697  25.655  27.118  1.00  0.00     0.059 A 
ATOM     89  C   UNL A   1      51.366  26.281  24.795  1.00  0.00     0.059 A 
ATOM     90  F   UNL A   1      49.349  27.276  24.133  1.00  0.00    -0.206 F 
ATOM     91  C   UNL A   1      52.167  25.754  25.807  1.00  0.00     0.060 A 
BRANCH  91  92
ATOM     92  S   UNL A   1      53.835  25.173  25.436  1.00  0.00     0.124 S 
ATOM     93  O   UNL A   1      53.564  23.879  24.819  1.00  0.00    -0.237 OA
ATOM     94  O   UNL A   1      54.337  26.209  24.539  1.00  0.00    -0.237 OA
ATOM     95  O   UNL A   1      54.476  25.125  26.747  1.00  0.00    -0.744 OA
ENDBRANCH  91  92
ENDBRANCH  59  84
ENDBRANCH  33  34
ENDBRANCH  25  28
ENDBRANCH  23  24
ENDBRANCH  22  23
ENDBRANCH   1  22
TORSDOF 17
ENDMDL
