MODEL 1
REMARK VINA RESULT:     -11.4      0.000      0.000
REMARK SMILES CCC(CC)(CC(=O)Nc1ccc(F)c(F)c1)C(=O)NCCCNC(=O)c1ccc(-c2c3nc(c(-c4c(F)cc(S(=O)(=O)[O-])cc4F)c4ccc([nH]4)c(-c4c(F)cc(S(=O)(=O)[O-])cc4F)c4nc(c(-c5c(F)cc(S(=O)(=O)[O-])cc5F)c5ccc2[nH]5)C=C4)C=C3)cc1
REMARK SMILES IDX 22 1 21 2 20 3 18 4 19 5 3 7 2 8 1 9 4 10 5 11 6 12 7 13
REMARK SMILES IDX 8 14 9 15 10 17 11 18 17 19 12 20 15 21 13 22 16 23 14 24
REMARK SMILES IDX 23 25 24 26 25 27 26 29 27 30 28 31 92 32 29 33 91 34 30 35
REMARK SMILES IDX 31 36 32 37 85 38 33 39 90 40 84 41 86 42 34 43 89 44 83 45
REMARK SMILES IDX 82 46 35 48 69 49 48 50 68 51 49 52 52 53 67 54 87 55 50 56
REMARK SMILES IDX 51 57 66 59 88 60 53 61 36 62 37 63 46 64 38 65 39 66 45 67
REMARK SMILES IDX 47 68 40 69 41 70 42 71 43 72 44 73 70 74 71 75 80 76 72 77
REMARK SMILES IDX 73 78 79 79 81 80 74 81 75 82 76 83 77 84 78 85 54 86 55 87
REMARK SMILES IDX 64 88 56 89 57 90 63 91 65 92 58 93 59 94 60 95 61 96 62 97
REMARK H PARENT 20 6 9 16 24 28 86 47 52 58
REMARK Flexibility Score: inf
ROOT
ATOM      1  C   UNL A   1      37.440  23.159  25.887  1.00  0.00     0.042 C 
ENDROOT
BRANCH   1   2
ATOM      2  C   UNL A   1      36.704  23.587  24.631  1.00  0.00     0.117 C 
BRANCH   2   3
ATOM      3  N   UNL A   1      35.654  22.658  24.263  1.00  0.00    -0.356 N 
ATOM      4  C   UNL A   1      34.335  22.585  24.549  1.00  0.00     0.226 C 
ATOM      5  O   UNL A   1      33.766  21.567  24.139  1.00  0.00    -0.274 OA
ATOM      6  H   UNL A   1      35.968  21.927  23.683  1.00  0.00     0.163 HD
BRANCH   4   7
ATOM      7  C   UNL A   1      33.571  23.678  25.330  1.00  0.00     0.057 C 
BRANCH   7   8
ATOM      8  C   UNL A   1      33.996  25.050  24.726  1.00  0.00     0.014 C 
ATOM      9  C   UNL A   1      33.411  25.456  23.377  1.00  0.00     0.005 C 
ENDBRANCH   7   8
BRANCH   7  10
ATOM     10  C   UNL A   1      33.951  23.671  26.844  1.00  0.00     0.014 C 
ATOM     11  C   UNL A   1      34.166  22.292  27.458  1.00  0.00     0.005 C 
ENDBRANCH   7  10
BRANCH   7  12
ATOM     12  C   UNL A   1      32.034  23.527  25.114  1.00  0.00     0.117 C 
BRANCH  12  13
ATOM     13  C   UNL A   1      31.107  23.780  26.307  1.00  0.00     0.225 C 
ATOM     14  O   UNL A   1      30.824  22.868  27.087  1.00  0.00    -0.275 OA
ATOM     15  N   UNL A   1      30.691  25.058  26.611  1.00  0.00    -0.326 N 
ATOM     16  H   UNL A   1      30.352  25.194  27.525  1.00  0.00     0.169 HD
BRANCH  15  17
ATOM     17  C   UNL A   1      30.688  26.187  25.784  1.00  0.00     0.044 A 
ATOM     18  C   UNL A   1      29.836  26.234  24.677  1.00  0.00     0.029 A 
ATOM     19  C   UNL A   1      31.470  27.295  26.101  1.00  0.00     0.068 A 
ATOM     20  C   UNL A   1      29.904  27.297  23.775  1.00  0.00     0.044 A 
ATOM     21  C   UNL A   1      31.499  28.377  25.221  1.00  0.00     0.160 A 
ATOM     22  C   UNL A   1      30.754  28.360  24.046  1.00  0.00     0.158 A 
ATOM     23  F   UNL A   1      32.267  29.437  25.509  1.00  0.00    -0.204 F 
ATOM     24  F   UNL A   1      30.837  29.373  23.173  1.00  0.00    -0.204 F 
ENDBRANCH  15  17
ENDBRANCH  12  13
ENDBRANCH   7  12
ENDBRANCH   4   7
ENDBRANCH   2   3
ENDBRANCH   1   2
BRANCH   1  25
ATOM     25  C   UNL A   1      38.305  24.241  26.514  1.00  0.00     0.118 C 
BRANCH  25  26
ATOM     26  N   UNL A   1      39.703  24.156  26.110  1.00  0.00    -0.352 N 
ATOM     27  C   UNL A   1      40.776  24.919  26.493  1.00  0.00     0.251 C 
ATOM     28  H   UNL A   1      39.908  23.442  25.464  1.00  0.00     0.163 HD
ATOM     29  O   UNL A   1      41.844  24.813  25.884  1.00  0.00    -0.269 OA
BRANCH  27  30
ATOM     30  C   UNL A   1      40.652  25.876  27.610  1.00  0.00     0.039 A 
ATOM     31  C   UNL A   1      41.482  26.999  27.643  1.00  0.00     0.014 A 
ATOM     32  C   UNL A   1      39.729  25.662  28.638  1.00  0.00     0.014 A 
ATOM     33  C   UNL A   1      41.352  27.925  28.680  1.00  0.00     0.010 A 
ATOM     34  C   UNL A   1      39.520  26.641  29.600  1.00  0.00     0.010 A 
ATOM     35  C   UNL A   1      40.353  27.765  29.655  1.00  0.00    -0.014 A 
BRANCH  35  36
ATOM     36  C   UNL A   1      40.213  28.723  30.780  1.00  0.00     0.031 A 
ATOM     37  C   UNL A   1      41.091  28.577  31.997  1.00  0.00     0.074 A 
ATOM     38  C   UNL A   1      39.277  29.690  30.725  1.00  0.00     0.049 A 
ATOM     39  N   UNL A   1      41.107  29.288  33.094  1.00  0.00    -0.248 NA
ATOM     40  C   UNL A   1      42.055  27.463  31.995  1.00  0.00     0.031 C 
ATOM     41  C   UNL A   1      38.326  29.891  29.629  1.00  0.00     0.029 A 
ATOM     42  N   UNL A   1      38.971  30.689  31.615  1.00  0.00    -0.354 N 
ATOM     43  C   UNL A   1      42.064  28.697  33.914  1.00  0.00     0.074 A 
ATOM     44  C   UNL A   1      42.553  27.530  33.220  1.00  0.00     0.031 C 
ATOM     45  C   UNL A   1      37.568  30.968  29.895  1.00  0.00     0.029 A 
ATOM     46  C   UNL A   1      37.957  31.515  31.191  1.00  0.00     0.049 A 
ATOM     47  H   UNL A   1      39.434  30.802  32.477  1.00  0.00     0.167 HD
ATOM     48  C   UNL A   1      42.519  29.109  35.120  1.00  0.00     0.037 A 
ATOM     49  C   UNL A   1      37.410  32.596  31.780  1.00  0.00     0.037 A 
ATOM     50  C   UNL A   1      42.053  30.297  35.786  1.00  0.00     0.049 A 
ATOM     51  C   UNL A   1      37.957  33.058  33.104  1.00  0.00     0.074 A 
ATOM     52  C   UNL A   1      42.483  30.839  36.983  1.00  0.00     0.029 A 
ATOM     53  N   UNL A   1      41.055  31.130  35.303  1.00  0.00    -0.354 N 
ATOM     54  N   UNL A   1      38.907  32.524  33.836  1.00  0.00    -0.248 NA
ATOM     55  C   UNL A   1      37.373  34.278  33.673  1.00  0.00     0.031 C 
ATOM     56  C   UNL A   1      41.719  31.982  37.244  1.00  0.00     0.029 A 
ATOM     57  C   UNL A   1      40.850  32.179  36.183  1.00  0.00     0.049 A 
ATOM     58  H   UNL A   1      40.565  30.997  34.460  1.00  0.00     0.167 HD
ATOM     59  C   UNL A   1      39.059  33.364  34.934  1.00  0.00     0.074 A 
ATOM     60  C   UNL A   1      38.108  34.445  34.764  1.00  0.00     0.031 C 
ATOM     61  C   UNL A   1      39.908  33.254  35.985  1.00  0.00     0.037 A 
BRANCH  48  62
ATOM     62  C   UNL A   1      43.583  28.278  35.785  1.00  0.00     0.058 A 
ATOM     63  C   UNL A   1      44.950  28.496  35.543  1.00  0.00     0.135 A 
ATOM     64  C   UNL A   1      43.236  27.260  36.688  1.00  0.00     0.135 A 
ATOM     65  F   UNL A   1      45.340  29.443  34.674  1.00  0.00    -0.206 F 
ATOM     66  C   UNL A   1      45.931  27.716  36.144  1.00  0.00     0.059 A 
ATOM     67  C   UNL A   1      44.203  26.487  37.326  1.00  0.00     0.059 A 
ATOM     68  F   UNL A   1      41.946  27.004  36.955  1.00  0.00    -0.206 F 
ATOM     69  C   UNL A   1      45.547  26.713  37.035  1.00  0.00     0.060 A 
BRANCH  69  70
ATOM     70  S   UNL A   1      46.834  25.713  37.813  1.00  0.00     0.124 S 
ATOM     71  O   UNL A   1      46.064  24.970  38.805  1.00  0.00    -0.237 OA
ATOM     72  O   UNL A   1      47.343  24.931  36.691  1.00  0.00    -0.237 OA
ATOM     73  O   UNL A   1      47.758  26.707  38.351  1.00  0.00    -0.744 OA
ENDBRANCH  69  70
ENDBRANCH  48  62
BRANCH  49  74
ATOM     74  C   UNL A   1      36.318  33.342  31.098  1.00  0.00     0.058 A 
ATOM     75  C   UNL A   1      36.573  34.103  29.947  1.00  0.00     0.135 A 
ATOM     76  C   UNL A   1      34.999  33.300  31.574  1.00  0.00     0.135 A 
ATOM     77  F   UNL A   1      37.818  34.177  29.455  1.00  0.00    -0.206 F 
ATOM     78  C   UNL A   1      35.564  34.814  29.304  1.00  0.00     0.059 A 
ATOM     79  C   UNL A   1      33.968  33.981  30.932  1.00  0.00     0.059 A 
ATOM     80  F   UNL A   1      34.697  32.569  32.658  1.00  0.00    -0.206 F 
ATOM     81  C   UNL A   1      34.263  34.745  29.805  1.00  0.00     0.060 A 
BRANCH  81  82
ATOM     82  S   UNL A   1      32.954  35.637  28.938  1.00  0.00     0.124 S 
ATOM     83  O   UNL A   1      32.135  36.109  30.048  1.00  0.00    -0.237 OA
ATOM     84  O   UNL A   1      33.706  36.661  28.217  1.00  0.00    -0.237 OA
ATOM     85  O   UNL A   1      32.348  34.609  28.097  1.00  0.00    -0.744 OA
ENDBRANCH  81  82
ENDBRANCH  49  74
BRANCH  61  86
ATOM     86  C   UNL A   1      39.889  34.358  37.005  1.00  0.00     0.058 A 
ATOM     87  C   UNL A   1      40.602  35.553  36.821  1.00  0.00     0.135 A 
ATOM     88  C   UNL A   1      39.114  34.228  38.171  1.00  0.00     0.135 A 
ATOM     89  F   UNL A   1      41.360  35.726  35.726  1.00  0.00    -0.206 F 
ATOM     90  C   UNL A   1      40.577  36.566  37.773  1.00  0.00     0.059 A 
ATOM     91  C   UNL A   1      39.050  35.241  39.120  1.00  0.00     0.059 A 
ATOM     92  F   UNL A   1      38.401  33.112  38.388  1.00  0.00    -0.206 F 
ATOM     93  C   UNL A   1      39.800  36.399  38.922  1.00  0.00     0.060 A 
BRANCH  93  94
ATOM     94  S   UNL A   1      39.766  37.726  40.145  1.00  0.00     0.124 S 
ATOM     95  O   UNL A   1      39.225  37.035  41.311  1.00  0.00    -0.237 OA
ATOM     96  O   UNL A   1      41.172  38.109  40.231  1.00  0.00    -0.237 OA
ATOM     97  O   UNL A   1      38.887  38.723  39.541  1.00  0.00    -0.744 OA
ENDBRANCH  93  94
ENDBRANCH  61  86
ENDBRANCH  35  36
ENDBRANCH  27  30
ENDBRANCH  25  26
ENDBRANCH   1  25
TORSDOF 18
ENDMDL
MODEL 2
REMARK VINA RESULT:     -11.4      3.581      9.408
REMARK SMILES CCC(CC)(CC(=O)Nc1ccc(F)c(F)c1)C(=O)NCCCNC(=O)c1ccc(-c2c3nc(c(-c4c(F)cc(S(=O)(=O)[O-])cc4F)c4ccc([nH]4)c(-c4c(F)cc(S(=O)(=O)[O-])cc4F)c4nc(c(-c5c(F)cc(S(=O)(=O)[O-])cc5F)c5ccc2[nH]5)C=C4)C=C3)cc1
REMARK SMILES IDX 22 1 21 2 20 3 18 4 19 5 3 7 2 8 1 9 4 10 5 11 6 12 7 13
REMARK SMILES IDX 8 14 9 15 10 17 11 18 17 19 12 20 15 21 13 22 16 23 14 24
REMARK SMILES IDX 23 25 24 26 25 27 26 29 27 30 28 31 92 32 29 33 91 34 30 35
REMARK SMILES IDX 31 36 32 37 85 38 33 39 90 40 84 41 86 42 34 43 89 44 83 45
REMARK SMILES IDX 82 46 35 48 69 49 48 50 68 51 49 52 52 53 67 54 87 55 50 56
REMARK SMILES IDX 51 57 66 59 88 60 53 61 36 62 37 63 46 64 38 65 39 66 45 67
REMARK SMILES IDX 47 68 40 69 41 70 42 71 43 72 44 73 70 74 71 75 80 76 72 77
REMARK SMILES IDX 73 78 79 79 81 80 74 81 75 82 76 83 77 84 78 85 54 86 55 87
REMARK SMILES IDX 64 88 56 89 57 90 63 91 65 92 58 93 59 94 60 95 61 96 62 97
REMARK H PARENT 20 6 9 16 24 28 86 47 52 58
REMARK Flexibility Score: inf
ROOT
ATOM      1  C   UNL A   1      33.269  27.677  26.756  1.00  0.00     0.042 C 
ENDROOT
BRANCH   1   2
ATOM      2  C   UNL A   1      32.284  26.958  25.853  1.00  0.00     0.117 C 
BRANCH   2   3
ATOM      3  N   UNL A   1      32.770  26.836  24.493  1.00  0.00    -0.356 N 
ATOM      4  C   UNL A   1      33.348  25.831  23.799  1.00  0.00     0.226 C 
ATOM      5  O   UNL A   1      33.739  26.133  22.666  1.00  0.00    -0.274 OA
ATOM      6  H   UNL A   1      32.656  27.658  23.964  1.00  0.00     0.163 HD
BRANCH   4   7
ATOM      7  C   UNL A   1      33.521  24.400  24.358  1.00  0.00     0.057 C 
BRANCH   7   8
ATOM      8  C   UNL A   1      34.493  24.499  25.571  1.00  0.00     0.014 C 
ATOM      9  C   UNL A   1      35.945  24.078  25.368  1.00  0.00     0.005 C 
ENDBRANCH   7   8
BRANCH   7  10
ATOM     10  C   UNL A   1      34.156  23.445  23.299  1.00  0.00     0.014 C 
ATOM     11  C   UNL A   1      33.163  22.686  22.425  1.00  0.00     0.005 C 
ENDBRANCH   7  10
BRANCH   7  12
ATOM     12  C   UNL A   1      32.160  23.856  24.891  1.00  0.00     0.117 C 
BRANCH  12  13
ATOM     13  C   UNL A   1      32.100  23.342  26.333  1.00  0.00     0.225 C 
ATOM     14  O   UNL A   1      31.755  24.089  27.251  1.00  0.00    -0.275 OA
ATOM     15  N   UNL A   1      32.290  22.005  26.607  1.00  0.00    -0.326 N 
ATOM     16  H   UNL A   1      31.960  21.695  27.481  1.00  0.00     0.169 HD
BRANCH  15  17
ATOM     17  C   UNL A   1      32.895  21.034  25.802  1.00  0.00     0.044 A 
ATOM     18  C   UNL A   1      32.106  20.233  24.971  1.00  0.00     0.029 A 
ATOM     19  C   UNL A   1      34.282  20.915  25.761  1.00  0.00     0.068 A 
ATOM     20  C   UNL A   1      32.676  19.181  24.251  1.00  0.00     0.044 A 
ATOM     21  C   UNL A   1      34.851  19.892  25.003  1.00  0.00     0.160 A 
ATOM     22  C   UNL A   1      34.053  19.006  24.286  1.00  0.00     0.158 A 
ATOM     23  F   UNL A   1      36.185  19.758  24.978  1.00  0.00    -0.204 F 
ATOM     24  F   UNL A   1      34.602  17.987  23.613  1.00  0.00    -0.204 F 
ENDBRANCH  15  17
ENDBRANCH  12  13
ENDBRANCH   7  12
ENDBRANCH   4   7
ENDBRANCH   2   3
ENDBRANCH   1   2
BRANCH   1  25
ATOM     25  C   UNL A   1      34.129  28.716  26.054  1.00  0.00     0.118 C 
BRANCH  25  26
ATOM     26  N   UNL A   1      33.785  30.083  26.425  1.00  0.00    -0.352 N 
ATOM     27  C   UNL A   1      34.333  30.898  27.381  1.00  0.00     0.251 C 
ATOM     28  H   UNL A   1      33.046  30.482  25.910  1.00  0.00     0.163 HD
ATOM     29  O   UNL A   1      33.767  31.955  27.674  1.00  0.00    -0.269 OA
BRANCH  27  30
ATOM     30  C   UNL A   1      35.577  30.508  28.073  1.00  0.00     0.039 A 
ATOM     31  C   UNL A   1      35.502  29.701  29.211  1.00  0.00     0.014 A 
ATOM     32  C   UNL A   1      36.821  30.949  27.612  1.00  0.00     0.014 A 
ATOM     33  C   UNL A   1      36.676  29.303  29.854  1.00  0.00     0.010 A 
ATOM     34  C   UNL A   1      37.988  30.456  28.180  1.00  0.00     0.010 A 
ATOM     35  C   UNL A   1      37.931  29.658  29.330  1.00  0.00    -0.014 A 
BRANCH  35  36
ATOM     36  C   UNL A   1      39.190  29.267  30.011  1.00  0.00     0.031 A 
ATOM     37  C   UNL A   1      39.600  29.969  31.281  1.00  0.00     0.074 A 
ATOM     38  C   UNL A   1      39.979  28.318  29.471  1.00  0.00     0.049 A 
ATOM     39  N   UNL A   1      40.671  29.799  32.011  1.00  0.00    -0.248 NA
ATOM     40  C   UNL A   1      38.704  31.029  31.777  1.00  0.00     0.031 C 
ATOM     41  C   UNL A   1      39.720  27.614  28.212  1.00  0.00     0.029 A 
ATOM     42  N   UNL A   1      41.161  27.781  29.913  1.00  0.00    -0.354 N 
ATOM     43  C   UNL A   1      40.585  30.736  33.035  1.00  0.00     0.074 A 
ATOM     44  C   UNL A   1      39.397  31.521  32.792  1.00  0.00     0.031 C 
ATOM     45  C   UNL A   1      40.694  26.714  28.003  1.00  0.00     0.029 A 
ATOM     46  C   UNL A   1      41.661  26.797  29.093  1.00  0.00     0.049 A 
ATOM     47  H   UNL A   1      41.609  28.073  30.739  1.00  0.00     0.167 HD
ATOM     48  C   UNL A   1      41.401  30.906  34.100  1.00  0.00     0.037 A 
ATOM     49  C   UNL A   1      42.771  26.042  29.214  1.00  0.00     0.037 A 
ATOM     50  C   UNL A   1      42.561  30.093  34.355  1.00  0.00     0.049 A 
ATOM     51  C   UNL A   1      43.644  26.222  30.426  1.00  0.00     0.074 A 
ATOM     52  C   UNL A   1      43.427  30.141  35.432  1.00  0.00     0.029 A 
ATOM     53  N   UNL A   1      43.010  29.078  33.524  1.00  0.00    -0.354 N 
ATOM     54  N   UNL A   1      43.513  27.072  31.419  1.00  0.00    -0.248 NA
ATOM     55  C   UNL A   1      44.805  25.332  30.546  1.00  0.00     0.031 C 
ATOM     56  C   UNL A   1      44.423  29.178  35.234  1.00  0.00     0.029 A 
ATOM     57  C   UNL A   1      44.146  28.497  34.059  1.00  0.00     0.049 A 
ATOM     58  H   UNL A   1      42.584  28.810  32.678  1.00  0.00     0.167 HD
ATOM     59  C   UNL A   1      44.554  26.792  32.299  1.00  0.00     0.074 A 
ATOM     60  C   UNL A   1      45.299  25.690  31.724  1.00  0.00     0.031 C 
ATOM     61  C   UNL A   1      44.863  27.389  33.476  1.00  0.00     0.037 A 
BRANCH  48  62
ATOM     62  C   UNL A   1      41.057  32.001  35.075  1.00  0.00     0.058 A 
ATOM     63  C   UNL A   1      40.110  31.812  36.095  1.00  0.00     0.135 A 
ATOM     64  C   UNL A   1      41.694  33.251  35.001  1.00  0.00     0.135 A 
ATOM     65  F   UNL A   1      39.456  30.644  36.202  1.00  0.00    -0.206 F 
ATOM     66  C   UNL A   1      39.781  32.830  36.983  1.00  0.00     0.059 A 
ATOM     67  C   UNL A   1      41.403  34.274  35.899  1.00  0.00     0.059 A 
ATOM     68  F   UNL A   1      42.606  33.490  34.045  1.00  0.00    -0.206 F 
ATOM     69  C   UNL A   1      40.433  34.059  36.877  1.00  0.00     0.060 A 
BRANCH  69  70
ATOM     70  S   UNL A   1      39.999  35.368  38.042  1.00  0.00     0.124 S 
ATOM     71  O   UNL A   1      39.653  36.459  37.137  1.00  0.00    -0.237 OA
ATOM     72  O   UNL A   1      38.886  34.776  38.777  1.00  0.00    -0.237 OA
ATOM     73  O   UNL A   1      41.225  35.556  38.813  1.00  0.00    -0.744 OA
ENDBRANCH  69  70
ENDBRANCH  48  62
BRANCH  49  74
ATOM     74  C   UNL A   1      43.088  25.015  28.185  1.00  0.00     0.058 A 
ATOM     75  C   UNL A   1      43.867  25.335  27.062  1.00  0.00     0.135 A 
ATOM     76  C   UNL A   1      42.633  23.694  28.309  1.00  0.00     0.135 A 
ATOM     77  F   UNL A   1      44.324  26.585  26.898  1.00  0.00    -0.206 F 
ATOM     78  C   UNL A   1      44.164  24.388  26.088  1.00  0.00     0.059 A 
ATOM     79  C   UNL A   1      42.940  22.722  27.361  1.00  0.00     0.059 A 
ATOM     80  F   UNL A   1      41.903  23.330  29.375  1.00  0.00    -0.206 F 
ATOM     81  C   UNL A   1      43.697  23.083  26.247  1.00  0.00     0.060 A 
BRANCH  81  82
ATOM     82  S   UNL A   1      44.125  21.851  24.996  1.00  0.00     0.124 S 
ATOM     83  O   UNL A   1      43.199  20.772  25.318  1.00  0.00    -0.237 OA
ATOM     84  O   UNL A   1      43.860  22.571  23.754  1.00  0.00    -0.237 OA
ATOM     85  O   UNL A   1      45.534  21.578  25.264  1.00  0.00    -0.744 OA
ENDBRANCH  81  82
ENDBRANCH  49  74
BRANCH  61  86
ATOM     86  C   UNL A   1      46.024  26.829  34.249  1.00  0.00     0.058 A 
ATOM     87  C   UNL A   1      47.332  27.309  34.078  1.00  0.00     0.135 A 
ATOM     88  C   UNL A   1      45.815  25.817  35.201  1.00  0.00     0.135 A 
ATOM     89  F   UNL A   1      47.586  28.273  33.178  1.00  0.00    -0.206 F 
ATOM     90  C   UNL A   1      48.398  26.781  34.798  1.00  0.00     0.059 A 
ATOM     91  C   UNL A   1      46.861  25.297  35.955  1.00  0.00     0.059 A 
ATOM     92  F   UNL A   1      44.581  25.334  35.415  1.00  0.00    -0.206 F 
ATOM     93  C   UNL A   1      48.153  25.773  35.733  1.00  0.00     0.060 A 
BRANCH  93  94
ATOM     94  S   UNL A   1      49.542  25.103  36.669  1.00  0.00     0.124 S 
ATOM     95  O   UNL A   1      50.643  25.281  35.729  1.00  0.00    -0.237 OA
ATOM     96  O   UNL A   1      49.570  25.963  37.849  1.00  0.00    -0.237 OA
ATOM     97  O   UNL A   1      49.147  23.719  36.920  1.00  0.00    -0.744 OA
ENDBRANCH  93  94
ENDBRANCH  61  86
ENDBRANCH  35  36
ENDBRANCH  27  30
ENDBRANCH  25  26
ENDBRANCH   1  25
TORSDOF 18
ENDMDL
MODEL 3
REMARK VINA RESULT:     -11.3      6.385      8.427
REMARK SMILES CCC(CC)(CC(=O)Nc1ccc(F)c(F)c1)C(=O)NCCCNC(=O)c1ccc(-c2c3nc(c(-c4c(F)cc(S(=O)(=O)[O-])cc4F)c4ccc([nH]4)c(-c4c(F)cc(S(=O)(=O)[O-])cc4F)c4nc(c(-c5c(F)cc(S(=O)(=O)[O-])cc5F)c5ccc2[nH]5)C=C4)C=C3)cc1
REMARK SMILES IDX 22 1 21 2 20 3 18 4 19 5 3 7 2 8 1 9 4 10 5 11 6 12 7 13
REMARK SMILES IDX 8 14 9 15 10 17 11 18 17 19 12 20 15 21 13 22 16 23 14 24
REMARK SMILES IDX 23 25 24 26 25 27 26 29 27 30 28 31 92 32 29 33 91 34 30 35
REMARK SMILES IDX 31 36 32 37 85 38 33 39 90 40 84 41 86 42 34 43 89 44 83 45
REMARK SMILES IDX 82 46 35 48 69 49 48 50 68 51 49 52 52 53 67 54 87 55 50 56
REMARK SMILES IDX 51 57 66 59 88 60 53 61 36 62 37 63 46 64 38 65 39 66 45 67
REMARK SMILES IDX 47 68 40 69 41 70 42 71 43 72 44 73 70 74 71 75 80 76 72 77
REMARK SMILES IDX 73 78 79 79 81 80 74 81 75 82 76 83 77 84 78 85 54 86 55 87
REMARK SMILES IDX 64 88 56 89 57 90 63 91 65 92 58 93 59 94 60 95 61 96 62 97
REMARK H PARENT 20 6 9 16 24 28 86 47 52 58
REMARK Flexibility Score: inf
ROOT
ATOM      1  C   UNL A   1      38.013  19.932  25.120  1.00  0.00     0.042 C 
ENDROOT
BRANCH   1   2
ATOM      2  C   UNL A   1      36.852  20.887  24.914  1.00  0.00     0.117 C 
BRANCH   2   3
ATOM      3  N   UNL A   1      35.571  20.267  25.192  1.00  0.00    -0.356 N 
ATOM      4  C   UNL A   1      34.332  20.756  25.418  1.00  0.00     0.226 C 
ATOM      5  O   UNL A   1      33.486  19.912  25.737  1.00  0.00    -0.274 OA
ATOM      6  H   UNL A   1      35.614  19.285  25.224  1.00  0.00     0.163 HD
BRANCH   4   7
ATOM      7  C   UNL A   1      33.972  22.254  25.296  1.00  0.00     0.057 C 
BRANCH   7   8
ATOM      8  C   UNL A   1      34.189  22.654  23.806  1.00  0.00     0.014 C 
ATOM      9  C   UNL A   1      32.962  22.989  22.964  1.00  0.00     0.005 C 
ENDBRANCH   7   8
BRANCH   7  10
ATOM     10  C   UNL A   1      34.902  23.140  26.182  1.00  0.00     0.014 C 
ATOM     11  C   UNL A   1      35.630  24.261  25.449  1.00  0.00     0.005 C 
ENDBRANCH   7  10
BRANCH   7  12
ATOM     12  C   UNL A   1      32.464  22.480  25.627  1.00  0.00     0.117 C 
BRANCH  12  13
ATOM     13  C   UNL A   1      32.110  23.259  26.897  1.00  0.00     0.225 C 
ATOM     14  O   UNL A   1      32.195  22.724  28.005  1.00  0.00    -0.275 OA
ATOM     15  N   UNL A   1      31.831  24.606  26.836  1.00  0.00    -0.326 N 
ATOM     16  H   UNL A   1      31.899  25.098  27.687  1.00  0.00     0.169 HD
BRANCH  15  17
ATOM     17  C   UNL A   1      31.463  25.364  25.720  1.00  0.00     0.044 A 
ATOM     18  C   UNL A   1      30.112  25.499  25.388  1.00  0.00     0.029 A 
ATOM     19  C   UNL A   1      32.426  26.050  24.984  1.00  0.00     0.068 A 
ATOM     20  C   UNL A   1      29.732  26.150  24.213  1.00  0.00     0.044 A 
ATOM     21  C   UNL A   1      32.036  26.740  23.836  1.00  0.00     0.160 A 
ATOM     22  C   UNL A   1      30.705  26.755  23.430  1.00  0.00     0.158 A 
ATOM     23  F   UNL A   1      32.962  27.384  23.111  1.00  0.00    -0.204 F 
ATOM     24  F   UNL A   1      30.348  27.364  22.292  1.00  0.00    -0.204 F 
ENDBRANCH  15  17
ENDBRANCH  12  13
ENDBRANCH   7  12
ENDBRANCH   4   7
ENDBRANCH   2   3
ENDBRANCH   1   2
BRANCH   1  25
ATOM     25  C   UNL A   1      39.208  20.536  25.841  1.00  0.00     0.118 C 
BRANCH  25  26
ATOM     26  N   UNL A   1      40.294  19.583  26.038  1.00  0.00    -0.352 N 
ATOM     27  C   UNL A   1      41.627  19.807  26.265  1.00  0.00     0.251 C 
ATOM     28  H   UNL A   1      40.029  18.636  26.002  1.00  0.00     0.163 HD
ATOM     29  O   UNL A   1      42.419  18.861  26.208  1.00  0.00    -0.269 OA
BRANCH  27  30
ATOM     30  C   UNL A   1      42.119  21.168  26.555  1.00  0.00     0.039 A 
ATOM     31  C   UNL A   1      42.387  21.530  27.877  1.00  0.00     0.014 A 
ATOM     32  C   UNL A   1      42.300  22.098  25.528  1.00  0.00     0.014 A 
ATOM     33  C   UNL A   1      42.880  22.806  28.158  1.00  0.00     0.010 A 
ATOM     34  C   UNL A   1      42.901  23.321  25.794  1.00  0.00     0.010 A 
ATOM     35  C   UNL A   1      43.164  23.705  27.115  1.00  0.00    -0.014 A 
BRANCH  35  36
ATOM     36  C   UNL A   1      43.665  25.074  27.392  1.00  0.00     0.031 A 
ATOM     37  C   UNL A   1      45.112  25.404  27.131  1.00  0.00     0.074 A 
ATOM     38  C   UNL A   1      42.836  26.000  27.912  1.00  0.00     0.049 A 
ATOM     39  N   UNL A   1      45.753  26.526  27.332  1.00  0.00    -0.248 NA
ATOM     40  C   UNL A   1      45.962  24.320  26.608  1.00  0.00     0.031 C 
ATOM     41  C   UNL A   1      41.432  25.779  28.267  1.00  0.00     0.029 A 
ATOM     42  N   UNL A   1      43.055  27.316  28.232  1.00  0.00    -0.354 N 
ATOM     43  C   UNL A   1      47.076  26.276  26.979  1.00  0.00     0.074 A 
ATOM     44  C   UNL A   1      47.161  24.880  26.622  1.00  0.00     0.031 C 
ATOM     45  C   UNL A   1      40.907  26.929  28.721  1.00  0.00     0.029 A 
ATOM     46  C   UNL A   1      41.941  27.958  28.719  1.00  0.00     0.049 A 
ATOM     47  H   UNL A   1      43.928  27.758  28.124  1.00  0.00     0.167 HD
ATOM     48  C   UNL A   1      48.117  27.138  26.923  1.00  0.00     0.037 A 
ATOM     49  C   UNL A   1      41.775  29.236  29.111  1.00  0.00     0.037 A 
ATOM     50  C   UNL A   1      48.012  28.537  27.243  1.00  0.00     0.049 A 
ATOM     51  C   UNL A   1      42.936  30.187  29.005  1.00  0.00     0.074 A 
ATOM     52  C   UNL A   1      48.989  29.514  27.168  1.00  0.00     0.029 A 
ATOM     53  N   UNL A   1      46.857  29.159  27.691  1.00  0.00    -0.354 N 
ATOM     54  N   UNL A   1      44.165  29.948  28.609  1.00  0.00    -0.248 NA
ATOM     55  C   UNL A   1      42.687  31.584  29.383  1.00  0.00     0.031 C 
ATOM     56  C   UNL A   1      48.433  30.721  27.607  1.00  0.00     0.029 A 
ATOM     57  C   UNL A   1      47.097  30.506  27.905  1.00  0.00     0.049 A 
ATOM     58  H   UNL A   1      45.992  28.711  27.836  1.00  0.00     0.167 HD
ATOM     59  C   UNL A   1      44.824  31.172  28.653  1.00  0.00     0.074 A 
ATOM     60  C   UNL A   1      43.855  32.149  29.108  1.00  0.00     0.031 C 
ATOM     61  C   UNL A   1      46.112  31.463  28.344  1.00  0.00     0.037 A 
BRANCH  48  62
ATOM     62  C   UNL A   1      49.450  26.594  26.486  1.00  0.00     0.058 A 
ATOM     63  C   UNL A   1      50.301  25.919  27.377  1.00  0.00     0.135 A 
ATOM     64  C   UNL A   1      49.879  26.734  25.155  1.00  0.00     0.135 A 
ATOM     65  F   UNL A   1      49.952  25.773  28.666  1.00  0.00    -0.206 F 
ATOM     66  C   UNL A   1      51.540  25.433  26.976  1.00  0.00     0.059 A 
ATOM     67  C   UNL A   1      51.102  26.227  24.724  1.00  0.00     0.059 A 
ATOM     68  F   UNL A   1      49.109  27.372  24.261  1.00  0.00    -0.206 F 
ATOM     69  C   UNL A   1      51.932  25.592  25.646  1.00  0.00     0.060 A 
BRANCH  69  70
ATOM     70  S   UNL A   1      53.541  24.948  25.139  1.00  0.00     0.124 S 
ATOM     71  O   UNL A   1      53.640  25.455  23.775  1.00  0.00    -0.237 OA
ATOM     72  O   UNL A   1      54.443  25.561  26.110  1.00  0.00    -0.237 OA
ATOM     73  O   UNL A   1      53.383  23.502  25.262  1.00  0.00    -0.744 OA
ENDBRANCH  69  70
ENDBRANCH  48  62
BRANCH  49  74
ATOM     74  C   UNL A   1      40.445  29.700  29.591  1.00  0.00     0.058 A 
ATOM     75  C   UNL A   1      40.208  29.928  30.955  1.00  0.00     0.135 A 
ATOM     76  C   UNL A   1      39.389  29.937  28.698  1.00  0.00     0.135 A 
ATOM     77  F   UNL A   1      41.185  29.714  31.849  1.00  0.00    -0.206 F 
ATOM     78  C   UNL A   1      38.968  30.353  31.420  1.00  0.00     0.059 A 
ATOM     79  C   UNL A   1      38.147  30.388  29.135  1.00  0.00     0.059 A 
ATOM     80  F   UNL A   1      39.569  29.755  27.380  1.00  0.00    -0.206 F 
ATOM     81  C   UNL A   1      37.943  30.581  30.501  1.00  0.00     0.060 A 
BRANCH  81  82
ATOM     82  S   UNL A   1      36.349  31.173  31.110  1.00  0.00     0.124 S 
ATOM     83  O   UNL A   1      36.003  30.141  32.081  1.00  0.00    -0.237 OA
ATOM     84  O   UNL A   1      36.698  32.479  31.663  1.00  0.00    -0.237 OA
ATOM     85  O   UNL A   1      35.523  31.212  29.907  1.00  0.00    -0.744 OA
ENDBRANCH  81  82
ENDBRANCH  49  74
BRANCH  61  86
ATOM     86  C   UNL A   1      46.533  32.903  28.432  1.00  0.00     0.058 A 
ATOM     87  C   UNL A   1      47.095  33.443  29.600  1.00  0.00     0.135 A 
ATOM     88  C   UNL A   1      46.403  33.746  27.315  1.00  0.00     0.135 A 
ATOM     89  F   UNL A   1      47.238  32.681  30.696  1.00  0.00    -0.206 F 
ATOM     90  C   UNL A   1      47.480  34.778  29.670  1.00  0.00     0.059 A 
ATOM     91  C   UNL A   1      46.810  35.075  27.353  1.00  0.00     0.059 A 
ATOM     92  F   UNL A   1      45.887  33.276  26.169  1.00  0.00    -0.206 F 
ATOM     93  C   UNL A   1      47.331  35.587  28.541  1.00  0.00     0.060 A 
BRANCH  93  94
ATOM     94  S   UNL A   1      47.844  37.314  28.639  1.00  0.00     0.124 S 
ATOM     95  O   UNL A   1      47.767  37.723  27.241  1.00  0.00    -0.237 OA
ATOM     96  O   UNL A   1      46.836  37.891  29.524  1.00  0.00    -0.237 OA
ATOM     97  O   UNL A   1      49.191  37.237  29.199  1.00  0.00    -0.744 OA
ENDBRANCH  93  94
ENDBRANCH  61  86
ENDBRANCH  35  36
ENDBRANCH  27  30
ENDBRANCH  25  26
ENDBRANCH   1  25
TORSDOF 18
ENDMDL
