MODEL 1
REMARK VINA RESULT:     -11.8      0.000      0.000
REMARK SMILES O=C(NCCCNC(=O)[C@@H](NC(=O)[C@H]1CC[C@@H]2CCCC[C@H]2[NH2+]1)C1CC1)c1ccc(-c2c3nc(c(-c4c(F)cc(S(=O)(=O)[O-])cc4F)c4ccc([nH]4)c(-c4c(F)cc(S(=O)(=O)[O-])cc4F)c4nc(c(-c5c(F)cc(S(=O)(=O)[O-])cc5F)c5ccc2[nH]5)C=C4)C=C3)cc1
REMARK SMILES IDX 4 1 3 2 1 3 2 4 27 6 28 7 92 8 29 9 91 10 30 11 31 12 32 13
REMARK SMILES IDX 85 14 33 15 90 16 84 17 86 18 34 19 89 20 83 21 82 22 35 24
REMARK SMILES IDX 69 25 48 26 68 27 49 28 52 29 67 30 87 31 50 32 51 33 66 35
REMARK SMILES IDX 88 36 53 37 36 38 37 39 46 40 38 41 39 42 45 43 47 44 40 45
REMARK SMILES IDX 41 46 42 47 43 48 44 49 70 50 71 51 80 52 72 53 73 54 79 55
REMARK SMILES IDX 81 56 74 57 75 58 76 59 77 60 78 61 54 62 55 63 64 64 56 65
REMARK SMILES IDX 57 66 63 67 65 68 58 69 59 70 60 71 61 72 62 73 5 74 6 75
REMARK SMILES IDX 7 76 8 77 9 79 10 80 11 81 12 82 13 84 14 85 15 86 23 87
REMARK SMILES IDX 16 88 22 89 17 92 21 93 18 94 20 95 19 96 24 97 25 98 26 99
REMARK H PARENT 3 5 86 23 52 34 7 78 11 83 23 90 23 91
REMARK Flexibility Score: inf
ROOT
ATOM      1  C   UNL A   1      34.111  27.966  26.417  1.00  0.00     0.118 C 
ENDROOT
BRANCH   1   2
ATOM      2  N   UNL A   1      33.720  29.305  26.846  1.00  0.00    -0.352 N 
ATOM      3  O   UNL A   1      33.816  31.191  28.073  1.00  0.00    -0.269 OA
ATOM      4  C   UNL A   1      34.393  30.190  27.651  1.00  0.00     0.251 C 
ATOM      5  H   UNL A   1      32.849  29.618  26.512  1.00  0.00     0.163 HD
BRANCH   4   6
ATOM      6  C   UNL A   1      35.798  29.922  28.012  1.00  0.00     0.039 A 
ATOM      7  C   UNL A   1      36.818  30.175  27.092  1.00  0.00     0.014 A 
ATOM      8  C   UNL A   1      36.100  29.410  29.276  1.00  0.00     0.014 A 
ATOM      9  C   UNL A   1      38.113  29.767  27.372  1.00  0.00     0.010 A 
ATOM     10  C   UNL A   1      37.424  29.103  29.597  1.00  0.00     0.010 A 
ATOM     11  C   UNL A   1      38.437  29.253  28.638  1.00  0.00    -0.014 A 
BRANCH  11  12
ATOM     12  C   UNL A   1      39.858  28.960  28.948  1.00  0.00     0.031 A 
ATOM     13  C   UNL A   1      40.736  29.976  29.623  1.00  0.00     0.074 A 
ATOM     14  C   UNL A   1      40.339  27.741  28.636  1.00  0.00     0.049 A 
ATOM     15  N   UNL A   1      41.993  29.870  29.972  1.00  0.00    -0.248 NA
ATOM     16  C   UNL A   1      40.135  31.281  29.939  1.00  0.00     0.031 C 
ATOM     17  C   UNL A   1      39.575  26.681  27.968  1.00  0.00     0.029 A 
ATOM     18  N   UNL A   1      41.568  27.174  28.849  1.00  0.00    -0.354 N 
ATOM     19  C   UNL A   1      42.339  31.094  30.531  1.00  0.00     0.074 A 
ATOM     20  C   UNL A   1      41.168  31.939  30.449  1.00  0.00     0.031 C 
ATOM     21  C   UNL A   1      40.333  25.581  27.873  1.00  0.00     0.029 A 
ATOM     22  C   UNL A   1      41.659  25.877  28.400  1.00  0.00     0.049 A 
ATOM     23  H   UNL A   1      42.313  27.648  29.284  1.00  0.00     0.167 HD
ATOM     24  C   UNL A   1      43.525  31.469  31.070  1.00  0.00     0.037 A 
ATOM     25  C   UNL A   1      42.701  25.026  28.387  1.00  0.00     0.037 A 
ATOM     26  C   UNL A   1      44.681  30.609  31.152  1.00  0.00     0.049 A 
ATOM     27  C   UNL A   1      44.011  25.480  28.962  1.00  0.00     0.074 A 
ATOM     28  C   UNL A   1      45.919  30.883  31.706  1.00  0.00     0.029 A 
ATOM     29  N   UNL A   1      44.744  29.312  30.659  1.00  0.00    -0.354 N 
ATOM     30  N   UNL A   1      44.312  26.632  29.516  1.00  0.00    -0.248 NA
ATOM     31  C   UNL A   1      45.122  24.524  28.911  1.00  0.00     0.031 C 
ATOM     32  C   UNL A   1      46.747  29.775  31.499  1.00  0.00     0.029 A 
ATOM     33  C   UNL A   1      46.008  28.785  30.873  1.00  0.00     0.049 A 
ATOM     34  H   UNL A   1      44.001  28.838  30.222  1.00  0.00     0.167 HD
ATOM     35  C   UNL A   1      45.642  26.529  29.899  1.00  0.00     0.074 A 
ATOM     36  C   UNL A   1      46.081  25.198  29.530  1.00  0.00     0.031 C 
ATOM     37  C   UNL A   1      46.430  27.456  30.501  1.00  0.00     0.037 A 
BRANCH  24  38
ATOM     38  C   UNL A   1      43.649  32.877  31.594  1.00  0.00     0.058 A 
ATOM     39  C   UNL A   1      44.044  33.945  30.771  1.00  0.00     0.135 A 
ATOM     40  C   UNL A   1      43.315  33.171  32.926  1.00  0.00     0.135 A 
ATOM     41  F   UNL A   1      44.388  33.723  29.493  1.00  0.00    -0.206 F 
ATOM     42  C   UNL A   1      44.127  35.247  31.257  1.00  0.00     0.059 A 
ATOM     43  C   UNL A   1      43.362  34.469  33.425  1.00  0.00     0.059 A 
ATOM     44  F   UNL A   1      42.929  32.191  33.758  1.00  0.00    -0.206 F 
ATOM     45  C   UNL A   1      43.782  35.499  32.586  1.00  0.00     0.060 A 
BRANCH  45  46
ATOM     46  S   UNL A   1      43.886  37.195  33.197  1.00  0.00     0.124 S 
ATOM     47  O   UNL A   1      43.832  37.957  31.952  1.00  0.00    -0.237 OA
ATOM     48  O   UNL A   1      42.708  37.292  34.051  1.00  0.00    -0.237 OA
ATOM     49  O   UNL A   1      45.168  37.229  33.896  1.00  0.00    -0.744 OA
ENDBRANCH  45  46
ENDBRANCH  24  38
BRANCH  25  50
ATOM     50  C   UNL A   1      42.539  23.672  27.796  1.00  0.00     0.058 A 
ATOM     51  C   UNL A   1      42.587  23.475  26.409  1.00  0.00     0.135 A 
ATOM     52  C   UNL A   1      42.362  22.542  28.612  1.00  0.00     0.135 A 
ATOM     53  F   UNL A   1      42.753  24.522  25.587  1.00  0.00    -0.206 F 
ATOM     54  C   UNL A   1      42.448  22.210  25.849  1.00  0.00     0.059 A 
ATOM     55  C   UNL A   1      42.254  21.264  28.078  1.00  0.00     0.059 A 
ATOM     56  F   UNL A   1      42.331  22.675  29.947  1.00  0.00    -0.206 F 
ATOM     57  C   UNL A   1      42.286  21.109  26.694  1.00  0.00     0.060 A 
BRANCH  57  58
ATOM     58  S   UNL A   1      42.151  19.465  25.959  1.00  0.00     0.124 S 
ATOM     59  O   UNL A   1      40.717  19.371  25.713  1.00  0.00    -0.237 OA
ATOM     60  O   UNL A   1      42.995  19.591  24.774  1.00  0.00    -0.237 OA
ATOM     61  O   UNL A   1      42.674  18.587  27.001  1.00  0.00    -0.744 OA
ENDBRANCH  57  58
ENDBRANCH  25  50
BRANCH  37  62
ATOM     62  C   UNL A   1      47.839  27.046  30.832  1.00  0.00     0.058 A 
ATOM     63  C   UNL A   1      48.149  26.340  32.005  1.00  0.00     0.135 A 
ATOM     64  C   UNL A   1      48.888  27.336  29.945  1.00  0.00     0.135 A 
ATOM     65  F   UNL A   1      47.186  26.045  32.892  1.00  0.00    -0.206 F 
ATOM     66  C   UNL A   1      49.455  25.962  32.301  1.00  0.00     0.059 A 
ATOM     67  C   UNL A   1      50.196  26.938  30.204  1.00  0.00     0.059 A 
ATOM     68  F   UNL A   1      48.646  28.002  28.805  1.00  0.00    -0.206 F 
ATOM     69  C   UNL A   1      50.471  26.265  31.393  1.00  0.00     0.060 A 
BRANCH  69  70
ATOM     70  S   UNL A   1      52.156  25.747  31.778  1.00  0.00     0.124 S 
ATOM     71  O   UNL A   1      51.956  24.354  32.164  1.00  0.00    -0.237 OA
ATOM     72  O   UNL A   1      52.847  25.962  30.511  1.00  0.00    -0.237 OA
ATOM     73  O   UNL A   1      52.549  26.646  32.859  1.00  0.00    -0.744 OA
ENDBRANCH  69  70
ENDBRANCH  37  62
ENDBRANCH  11  12
ENDBRANCH   4   6
ENDBRANCH   1   2
BRANCH   1  74
ATOM     74  C   UNL A   1      32.921  27.022  26.332  1.00  0.00     0.042 C 
BRANCH  74  75
ATOM     75  C   UNL A   1      31.696  27.708  25.754  1.00  0.00     0.117 C 
BRANCH  75  76
ATOM     76  N   UNL A   1      30.764  26.745  25.223  1.00  0.00    -0.354 N 
ATOM     77  C   UNL A   1      30.278  26.638  23.955  1.00  0.00     0.242 C 
ATOM     78  H   UNL A   1      30.433  26.074  25.863  1.00  0.00     0.163 HD
ATOM     79  O   UNL A   1      29.520  25.691  23.722  1.00  0.00    -0.273 OA
BRANCH  77  80
ATOM     80  C   UNL A   1      30.829  27.523  22.801  1.00  0.00     0.174 C 
BRANCH  80  81
ATOM     81  N   UNL A   1      31.606  26.783  21.730  1.00  0.00    -0.339 N 
ATOM     82  C   UNL A   1      32.436  25.705  21.504  1.00  0.00     0.278 C 
ATOM     83  H   UNL A   1      31.464  27.246  20.873  1.00  0.00     0.164 HD
ATOM     84  O   UNL A   1      32.929  25.628  20.374  1.00  0.00    -0.268 OA
BRANCH  82  85
ATOM     85  C   UNL A   1      32.811  24.705  22.606  1.00  0.00     0.272 C 
ATOM     86  C   UNL A   1      33.385  23.471  21.973  1.00  0.00     0.076 C 
ATOM     87  N   UNL A   1      33.864  25.062  23.610  1.00  0.00    -0.333 N 
ATOM     88  C   UNL A   1      33.036  22.339  22.913  1.00  0.00     0.016 C 
ATOM     89  C   UNL A   1      34.000  23.968  24.630  1.00  0.00     0.186 C 
ATOM     90  H   UNL A   1      33.603  25.929  24.079  1.00  0.00     0.347 HD
ATOM     91  H   UNL A   1      34.755  25.180  23.128  1.00  0.00     0.347 HD
ATOM     92  C   UNL A   1      34.043  22.531  24.019  1.00  0.00     0.048 C 
ATOM     93  C   UNL A   1      35.291  24.091  25.466  1.00  0.00     0.065 C 
ATOM     94  C   UNL A   1      33.946  21.460  25.091  1.00  0.00     0.010 C 
ATOM     95  C   UNL A   1      35.440  22.936  26.486  1.00  0.00     0.006 C 
ATOM     96  C   UNL A   1      35.228  21.533  25.904  1.00  0.00     0.001 C 
ENDBRANCH  82  85
ENDBRANCH  80  81
BRANCH  80  97
ATOM     97  C   UNL A   1      29.753  28.525  22.422  1.00  0.00     0.021 C 
ATOM     98  C   UNL A   1      29.434  29.719  23.309  1.00  0.00     0.006 C 
ATOM     99  C   UNL A   1      30.100  29.951  21.999  1.00  0.00     0.006 C 
ENDBRANCH  80  97
ENDBRANCH  77  80
ENDBRANCH  75  76
ENDBRANCH  74  75
ENDBRANCH   1  74
TORSDOF 16
ENDMDL
MODEL 2
REMARK VINA RESULT:     -11.5      0.449      8.238
REMARK SMILES O=C(NCCCNC(=O)[C@@H](NC(=O)[C@H]1CC[C@@H]2CCCC[C@H]2[NH2+]1)C1CC1)c1ccc(-c2c3nc(c(-c4c(F)cc(S(=O)(=O)[O-])cc4F)c4ccc([nH]4)c(-c4c(F)cc(S(=O)(=O)[O-])cc4F)c4nc(c(-c5c(F)cc(S(=O)(=O)[O-])cc5F)c5ccc2[nH]5)C=C4)C=C3)cc1
REMARK SMILES IDX 4 1 3 2 1 3 2 4 27 6 28 7 92 8 29 9 91 10 30 11 31 12 32 13
REMARK SMILES IDX 85 14 33 15 90 16 84 17 86 18 34 19 89 20 83 21 82 22 35 24
REMARK SMILES IDX 69 25 48 26 68 27 49 28 52 29 67 30 87 31 50 32 51 33 66 35
REMARK SMILES IDX 88 36 53 37 36 38 37 39 46 40 38 41 39 42 45 43 47 44 40 45
REMARK SMILES IDX 41 46 42 47 43 48 44 49 70 50 71 51 80 52 72 53 73 54 79 55
REMARK SMILES IDX 81 56 74 57 75 58 76 59 77 60 78 61 54 62 55 63 64 64 56 65
REMARK SMILES IDX 57 66 63 67 65 68 58 69 59 70 60 71 61 72 62 73 5 74 6 75
REMARK SMILES IDX 7 76 8 77 9 79 10 80 11 81 12 82 13 84 14 85 15 86 23 87
REMARK SMILES IDX 16 88 22 89 17 92 21 93 18 94 20 95 19 96 24 97 25 98 26 99
REMARK H PARENT 3 5 86 23 52 34 7 78 11 83 23 90 23 91
REMARK Flexibility Score: inf
ROOT
ATOM      1  C   UNL A   1      34.082  28.064  26.457  1.00  0.00     0.118 C 
ENDROOT
BRANCH   1   2
ATOM      2  N   UNL A   1      33.688  29.391  26.920  1.00  0.00    -0.352 N 
ATOM      3  O   UNL A   1      33.784  31.249  28.188  1.00  0.00    -0.269 OA
ATOM      4  C   UNL A   1      34.363  30.260  27.738  1.00  0.00     0.251 C 
ATOM      5  H   UNL A   1      32.812  29.706  26.600  1.00  0.00     0.163 HD
BRANCH   4   6
ATOM      6  C   UNL A   1      35.773  29.992  28.081  1.00  0.00     0.039 A 
ATOM      7  C   UNL A   1      36.773  30.173  27.124  1.00  0.00     0.014 A 
ATOM      8  C   UNL A   1      36.098  29.552  29.366  1.00  0.00     0.014 A 
ATOM      9  C   UNL A   1      38.068  29.762  27.397  1.00  0.00     0.010 A 
ATOM     10  C   UNL A   1      37.425  29.244  29.673  1.00  0.00     0.010 A 
ATOM     11  C   UNL A   1      38.416  29.320  28.683  1.00  0.00    -0.014 A 
BRANCH  11  12
ATOM     12  C   UNL A   1      39.840  29.023  28.976  1.00  0.00     0.031 A 
ATOM     13  C   UNL A   1      40.452  27.699  28.615  1.00  0.00     0.074 A 
ATOM     14  C   UNL A   1      40.586  29.988  29.550  1.00  0.00     0.049 A 
ATOM     15  N   UNL A   1      41.683  27.290  28.792  1.00  0.00    -0.248 NA
ATOM     16  C   UNL A   1      39.575  26.702  27.983  1.00  0.00     0.031 C 
ATOM     17  C   UNL A   1      40.088  31.308  29.953  1.00  0.00     0.029 A 
ATOM     18  N   UNL A   1      41.915  30.024  29.880  1.00  0.00    -0.354 N 
ATOM     19  C   UNL A   1      41.725  25.986  28.313  1.00  0.00     0.074 A 
ATOM     20  C   UNL A   1      40.388  25.661  27.864  1.00  0.00     0.031 C 
ATOM     21  C   UNL A   1      41.106  32.039  30.426  1.00  0.00     0.029 A 
ATOM     22  C   UNL A   1      42.311  31.219  30.434  1.00  0.00     0.049 A 
ATOM     23  H   UNL A   1      42.529  29.268  29.732  1.00  0.00     0.167 HD
ATOM     24  C   UNL A   1      42.786  25.145  28.250  1.00  0.00     0.037 A 
ATOM     25  C   UNL A   1      43.503  31.606  30.922  1.00  0.00     0.037 A 
ATOM     26  C   UNL A   1      44.114  25.490  28.695  1.00  0.00     0.049 A 
ATOM     27  C   UNL A   1      44.653  30.642  30.866  1.00  0.00     0.074 A 
ATOM     28  C   UNL A   1      45.265  24.721  28.647  1.00  0.00     0.029 A 
ATOM     29  N   UNL A   1      44.469  26.699  29.280  1.00  0.00    -0.354 N 
ATOM     30  N   UNL A   1      44.682  29.424  30.381  1.00  0.00    -0.248 NA
ATOM     31  C   UNL A   1      45.928  31.103  31.425  1.00  0.00     0.031 C 
ATOM     32  C   UNL A   1      46.300  25.442  29.250  1.00  0.00     0.029 A 
ATOM     33  C   UNL A   1      45.813  26.686  29.619  1.00  0.00     0.049 A 
ATOM     34  H   UNL A   1      43.856  27.454  29.430  1.00  0.00     0.167 HD
ATOM     35  C   UNL A   1      45.986  28.980  30.556  1.00  0.00     0.074 A 
ATOM     36  C   UNL A   1      46.717  30.067  31.174  1.00  0.00     0.031 C 
ATOM     37  C   UNL A   1      46.529  27.778  30.234  1.00  0.00     0.037 A 
BRANCH  24  38
ATOM     38  C   UNL A   1      42.558  23.761  27.701  1.00  0.00     0.058 A 
ATOM     39  C   UNL A   1      42.497  23.508  26.321  1.00  0.00     0.135 A 
ATOM     40  C   UNL A   1      42.452  22.661  28.570  1.00  0.00     0.135 A 
ATOM     41  F   UNL A   1      42.578  24.521  25.444  1.00  0.00    -0.206 F 
ATOM     42  C   UNL A   1      42.314  22.221  25.823  1.00  0.00     0.059 A 
ATOM     43  C   UNL A   1      42.299  21.362  28.093  1.00  0.00     0.059 A 
ATOM     44  F   UNL A   1      42.504  22.842  29.898  1.00  0.00    -0.206 F 
ATOM     45  C   UNL A   1      42.218  21.154  26.718  1.00  0.00     0.060 A 
BRANCH  45  46
ATOM     46  S   UNL A   1      41.992  19.489  26.054  1.00  0.00     0.124 S 
ATOM     47  O   UNL A   1      40.552  19.465  25.813  1.00  0.00    -0.237 OA
ATOM     48  O   UNL A   1      42.834  19.512  24.863  1.00  0.00    -0.237 OA
ATOM     49  O   UNL A   1      42.461  18.625  27.133  1.00  0.00    -0.744 OA
ENDBRANCH  45  46
ENDBRANCH  24  38
BRANCH  25  50
ATOM     50  C   UNL A   1      43.653  32.962  31.513  1.00  0.00     0.058 A 
ATOM     51  C   UNL A   1      43.444  33.184  32.881  1.00  0.00     0.135 A 
ATOM     52  C   UNL A   1      44.037  34.058  30.722  1.00  0.00     0.135 A 
ATOM     53  F   UNL A   1      43.074  32.170  33.678  1.00  0.00    -0.206 F 
ATOM     54  C   UNL A   1      43.592  34.447  33.443  1.00  0.00     0.059 A 
ATOM     55  C   UNL A   1      44.225  35.322  31.268  1.00  0.00     0.059 A 
ATOM     56  F   UNL A   1      44.271  33.893  29.411  1.00  0.00    -0.206 F 
ATOM     57  C   UNL A   1      43.988  35.510  32.628  1.00  0.00     0.060 A 
BRANCH  57  58
ATOM     58  S   UNL A   1      44.223  37.136  33.376  1.00  0.00     0.124 S 
ATOM     59  O   UNL A   1      42.939  37.342  34.036  1.00  0.00    -0.237 OA
ATOM     60  O   UNL A   1      45.364  36.905  34.256  1.00  0.00    -0.237 OA
ATOM     61  O   UNL A   1      44.490  37.999  32.229  1.00  0.00    -0.744 OA
ENDBRANCH  57  58
ENDBRANCH  25  50
BRANCH  37  62
ATOM     62  C   UNL A   1      47.994  27.592  30.512  1.00  0.00     0.058 A 
ATOM     63  C   UNL A   1      48.456  27.024  31.711  1.00  0.00     0.135 A 
ATOM     64  C   UNL A   1      48.950  27.959  29.550  1.00  0.00     0.135 A 
ATOM     65  F   UNL A   1      47.585  26.665  32.667  1.00  0.00    -0.206 F 
ATOM     66  C   UNL A   1      49.814  26.854  31.958  1.00  0.00     0.059 A 
ATOM     67  C   UNL A   1      50.312  27.766  29.763  1.00  0.00     0.059 A 
ATOM     68  F   UNL A   1      48.564  28.499  28.384  1.00  0.00    -0.206 F 
ATOM     69  C   UNL A   1      50.734  27.226  30.976  1.00  0.00     0.060 A 
BRANCH  69  70
ATOM     70  S   UNL A   1      52.492  26.976  31.300  1.00  0.00     0.124 S 
ATOM     71  O   UNL A   1      52.455  26.166  32.513  1.00  0.00    -0.237 OA
ATOM     72  O   UNL A   1      52.938  26.290  30.092  1.00  0.00    -0.237 OA
ATOM     73  O   UNL A   1      53.003  28.333  31.468  1.00  0.00    -0.744 OA
ENDBRANCH  69  70
ENDBRANCH  37  62
ENDBRANCH  11  12
ENDBRANCH   4   6
ENDBRANCH   1   2
BRANCH   1  74
ATOM     74  C   UNL A   1      32.889  27.130  26.311  1.00  0.00     0.042 C 
BRANCH  74  75
ATOM     75  C   UNL A   1      31.709  27.822  25.652  1.00  0.00     0.117 C 
BRANCH  75  76
ATOM     76  N   UNL A   1      30.783  26.861  25.106  1.00  0.00    -0.354 N 
ATOM     77  C   UNL A   1      30.345  26.733  23.824  1.00  0.00     0.242 C 
ATOM     78  H   UNL A   1      30.418  26.210  25.747  1.00  0.00     0.163 HD
ATOM     79  O   UNL A   1      29.582  25.792  23.582  1.00  0.00    -0.273 OA
BRANCH  77  80
ATOM     80  C   UNL A   1      30.954  27.584  22.672  1.00  0.00     0.174 C 
BRANCH  80  81
ATOM     81  N   UNL A   1      31.692  26.799  21.606  1.00  0.00    -0.339 N 
ATOM     82  C   UNL A   1      32.497  25.700  21.392  1.00  0.00     0.278 C 
ATOM     83  H   UNL A   1      31.537  27.238  20.739  1.00  0.00     0.164 HD
ATOM     84  O   UNL A   1      32.962  25.581  20.254  1.00  0.00    -0.268 OA
BRANCH  82  85
ATOM     85  C   UNL A   1      32.883  24.726  22.515  1.00  0.00     0.272 C 
ATOM     86  C   UNL A   1      33.364  23.443  21.905  1.00  0.00     0.076 C 
ATOM     87  N   UNL A   1      34.001  25.070  23.449  1.00  0.00    -0.333 N 
ATOM     88  C   UNL A   1      33.012  22.366  22.907  1.00  0.00     0.016 C 
ATOM     89  C   UNL A   1      34.139  24.012  24.505  1.00  0.00     0.186 C 
ATOM     90  H   UNL A   1      33.806  25.967  23.894  1.00  0.00     0.347 HD
ATOM     91  H   UNL A   1      34.871  25.126  22.918  1.00  0.00     0.347 HD
ATOM     92  C   UNL A   1      34.083  22.551  23.952  1.00  0.00     0.048 C 
ATOM     93  C   UNL A   1      35.476  24.103  25.270  1.00  0.00     0.065 C 
ATOM     94  C   UNL A   1      33.992  21.529  25.071  1.00  0.00     0.010 C 
ATOM     95  C   UNL A   1      35.623  22.983  26.327  1.00  0.00     0.006 C 
ATOM     96  C   UNL A   1      35.316  21.571  25.816  1.00  0.00     0.001 C 
ENDBRANCH  82  85
ENDBRANCH  80  81
BRANCH  80  97
ATOM     97  C   UNL A   1      29.942  28.647  22.287  1.00  0.00     0.021 C 
ATOM     98  C   UNL A   1      28.677  28.871  23.104  1.00  0.00     0.006 C 
ATOM     99  C   UNL A   1      29.744  29.907  23.128  1.00  0.00     0.006 C 
ENDBRANCH  80  97
ENDBRANCH  77  80
ENDBRANCH  75  76
ENDBRANCH  74  75
ENDBRANCH   1  74
TORSDOF 16
ENDMDL
MODEL 3
REMARK VINA RESULT:     -11.5      3.012      3.947
REMARK SMILES O=C(NCCCNC(=O)[C@@H](NC(=O)[C@H]1CC[C@@H]2CCCC[C@H]2[NH2+]1)C1CC1)c1ccc(-c2c3nc(c(-c4c(F)cc(S(=O)(=O)[O-])cc4F)c4ccc([nH]4)c(-c4c(F)cc(S(=O)(=O)[O-])cc4F)c4nc(c(-c5c(F)cc(S(=O)(=O)[O-])cc5F)c5ccc2[nH]5)C=C4)C=C3)cc1
REMARK SMILES IDX 4 1 3 2 1 3 2 4 27 6 28 7 92 8 29 9 91 10 30 11 31 12 32 13
REMARK SMILES IDX 85 14 33 15 90 16 84 17 86 18 34 19 89 20 83 21 82 22 35 24
REMARK SMILES IDX 69 25 48 26 68 27 49 28 52 29 67 30 87 31 50 32 51 33 66 35
REMARK SMILES IDX 88 36 53 37 36 38 37 39 46 40 38 41 39 42 45 43 47 44 40 45
REMARK SMILES IDX 41 46 42 47 43 48 44 49 70 50 71 51 80 52 72 53 73 54 79 55
REMARK SMILES IDX 81 56 74 57 75 58 76 59 77 60 78 61 54 62 55 63 64 64 56 65
REMARK SMILES IDX 57 66 63 67 65 68 58 69 59 70 60 71 61 72 62 73 5 74 6 75
REMARK SMILES IDX 7 76 8 77 9 79 10 80 11 81 12 82 13 84 14 85 15 86 23 87
REMARK SMILES IDX 16 88 22 89 17 92 21 93 18 94 20 95 19 96 24 97 25 98 26 99
REMARK H PARENT 3 5 86 23 52 34 7 78 11 83 23 90 23 91
REMARK Flexibility Score: inf
ROOT
ATOM      1  C   UNL A   1      35.288  29.636  27.812  1.00  0.00     0.118 C 
ENDROOT
BRANCH   1   2
ATOM      2  N   UNL A   1      35.332  30.300  29.110  1.00  0.00    -0.352 N 
ATOM      3  O   UNL A   1      36.164  30.822  31.137  1.00  0.00    -0.269 OA
ATOM      4  C   UNL A   1      36.372  30.402  29.999  1.00  0.00     0.251 C 
ATOM      5  H   UNL A   1      34.495  30.737  29.390  1.00  0.00     0.163 HD
BRANCH   4   6
ATOM      6  C   UNL A   1      37.727  29.993  29.583  1.00  0.00     0.039 A 
ATOM      7  C   UNL A   1      38.652  29.560  30.537  1.00  0.00     0.014 A 
ATOM      8  C   UNL A   1      38.081  30.046  28.233  1.00  0.00     0.014 A 
ATOM      9  C   UNL A   1      39.968  29.338  30.166  1.00  0.00     0.010 A 
ATOM     10  C   UNL A   1      39.381  29.713  27.847  1.00  0.00     0.010 A 
ATOM     11  C   UNL A   1      40.342  29.383  28.814  1.00  0.00    -0.014 A 
BRANCH  11  12
ATOM     12  C   UNL A   1      41.727  29.002  28.442  1.00  0.00     0.031 A 
ATOM     13  C   UNL A   1      42.844  30.007  28.455  1.00  0.00     0.074 A 
ATOM     14  C   UNL A   1      41.968  27.715  28.120  1.00  0.00     0.049 A 
ATOM     15  N   UNL A   1      44.109  29.830  28.168  1.00  0.00    -0.248 NA
ATOM     16  C   UNL A   1      42.502  31.388  28.825  1.00  0.00     0.031 C 
ATOM     17  C   UNL A   1      40.952  26.658  28.065  1.00  0.00     0.029 A 
ATOM     18  N   UNL A   1      43.132  27.069  27.797  1.00  0.00    -0.354 N 
ATOM     19  C   UNL A   1      44.710  31.075  28.306  1.00  0.00     0.074 A 
ATOM     20  C   UNL A   1      43.666  32.007  28.673  1.00  0.00     0.031 C 
ATOM     21  C   UNL A   1      41.544  25.491  27.780  1.00  0.00     0.029 A 
ATOM     22  C   UNL A   1      42.965  25.726  27.555  1.00  0.00     0.049 A 
ATOM     23  H   UNL A   1      44.005  27.522  27.745  1.00  0.00     0.167 HD
ATOM     24  C   UNL A   1      46.016  31.402  28.147  1.00  0.00     0.037 A 
ATOM     25  C   UNL A   1      43.848  24.789  27.168  1.00  0.00     0.037 A 
ATOM     26  C   UNL A   1      47.046  30.457  27.789  1.00  0.00     0.049 A 
ATOM     27  C   UNL A   1      45.282  25.187  26.970  1.00  0.00     0.074 A 
ATOM     28  C   UNL A   1      48.403  30.681  27.632  1.00  0.00     0.029 A 
ATOM     29  N   UNL A   1      46.833  29.111  27.522  1.00  0.00    -0.354 N 
ATOM     30  N   UNL A   1      45.840  26.364  27.135  1.00  0.00    -0.248 NA
ATOM     31  C   UNL A   1      46.206  24.135  26.532  1.00  0.00     0.031 C 
ATOM     32  C   UNL A   1      49.000  29.487  27.218  1.00  0.00     0.029 A 
ATOM     33  C   UNL A   1      48.028  28.500  27.177  1.00  0.00     0.049 A 
ATOM     34  H   UNL A   1      45.960  28.657  27.571  1.00  0.00     0.167 HD
ATOM     35  C   UNL A   1      47.185  26.188  26.842  1.00  0.00     0.074 A 
ATOM     36  C   UNL A   1      47.359  24.789  26.508  1.00  0.00     0.031 C 
ATOM     37  C   UNL A   1      48.187  27.104  26.848  1.00  0.00     0.037 A 
BRANCH  24  38
ATOM     38  C   UNL A   1      46.410  32.845  28.334  1.00  0.00     0.058 A 
ATOM     39  C   UNL A   1      46.863  33.338  29.568  1.00  0.00     0.135 A 
ATOM     40  C   UNL A   1      46.384  33.735  27.247  1.00  0.00     0.135 A 
ATOM     41  F   UNL A   1      46.897  32.538  30.645  1.00  0.00    -0.206 F 
ATOM     42  C   UNL A   1      47.252  34.666  29.724  1.00  0.00     0.059 A 
ATOM     43  C   UNL A   1      46.796  35.058  27.373  1.00  0.00     0.059 A 
ATOM     44  F   UNL A   1      45.961  33.319  26.043  1.00  0.00    -0.206 F 
ATOM     45  C   UNL A   1      47.216  35.518  28.619  1.00  0.00     0.060 A 
BRANCH  45  46
ATOM     46  S   UNL A   1      47.735  37.234  28.837  1.00  0.00     0.124 S 
ATOM     47  O   UNL A   1      48.109  37.248  30.248  1.00  0.00    -0.237 OA
ATOM     48  O   UNL A   1      48.836  37.351  27.887  1.00  0.00    -0.237 OA
ATOM     49  O   UNL A   1      46.537  37.998  28.500  1.00  0.00    -0.744 OA
ENDBRANCH  45  46
ENDBRANCH  24  38
BRANCH  25  50
ATOM     50  C   UNL A   1      43.390  23.395  26.934  1.00  0.00     0.058 A 
ATOM     51  C   UNL A   1      43.249  22.886  25.635  1.00  0.00     0.135 A 
ATOM     52  C   UNL A   1      43.111  22.533  28.008  1.00  0.00     0.135 A 
ATOM     53  F   UNL A   1      43.502  23.669  24.575  1.00  0.00    -0.206 F 
ATOM     54  C   UNL A   1      42.831  21.579  25.408  1.00  0.00     0.059 A 
ATOM     55  C   UNL A   1      42.725  21.214  27.806  1.00  0.00     0.059 A 
ATOM     56  F   UNL A   1      43.252  22.966  29.271  1.00  0.00    -0.206 F 
ATOM     57  C   UNL A   1      42.575  20.749  26.502  1.00  0.00     0.060 A 
BRANCH  57  58
ATOM     58  S   UNL A   1      42.077  19.041  26.195  1.00  0.00     0.124 S 
ATOM     59  O   UNL A   1      42.328  18.426  27.493  1.00  0.00    -0.237 OA
ATOM     60  O   UNL A   1      40.674  19.194  25.822  1.00  0.00    -0.237 OA
ATOM     61  O   UNL A   1      42.963  18.621  25.115  1.00  0.00    -0.744 OA
ENDBRANCH  57  58
ENDBRANCH  25  50
BRANCH  37  62
ATOM     62  C   UNL A   1      49.568  26.610  26.517  1.00  0.00     0.058 A 
ATOM     63  C   UNL A   1      50.388  26.002  27.481  1.00  0.00     0.135 A 
ATOM     64  C   UNL A   1      50.065  26.720  25.208  1.00  0.00     0.135 A 
ATOM     65  F   UNL A   1      49.966  25.880  28.749  1.00  0.00    -0.206 F 
ATOM     66  C   UNL A   1      51.664  25.546  27.165  1.00  0.00     0.059 A 
ATOM     67  C   UNL A   1      51.324  26.240  24.862  1.00  0.00     0.059 A 
ATOM     68  F   UNL A   1      49.320  27.286  24.246  1.00  0.00    -0.206 F 
ATOM     69  C   UNL A   1      52.122  25.668  25.852  1.00  0.00     0.060 A 
BRANCH  69  70
ATOM     70  S   UNL A   1      53.769  25.049  25.450  1.00  0.00     0.124 S 
ATOM     71  O   UNL A   1      54.533  25.465  26.621  1.00  0.00    -0.237 OA
ATOM     72  O   UNL A   1      53.540  23.614  25.319  1.00  0.00    -0.237 OA
ATOM     73  O   UNL A   1      54.099  25.741  24.208  1.00  0.00    -0.744 OA
ENDBRANCH  69  70
ENDBRANCH  37  62
ENDBRANCH  11  12
ENDBRANCH   4   6
ENDBRANCH   1   2
BRANCH   1  74
ATOM     74  C   UNL A   1      33.916  29.735  27.163  1.00  0.00     0.042 C 
BRANCH  74  75
ATOM     75  C   UNL A   1      33.777  28.782  25.989  1.00  0.00     0.117 C 
BRANCH  75  76
ATOM     76  N   UNL A   1      32.456  28.854  25.415  1.00  0.00    -0.354 N 
ATOM     77  C   UNL A   1      31.741  27.874  24.798  1.00  0.00     0.242 C 
ATOM     78  H   UNL A   1      32.011  29.729  25.478  1.00  0.00     0.163 HD
ATOM     79  O   UNL A   1      30.597  28.161  24.428  1.00  0.00    -0.273 OA
BRANCH  77  80
ATOM     80  C   UNL A   1      32.245  26.402  24.766  1.00  0.00     0.174 C 
BRANCH  80  81
ATOM     81  N   UNL A   1      31.619  25.480  25.794  1.00  0.00    -0.339 N 
ATOM     82  C   UNL A   1      31.778  24.280  26.454  1.00  0.00     0.278 C 
ATOM     83  H   UNL A   1      30.785  25.896  26.111  1.00  0.00     0.164 HD
ATOM     84  O   UNL A   1      30.827  23.913  27.151  1.00  0.00    -0.268 OA
BRANCH  82  85
ATOM     85  C   UNL A   1      33.016  23.392  26.268  1.00  0.00     0.272 C 
ATOM     86  C   UNL A   1      32.892  22.644  24.972  1.00  0.00     0.076 C 
ATOM     87  N   UNL A   1      34.371  24.018  26.141  1.00  0.00    -0.333 N 
ATOM     88  C   UNL A   1      33.640  21.347  25.185  1.00  0.00     0.016 C 
ATOM     89  C   UNL A   1      35.428  22.956  26.050  1.00  0.00     0.186 C 
ATOM     90  H   UNL A   1      34.550  24.603  26.958  1.00  0.00     0.347 HD
ATOM     91  H   UNL A   1      34.396  24.585  25.293  1.00  0.00     0.347 HD
ATOM     92  C   UNL A   1      35.076  21.792  25.069  1.00  0.00     0.048 C 
ATOM     93  C   UNL A   1      36.784  23.503  25.558  1.00  0.00     0.065 C 
ATOM     94  C   UNL A   1      36.056  20.639  25.188  1.00  0.00     0.010 C 
ATOM     95  C   UNL A   1      37.852  22.392  25.430  1.00  0.00     0.006 C 
ATOM     96  C   UNL A   1      37.394  21.143  24.669  1.00  0.00     0.001 C 
ENDBRANCH  82  85
ENDBRANCH  80  81
BRANCH  80  97
ATOM     97  C   UNL A   1      32.360  25.976  23.315  1.00  0.00     0.021 C 
ATOM     98  C   UNL A   1      33.285  26.700  22.346  1.00  0.00     0.006 C 
ATOM     99  C   UNL A   1      33.626  25.316  22.772  1.00  0.00     0.006 C 
ENDBRANCH  80  97
ENDBRANCH  77  80
ENDBRANCH  75  76
ENDBRANCH  74  75
ENDBRANCH   1  74
TORSDOF 16
ENDMDL
