MODEL 1
REMARK VINA RESULT:     -11.2      0.000      0.000
REMARK SMILES COC(=O)[C@@H]([NH2+]CC(C)(C)C(=O)NCCCNC(=O)c1ccc(-c2c3nc(c(-c4c(F)cc(S(=O)(=O)[O-])cc4F)c4ccc([nH]4)c(-c4c(F)cc(S(=O)(=O)[O-])cc4F)c4nc(c(-c5c(F)cc(S(=O)(=O)[O-])cc5F)c5ccc2[nH]5)C=C4)C=C3)cc1)c1ccccc1
REMARK SMILES IDX 14 1 13 2 11 3 12 4 8 6 9 7 10 8 7 9 6 10 5 13 3 14 4 15
REMARK SMILES IDX 2 16 1 17 86 18 87 19 91 20 88 21 90 22 89 23 15 24 16 25
REMARK SMILES IDX 17 26 18 27 19 29 20 30 21 31 85 32 22 33 84 34 23 35 24 36
REMARK SMILES IDX 25 37 78 38 26 39 83 40 77 41 79 42 27 43 82 44 76 45 75 46
REMARK SMILES IDX 28 48 62 49 41 50 61 51 42 52 45 53 60 54 80 55 43 56 44 57
REMARK SMILES IDX 59 59 81 60 46 61 29 62 30 63 39 64 31 65 32 66 38 67 40 68
REMARK SMILES IDX 33 69 34 70 35 71 36 72 37 73 63 74 64 75 73 76 65 77 66 78
REMARK SMILES IDX 72 79 74 80 67 81 68 82 69 83 70 84 71 85 47 86 48 87 57 88
REMARK SMILES IDX 49 89 50 90 56 91 58 92 51 93 52 94 53 95 54 96 55 97
REMARK H PARENT 13 5 6 11 6 12 17 28 79 47 45 58
REMARK Flexibility Score: inf
ROOT
ATOM      1  C   UNL A   1      33.754  32.265  27.829  1.00  0.00     0.117 C 
ENDROOT
BRANCH   1   2
ATOM      2  N   UNL A   1      34.319  31.084  27.207  1.00  0.00    -0.355 N 
ATOM      3  C   UNL A   1      33.786  29.862  26.973  1.00  0.00     0.231 C 
ATOM      4  O   UNL A   1      34.584  28.948  27.177  1.00  0.00    -0.274 OA
ATOM      5  H   UNL A   1      35.250  31.188  26.904  1.00  0.00     0.163 HD
BRANCH   3   6
ATOM      6  C   UNL A   1      32.329  29.636  26.523  1.00  0.00     0.092 C 
ATOM      7  C   UNL A   1      31.602  30.987  26.414  1.00  0.00     0.027 C 
ATOM      8  C   UNL A   1      31.639  28.721  27.558  1.00  0.00     0.027 C 
BRANCH   6   9
ATOM      9  C   UNL A   1      32.178  28.878  25.143  1.00  0.00     0.277 C 
BRANCH   9  10
ATOM     10  N   UNL A   1      31.651  29.526  23.930  1.00  0.00    -0.330 N 
ATOM     11  H   UNL A   1      31.759  30.535  24.041  1.00  0.00     0.347 HD
ATOM     12  H   UNL A   1      32.183  29.134  23.153  1.00  0.00     0.347 HD
BRANCH  10  13
ATOM     13  C   UNL A   1      30.218  29.253  23.617  1.00  0.00     0.324 C 
BRANCH  13  14
ATOM     14  C   UNL A   1      30.091  27.848  22.977  1.00  0.00     0.369 C 
ATOM     15  O   UNL A   1      30.743  27.498  21.994  1.00  0.00    -0.245 OA
BRANCH  14  16
ATOM     16  O   UNL A   1      29.130  27.066  23.548  1.00  0.00    -0.464 OA
ATOM     17  C   UNL A   1      29.639  26.174  24.542  1.00  0.00     0.282 C 
ENDBRANCH  14  16
ENDBRANCH  13  14
BRANCH  13  18
ATOM     18  C   UNL A   1      29.467  30.385  22.899  1.00  0.00     0.021 A 
ATOM     19  C   UNL A   1      29.071  30.347  21.556  1.00  0.00     0.010 A 
ATOM     20  C   UNL A   1      29.122  31.548  23.621  1.00  0.00     0.010 A 
ATOM     21  C   UNL A   1      28.346  31.403  20.983  1.00  0.00     0.001 A 
ATOM     22  C   UNL A   1      28.426  32.614  23.049  1.00  0.00     0.001 A 
ATOM     23  C   UNL A   1      28.028  32.536  21.727  1.00  0.00     0.000 A 
ENDBRANCH  13  18
ENDBRANCH  10  13
ENDBRANCH   9  10
ENDBRANCH   6   9
ENDBRANCH   3   6
ENDBRANCH   1   2
BRANCH   1  24
ATOM     24  C   UNL A   1      34.844  33.107  28.495  1.00  0.00     0.042 C 
BRANCH  24  25
ATOM     25  C   UNL A   1      36.062  32.308  28.960  1.00  0.00     0.118 C 
BRANCH  25  26
ATOM     26  N   UNL A   1      35.779  31.478  30.124  1.00  0.00    -0.352 N 
ATOM     27  C   UNL A   1      36.496  30.442  30.663  1.00  0.00     0.251 C 
ATOM     28  H   UNL A   1      34.943  31.696  30.597  1.00  0.00     0.163 HD
ATOM     29  O   UNL A   1      35.972  29.717  31.510  1.00  0.00    -0.269 OA
BRANCH  27  30
ATOM     30  C   UNL A   1      37.878  30.186  30.217  1.00  0.00     0.039 A 
ATOM     31  C   UNL A   1      38.897  30.114  31.169  1.00  0.00     0.014 A 
ATOM     32  C   UNL A   1      38.169  30.022  28.860  1.00  0.00     0.014 A 
ATOM     33  C   UNL A   1      40.197  29.807  30.764  1.00  0.00     0.010 A 
ATOM     34  C   UNL A   1      39.445  29.631  28.469  1.00  0.00     0.010 A 
ATOM     35  C   UNL A   1      40.474  29.523  29.417  1.00  0.00    -0.014 A 
BRANCH  35  36
ATOM     36  C   UNL A   1      41.833  29.112  28.979  1.00  0.00     0.031 A 
ATOM     37  C   UNL A   1      42.942  30.128  28.908  1.00  0.00     0.074 A 
ATOM     38  C   UNL A   1      42.049  27.841  28.585  1.00  0.00     0.049 A 
ATOM     39  N   UNL A   1      44.170  29.980  28.484  1.00  0.00    -0.248 NA
ATOM     40  C   UNL A   1      42.621  31.497  29.346  1.00  0.00     0.031 C 
ATOM     41  C   UNL A   1      41.040  26.778  28.562  1.00  0.00     0.029 A 
ATOM     42  N   UNL A   1      43.185  27.226  28.122  1.00  0.00    -0.354 N 
ATOM     43  C   UNL A   1      44.763  31.233  28.593  1.00  0.00     0.074 A 
ATOM     44  C   UNL A   1      43.743  32.143  29.066  1.00  0.00     0.031 C 
ATOM     45  C   UNL A   1      41.608  25.640  28.131  1.00  0.00     0.029 A 
ATOM     46  C   UNL A   1      43.007  25.899  27.806  1.00  0.00     0.049 A 
ATOM     47  H   UNL A   1      44.047  27.692  28.022  1.00  0.00     0.167 HD
ATOM     48  C   UNL A   1      46.046  31.586  28.348  1.00  0.00     0.037 A 
ATOM     49  C   UNL A   1      43.870  24.995  27.302  1.00  0.00     0.037 A 
ATOM     50  C   UNL A   1      47.060  30.667  27.899  1.00  0.00     0.049 A 
ATOM     51  C   UNL A   1      45.289  25.417  27.025  1.00  0.00     0.074 A 
ATOM     52  C   UNL A   1      48.403  30.914  27.672  1.00  0.00     0.029 A 
ATOM     53  N   UNL A   1      46.846  29.328  27.609  1.00  0.00    -0.354 N 
ATOM     54  N   UNL A   1      45.848  26.591  27.197  1.00  0.00    -0.248 NA
ATOM     55  C   UNL A   1      46.196  24.391  26.493  1.00  0.00     0.031 C 
ATOM     56  C   UNL A   1      48.989  29.736  27.196  1.00  0.00     0.029 A 
ATOM     57  C   UNL A   1      48.026  28.741  27.183  1.00  0.00     0.049 A 
ATOM     58  H   UNL A   1      45.982  28.864  27.693  1.00  0.00     0.167 HD
ATOM     59  C   UNL A   1      47.179  26.437  26.824  1.00  0.00     0.074 A 
ATOM     60  C   UNL A   1      47.343  25.052  26.431  1.00  0.00     0.031 C 
ATOM     61  C   UNL A   1      48.175  27.357  26.807  1.00  0.00     0.037 A 
BRANCH  48  62
ATOM     62  C   UNL A   1      46.434  33.024  28.567  1.00  0.00     0.058 A 
ATOM     63  C   UNL A   1      46.415  33.959  27.519  1.00  0.00     0.135 A 
ATOM     64  C   UNL A   1      46.777  33.485  29.848  1.00  0.00     0.135 A 
ATOM     65  F   UNL A   1      46.112  33.572  26.271  1.00  0.00    -0.206 F 
ATOM     66  C   UNL A   1      46.746  35.294  27.729  1.00  0.00     0.059 A 
ATOM     67  C   UNL A   1      47.081  34.823  30.088  1.00  0.00     0.059 A 
ATOM     68  F   UNL A   1      46.813  32.634  30.886  1.00  0.00    -0.206 F 
ATOM     69  C   UNL A   1      47.072  35.717  29.019  1.00  0.00     0.060 A 
BRANCH  69  70
ATOM     70  S   UNL A   1      47.473  37.458  29.275  1.00  0.00     0.124 S 
ATOM     71  O   UNL A   1      48.852  37.514  28.799  1.00  0.00    -0.237 OA
ATOM     72  O   UNL A   1      46.486  38.132  28.438  1.00  0.00    -0.237 OA
ATOM     73  O   UNL A   1      47.299  37.640  30.714  1.00  0.00    -0.744 OA
ENDBRANCH  69  70
ENDBRANCH  48  62
BRANCH  49  74
ATOM     74  C   UNL A   1      43.424  23.600  27.036  1.00  0.00     0.058 A 
ATOM     75  C   UNL A   1      43.167  23.159  25.729  1.00  0.00     0.135 A 
ATOM     76  C   UNL A   1      43.241  22.680  28.081  1.00  0.00     0.135 A 
ATOM     77  F   UNL A   1      43.323  24.000  24.695  1.00  0.00    -0.206 F 
ATOM     78  C   UNL A   1      42.717  21.868  25.469  1.00  0.00     0.059 A 
ATOM     79  C   UNL A   1      42.821  21.376  27.844  1.00  0.00     0.059 A 
ATOM     80  F   UNL A   1      43.491  23.044  29.349  1.00  0.00    -0.206 F 
ATOM     81  C   UNL A   1      42.547  20.983  26.534  1.00  0.00     0.060 A 
BRANCH  81  82
ATOM     82  S   UNL A   1      41.991  19.302  26.184  1.00  0.00     0.124 S 
ATOM     83  O   UNL A   1      42.271  18.631  27.448  1.00  0.00    -0.237 OA
ATOM     84  O   UNL A   1      40.581  19.505  25.867  1.00  0.00    -0.237 OA
ATOM     85  O   UNL A   1      42.827  18.899  25.057  1.00  0.00    -0.744 OA
ENDBRANCH  81  82
ENDBRANCH  49  74
BRANCH  61  86
ATOM     86  C   UNL A   1      49.544  26.891  26.390  1.00  0.00     0.058 A 
ATOM     87  C   UNL A   1      49.981  26.970  25.060  1.00  0.00     0.135 A 
ATOM     88  C   UNL A   1      50.449  26.407  27.350  1.00  0.00     0.135 A 
ATOM     89  F   UNL A   1      49.153  27.418  24.102  1.00  0.00    -0.206 F 
ATOM     90  C   UNL A   1      51.258  26.563  24.689  1.00  0.00     0.059 A 
ATOM     91  C   UNL A   1      51.742  26.025  27.007  1.00  0.00     0.059 A 
ATOM     92  F   UNL A   1      50.087  26.320  28.640  1.00  0.00    -0.206 F 
ATOM     93  C   UNL A   1      52.133  26.095  25.672  1.00  0.00     0.060 A 
BRANCH  93  94
ATOM     94  S   UNL A   1      53.799  25.604  25.182  1.00  0.00     0.124 S 
ATOM     95  O   UNL A   1      54.251  26.785  24.454  1.00  0.00    -0.237 OA
ATOM     96  O   UNL A   1      54.446  25.367  26.469  1.00  0.00    -0.237 OA
ATOM     97  O   UNL A   1      53.577  24.413  24.368  1.00  0.00    -0.744 OA
ENDBRANCH  93  94
ENDBRANCH  61  86
ENDBRANCH  35  36
ENDBRANCH  27  30
ENDBRANCH  25  26
ENDBRANCH  24  25
ENDBRANCH   1  24
TORSDOF 19
ENDMDL
MODEL 2
REMARK VINA RESULT:     -11.2      6.850     11.829
REMARK SMILES COC(=O)[C@@H]([NH2+]CC(C)(C)C(=O)NCCCNC(=O)c1ccc(-c2c3nc(c(-c4c(F)cc(S(=O)(=O)[O-])cc4F)c4ccc([nH]4)c(-c4c(F)cc(S(=O)(=O)[O-])cc4F)c4nc(c(-c5c(F)cc(S(=O)(=O)[O-])cc5F)c5ccc2[nH]5)C=C4)C=C3)cc1)c1ccccc1
REMARK SMILES IDX 14 1 13 2 11 3 12 4 8 6 9 7 10 8 7 9 6 10 5 13 3 14 4 15
REMARK SMILES IDX 2 16 1 17 86 18 87 19 91 20 88 21 90 22 89 23 15 24 16 25
REMARK SMILES IDX 17 26 18 27 19 29 20 30 21 31 85 32 22 33 84 34 23 35 24 36
REMARK SMILES IDX 25 37 78 38 26 39 83 40 77 41 79 42 27 43 82 44 76 45 75 46
REMARK SMILES IDX 28 48 62 49 41 50 61 51 42 52 45 53 60 54 80 55 43 56 44 57
REMARK SMILES IDX 59 59 81 60 46 61 29 62 30 63 39 64 31 65 32 66 38 67 40 68
REMARK SMILES IDX 33 69 34 70 35 71 36 72 37 73 63 74 64 75 73 76 65 77 66 78
REMARK SMILES IDX 72 79 74 80 67 81 68 82 69 83 70 84 71 85 47 86 48 87 57 88
REMARK SMILES IDX 49 89 50 90 56 91 58 92 51 93 52 94 53 95 54 96 55 97
REMARK H PARENT 13 5 6 11 6 12 17 28 79 47 45 58
REMARK Flexibility Score: inf
ROOT
ATOM      1  C   UNL A   1      37.768  22.670  25.667  1.00  0.00     0.117 C 
ENDROOT
BRANCH   1   2
ATOM      2  N   UNL A   1      37.385  23.223  24.383  1.00  0.00    -0.355 N 
ATOM      3  C   UNL A   1      36.320  22.966  23.587  1.00  0.00     0.231 C 
ATOM      4  O   UNL A   1      36.616  22.936  22.393  1.00  0.00    -0.274 OA
ATOM      5  H   UNL A   1      38.005  23.901  24.029  1.00  0.00     0.163 HD
BRANCH   3   6
ATOM      6  C   UNL A   1      34.896  22.712  24.119  1.00  0.00     0.092 C 
ATOM      7  C   UNL A   1      34.803  21.293  24.705  1.00  0.00     0.027 C 
ATOM      8  C   UNL A   1      33.904  22.891  22.949  1.00  0.00     0.027 C 
BRANCH   6   9
ATOM      9  C   UNL A   1      34.416  23.738  25.222  1.00  0.00     0.277 C 
BRANCH   9  10
ATOM     10  N   UNL A   1      34.043  25.129  24.911  1.00  0.00    -0.330 N 
ATOM     11  H   UNL A   1      34.787  25.737  25.254  1.00  0.00     0.347 HD
ATOM     12  H   UNL A   1      33.914  25.161  23.900  1.00  0.00     0.347 HD
BRANCH  10  13
ATOM     13  C   UNL A   1      32.756  25.604  25.497  1.00  0.00     0.324 C 
BRANCH  13  14
ATOM     14  C   UNL A   1      31.611  25.372  24.481  1.00  0.00     0.369 C 
ATOM     15  O   UNL A   1      31.456  26.066  23.477  1.00  0.00    -0.245 OA
BRANCH  14  16
ATOM     16  O   UNL A   1      30.742  24.385  24.843  1.00  0.00    -0.464 OA
ATOM     17  C   UNL A   1      30.961  23.893  26.167  1.00  0.00     0.282 C 
ENDBRANCH  14  16
ENDBRANCH  13  14
BRANCH  13  18
ATOM     18  C   UNL A   1      32.798  26.994  26.151  1.00  0.00     0.021 A 
ATOM     19  C   UNL A   1      33.892  27.866  26.089  1.00  0.00     0.010 A 
ATOM     20  C   UNL A   1      31.664  27.460  26.852  1.00  0.00     0.010 A 
ATOM     21  C   UNL A   1      33.837  29.142  26.673  1.00  0.00     0.001 A 
ATOM     22  C   UNL A   1      31.614  28.715  27.460  1.00  0.00     0.001 A 
ATOM     23  C   UNL A   1      32.702  29.563  27.360  1.00  0.00     0.000 A 
ENDBRANCH  13  18
ENDBRANCH  10  13
ENDBRANCH   9  10
ENDBRANCH   6   9
ENDBRANCH   3   6
ENDBRANCH   1   2
BRANCH   1  24
ATOM     24  C   UNL A   1      38.315  23.760  26.590  1.00  0.00     0.042 C 
BRANCH  24  25
ATOM     25  C   UNL A   1      39.802  23.623  26.917  1.00  0.00     0.118 C 
BRANCH  25  26
ATOM     26  N   UNL A   1      40.653  24.333  25.970  1.00  0.00    -0.352 N 
ATOM     27  C   UNL A   1      41.174  25.599  26.030  1.00  0.00     0.251 C 
ATOM     28  H   UNL A   1      40.891  23.823  25.163  1.00  0.00     0.163 HD
ATOM     29  O   UNL A   1      41.675  26.098  25.023  1.00  0.00    -0.269 OA
BRANCH  27  30
ATOM     30  C   UNL A   1      41.113  26.366  27.289  1.00  0.00     0.039 A 
ATOM     31  C   UNL A   1      41.954  27.469  27.453  1.00  0.00     0.014 A 
ATOM     32  C   UNL A   1      40.232  25.995  28.307  1.00  0.00     0.014 A 
ATOM     33  C   UNL A   1      41.859  28.241  28.612  1.00  0.00     0.010 A 
ATOM     34  C   UNL A   1      40.078  26.814  29.420  1.00  0.00     0.010 A 
ATOM     35  C   UNL A   1      40.893  27.943  29.587  1.00  0.00    -0.014 A 
BRANCH  35  36
ATOM     36  C   UNL A   1      40.719  28.801  30.788  1.00  0.00     0.031 A 
ATOM     37  C   UNL A   1      39.666  29.877  30.800  1.00  0.00     0.074 A 
ATOM     38  C   UNL A   1      41.551  28.652  31.838  1.00  0.00     0.049 A 
ATOM     39  N   UNL A   1      39.409  30.770  31.721  1.00  0.00    -0.248 NA
ATOM     40  C   UNL A   1      38.805  29.981  29.610  1.00  0.00     0.031 C 
ATOM     41  C   UNL A   1      42.642  27.677  31.923  1.00  0.00     0.029 A 
ATOM     42  N   UNL A   1      41.616  29.323  33.033  1.00  0.00    -0.354 N 
ATOM     43  C   UNL A   1      38.370  31.545  31.219  1.00  0.00     0.074 A 
ATOM     44  C   UNL A   1      38.084  31.057  29.888  1.00  0.00     0.031 C 
ATOM     45  C   UNL A   1      43.250  27.798  33.113  1.00  0.00     0.029 A 
ATOM     46  C   UNL A   1      42.625  28.884  33.860  1.00  0.00     0.049 A 
ATOM     47  H   UNL A   1      40.999  30.051  33.277  1.00  0.00     0.167 HD
ATOM     48  C   UNL A   1      37.699  32.553  31.823  1.00  0.00     0.037 A 
ATOM     49  C   UNL A   1      43.009  29.316  35.078  1.00  0.00     0.037 A 
ATOM     50  C   UNL A   1      37.976  33.017  33.157  1.00  0.00     0.049 A 
ATOM     51  C   UNL A   1      42.254  30.448  35.721  1.00  0.00     0.074 A 
ATOM     52  C   UNL A   1      37.319  33.997  33.881  1.00  0.00     0.029 A 
ATOM     53  N   UNL A   1      38.993  32.536  33.969  1.00  0.00    -0.354 N 
ATOM     54  N   UNL A   1      41.230  31.126  35.258  1.00  0.00    -0.248 NA
ATOM     55  C   UNL A   1      42.699  30.871  37.056  1.00  0.00     0.031 C 
ATOM     56  C   UNL A   1      37.970  34.144  35.110  1.00  0.00     0.029 A 
ATOM     57  C   UNL A   1      38.995  33.214  35.177  1.00  0.00     0.049 A 
ATOM     58  H   UNL A   1      39.620  31.819  33.723  1.00  0.00     0.167 HD
ATOM     59  C   UNL A   1      40.891  32.032  36.256  1.00  0.00     0.074 A 
ATOM     60  C   UNL A   1      41.809  31.807  37.354  1.00  0.00     0.031 C 
ATOM     61  C   UNL A   1      39.909  32.968  36.265  1.00  0.00     0.037 A 
BRANCH  48  62
ATOM     62  C   UNL A   1      36.591  33.220  31.053  1.00  0.00     0.058 A 
ATOM     63  C   UNL A   1      35.239  32.954  31.327  1.00  0.00     0.135 A 
ATOM     64  C   UNL A   1      36.881  34.176  30.064  1.00  0.00     0.135 A 
ATOM     65  F   UNL A   1      34.903  32.038  32.248  1.00  0.00    -0.206 F 
ATOM     66  C   UNL A   1      34.216  33.592  30.633  1.00  0.00     0.059 A 
ATOM     67  C   UNL A   1      35.873  34.849  29.380  1.00  0.00     0.059 A 
ATOM     68  F   UNL A   1      38.155  34.467  29.760  1.00  0.00    -0.206 F 
ATOM     69  C   UNL A   1      34.543  34.543  29.665  1.00  0.00     0.060 A 
BRANCH  69  70
ATOM     70  S   UNL A   1      33.201  35.379  28.794  1.00  0.00     0.124 S 
ATOM     71  O   UNL A   1      33.940  36.281  27.916  1.00  0.00    -0.237 OA
ATOM     72  O   UNL A   1      32.520  34.269  28.135  1.00  0.00    -0.237 OA
ATOM     73  O   UNL A   1      32.449  36.024  29.866  1.00  0.00    -0.744 OA
ENDBRANCH  69  70
ENDBRANCH  48  62
BRANCH  49  74
ATOM     74  C   UNL A   1      44.156  28.671  35.774  1.00  0.00     0.058 A 
ATOM     75  C   UNL A   1      43.956  27.604  36.662  1.00  0.00     0.135 A 
ATOM     76  C   UNL A   1      45.474  29.111  35.572  1.00  0.00     0.135 A 
ATOM     77  F   UNL A   1      42.714  27.148  36.894  1.00  0.00    -0.206 F 
ATOM     78  C   UNL A   1      45.013  27.014  37.346  1.00  0.00     0.059 A 
ATOM     79  C   UNL A   1      46.551  28.518  36.221  1.00  0.00     0.059 A 
ATOM     80  F   UNL A   1      45.724  30.116  34.718  1.00  0.00    -0.206 F 
ATOM     81  C   UNL A   1      46.309  27.479  37.118  1.00  0.00     0.060 A 
BRANCH  81  82
ATOM     82  S   UNL A   1      47.679  26.688  37.989  1.00  0.00     0.124 S 
ATOM     83  O   UNL A   1      48.676  26.578  36.929  1.00  0.00    -0.237 OA
ATOM     84  O   UNL A   1      47.971  27.653  39.043  1.00  0.00    -0.237 OA
ATOM     85  O   UNL A   1      47.104  25.427  38.446  1.00  0.00    -0.744 OA
ENDBRANCH  81  82
ENDBRANCH  49  74
BRANCH  61  86
ATOM     86  C   UNL A   1      39.746  33.792  37.514  1.00  0.00     0.058 A 
ATOM     87  C   UNL A   1      40.412  35.014  37.688  1.00  0.00     0.135 A 
ATOM     88  C   UNL A   1      38.866  33.374  38.526  1.00  0.00     0.135 A 
ATOM     89  F   UNL A   1      41.269  35.456  36.755  1.00  0.00    -0.206 F 
ATOM     90  C   UNL A   1      40.233  35.782  38.834  1.00  0.00     0.059 A 
ATOM     91  C   UNL A   1      38.646  34.142  39.665  1.00  0.00     0.059 A 
ATOM     92  F   UNL A   1      38.194  32.218  38.405  1.00  0.00    -0.206 F 
ATOM     93  C   UNL A   1      39.343  35.338  39.816  1.00  0.00     0.060 A 
BRANCH  93  94
ATOM     94  S   UNL A   1      39.094  36.363  41.281  1.00  0.00     0.124 S 
ATOM     95  O   UNL A   1      38.813  37.665  40.684  1.00  0.00    -0.237 OA
ATOM     96  O   UNL A   1      37.964  35.707  41.931  1.00  0.00    -0.237 OA
ATOM     97  O   UNL A   1      40.366  36.259  41.989  1.00  0.00    -0.744 OA
ENDBRANCH  93  94
ENDBRANCH  61  86
ENDBRANCH  35  36
ENDBRANCH  27  30
ENDBRANCH  25  26
ENDBRANCH  24  25
ENDBRANCH   1  24
TORSDOF 19
ENDMDL
MODEL 3
REMARK VINA RESULT:     -11.1      2.436      9.177
REMARK SMILES COC(=O)[C@@H]([NH2+]CC(C)(C)C(=O)NCCCNC(=O)c1ccc(-c2c3nc(c(-c4c(F)cc(S(=O)(=O)[O-])cc4F)c4ccc([nH]4)c(-c4c(F)cc(S(=O)(=O)[O-])cc4F)c4nc(c(-c5c(F)cc(S(=O)(=O)[O-])cc5F)c5ccc2[nH]5)C=C4)C=C3)cc1)c1ccccc1
REMARK SMILES IDX 14 1 13 2 11 3 12 4 8 6 9 7 10 8 7 9 6 10 5 13 3 14 4 15
REMARK SMILES IDX 2 16 1 17 86 18 87 19 91 20 88 21 90 22 89 23 15 24 16 25
REMARK SMILES IDX 17 26 18 27 19 29 20 30 21 31 85 32 22 33 84 34 23 35 24 36
REMARK SMILES IDX 25 37 78 38 26 39 83 40 77 41 79 42 27 43 82 44 76 45 75 46
REMARK SMILES IDX 28 48 62 49 41 50 61 51 42 52 45 53 60 54 80 55 43 56 44 57
REMARK SMILES IDX 59 59 81 60 46 61 29 62 30 63 39 64 31 65 32 66 38 67 40 68
REMARK SMILES IDX 33 69 34 70 35 71 36 72 37 73 63 74 64 75 73 76 65 77 66 78
REMARK SMILES IDX 72 79 74 80 67 81 68 82 69 83 70 84 71 85 47 86 48 87 57 88
REMARK SMILES IDX 49 89 50 90 56 91 58 92 51 93 52 94 53 95 54 96 55 97
REMARK H PARENT 13 5 6 11 6 12 17 28 79 47 45 58
REMARK Flexibility Score: inf
ROOT
ATOM      1  C   UNL A   1      33.809  28.200  26.328  1.00  0.00     0.117 C 
ENDROOT
BRANCH   1   2
ATOM      2  N   UNL A   1      32.707  27.500  26.956  1.00  0.00    -0.355 N 
ATOM      3  C   UNL A   1      31.863  26.556  26.475  1.00  0.00     0.231 C 
ATOM      4  O   UNL A   1      30.704  26.717  26.852  1.00  0.00    -0.274 OA
ATOM      5  H   UNL A   1      32.542  27.754  27.893  1.00  0.00     0.163 HD
BRANCH   3   6
ATOM      6  C   UNL A   1      32.303  25.416  25.534  1.00  0.00     0.092 C 
ATOM      7  C   UNL A   1      32.427  25.946  24.095  1.00  0.00     0.027 C 
ATOM      8  C   UNL A   1      31.253  24.288  25.617  1.00  0.00     0.027 C 
BRANCH   6   9
ATOM      9  C   UNL A   1      33.672  24.730  25.930  1.00  0.00     0.277 C 
BRANCH   9  10
ATOM     10  N   UNL A   1      34.779  24.550  24.975  1.00  0.00    -0.330 N 
ATOM     11  H   UNL A   1      34.502  24.973  24.090  1.00  0.00     0.347 HD
ATOM     12  H   UNL A   1      35.593  24.988  25.408  1.00  0.00     0.347 HD
BRANCH  10  13
ATOM     13  C   UNL A   1      35.179  23.138  24.702  1.00  0.00     0.324 C 
BRANCH  13  14
ATOM     14  C   UNL A   1      36.547  23.123  23.977  1.00  0.00     0.369 C 
ATOM     15  O   UNL A   1      36.656  23.069  22.752  1.00  0.00    -0.245 OA
BRANCH  14  16
ATOM     16  O   UNL A   1      37.619  23.089  24.820  1.00  0.00    -0.464 OA
ATOM     17  C   UNL A   1      37.807  21.819  25.450  1.00  0.00     0.282 C 
ENDBRANCH  14  16
ENDBRANCH  13  14
BRANCH  13  18
ATOM     18  C   UNL A   1      34.088  22.246  24.090  1.00  0.00     0.021 A 
ATOM     19  C   UNL A   1      33.295  22.604  22.992  1.00  0.00     0.010 A 
ATOM     20  C   UNL A   1      33.859  20.965  24.637  1.00  0.00     0.010 A 
ATOM     21  C   UNL A   1      32.350  21.713  22.460  1.00  0.00     0.001 A 
ATOM     22  C   UNL A   1      32.900  20.087  24.131  1.00  0.00     0.001 A 
ATOM     23  C   UNL A   1      32.150  20.460  23.030  1.00  0.00     0.000 A 
ENDBRANCH  13  18
ENDBRANCH  10  13
ENDBRANCH   9  10
ENDBRANCH   6   9
ENDBRANCH   3   6
ENDBRANCH   1   2
BRANCH   1  24
ATOM     24  C   UNL A   1      34.174  29.461  27.114  1.00  0.00     0.042 C 
BRANCH  24  25
ATOM     25  C   UNL A   1      35.523  29.389  27.831  1.00  0.00     0.118 C 
BRANCH  25  26
ATOM     26  N   UNL A   1      35.504  30.050  29.130  1.00  0.00    -0.352 N 
ATOM     27  C   UNL A   1      36.524  30.279  30.017  1.00  0.00     0.251 C 
ATOM     28  H   UNL A   1      34.623  30.383  29.414  1.00  0.00     0.163 HD
ATOM     29  O   UNL A   1      36.261  30.644  31.163  1.00  0.00    -0.269 OA
BRANCH  27  30
ATOM     30  C   UNL A   1      37.925  30.068  29.606  1.00  0.00     0.039 A 
ATOM     31  C   UNL A   1      38.901  29.889  30.589  1.00  0.00     0.014 A 
ATOM     32  C   UNL A   1      38.276  30.053  28.254  1.00  0.00     0.014 A 
ATOM     33  C   UNL A   1      40.218  29.623  30.211  1.00  0.00     0.010 A 
ATOM     34  C   UNL A   1      39.568  29.703  27.880  1.00  0.00     0.010 A 
ATOM     35  C   UNL A   1      40.555  29.488  28.854  1.00  0.00    -0.014 A 
BRANCH  35  36
ATOM     36  C   UNL A   1      41.932  29.124  28.434  1.00  0.00     0.031 A 
ATOM     37  C   UNL A   1      42.251  27.705  28.044  1.00  0.00     0.074 A 
ATOM     38  C   UNL A   1      42.906  30.055  28.465  1.00  0.00     0.049 A 
ATOM     39  N   UNL A   1      43.403  27.178  27.719  1.00  0.00    -0.248 NA
ATOM     40  C   UNL A   1      41.134  26.746  28.045  1.00  0.00     0.031 C 
ATOM     41  C   UNL A   1      42.730  31.452  28.874  1.00  0.00     0.029 A 
ATOM     42  N   UNL A   1      44.240  29.969  28.157  1.00  0.00    -0.354 N 
ATOM     43  C   UNL A   1      43.153  25.830  27.489  1.00  0.00     0.074 A 
ATOM     44  C   UNL A   1      41.752  25.607  27.770  1.00  0.00     0.031 C 
ATOM     45  C   UNL A   1      43.903  32.095  28.767  1.00  0.00     0.029 A 
ATOM     46  C   UNL A   1      44.925  31.151  28.327  1.00  0.00     0.049 A 
ATOM     47  H   UNL A   1      44.669  29.140  27.845  1.00  0.00     0.167 HD
ATOM     48  C   UNL A   1      44.007  24.873  27.057  1.00  0.00     0.037 A 
ATOM     49  C   UNL A   1      46.231  31.438  28.157  1.00  0.00     0.037 A 
ATOM     50  C   UNL A   1      45.395  25.109  26.758  1.00  0.00     0.049 A 
ATOM     51  C   UNL A   1      47.162  30.351  27.689  1.00  0.00     0.074 A 
ATOM     52  C   UNL A   1      46.332  24.219  26.264  1.00  0.00     0.029 A 
ATOM     53  N   UNL A   1      46.047  26.323  26.925  1.00  0.00    -0.354 N 
ATOM     54  N   UNL A   1      46.893  29.097  27.413  1.00  0.00    -0.248 NA
ATOM     55  C   UNL A   1      48.572  30.719  27.501  1.00  0.00     0.031 C 
ATOM     56  C   UNL A   1      47.561  24.879  26.181  1.00  0.00     0.029 A 
ATOM     57  C   UNL A   1      47.378  26.198  26.565  1.00  0.00     0.049 A 
ATOM     58  H   UNL A   1      45.625  27.150  27.251  1.00  0.00     0.167 HD
ATOM     59  C   UNL A   1      48.092  28.535  26.990  1.00  0.00     0.074 A 
ATOM     60  C   UNL A   1      49.085  29.590  27.033  1.00  0.00     0.031 C 
ATOM     61  C   UNL A   1      48.351  27.261  26.603  1.00  0.00     0.037 A 
BRANCH  48  62
ATOM     62  C   UNL A   1      43.465  23.480  26.872  1.00  0.00     0.058 A 
ATOM     63  C   UNL A   1      43.194  22.960  25.596  1.00  0.00     0.135 A 
ATOM     64  C   UNL A   1      43.264  22.637  27.977  1.00  0.00     0.135 A 
ATOM     65  F   UNL A   1      43.351  23.725  24.505  1.00  0.00    -0.206 F 
ATOM     66  C   UNL A   1      42.720  21.662  25.424  1.00  0.00     0.059 A 
ATOM     67  C   UNL A   1      42.821  21.326  27.827  1.00  0.00     0.059 A 
ATOM     68  F   UNL A   1      43.504  23.084  29.220  1.00  0.00    -0.206 F 
ATOM     69  C   UNL A   1      42.542  20.852  26.546  1.00  0.00     0.060 A 
BRANCH  69  70
ATOM     70  S   UNL A   1      41.951  19.164  26.301  1.00  0.00     0.124 S 
ATOM     71  O   UNL A   1      42.092  18.607  27.643  1.00  0.00    -0.237 OA
ATOM     72  O   UNL A   1      40.582  19.377  25.844  1.00  0.00    -0.237 OA
ATOM     73  O   UNL A   1      42.867  18.624  25.299  1.00  0.00    -0.744 OA
ENDBRANCH  69  70
ENDBRANCH  48  62
BRANCH  49  74
ATOM     74  C   UNL A   1      46.736  32.814  28.419  1.00  0.00     0.058 A 
ATOM     75  C   UNL A   1      47.170  33.195  29.698  1.00  0.00     0.135 A 
ATOM     76  C   UNL A   1      46.790  33.778  27.399  1.00  0.00     0.135 A 
ATOM     77  F   UNL A   1      47.134  32.312  30.708  1.00  0.00    -0.206 F 
ATOM     78  C   UNL A   1      47.612  34.486  29.965  1.00  0.00     0.059 A 
ATOM     79  C   UNL A   1      47.257  35.067  27.635  1.00  0.00     0.059 A 
ATOM     80  F   UNL A   1      46.406  33.462  26.153  1.00  0.00    -0.206 F 
ATOM     81  C   UNL A   1      47.651  35.416  28.925  1.00  0.00     0.060 A 
BRANCH  81  82
ATOM     82  S   UNL A   1      48.254  37.082  29.275  1.00  0.00     0.124 S 
ATOM     83  O   UNL A   1      47.053  37.880  29.060  1.00  0.00    -0.237 OA
ATOM     84  O   UNL A   1      48.702  36.961  30.659  1.00  0.00    -0.237 OA
ATOM     85  O   UNL A   1      49.319  37.267  28.294  1.00  0.00    -0.744 OA
ENDBRANCH  81  82
ENDBRANCH  49  74
BRANCH  61  86
ATOM     86  C   UNL A   1      49.751  26.943  26.152  1.00  0.00     0.058 A 
ATOM     87  C   UNL A   1      50.722  26.453  27.038  1.00  0.00     0.135 A 
ATOM     88  C   UNL A   1      50.107  27.082  24.800  1.00  0.00     0.135 A 
ATOM     89  F   UNL A   1      50.435  26.308  28.341  1.00  0.00    -0.206 F 
ATOM     90  C   UNL A   1      52.005  26.135  26.606  1.00  0.00     0.059 A 
ATOM     91  C   UNL A   1      51.375  26.739  24.340  1.00  0.00     0.059 A 
ATOM     92  F   UNL A   1      49.214  27.536  23.907  1.00  0.00    -0.206 F 
ATOM     93  C   UNL A   1      52.321  26.278  25.253  1.00  0.00     0.060 A 
BRANCH  93  94
ATOM     94  S   UNL A   1      53.979  25.828  24.701  1.00  0.00     0.124 S 
ATOM     95  O   UNL A   1      53.965  24.380  24.882  1.00  0.00    -0.237 OA
ATOM     96  O   UNL A   1      53.984  26.294  23.317  1.00  0.00    -0.237 OA
ATOM     97  O   UNL A   1      54.852  26.565  25.609  1.00  0.00    -0.744 OA
ENDBRANCH  93  94
ENDBRANCH  61  86
ENDBRANCH  35  36
ENDBRANCH  27  30
ENDBRANCH  25  26
ENDBRANCH  24  25
ENDBRANCH   1  24
TORSDOF 19
ENDMDL
