MODEL 1
REMARK VINA RESULT:     -10.9      0.000      0.000
REMARK SMILES Cc1cc(C)c2c(OCCCC(=O)NCCCNC(=O)c3ccc(-c4c5nc(c(-c6c(F)cc(S(=O)(=O)[O-])cc6F)c6ccc([nH]6)c(-c6c(F)cc(S(=O)(=O)[O-])cc6F)c6nc(c(-c7c(F)cc(S(=O)(=O)[O-])cc7F)c7ccc4[nH]7)C=C6)C=C5)cc3)nsc2n1
REMARK SMILES IDX 15 1 14 2 12 3 13 4 11 6 10 7 9 8 8 9 7 10 1 11 2 12 3 13
REMARK SMILES IDX 90 14 4 15 89 16 5 17 6 18 88 19 87 20 16 21 17 22 18 23
REMARK SMILES IDX 19 24 20 26 21 27 22 28 86 29 23 30 85 31 24 32 25 33 26 34
REMARK SMILES IDX 79 35 27 36 84 37 78 38 80 39 28 40 83 41 77 42 76 43 29 45
REMARK SMILES IDX 63 46 42 47 62 48 43 49 46 50 61 51 81 52 44 53 45 54 60 56
REMARK SMILES IDX 82 57 47 58 30 59 31 60 40 61 32 62 33 63 39 64 41 65 34 66
REMARK SMILES IDX 35 67 36 68 37 69 38 70 64 71 65 72 74 73 66 74 67 75 73 76
REMARK SMILES IDX 75 77 68 78 69 79 70 80 71 81 72 82 48 83 49 84 58 85 50 86
REMARK SMILES IDX 51 87 57 88 59 89 52 90 53 91 54 92 55 93 56 94
REMARK H PARENT 14 5 18 25 80 44 46 55
REMARK Flexibility Score: inf
ROOT
ATOM      1  C   UNL A   1      32.880  35.605  29.214  1.00  0.00     0.117 C 
ENDROOT
BRANCH   1   2
ATOM      2  N   UNL A   1      32.690  36.264  30.586  1.00  0.00    -0.356 N 
ATOM      3  C   UNL A   1      33.108  36.560  31.849  1.00  0.00     0.220 C 
ATOM      4  O   UNL A   1      32.208  37.189  32.446  1.00  0.00    -0.275 OA
ATOM      5  H   UNL A   1      31.810  36.698  30.520  1.00  0.00     0.163 HD
BRANCH   3   6
ATOM      6  C   UNL A   1      34.477  36.441  32.667  1.00  0.00     0.103 C 
BRANCH   6   7
ATOM      7  C   UNL A   1      35.381  35.189  33.057  1.00  0.00     0.051 C 
BRANCH   7   8
ATOM      8  C   UNL A   1      35.003  33.774  33.662  1.00  0.00     0.232 C 
BRANCH   8   9
ATOM      9  O   UNL A   1      35.614  33.209  34.836  1.00  0.00    -0.477 OA
BRANCH   9  10
ATOM     10  C   UNL A   1      36.954  33.261  35.069  1.00  0.00     0.235 A 
ATOM     11  C   UNL A   1      40.835  33.940  31.285  1.00  0.00     0.067 C 
ATOM     12  C   UNL A   1      40.029  33.419  32.442  1.00  0.00     0.039 A 
ATOM     13  C   UNL A   1      39.141  32.387  32.198  1.00  0.00     0.027 A 
ATOM     14  N   UNL A   1      40.143  34.028  33.648  1.00  0.00    -0.240 NA
ATOM     15  C   UNL A   1      38.186  32.058  33.168  1.00  0.00    -0.034 A 
ATOM     16  C   UNL A   1      39.113  33.756  34.480  1.00  0.00     0.147 A 
ATOM     17  C   UNL A   1      37.407  30.816  33.158  1.00  0.00     0.045 C 
ATOM     18  C   UNL A   1      38.032  32.933  34.217  1.00  0.00     0.078 A 
ATOM     19  S   UNL A   1      38.911  34.327  36.071  1.00  0.00    -0.012 S 
ATOM     20  N   UNL A   1      37.295  33.886  36.198  1.00  0.00    -0.153 NA
ENDBRANCH   9  10
ENDBRANCH   8   9
ENDBRANCH   7   8
ENDBRANCH   6   7
ENDBRANCH   3   6
ENDBRANCH   1   2
BRANCH   1  21
ATOM     21  C   UNL A   1      34.364  35.244  28.878  1.00  0.00     0.042 C 
BRANCH  21  22
ATOM     22  C   UNL A   1      34.901  33.854  29.199  1.00  0.00     0.118 C 
BRANCH  22  23
ATOM     23  N   UNL A   1      34.341  32.760  28.382  1.00  0.00    -0.352 N 
ATOM     24  C   UNL A   1      34.994  31.574  28.042  1.00  0.00     0.251 C 
ATOM     25  H   UNL A   1      33.424  32.877  28.045  1.00  0.00     0.163 HD
ATOM     26  O   UNL A   1      34.709  30.920  27.071  1.00  0.00    -0.269 OA
BRANCH  24  27
ATOM     27  C   UNL A   1      36.063  31.172  28.974  1.00  0.00     0.039 A 
ATOM     28  C   UNL A   1      35.988  29.946  29.631  1.00  0.00     0.014 A 
ATOM     29  C   UNL A   1      37.259  31.867  28.826  1.00  0.00     0.014 A 
ATOM     30  C   UNL A   1      37.179  29.342  30.022  1.00  0.00     0.010 A 
ATOM     31  C   UNL A   1      38.432  31.193  29.085  1.00  0.00     0.010 A 
ATOM     32  C   UNL A   1      38.413  29.931  29.683  1.00  0.00    -0.014 A 
BRANCH  32  33
ATOM     33  C   UNL A   1      39.653  29.158  29.838  1.00  0.00     0.031 A 
ATOM     34  C   UNL A   1      40.096  28.867  31.237  1.00  0.00     0.074 A 
ATOM     35  C   UNL A   1      40.349  28.594  28.827  1.00  0.00     0.049 A 
ATOM     36  N   UNL A   1      41.050  29.452  31.888  1.00  0.00    -0.248 NA
ATOM     37  C   UNL A   1      39.346  27.893  32.045  1.00  0.00     0.031 C 
ATOM     38  C   UNL A   1      40.008  28.498  27.402  1.00  0.00     0.029 A 
ATOM     39  N   UNL A   1      41.530  27.917  28.898  1.00  0.00    -0.354 N 
ATOM     40  C   UNL A   1      41.178  28.772  33.096  1.00  0.00     0.074 A 
ATOM     41  C   UNL A   1      40.008  27.938  33.205  1.00  0.00     0.031 C 
ATOM     42  C   UNL A   1      40.837  27.627  26.790  1.00  0.00     0.029 A 
ATOM     43  C   UNL A   1      41.890  27.279  27.722  1.00  0.00     0.049 A 
ATOM     44  H   UNL A   1      42.080  27.883  29.714  1.00  0.00     0.167 HD
ATOM     45  C   UNL A   1      42.346  28.789  33.802  1.00  0.00     0.037 A 
ATOM     46  C   UNL A   1      43.011  26.566  27.478  1.00  0.00     0.037 A 
ATOM     47  C   UNL A   1      43.233  29.821  33.326  1.00  0.00     0.049 A 
ATOM     48  C   UNL A   1      44.044  27.059  28.417  1.00  0.00     0.074 A 
ATOM     49  C   UNL A   1      43.166  31.194  33.200  1.00  0.00     0.029 A 
ATOM     50  N   UNL A   1      44.290  29.426  32.542  1.00  0.00    -0.354 N 
ATOM     51  N   UNL A   1      44.545  28.264  28.381  1.00  0.00    -0.248 NA
ATOM     52  C   UNL A   1      44.267  26.328  29.653  1.00  0.00     0.031 C 
ATOM     53  C   UNL A   1      43.865  31.490  31.992  1.00  0.00     0.029 A 
ATOM     54  C   UNL A   1      44.361  30.289  31.480  1.00  0.00     0.049 A 
ATOM     55  H   UNL A   1      44.888  28.662  32.713  1.00  0.00     0.167 HD
ATOM     56  C   UNL A   1      44.772  28.594  29.708  1.00  0.00     0.074 A 
ATOM     57  C   UNL A   1      44.709  27.324  30.424  1.00  0.00     0.031 C 
ATOM     58  C   UNL A   1      44.726  29.889  30.135  1.00  0.00     0.037 A 
BRANCH  45  59
ATOM     59  C   UNL A   1      42.857  27.653  34.665  1.00  0.00     0.058 A 
ATOM     60  C   UNL A   1      43.050  27.862  36.049  1.00  0.00     0.135 A 
ATOM     61  C   UNL A   1      43.445  26.482  34.141  1.00  0.00     0.135 A 
ATOM     62  F   UNL A   1      42.543  28.949  36.654  1.00  0.00    -0.206 F 
ATOM     63  C   UNL A   1      43.836  27.015  36.833  1.00  0.00     0.059 A 
ATOM     64  C   UNL A   1      44.187  25.596  34.916  1.00  0.00     0.059 A 
ATOM     65  F   UNL A   1      43.416  26.195  32.835  1.00  0.00    -0.206 F 
ATOM     66  C   UNL A   1      44.417  25.894  36.250  1.00  0.00     0.060 A 
BRANCH  66  67
ATOM     67  S   UNL A   1      45.535  24.869  37.222  1.00  0.00     0.124 S 
ATOM     68  O   UNL A   1      45.232  23.540  36.703  1.00  0.00    -0.237 OA
ATOM     69  O   UNL A   1      46.840  25.415  36.861  1.00  0.00    -0.237 OA
ATOM     70  O   UNL A   1      45.113  25.124  38.596  1.00  0.00    -0.744 OA
ENDBRANCH  66  67
ENDBRANCH  45  59
BRANCH  46  71
ATOM     71  C   UNL A   1      43.134  25.323  26.684  1.00  0.00     0.058 A 
ATOM     72  C   UNL A   1      43.993  25.260  25.576  1.00  0.00     0.135 A 
ATOM     73  C   UNL A   1      42.638  24.093  27.164  1.00  0.00     0.135 A 
ATOM     74  F   UNL A   1      44.510  26.385  25.058  1.00  0.00    -0.206 F 
ATOM     75  C   UNL A   1      44.404  24.045  25.024  1.00  0.00     0.059 A 
ATOM     76  C   UNL A   1      43.024  22.869  26.624  1.00  0.00     0.059 A 
ATOM     77  F   UNL A   1      41.834  24.041  28.238  1.00  0.00    -0.206 F 
ATOM     78  C   UNL A   1      43.936  22.853  25.576  1.00  0.00     0.060 A 
BRANCH  78  79
ATOM     79  S   UNL A   1      44.630  21.287  25.001  1.00  0.00     0.124 S 
ATOM     80  O   UNL A   1      45.985  21.342  25.540  1.00  0.00    -0.237 OA
ATOM     81  O   UNL A   1      43.736  20.312  25.618  1.00  0.00    -0.237 OA
ATOM     82  O   UNL A   1      44.533  21.387  23.547  1.00  0.00    -0.744 OA
ENDBRANCH  78  79
ENDBRANCH  46  71
BRANCH  58  83
ATOM     83  C   UNL A   1      44.829  30.991  29.113  1.00  0.00     0.058 A 
ATOM     84  C   UNL A   1      46.035  31.523  28.624  1.00  0.00     0.135 A 
ATOM     85  C   UNL A   1      43.644  31.409  28.485  1.00  0.00     0.135 A 
ATOM     86  F   UNL A   1      47.217  31.112  29.105  1.00  0.00    -0.206 F 
ATOM     87  C   UNL A   1      46.057  32.443  27.573  1.00  0.00     0.059 A 
ATOM     88  C   UNL A   1      43.645  32.302  27.418  1.00  0.00     0.059 A 
ATOM     89  F   UNL A   1      42.463  30.898  28.872  1.00  0.00    -0.206 F 
ATOM     90  C   UNL A   1      44.857  32.821  26.969  1.00  0.00     0.060 A 
BRANCH  90  91
ATOM     91  S   UNL A   1      44.897  33.928  25.543  1.00  0.00     0.124 S 
ATOM     92  O   UNL A   1      46.328  34.159  25.373  1.00  0.00    -0.237 OA
ATOM     93  O   UNL A   1      44.257  33.129  24.502  1.00  0.00    -0.237 OA
ATOM     94  O   UNL A   1      44.127  35.088  25.987  1.00  0.00    -0.744 OA
ENDBRANCH  90  91
ENDBRANCH  58  83
ENDBRANCH  32  33
ENDBRANCH  24  27
ENDBRANCH  22  23
ENDBRANCH  21  22
ENDBRANCH   1  21
TORSDOF 17
ENDMDL
MODEL 2
REMARK VINA RESULT:     -10.9      3.008     11.833
REMARK SMILES Cc1cc(C)c2c(OCCCC(=O)NCCCNC(=O)c3ccc(-c4c5nc(c(-c6c(F)cc(S(=O)(=O)[O-])cc6F)c6ccc([nH]6)c(-c6c(F)cc(S(=O)(=O)[O-])cc6F)c6nc(c(-c7c(F)cc(S(=O)(=O)[O-])cc7F)c7ccc4[nH]7)C=C6)C=C5)cc3)nsc2n1
REMARK SMILES IDX 15 1 14 2 12 3 13 4 11 6 10 7 9 8 8 9 7 10 1 11 2 12 3 13
REMARK SMILES IDX 90 14 4 15 89 16 5 17 6 18 88 19 87 20 16 21 17 22 18 23
REMARK SMILES IDX 19 24 20 26 21 27 22 28 86 29 23 30 85 31 24 32 25 33 26 34
REMARK SMILES IDX 79 35 27 36 84 37 78 38 80 39 28 40 83 41 77 42 76 43 29 45
REMARK SMILES IDX 63 46 42 47 62 48 43 49 46 50 61 51 81 52 44 53 45 54 60 56
REMARK SMILES IDX 82 57 47 58 30 59 31 60 40 61 32 62 33 63 39 64 41 65 34 66
REMARK SMILES IDX 35 67 36 68 37 69 38 70 64 71 65 72 74 73 66 74 67 75 73 76
REMARK SMILES IDX 75 77 68 78 69 79 70 80 71 81 72 82 48 83 49 84 58 85 50 86
REMARK SMILES IDX 51 87 57 88 59 89 52 90 53 91 54 92 55 93 56 94
REMARK H PARENT 14 5 18 25 80 44 46 55
REMARK Flexibility Score: inf
ROOT
ATOM      1  C   UNL A   1      42.270  19.496  27.153  1.00  0.00     0.117 C 
ENDROOT
BRANCH   1   2
ATOM      2  N   UNL A   1      43.259  19.080  26.058  1.00  0.00    -0.356 N 
ATOM      3  C   UNL A   1      44.380  19.276  25.308  1.00  0.00     0.220 C 
ATOM      4  O   UNL A   1      44.473  18.366  24.456  1.00  0.00    -0.275 OA
ATOM      5  H   UNL A   1      42.894  18.231  25.720  1.00  0.00     0.163 HD
BRANCH   3   6
ATOM      6  C   UNL A   1      45.641  20.259  25.357  1.00  0.00     0.103 C 
BRANCH   6   7
ATOM      7  C   UNL A   1      45.771  21.836  25.176  1.00  0.00     0.051 C 
BRANCH   7   8
ATOM      8  C   UNL A   1      46.106  22.984  26.215  1.00  0.00     0.232 C 
BRANCH   8   9
ATOM      9  O   UNL A   1      47.097  24.005  25.996  1.00  0.00    -0.477 OA
BRANCH   9  10
ATOM     10  C   UNL A   1      47.592  24.780  26.999  1.00  0.00     0.235 A 
ATOM     11  C   UNL A   1      45.203  25.674  31.829  1.00  0.00     0.067 C 
ATOM     12  C   UNL A   1      45.890  25.868  30.506  1.00  0.00     0.039 A 
ATOM     13  C   UNL A   1      45.100  26.126  29.400  1.00  0.00     0.027 A 
ATOM     14  N   UNL A   1      47.233  25.702  30.434  1.00  0.00    -0.240 NA
ATOM     15  C   UNL A   1      45.661  26.042  28.120  1.00  0.00    -0.034 A 
ATOM     16  C   UNL A   1      47.677  25.501  29.172  1.00  0.00     0.147 A 
ATOM     17  C   UNL A   1      45.024  26.578  26.913  1.00  0.00     0.045 C 
ATOM     18  C   UNL A   1      46.912  25.479  28.020  1.00  0.00     0.078 A 
ATOM     19  S   UNL A   1      49.291  25.266  28.687  1.00  0.00    -0.012 S 
ATOM     20  N   UNL A   1      48.918  24.715  27.144  1.00  0.00    -0.153 NA
ENDBRANCH   9  10
ENDBRANCH   8   9
ENDBRANCH   7   8
ENDBRANCH   6   7
ENDBRANCH   3   6
ENDBRANCH   1   2
BRANCH   1  21
ATOM     21  C   UNL A   1      40.930  20.092  26.612  1.00  0.00     0.042 C 
BRANCH  21  22
ATOM     22  C   UNL A   1      40.851  21.566  26.231  1.00  0.00     0.118 C 
BRANCH  22  23
ATOM     23  N   UNL A   1      42.085  22.133  25.653  1.00  0.00    -0.352 N 
ATOM     24  C   UNL A   1      42.399  23.490  25.561  1.00  0.00     0.251 C 
ATOM     25  H   UNL A   1      42.747  21.496  25.300  1.00  0.00     0.163 HD
ATOM     26  O   UNL A   1      43.164  23.935  24.744  1.00  0.00    -0.269 OA
BRANCH  24  27
ATOM     27  C   UNL A   1      41.726  24.345  26.555  1.00  0.00     0.039 A 
ATOM     28  C   UNL A   1      42.226  24.430  27.853  1.00  0.00     0.014 A 
ATOM     29  C   UNL A   1      40.876  25.308  26.019  1.00  0.00     0.014 A 
ATOM     30  C   UNL A   1      41.975  25.594  28.573  1.00  0.00     0.010 A 
ATOM     31  C   UNL A   1      40.761  26.508  26.685  1.00  0.00     0.010 A 
ATOM     32  C   UNL A   1      41.302  26.671  27.962  1.00  0.00    -0.014 A 
BRANCH  32  33
ATOM     33  C   UNL A   1      41.294  27.986  28.616  1.00  0.00     0.031 A 
ATOM     34  C   UNL A   1      42.358  28.952  28.203  1.00  0.00     0.074 A 
ATOM     35  C   UNL A   1      40.337  28.427  29.462  1.00  0.00     0.049 A 
ATOM     36  N   UNL A   1      43.426  29.262  28.866  1.00  0.00    -0.248 NA
ATOM     37  C   UNL A   1      42.293  29.574  26.872  1.00  0.00     0.031 C 
ATOM     38  C   UNL A   1      39.062  27.800  29.834  1.00  0.00     0.029 A 
ATOM     39  N   UNL A   1      40.299  29.607  30.143  1.00  0.00    -0.354 N 
ATOM     40  C   UNL A   1      44.050  30.283  28.154  1.00  0.00     0.074 A 
ATOM     41  C   UNL A   1      43.403  30.318  26.867  1.00  0.00     0.031 C 
ATOM     42  C   UNL A   1      38.288  28.690  30.489  1.00  0.00     0.029 A 
ATOM     43  C   UNL A   1      39.091  29.862  30.771  1.00  0.00     0.049 A 
ATOM     44  H   UNL A   1      41.063  30.227  30.184  1.00  0.00     0.167 HD
ATOM     45  C   UNL A   1      44.899  31.161  28.764  1.00  0.00     0.037 A 
ATOM     46  C   UNL A   1      38.766  30.924  31.541  1.00  0.00     0.037 A 
ATOM     47  C   UNL A   1      45.295  30.689  30.067  1.00  0.00     0.049 A 
ATOM     48  C   UNL A   1      40.034  31.451  32.097  1.00  0.00     0.074 A 
ATOM     49  C   UNL A   1      45.934  29.566  30.554  1.00  0.00     0.029 A 
ATOM     50  N   UNL A   1      44.699  31.279  31.155  1.00  0.00    -0.354 N 
ATOM     51  N   UNL A   1      40.786  30.797  32.940  1.00  0.00    -0.248 NA
ATOM     52  C   UNL A   1      40.674  32.572  31.430  1.00  0.00     0.031 C 
ATOM     53  C   UNL A   1      45.293  29.286  31.799  1.00  0.00     0.029 A 
ATOM     54  C   UNL A   1      44.339  30.281  32.021  1.00  0.00     0.049 A 
ATOM     55  H   UNL A   1      44.556  32.245  31.287  1.00  0.00     0.167 HD
ATOM     56  C   UNL A   1      42.083  31.149  32.605  1.00  0.00     0.074 A 
ATOM     57  C   UNL A   1      41.943  32.335  31.767  1.00  0.00     0.031 C 
ATOM     58  C   UNL A   1      43.128  30.297  32.818  1.00  0.00     0.037 A 
BRANCH  45  59
ATOM     59  C   UNL A   1      45.086  32.610  28.365  1.00  0.00     0.058 A 
ATOM     60  C   UNL A   1      46.387  33.103  28.118  1.00  0.00     0.135 A 
ATOM     61  C   UNL A   1      44.084  33.593  28.513  1.00  0.00     0.135 A 
ATOM     62  F   UNL A   1      47.421  32.259  27.970  1.00  0.00    -0.206 F 
ATOM     63  C   UNL A   1      46.682  34.468  28.102  1.00  0.00     0.059 A 
ATOM     64  C   UNL A   1      44.346  34.957  28.447  1.00  0.00     0.059 A 
ATOM     65  F   UNL A   1      42.823  33.279  28.831  1.00  0.00    -0.206 F 
ATOM     66  C   UNL A   1      45.654  35.387  28.288  1.00  0.00     0.060 A 
BRANCH  66  67
ATOM     67  S   UNL A   1      46.045  37.143  28.397  1.00  0.00     0.124 S 
ATOM     68  O   UNL A   1      46.718  37.207  29.690  1.00  0.00    -0.237 OA
ATOM     69  O   UNL A   1      46.891  37.340  27.224  1.00  0.00    -0.237 OA
ATOM     70  O   UNL A   1      44.734  37.781  28.332  1.00  0.00    -0.744 OA
ENDBRANCH  66  67
ENDBRANCH  45  59
BRANCH  46  71
ATOM     71  C   UNL A   1      37.475  31.646  31.583  1.00  0.00     0.058 A 
ATOM     72  C   UNL A   1      36.778  31.801  32.791  1.00  0.00     0.135 A 
ATOM     73  C   UNL A   1      37.045  32.445  30.503  1.00  0.00     0.135 A 
ATOM     74  F   UNL A   1      37.125  31.079  33.868  1.00  0.00    -0.206 F 
ATOM     75  C   UNL A   1      35.766  32.750  32.947  1.00  0.00     0.059 A 
ATOM     76  C   UNL A   1      36.031  33.391  30.630  1.00  0.00     0.059 A 
ATOM     77  F   UNL A   1      37.665  32.395  29.313  1.00  0.00    -0.206 F 
ATOM     78  C   UNL A   1      35.421  33.562  31.866  1.00  0.00     0.060 A 
BRANCH  78  79
ATOM     79  S   UNL A   1      34.266  34.927  32.127  1.00  0.00     0.124 S 
ATOM     80  O   UNL A   1      35.073  35.860  32.906  1.00  0.00    -0.237 OA
ATOM     81  O   UNL A   1      33.960  35.333  30.760  1.00  0.00    -0.237 OA
ATOM     82  O   UNL A   1      33.161  34.302  32.852  1.00  0.00    -0.744 OA
ENDBRANCH  78  79
ENDBRANCH  46  71
BRANCH  58  83
ATOM     83  C   UNL A   1      42.940  29.149  33.775  1.00  0.00     0.058 A 
ATOM     84  C   UNL A   1      43.065  29.240  35.172  1.00  0.00     0.135 A 
ATOM     85  C   UNL A   1      42.449  27.941  33.254  1.00  0.00     0.135 A 
ATOM     86  F   UNL A   1      43.441  30.385  35.760  1.00  0.00    -0.206 F 
ATOM     87  C   UNL A   1      42.738  28.169  36.009  1.00  0.00     0.059 A 
ATOM     88  C   UNL A   1      42.088  26.873  34.069  1.00  0.00     0.059 A 
ATOM     89  F   UNL A   1      42.257  27.809  31.930  1.00  0.00    -0.206 F 
ATOM     90  C   UNL A   1      42.241  26.991  35.449  1.00  0.00     0.060 A 
BRANCH  90  91
ATOM     91  S   UNL A   1      41.718  25.649  36.538  1.00  0.00     0.124 S 
ATOM     92  O   UNL A   1      40.465  25.224  35.924  1.00  0.00    -0.237 OA
ATOM     93  O   UNL A   1      42.828  24.705  36.433  1.00  0.00    -0.237 OA
ATOM     94  O   UNL A   1      41.585  26.297  37.841  1.00  0.00    -0.744 OA
ENDBRANCH  90  91
ENDBRANCH  58  83
ENDBRANCH  32  33
ENDBRANCH  24  27
ENDBRANCH  22  23
ENDBRANCH  21  22
ENDBRANCH   1  21
TORSDOF 17
ENDMDL
MODEL 3
REMARK VINA RESULT:     -10.7      4.192     11.271
REMARK SMILES Cc1cc(C)c2c(OCCCC(=O)NCCCNC(=O)c3ccc(-c4c5nc(c(-c6c(F)cc(S(=O)(=O)[O-])cc6F)c6ccc([nH]6)c(-c6c(F)cc(S(=O)(=O)[O-])cc6F)c6nc(c(-c7c(F)cc(S(=O)(=O)[O-])cc7F)c7ccc4[nH]7)C=C6)C=C5)cc3)nsc2n1
REMARK SMILES IDX 15 1 14 2 12 3 13 4 11 6 10 7 9 8 8 9 7 10 1 11 2 12 3 13
REMARK SMILES IDX 90 14 4 15 89 16 5 17 6 18 88 19 87 20 16 21 17 22 18 23
REMARK SMILES IDX 19 24 20 26 21 27 22 28 86 29 23 30 85 31 24 32 25 33 26 34
REMARK SMILES IDX 79 35 27 36 84 37 78 38 80 39 28 40 83 41 77 42 76 43 29 45
REMARK SMILES IDX 63 46 42 47 62 48 43 49 46 50 61 51 81 52 44 53 45 54 60 56
REMARK SMILES IDX 82 57 47 58 30 59 31 60 40 61 32 62 33 63 39 64 41 65 34 66
REMARK SMILES IDX 35 67 36 68 37 69 38 70 64 71 65 72 74 73 66 74 67 75 73 76
REMARK SMILES IDX 75 77 68 78 69 79 70 80 71 81 72 82 48 83 49 84 58 85 50 86
REMARK SMILES IDX 51 87 57 88 59 89 52 90 53 91 54 92 55 93 56 94
REMARK H PARENT 14 5 18 25 80 44 46 55
REMARK Flexibility Score: inf
ROOT
ATOM      1  C   UNL A   1      38.069  22.483  25.777  1.00  0.00     0.117 C 
ENDROOT
BRANCH   1   2
ATOM      2  N   UNL A   1      37.336  22.744  24.456  1.00  0.00    -0.356 N 
ATOM      3  C   UNL A   1      36.267  23.193  23.739  1.00  0.00     0.220 C 
ATOM      4  O   UNL A   1      36.455  22.960  22.525  1.00  0.00    -0.275 OA
ATOM      5  H   UNL A   1      37.961  22.419  23.770  1.00  0.00     0.163 HD
BRANCH   3   6
ATOM      6  C   UNL A   1      34.955  24.055  24.044  1.00  0.00     0.103 C 
BRANCH   6   7
ATOM      7  C   UNL A   1      34.429  24.762  25.371  1.00  0.00     0.051 C 
BRANCH   7   8
ATOM      8  C   UNL A   1      33.050  24.646  26.143  1.00  0.00     0.232 C 
BRANCH   8   9
ATOM      9  O   UNL A   1      31.919  25.505  25.907  1.00  0.00    -0.477 OA
BRANCH   9  10
ATOM     10  C   UNL A   1      32.046  26.813  25.554  1.00  0.00     0.235 A 
ATOM     11  C   UNL A   1      28.644  29.594  22.309  1.00  0.00     0.067 C 
ATOM     12  C   UNL A   1      29.879  29.002  22.929  1.00  0.00     0.039 A 
ATOM     13  C   UNL A   1      30.364  27.819  22.401  1.00  0.00     0.027 A 
ATOM     14  N   UNL A   1      30.415  29.600  24.020  1.00  0.00    -0.240 NA
ATOM     15  C   UNL A   1      31.333  27.098  23.106  1.00  0.00    -0.034 A 
ATOM     16  C   UNL A   1      31.245  28.789  24.717  1.00  0.00     0.147 A 
ATOM     17  C   UNL A   1      32.131  26.014  22.522  1.00  0.00     0.045 C 
ATOM     18  C   UNL A   1      31.584  27.486  24.402  1.00  0.00     0.078 A 
ATOM     19  S   UNL A   1      32.106  29.187  26.130  1.00  0.00    -0.012 S 
ATOM     20  N   UNL A   1      32.509  27.604  26.524  1.00  0.00    -0.153 NA
ENDBRANCH   9  10
ENDBRANCH   8   9
ENDBRANCH   7   8
ENDBRANCH   6   7
ENDBRANCH   3   6
ENDBRANCH   1   2
BRANCH   1  21
ATOM     21  C   UNL A   1      39.206  21.414  25.675  1.00  0.00     0.042 C 
BRANCH  21  22
ATOM     22  C   UNL A   1      40.353  21.424  26.680  1.00  0.00     0.118 C 
BRANCH  22  23
ATOM     23  N   UNL A   1      41.648  21.893  26.151  1.00  0.00    -0.352 N 
ATOM     24  C   UNL A   1      42.058  23.223  26.045  1.00  0.00     0.251 C 
ATOM     25  H   UNL A   1      42.281  21.204  25.844  1.00  0.00     0.163 HD
ATOM     26  O   UNL A   1      42.889  23.595  25.256  1.00  0.00    -0.269 OA
BRANCH  24  27
ATOM     27  C   UNL A   1      41.398  24.146  26.987  1.00  0.00     0.039 A 
ATOM     28  C   UNL A   1      41.924  24.329  28.264  1.00  0.00     0.014 A 
ATOM     29  C   UNL A   1      40.532  25.061  26.398  1.00  0.00     0.014 A 
ATOM     30  C   UNL A   1      41.680  25.542  28.901  1.00  0.00     0.010 A 
ATOM     31  C   UNL A   1      40.421  26.306  26.976  1.00  0.00     0.010 A 
ATOM     32  C   UNL A   1      40.987  26.567  28.226  1.00  0.00    -0.014 A 
BRANCH  32  33
ATOM     33  C   UNL A   1      40.982  27.927  28.781  1.00  0.00     0.031 A 
ATOM     34  C   UNL A   1      42.113  28.822  28.384  1.00  0.00     0.074 A 
ATOM     35  C   UNL A   1      39.983  28.462  29.516  1.00  0.00     0.049 A 
ATOM     36  N   UNL A   1      43.139  29.144  29.103  1.00  0.00    -0.248 NA
ATOM     37  C   UNL A   1      42.172  29.345  27.010  1.00  0.00     0.031 C 
ATOM     38  C   UNL A   1      38.660  27.910  29.833  1.00  0.00     0.029 A 
ATOM     39  N   UNL A   1      39.942  29.691  30.105  1.00  0.00    -0.354 N 
ATOM     40  C   UNL A   1      43.855  30.087  28.370  1.00  0.00     0.074 A 
ATOM     41  C   UNL A   1      43.308  30.048  27.037  1.00  0.00     0.031 C 
ATOM     42  C   UNL A   1      37.875  28.872  30.360  1.00  0.00     0.029 A 
ATOM     43  C   UNL A   1      38.701  30.034  30.617  1.00  0.00     0.049 A 
ATOM     44  H   UNL A   1      40.725  30.285  30.161  1.00  0.00     0.167 HD
ATOM     45  C   UNL A   1      44.691  30.977  28.979  1.00  0.00     0.037 A 
ATOM     46  C   UNL A   1      38.363  31.161  31.281  1.00  0.00     0.037 A 
ATOM     47  C   UNL A   1      44.969  30.591  30.340  1.00  0.00     0.049 A 
ATOM     48  C   UNL A   1      39.605  31.684  31.895  1.00  0.00     0.074 A 
ATOM     49  C   UNL A   1      45.524  29.487  30.955  1.00  0.00     0.029 A 
ATOM     50  N   UNL A   1      44.317  31.282  31.333  1.00  0.00    -0.354 N 
ATOM     51  N   UNL A   1      40.265  31.069  32.838  1.00  0.00    -0.248 NA
ATOM     52  C   UNL A   1      40.338  32.729  31.201  1.00  0.00     0.031 C 
ATOM     53  C   UNL A   1      44.781  29.322  32.163  1.00  0.00     0.029 A 
ATOM     54  C   UNL A   1      43.853  30.364  32.238  1.00  0.00     0.049 A 
ATOM     55  H   UNL A   1      44.203  32.259  31.384  1.00  0.00     0.167 HD
ATOM     56  C   UNL A   1      41.597  31.351  32.581  1.00  0.00     0.074 A 
ATOM     57  C   UNL A   1      41.568  32.475  31.651  1.00  0.00     0.031 C 
ATOM     58  C   UNL A   1      42.588  30.481  32.935  1.00  0.00     0.037 A 
BRANCH  45  59
ATOM     59  C   UNL A   1      44.965  32.386  28.493  1.00  0.00     0.058 A 
ATOM     60  C   UNL A   1      46.297  32.796  28.262  1.00  0.00     0.135 A 
ATOM     61  C   UNL A   1      44.010  33.424  28.538  1.00  0.00     0.135 A 
ATOM     62  F   UNL A   1      47.291  31.895  28.209  1.00  0.00    -0.206 F 
ATOM     63  C   UNL A   1      46.662  34.141  28.167  1.00  0.00     0.059 A 
ATOM     64  C   UNL A   1      44.344  34.766  28.392  1.00  0.00     0.059 A 
ATOM     65  F   UNL A   1      42.724  33.194  28.829  1.00  0.00    -0.206 F 
ATOM     66  C   UNL A   1      45.677  35.120  28.253  1.00  0.00     0.060 A 
BRANCH  66  67
ATOM     67  S   UNL A   1      46.154  36.858  28.261  1.00  0.00     0.124 S 
ATOM     68  O   UNL A   1      45.760  37.270  26.918  1.00  0.00    -0.237 OA
ATOM     69  O   UNL A   1      45.348  37.389  29.356  1.00  0.00    -0.237 OA
ATOM     70  O   UNL A   1      47.590  36.809  28.514  1.00  0.00    -0.744 OA
ENDBRANCH  66  67
ENDBRANCH  45  59
BRANCH  46  71
ATOM     71  C   UNL A   1      37.102  31.928  31.171  1.00  0.00     0.058 A 
ATOM     72  C   UNL A   1      36.117  31.839  32.167  1.00  0.00     0.135 A 
ATOM     73  C   UNL A   1      36.962  32.980  30.242  1.00  0.00     0.135 A 
ATOM     74  F   UNL A   1      36.178  30.867  33.092  1.00  0.00    -0.206 F 
ATOM     75  C   UNL A   1      35.096  32.784  32.288  1.00  0.00     0.059 A 
ATOM     76  C   UNL A   1      35.946  33.929  30.334  1.00  0.00     0.059 A 
ATOM     77  F   UNL A   1      37.867  33.172  29.269  1.00  0.00    -0.206 F 
ATOM     78  C   UNL A   1      35.039  33.844  31.382  1.00  0.00     0.060 A 
BRANCH  78  79
ATOM     79  S   UNL A   1      33.851  35.176  31.665  1.00  0.00     0.124 S 
ATOM     80  O   UNL A   1      34.678  36.182  32.321  1.00  0.00    -0.237 OA
ATOM     81  O   UNL A   1      33.417  35.491  30.308  1.00  0.00    -0.237 OA
ATOM     82  O   UNL A   1      32.837  34.552  32.512  1.00  0.00    -0.744 OA
ENDBRANCH  78  79
ENDBRANCH  46  71
BRANCH  58  83
ATOM     83  C   UNL A   1      42.283  29.415  33.955  1.00  0.00     0.058 A 
ATOM     84  C   UNL A   1      41.764  28.144  33.657  1.00  0.00     0.135 A 
ATOM     85  C   UNL A   1      42.693  29.645  35.279  1.00  0.00     0.135 A 
ATOM     86  F   UNL A   1      41.431  27.810  32.402  1.00  0.00    -0.206 F 
ATOM     87  C   UNL A   1      41.639  27.155  34.637  1.00  0.00     0.059 A 
ATOM     88  C   UNL A   1      42.606  28.666  36.263  1.00  0.00     0.059 A 
ATOM     89  F   UNL A   1      43.246  30.823  35.616  1.00  0.00    -0.206 F 
ATOM     90  C   UNL A   1      42.071  27.422  35.937  1.00  0.00     0.060 A 
BRANCH  90  91
ATOM     91  S   UNL A   1      42.008  26.108  37.175  1.00  0.00     0.124 S 
ATOM     92  O   UNL A   1      43.002  26.552  38.146  1.00  0.00    -0.237 OA
ATOM     93  O   UNL A   1      40.618  26.160  37.621  1.00  0.00    -0.237 OA
ATOM     94  O   UNL A   1      42.366  24.909  36.420  1.00  0.00    -0.744 OA
ENDBRANCH  90  91
ENDBRANCH  58  83
ENDBRANCH  32  33
ENDBRANCH  24  27
ENDBRANCH  22  23
ENDBRANCH  21  22
ENDBRANCH   1  21
TORSDOF 17
ENDMDL
