MODEL 1
REMARK VINA RESULT:     -11.8      0.000      0.000
REMARK SMILES C[C@@H](C(=O)NCCCNC(=O)c1ccc(-c2c3nc(c(-c4c(F)cc(S(=O)(=O)[O-])cc4F)c4ccc([nH]4)c(-c4c(F)cc(S(=O)(=O)[O-])cc4F)c4nc(c(-c5c(F)cc(S(=O)(=O)[O-])cc5F)c5ccc2[nH]5)C=C4)C=C3)cc1)c1ccc(=O)n(C(F)F)c1
REMARK SMILES IDX 7 1 6 2 5 3 3 4 4 5 2 7 1 8 78 9 79 10 87 11 80 12 83 13
REMARK SMILES IDX 81 14 82 15 84 16 85 17 86 18 8 19 9 20 10 21 11 23 12 24
REMARK SMILES IDX 13 25 77 26 14 27 76 28 15 29 16 30 17 31 70 32 18 33 75 34
REMARK SMILES IDX 69 35 71 36 19 37 74 38 68 39 67 40 20 42 54 43 33 44 53 45
REMARK SMILES IDX 34 46 37 47 52 48 72 49 35 50 36 51 51 53 73 54 38 55 21 56
REMARK SMILES IDX 22 57 31 58 23 59 24 60 30 61 32 62 25 63 26 64 27 65 28 66
REMARK SMILES IDX 29 67 55 68 56 69 65 70 57 71 58 72 64 73 66 74 59 75 60 76
REMARK SMILES IDX 61 77 62 78 63 79 39 80 40 81 49 82 41 83 42 84 48 85 50 86
REMARK SMILES IDX 43 87 44 88 45 89 46 90 47 91
REMARK H PARENT 5 6 9 22 71 41 37 52
REMARK Flexibility Score: inf
ROOT
ATOM      1  C   UNL A   1      37.835  23.786  26.100  1.00  0.00     0.042 C 
ENDROOT
BRANCH   1   2
ATOM      2  C   UNL A   1      37.097  22.555  25.578  1.00  0.00     0.117 C 
BRANCH   2   3
ATOM      3  N   UNL A   1      36.145  22.042  26.544  1.00  0.00    -0.356 N 
ATOM      4  C   UNL A   1      34.790  21.900  26.474  1.00  0.00     0.227 C 
ATOM      5  O   UNL A   1      34.237  21.440  27.474  1.00  0.00    -0.274 OA
ATOM      6  H   UNL A   1      36.543  21.746  27.395  1.00  0.00     0.163 HD
BRANCH   4   7
ATOM      7  C   UNL A   1      34.032  22.276  25.181  1.00  0.00     0.107 C 
ATOM      8  C   UNL A   1      32.863  23.229  25.440  1.00  0.00     0.023 C 
BRANCH   7   9
ATOM      9  C   UNL A   1      33.544  21.051  24.416  1.00  0.00    -0.019 A 
ATOM     10  C   UNL A   1      32.587  21.216  23.335  1.00  0.00     0.012 A 
ATOM     11  C   UNL A   1      33.980  19.808  24.690  1.00  0.00     0.099 A 
ATOM     12  C   UNL A   1      32.118  20.166  22.652  1.00  0.00     0.072 A 
ATOM     13  N   UNL A   1      33.537  18.704  23.977  1.00  0.00    -0.258 N 
ATOM     14  C   UNL A   1      32.593  18.794  22.968  1.00  0.00     0.254 A 
ATOM     15  O   UNL A   1      32.138  17.850  22.325  1.00  0.00    -0.269 OA
BRANCH  13  16
ATOM     16  C   UNL A   1      34.032  17.390  24.287  1.00  0.00     0.451 C 
ATOM     17  F   UNL A   1      33.028  16.570  24.682  1.00  0.00    -0.185 F 
ATOM     18  F   UNL A   1      34.637  16.824  23.214  1.00  0.00    -0.185 F 
ENDBRANCH  13  16
ENDBRANCH   7   9
ENDBRANCH   4   7
ENDBRANCH   2   3
ENDBRANCH   1   2
BRANCH   1  19
ATOM     19  C   UNL A   1      39.195  23.495  26.735  1.00  0.00     0.118 C 
BRANCH  19  20
ATOM     20  N   UNL A   1      40.300  24.058  25.978  1.00  0.00    -0.352 N 
ATOM     21  C   UNL A   1      41.006  25.221  26.152  1.00  0.00     0.251 C 
ATOM     22  H   UNL A   1      40.593  23.511  25.213  1.00  0.00     0.163 HD
ATOM     23  O   UNL A   1      41.775  25.578  25.262  1.00  0.00    -0.269 OA
BRANCH  21  24
ATOM     24  C   UNL A   1      40.847  26.056  27.367  1.00  0.00     0.039 A 
ATOM     25  C   UNL A   1      41.756  27.096  27.576  1.00  0.00     0.014 A 
ATOM     26  C   UNL A   1      39.863  25.797  28.327  1.00  0.00     0.014 A 
ATOM     27  C   UNL A   1      41.648  27.903  28.711  1.00  0.00     0.010 A 
ATOM     28  C   UNL A   1      39.706  26.654  29.420  1.00  0.00     0.010 A 
ATOM     29  C   UNL A   1      40.599  27.713  29.627  1.00  0.00    -0.014 A 
BRANCH  29  30
ATOM     30  C   UNL A   1      40.431  28.644  30.777  1.00  0.00     0.031 A 
ATOM     31  C   UNL A   1      41.279  28.514  32.015  1.00  0.00     0.074 A 
ATOM     32  C   UNL A   1      39.492  29.609  30.705  1.00  0.00     0.049 A 
ATOM     33  N   UNL A   1      41.293  29.266  33.086  1.00  0.00    -0.248 NA
ATOM     34  C   UNL A   1      42.219  27.383  32.068  1.00  0.00     0.031 C 
ATOM     35  C   UNL A   1      38.565  29.799  29.587  1.00  0.00     0.029 A 
ATOM     36  N   UNL A   1      39.163  30.613  31.581  1.00  0.00    -0.354 N 
ATOM     37  C   UNL A   1      42.239  28.705  33.938  1.00  0.00     0.074 A 
ATOM     38  C   UNL A   1      42.733  27.512  33.283  1.00  0.00     0.031 C 
ATOM     39  C   UNL A   1      37.803  30.878  29.825  1.00  0.00     0.029 A 
ATOM     40  C   UNL A   1      38.158  31.434  31.126  1.00  0.00     0.049 A 
ATOM     41  H   UNL A   1      39.606  30.735  32.452  1.00  0.00     0.167 HD
ATOM     42  C   UNL A   1      42.673  29.154  35.141  1.00  0.00     0.037 A 
ATOM     43  C   UNL A   1      37.585  32.515  31.690  1.00  0.00     0.037 A 
ATOM     44  C   UNL A   1      42.179  30.347  35.784  1.00  0.00     0.049 A 
ATOM     45  C   UNL A   1      38.085  32.995  33.024  1.00  0.00     0.074 A 
ATOM     46  C   UNL A   1      42.591  30.914  36.978  1.00  0.00     0.029 A 
ATOM     47  N   UNL A   1      41.159  31.151  35.294  1.00  0.00    -0.354 N 
ATOM     48  N   UNL A   1      39.035  32.494  33.779  1.00  0.00    -0.248 NA
ATOM     49  C   UNL A   1      37.444  34.194  33.580  1.00  0.00     0.031 C 
ATOM     50  C   UNL A   1      41.785  32.029  37.236  1.00  0.00     0.029 A 
ATOM     51  C   UNL A   1      40.911  32.193  36.174  1.00  0.00     0.049 A 
ATOM     52  H   UNL A   1      40.684  31.004  34.445  1.00  0.00     0.167 HD
ATOM     53  C   UNL A   1      39.118  33.327  34.889  1.00  0.00     0.074 A 
ATOM     54  C   UNL A   1      38.141  34.379  34.692  1.00  0.00     0.031 C 
ATOM     55  C   UNL A   1      39.926  33.228  35.975  1.00  0.00     0.037 A 
BRANCH  42  56
ATOM     56  C   UNL A   1      43.741  28.356  35.843  1.00  0.00     0.058 A 
ATOM     57  C   UNL A   1      45.095  28.725  35.785  1.00  0.00     0.135 A 
ATOM     58  C   UNL A   1      43.405  27.236  36.621  1.00  0.00     0.135 A 
ATOM     59  F   UNL A   1      45.479  29.780  35.048  1.00  0.00    -0.206 F 
ATOM     60  C   UNL A   1      46.079  27.998  36.448  1.00  0.00     0.059 A 
ATOM     61  C   UNL A   1      44.369  26.510  37.317  1.00  0.00     0.059 A 
ATOM     62  F   UNL A   1      42.126  26.836  36.714  1.00  0.00    -0.206 F 
ATOM     63  C   UNL A   1      45.706  26.892  37.213  1.00  0.00     0.060 A 
BRANCH  63  64
ATOM     64  S   UNL A   1      46.995  25.964  38.072  1.00  0.00     0.124 S 
ATOM     65  O   UNL A   1      48.148  26.842  37.900  1.00  0.00    -0.237 OA
ATOM     66  O   UNL A   1      46.464  25.875  39.427  1.00  0.00    -0.237 OA
ATOM     67  O   UNL A   1      47.053  24.702  37.339  1.00  0.00    -0.744 OA
ENDBRANCH  63  64
ENDBRANCH  42  56
BRANCH  43  68
ATOM     68  C   UNL A   1      36.489  33.230  30.980  1.00  0.00     0.058 A 
ATOM     69  C   UNL A   1      35.151  33.084  31.375  1.00  0.00     0.135 A 
ATOM     70  C   UNL A   1      36.762  34.086  29.901  1.00  0.00     0.135 A 
ATOM     71  F   UNL A   1      34.837  32.274  32.396  1.00  0.00    -0.206 F 
ATOM     72  C   UNL A   1      34.120  33.747  30.716  1.00  0.00     0.059 A 
ATOM     73  C   UNL A   1      35.752  34.784  29.247  1.00  0.00     0.059 A 
ATOM     74  F   UNL A   1      38.028  34.276  29.496  1.00  0.00    -0.206 F 
ATOM     75  C   UNL A   1      34.433  34.599  29.655  1.00  0.00     0.060 A 
BRANCH  75  76
ATOM     76  S   UNL A   1      33.093  35.496  28.841  1.00  0.00     0.124 S 
ATOM     77  O   UNL A   1      32.411  34.423  28.128  1.00  0.00    -0.237 OA
ATOM     78  O   UNL A   1      32.375  36.069  29.976  1.00  0.00    -0.237 OA
ATOM     79  O   UNL A   1      33.799  36.462  28.004  1.00  0.00    -0.744 OA
ENDBRANCH  75  76
ENDBRANCH  43  68
BRANCH  55  80
ATOM     80  C   UNL A   1      39.793  34.299  37.025  1.00  0.00     0.058 A 
ATOM     81  C   UNL A   1      40.390  35.561  36.874  1.00  0.00     0.135 A 
ATOM     82  C   UNL A   1      39.054  34.063  38.196  1.00  0.00     0.135 A 
ATOM     83  F   UNL A   1      41.110  35.840  35.776  1.00  0.00    -0.206 F 
ATOM     84  C   UNL A   1      40.300  36.532  37.865  1.00  0.00     0.059 A 
ATOM     85  C   UNL A   1      38.922  35.032  39.186  1.00  0.00     0.059 A 
ATOM     86  F   UNL A   1      38.450  32.880  38.389  1.00  0.00    -0.206 F 
ATOM     87  C   UNL A   1      39.568  36.257  39.021  1.00  0.00     0.060 A 
BRANCH  87  88
ATOM     88  S   UNL A   1      39.467  37.522  40.305  1.00  0.00     0.124 S 
ATOM     89  O   UNL A   1      38.735  38.580  39.615  1.00  0.00    -0.237 OA
ATOM     90  O   UNL A   1      38.738  36.834  41.365  1.00  0.00    -0.237 OA
ATOM     91  O   UNL A   1      40.865  37.817  40.602  1.00  0.00    -0.744 OA
ENDBRANCH  87  88
ENDBRANCH  55  80
ENDBRANCH  29  30
ENDBRANCH  21  24
ENDBRANCH  19  20
ENDBRANCH   1  19
TORSDOF 15
ENDMDL
MODEL 2
REMARK VINA RESULT:     -11.7      5.072     10.480
REMARK SMILES C[C@@H](C(=O)NCCCNC(=O)c1ccc(-c2c3nc(c(-c4c(F)cc(S(=O)(=O)[O-])cc4F)c4ccc([nH]4)c(-c4c(F)cc(S(=O)(=O)[O-])cc4F)c4nc(c(-c5c(F)cc(S(=O)(=O)[O-])cc5F)c5ccc2[nH]5)C=C4)C=C3)cc1)c1ccc(=O)n(C(F)F)c1
REMARK SMILES IDX 7 1 6 2 5 3 3 4 4 5 2 7 1 8 78 9 79 10 87 11 80 12 83 13
REMARK SMILES IDX 81 14 82 15 84 16 85 17 86 18 8 19 9 20 10 21 11 23 12 24
REMARK SMILES IDX 13 25 77 26 14 27 76 28 15 29 16 30 17 31 70 32 18 33 75 34
REMARK SMILES IDX 69 35 71 36 19 37 74 38 68 39 67 40 20 42 54 43 33 44 53 45
REMARK SMILES IDX 34 46 37 47 52 48 72 49 35 50 36 51 51 53 73 54 38 55 21 56
REMARK SMILES IDX 22 57 31 58 23 59 24 60 30 61 32 62 25 63 26 64 27 65 28 66
REMARK SMILES IDX 29 67 55 68 56 69 65 70 57 71 58 72 64 73 66 74 59 75 60 76
REMARK SMILES IDX 61 77 62 78 63 79 39 80 40 81 49 82 41 83 42 84 48 85 50 86
REMARK SMILES IDX 43 87 44 88 45 89 46 90 47 91
REMARK H PARENT 5 6 9 22 71 41 37 52
REMARK Flexibility Score: inf
ROOT
ATOM      1  C   UNL A   1      33.583  27.896  25.376  1.00  0.00     0.042 C 
ENDROOT
BRANCH   1   2
ATOM      2  C   UNL A   1      32.690  26.728  24.964  1.00  0.00     0.117 C 
BRANCH   2   3
ATOM      3  N   UNL A   1      32.689  25.668  25.952  1.00  0.00    -0.356 N 
ATOM      4  C   UNL A   1      33.221  24.412  25.916  1.00  0.00     0.227 C 
ATOM      5  O   UNL A   1      33.046  23.716  26.917  1.00  0.00    -0.274 OA
ATOM      6  H   UNL A   1      32.226  25.891  26.792  1.00  0.00     0.163 HD
BRANCH   4   7
ATOM      7  C   UNL A   1      34.019  23.939  24.680  1.00  0.00     0.107 C 
ATOM      8  C   UNL A   1      33.235  22.949  23.817  1.00  0.00     0.023 C 
BRANCH   7   9
ATOM      9  C   UNL A   1      35.372  23.344  25.056  1.00  0.00    -0.019 A 
ATOM     10  C   UNL A   1      36.402  24.203  25.615  1.00  0.00     0.012 A 
ATOM     11  C   UNL A   1      35.652  22.036  24.905  1.00  0.00     0.099 A 
ATOM     12  C   UNL A   1      37.608  23.725  25.938  1.00  0.00     0.072 A 
ATOM     13  N   UNL A   1      36.882  21.507  25.263  1.00  0.00    -0.258 N 
ATOM     14  C   UNL A   1      37.917  22.284  25.758  1.00  0.00     0.254 A 
ATOM     15  O   UNL A   1      39.037  21.878  26.060  1.00  0.00    -0.269 OA
BRANCH  13  16
ATOM     16  C   UNL A   1      37.146  20.102  25.102  1.00  0.00     0.451 C 
ATOM     17  F   UNL A   1      36.009  19.420  24.823  1.00  0.00    -0.185 F 
ATOM     18  F   UNL A   1      38.027  19.876  24.097  1.00  0.00    -0.185 F 
ENDBRANCH  13  16
ENDBRANCH   7   9
ENDBRANCH   4   7
ENDBRANCH   2   3
ENDBRANCH   1   2
BRANCH   1  19
ATOM     19  C   UNL A   1      33.703  28.108  26.885  1.00  0.00     0.118 C 
BRANCH  19  20
ATOM     20  N   UNL A   1      33.571  29.504  27.268  1.00  0.00    -0.352 N 
ATOM     21  C   UNL A   1      34.433  30.336  27.937  1.00  0.00     0.251 C 
ATOM     22  H   UNL A   1      32.722  29.923  27.001  1.00  0.00     0.163 HD
ATOM     23  O   UNL A   1      34.016  31.428  28.316  1.00  0.00    -0.269 OA
BRANCH  21  24
ATOM     24  C   UNL A   1      35.832  29.940  28.225  1.00  0.00     0.039 A 
ATOM     25  C   UNL A   1      36.779  30.078  27.206  1.00  0.00     0.014 A 
ATOM     26  C   UNL A   1      36.215  29.386  29.451  1.00  0.00     0.014 A 
ATOM     27  C   UNL A   1      38.108  29.711  27.432  1.00  0.00     0.010 A 
ATOM     28  C   UNL A   1      37.559  29.095  29.701  1.00  0.00     0.010 A 
ATOM     29  C   UNL A   1      38.519  29.249  28.693  1.00  0.00    -0.014 A 
BRANCH  29  30
ATOM     30  C   UNL A   1      39.956  28.961  28.953  1.00  0.00     0.031 A 
ATOM     31  C   UNL A   1      40.853  29.986  29.597  1.00  0.00     0.074 A 
ATOM     32  C   UNL A   1      40.459  27.763  28.592  1.00  0.00     0.049 A 
ATOM     33  N   UNL A   1      42.113  29.883  29.934  1.00  0.00    -0.248 NA
ATOM     34  C   UNL A   1      40.266  31.306  29.880  1.00  0.00     0.031 C 
ATOM     35  C   UNL A   1      39.710  26.708  27.904  1.00  0.00     0.029 A 
ATOM     36  N   UNL A   1      41.711  27.225  28.755  1.00  0.00    -0.354 N 
ATOM     37  C   UNL A   1      42.470  31.116  30.469  1.00  0.00     0.074 A 
ATOM     38  C   UNL A   1      41.309  31.972  30.355  1.00  0.00     0.031 C 
ATOM     39  C   UNL A   1      40.503  25.638  27.743  1.00  0.00     0.029 A 
ATOM     40  C   UNL A   1      41.826  25.940  28.279  1.00  0.00     0.049 A 
ATOM     41  H   UNL A   1      42.457  27.713  29.174  1.00  0.00     0.167 HD
ATOM     42  C   UNL A   1      43.647  31.492  31.027  1.00  0.00     0.037 A 
ATOM     43  C   UNL A   1      42.875  25.096  28.274  1.00  0.00     0.037 A 
ATOM     44  C   UNL A   1      44.799  30.631  31.143  1.00  0.00     0.049 A 
ATOM     45  C   UNL A   1      44.170  25.535  28.900  1.00  0.00     0.074 A 
ATOM     46  C   UNL A   1      46.019  30.901  31.737  1.00  0.00     0.029 A 
ATOM     47  N   UNL A   1      44.877  29.337  30.647  1.00  0.00    -0.354 N 
ATOM     48  N   UNL A   1      44.464  26.680  29.471  1.00  0.00    -0.248 NA
ATOM     49  C   UNL A   1      45.273  24.566  28.892  1.00  0.00     0.031 C 
ATOM     50  C   UNL A   1      46.853  29.792  31.554  1.00  0.00     0.029 A 
ATOM     51  C   UNL A   1      46.133  28.807  30.898  1.00  0.00     0.049 A 
ATOM     52  H   UNL A   1      44.148  28.864  30.186  1.00  0.00     0.167 HD
ATOM     53  C   UNL A   1      45.779  26.562  29.906  1.00  0.00     0.074 A 
ATOM     54  C   UNL A   1      46.212  25.223  29.558  1.00  0.00     0.031 C 
ATOM     55  C   UNL A   1      46.559  27.477  30.534  1.00  0.00     0.037 A 
BRANCH  42  56
ATOM     56  C   UNL A   1      43.752  32.897  31.562  1.00  0.00     0.058 A 
ATOM     57  C   UNL A   1      44.062  33.983  30.725  1.00  0.00     0.135 A 
ATOM     58  C   UNL A   1      43.494  33.171  32.914  1.00  0.00     0.135 A 
ATOM     59  F   UNL A   1      44.329  33.781  29.425  1.00  0.00    -0.206 F 
ATOM     60  C   UNL A   1      44.142  35.283  31.216  1.00  0.00     0.059 A 
ATOM     61  C   UNL A   1      43.540  34.468  33.422  1.00  0.00     0.059 A 
ATOM     62  F   UNL A   1      43.193  32.174  33.761  1.00  0.00    -0.206 F 
ATOM     63  C   UNL A   1      43.877  35.516  32.566  1.00  0.00     0.060 A 
BRANCH  63  64
ATOM     64  S   UNL A   1      43.979  37.210  33.183  1.00  0.00     0.124 S 
ATOM     65  O   UNL A   1      43.914  37.975  31.943  1.00  0.00    -0.237 OA
ATOM     66  O   UNL A   1      42.804  37.298  34.044  1.00  0.00    -0.237 OA
ATOM     67  O   UNL A   1      45.263  37.244  33.876  1.00  0.00    -0.744 OA
ENDBRANCH  63  64
ENDBRANCH  42  56
BRANCH  43  68
ATOM     68  C   UNL A   1      42.735  23.740  27.675  1.00  0.00     0.058 A 
ATOM     69  C   UNL A   1      42.919  23.529  26.301  1.00  0.00     0.135 A 
ATOM     70  C   UNL A   1      42.430  22.624  28.472  1.00  0.00     0.135 A 
ATOM     71  F   UNL A   1      43.208  24.563  25.496  1.00  0.00    -0.206 F 
ATOM     72  C   UNL A   1      42.788  22.266  25.733  1.00  0.00     0.059 A 
ATOM     73  C   UNL A   1      42.325  21.347  27.932  1.00  0.00     0.059 A 
ATOM     74  F   UNL A   1      42.263  22.768  29.796  1.00  0.00    -0.206 F 
ATOM     75  C   UNL A   1      42.496  21.179  26.559  1.00  0.00     0.060 A 
BRANCH  75  76
ATOM     76  S   UNL A   1      42.381  19.536  25.820  1.00  0.00     0.124 S 
ATOM     77  O   UNL A   1      42.754  18.681  26.941  1.00  0.00    -0.237 OA
ATOM     78  O   UNL A   1      40.980  19.482  25.412  1.00  0.00    -0.237 OA
ATOM     79  O   UNL A   1      43.342  19.595  24.723  1.00  0.00    -0.744 OA
ENDBRANCH  75  76
ENDBRANCH  43  68
BRANCH  55  80
ATOM     80  C   UNL A   1      47.957  27.051  30.896  1.00  0.00     0.058 A 
ATOM     81  C   UNL A   1      49.061  27.374  30.090  1.00  0.00     0.135 A 
ATOM     82  C   UNL A   1      48.198  26.314  32.067  1.00  0.00     0.135 A 
ATOM     83  F   UNL A   1      48.889  28.075  28.958  1.00  0.00    -0.206 F 
ATOM     84  C   UNL A   1      50.345  26.942  30.407  1.00  0.00     0.059 A 
ATOM     85  C   UNL A   1      49.478  25.901  32.421  1.00  0.00     0.059 A 
ATOM     86  F   UNL A   1      47.182  25.988  32.882  1.00  0.00    -0.206 F 
ATOM     87  C   UNL A   1      50.543  26.201  31.572  1.00  0.00     0.060 A 
BRANCH  87  88
ATOM     88  S   UNL A   1      52.212  25.638  31.967  1.00  0.00     0.124 S 
ATOM     89  O   UNL A   1      51.982  24.229  32.268  1.00  0.00    -0.237 OA
ATOM     90  O   UNL A   1      52.935  25.912  30.730  1.00  0.00    -0.237 OA
ATOM     91  O   UNL A   1      52.591  26.468  33.106  1.00  0.00    -0.744 OA
ENDBRANCH  87  88
ENDBRANCH  55  80
ENDBRANCH  29  30
ENDBRANCH  21  24
ENDBRANCH  19  20
ENDBRANCH   1  19
TORSDOF 15
ENDMDL
MODEL 3
REMARK VINA RESULT:     -11.7      3.857      4.642
REMARK SMILES C[C@@H](C(=O)NCCCNC(=O)c1ccc(-c2c3nc(c(-c4c(F)cc(S(=O)(=O)[O-])cc4F)c4ccc([nH]4)c(-c4c(F)cc(S(=O)(=O)[O-])cc4F)c4nc(c(-c5c(F)cc(S(=O)(=O)[O-])cc5F)c5ccc2[nH]5)C=C4)C=C3)cc1)c1ccc(=O)n(C(F)F)c1
REMARK SMILES IDX 7 1 6 2 5 3 3 4 4 5 2 7 1 8 78 9 79 10 87 11 80 12 83 13
REMARK SMILES IDX 81 14 82 15 84 16 85 17 86 18 8 19 9 20 10 21 11 23 12 24
REMARK SMILES IDX 13 25 77 26 14 27 76 28 15 29 16 30 17 31 70 32 18 33 75 34
REMARK SMILES IDX 69 35 71 36 19 37 74 38 68 39 67 40 20 42 54 43 33 44 53 45
REMARK SMILES IDX 34 46 37 47 52 48 72 49 35 50 36 51 51 53 73 54 38 55 21 56
REMARK SMILES IDX 22 57 31 58 23 59 24 60 30 61 32 62 25 63 26 64 27 65 28 66
REMARK SMILES IDX 29 67 55 68 56 69 65 70 57 71 58 72 64 73 66 74 59 75 60 76
REMARK SMILES IDX 61 77 62 78 63 79 39 80 40 81 49 82 41 83 42 84 48 85 50 86
REMARK SMILES IDX 43 87 44 88 45 89 46 90 47 91
REMARK H PARENT 5 6 9 22 71 41 37 52
REMARK Flexibility Score: inf
ROOT
ATOM      1  C   UNL A   1      43.807  26.311  25.319  1.00  0.00     0.042 C 
ENDROOT
BRANCH   1   2
ATOM      2  C   UNL A   1      44.231  24.937  24.807  1.00  0.00     0.117 C 
BRANCH   2   3
ATOM      3  N   UNL A   1      45.189  24.299  25.689  1.00  0.00    -0.356 N 
ATOM      4  C   UNL A   1      45.006  23.466  26.754  1.00  0.00     0.227 C 
ATOM      5  O   UNL A   1      46.025  23.088  27.332  1.00  0.00    -0.274 OA
ATOM      6  H   UNL A   1      46.131  24.503  25.487  1.00  0.00     0.163 HD
BRANCH   4   7
ATOM      7  C   UNL A   1      43.583  23.020  27.160  1.00  0.00     0.107 C 
ATOM      8  C   UNL A   1      43.316  23.194  28.656  1.00  0.00     0.023 C 
BRANCH   7   9
ATOM      9  C   UNL A   1      43.283  21.585  26.741  1.00  0.00    -0.019 A 
ATOM     10  C   UNL A   1      42.152  20.888  27.332  1.00  0.00     0.012 A 
ATOM     11  C   UNL A   1      44.019  20.932  25.823  1.00  0.00     0.099 A 
ATOM     12  C   UNL A   1      41.867  19.622  27.008  1.00  0.00     0.072 A 
ATOM     13  N   UNL A   1      43.727  19.631  25.444  1.00  0.00    -0.258 N 
ATOM     14  C   UNL A   1      42.691  18.901  26.004  1.00  0.00     0.254 A 
ATOM     15  O   UNL A   1      42.405  17.737  25.733  1.00  0.00    -0.269 OA
BRANCH  13  16
ATOM     16  C   UNL A   1      44.525  18.965  24.450  1.00  0.00     0.451 C 
ATOM     17  F   UNL A   1      44.520  19.649  23.280  1.00  0.00    -0.185 F 
ATOM     18  F   UNL A   1      45.812  18.835  24.854  1.00  0.00    -0.185 F 
ENDBRANCH  13  16
ENDBRANCH   7   9
ENDBRANCH   4   7
ENDBRANCH   2   3
ENDBRANCH   1   2
BRANCH   1  19
ATOM     19  C   UNL A   1      42.315  26.614  25.178  1.00  0.00     0.118 C 
BRANCH  19  20
ATOM     20  N   UNL A   1      41.481  25.447  25.411  1.00  0.00    -0.352 N 
ATOM     21  C   UNL A   1      40.804  25.037  26.532  1.00  0.00     0.251 C 
ATOM     22  H   UNL A   1      41.385  24.851  24.633  1.00  0.00     0.163 HD
ATOM     23  O   UNL A   1      40.321  23.907  26.543  1.00  0.00    -0.269 OA
BRANCH  21  24
ATOM     24  C   UNL A   1      40.662  25.913  27.720  1.00  0.00     0.039 A 
ATOM     25  C   UNL A   1      41.671  26.845  27.977  1.00  0.00     0.014 A 
ATOM     26  C   UNL A   1      39.591  25.794  28.611  1.00  0.00     0.014 A 
ATOM     27  C   UNL A   1      41.581  27.684  29.089  1.00  0.00     0.010 A 
ATOM     28  C   UNL A   1      39.461  26.688  29.677  1.00  0.00     0.010 A 
ATOM     29  C   UNL A   1      40.457  27.640  29.932  1.00  0.00    -0.014 A 
BRANCH  29  30
ATOM     30  C   UNL A   1      40.322  28.610  31.052  1.00  0.00     0.031 A 
ATOM     31  C   UNL A   1      41.185  28.506  32.282  1.00  0.00     0.074 A 
ATOM     32  C   UNL A   1      39.399  29.589  30.962  1.00  0.00     0.049 A 
ATOM     33  N   UNL A   1      41.227  29.292  33.328  1.00  0.00    -0.248 NA
ATOM     34  C   UNL A   1      42.106  27.361  32.360  1.00  0.00     0.031 C 
ATOM     35  C   UNL A   1      38.459  29.759  29.851  1.00  0.00     0.029 A 
ATOM     36  N   UNL A   1      39.100  30.627  31.808  1.00  0.00    -0.354 N 
ATOM     37  C   UNL A   1      42.175  28.742  34.184  1.00  0.00     0.074 A 
ATOM     38  C   UNL A   1      42.640  27.520  33.562  1.00  0.00     0.031 C 
ATOM     39  C   UNL A   1      37.720  30.858  30.064  1.00  0.00     0.029 A 
ATOM     40  C   UNL A   1      38.103  31.451  31.341  1.00  0.00     0.049 A 
ATOM     41  H   UNL A   1      39.557  30.769  32.669  1.00  0.00     0.167 HD
ATOM     42  C   UNL A   1      42.635  29.222  35.366  1.00  0.00     0.037 A 
ATOM     43  C   UNL A   1      37.557  32.559  31.877  1.00  0.00     0.037 A 
ATOM     44  C   UNL A   1      42.171  30.444  35.976  1.00  0.00     0.049 A 
ATOM     45  C   UNL A   1      38.084  33.073  33.188  1.00  0.00     0.074 A 
ATOM     46  C   UNL A   1      42.609  31.042  37.145  1.00  0.00     0.029 A 
ATOM     47  N   UNL A   1      41.158  31.250  35.475  1.00  0.00    -0.354 N 
ATOM     48  N   UNL A   1      39.036  32.581  33.945  1.00  0.00    -0.248 NA
ATOM     49  C   UNL A   1      37.472  34.301  33.713  1.00  0.00     0.031 C 
ATOM     50  C   UNL A   1      41.827  32.179  37.378  1.00  0.00     0.029 A 
ATOM     51  C   UNL A   1      40.941  32.324  36.323  1.00  0.00     0.049 A 
ATOM     52  H   UNL A   1      40.668  31.084  34.638  1.00  0.00     0.167 HD
ATOM     53  C   UNL A   1      39.149  33.447  35.026  1.00  0.00     0.074 A 
ATOM     54  C   UNL A   1      38.188  34.510  34.809  1.00  0.00     0.031 C 
ATOM     55  C   UNL A   1      39.971  33.370  36.104  1.00  0.00     0.037 A 
BRANCH  42  56
ATOM     56  C   UNL A   1      43.699  28.429  36.079  1.00  0.00     0.058 A 
ATOM     57  C   UNL A   1      45.062  28.747  35.958  1.00  0.00     0.135 A 
ATOM     58  C   UNL A   1      43.352  27.367  36.930  1.00  0.00     0.135 A 
ATOM     59  F   UNL A   1      45.455  29.745  35.150  1.00  0.00    -0.206 F 
ATOM     60  C   UNL A   1      46.043  28.024  36.630  1.00  0.00     0.059 A 
ATOM     61  C   UNL A   1      44.314  26.649  37.636  1.00  0.00     0.059 A 
ATOM     62  F   UNL A   1      42.065  27.017  37.086  1.00  0.00    -0.206 F 
ATOM     63  C   UNL A   1      45.659  26.977  37.469  1.00  0.00     0.060 A 
BRANCH  63  64
ATOM     64  S   UNL A   1      46.945  26.055  38.339  1.00  0.00     0.124 S 
ATOM     65  O   UNL A   1      46.287  25.766  39.609  1.00  0.00    -0.237 OA
ATOM     66  O   UNL A   1      47.156  24.910  37.459  1.00  0.00    -0.237 OA
ATOM     67  O   UNL A   1      48.054  27.001  38.408  1.00  0.00    -0.744 OA
ENDBRANCH  63  64
ENDBRANCH  42  56
BRANCH  43  68
ATOM     68  C   UNL A   1      36.463  33.270  31.160  1.00  0.00     0.058 A 
ATOM     69  C   UNL A   1      35.147  33.258  31.644  1.00  0.00     0.135 A 
ATOM     70  C   UNL A   1      36.718  33.989  29.981  1.00  0.00     0.135 A 
ATOM     71  F   UNL A   1      34.851  32.580  32.764  1.00  0.00    -0.206 F 
ATOM     72  C   UNL A   1      34.119  33.917  30.979  1.00  0.00     0.059 A 
ATOM     73  C   UNL A   1      35.712  34.683  29.315  1.00  0.00     0.059 A 
ATOM     74  F   UNL A   1      37.964  34.049  29.485  1.00  0.00    -0.206 F 
ATOM     75  C   UNL A   1      34.413  34.632  29.817  1.00  0.00     0.060 A 
BRANCH  75  76
ATOM     76  S   UNL A   1      33.082  35.529  28.990  1.00  0.00     0.124 S 
ATOM     77  O   UNL A   1      32.302  36.010  30.124  1.00  0.00    -0.237 OA
ATOM     78  O   UNL A   1      33.817  36.544  28.241  1.00  0.00    -0.237 OA
ATOM     79  O   UNL A   1      32.443  34.500  28.174  1.00  0.00    -0.744 OA
ENDBRANCH  75  76
ENDBRANCH  43  68
BRANCH  55  80
ATOM     80  C   UNL A   1      39.872  34.477  37.120  1.00  0.00     0.058 A 
ATOM     81  C   UNL A   1      40.606  35.667  36.991  1.00  0.00     0.135 A 
ATOM     82  C   UNL A   1      39.027  34.349  38.235  1.00  0.00     0.135 A 
ATOM     83  F   UNL A   1      41.431  35.842  35.947  1.00  0.00    -0.206 F 
ATOM     84  C   UNL A   1      40.544  36.668  37.954  1.00  0.00     0.059 A 
ATOM     85  C   UNL A   1      38.923  35.352  39.193  1.00  0.00     0.059 A 
ATOM     86  F   UNL A   1      38.291  33.238  38.403  1.00  0.00    -0.206 F 
ATOM     87  C   UNL A   1      39.703  36.500  39.055  1.00  0.00     0.060 A 
BRANCH  87  88
ATOM     88  S   UNL A   1      39.637  37.803  40.303  1.00  0.00     0.124 S 
ATOM     89  O   UNL A   1      38.747  38.770  39.669  1.00  0.00    -0.237 OA
ATOM     90  O   UNL A   1      39.091  37.102  41.459  1.00  0.00    -0.237 OA
ATOM     91  O   UNL A   1      41.030  38.222  40.430  1.00  0.00    -0.744 OA
ENDBRANCH  87  88
ENDBRANCH  55  80
ENDBRANCH  29  30
ENDBRANCH  21  24
ENDBRANCH  19  20
ENDBRANCH   1  19
TORSDOF 15
ENDMDL
