MODEL 1
REMARK VINA RESULT:     -10.0      0.000      0.000
REMARK SMILES O=C(NCCCNC(=O)c1ccc(-c2ccc(Cl)cc2)cc1F)c1ccc(-c2c3nc(c(-c4c(F)cc(S(=O)(=O)[O-])cc4F)c4ccc([nH]4)c(-c4c(F)cc(S(=O)(=O)[O-])cc4F)c4nc(c(-c5c(F)cc(S(=O)(=O)[O-])cc5F)c5ccc2[nH]5)C=C4)C=C3)cc1
REMARK SMILES IDX 4 1 3 2 1 3 2 4 24 6 25 7 89 8 26 9 88 10 27 11 28 12 29 13
REMARK SMILES IDX 82 14 30 15 87 16 81 17 83 18 31 19 86 20 80 21 79 22 32 24
REMARK SMILES IDX 66 25 45 26 65 27 46 28 49 29 64 30 84 31 47 32 48 33 63 35
REMARK SMILES IDX 85 36 50 37 33 38 34 39 43 40 35 41 36 42 42 43 44 44 37 45
REMARK SMILES IDX 38 46 39 47 40 48 41 49 67 50 68 51 77 52 69 53 70 54 76 55
REMARK SMILES IDX 78 56 71 57 72 58 73 59 74 60 75 61 51 62 52 63 61 64 53 65
REMARK SMILES IDX 54 66 60 67 62 68 55 69 56 70 57 71 58 72 59 73 5 74 6 75
REMARK SMILES IDX 7 76 8 77 9 79 10 80 11 81 22 82 12 83 21 84 23 85 13 86
REMARK SMILES IDX 14 87 15 88 20 89 16 90 19 91 17 92 18 93
REMARK H PARENT 3 5 83 23 49 34 7 78
REMARK Flexibility Score: inf
ROOT
ATOM      1  C   UNL A   1      34.688  32.558  28.530  1.00  0.00     0.118 C 
ENDROOT
BRANCH   1   2
ATOM      2  N   UNL A   1      34.046  31.276  28.275  1.00  0.00    -0.352 N 
ATOM      3  O   UNL A   1      33.859  29.119  27.678  1.00  0.00    -0.269 OA
ATOM      4  C   UNL A   1      34.584  30.027  28.080  1.00  0.00     0.251 C 
ATOM      5  H   UNL A   1      33.063  31.309  28.238  1.00  0.00     0.163 HD
BRANCH   4   6
ATOM      6  C   UNL A   1      36.020  29.769  28.328  1.00  0.00     0.039 A 
ATOM      7  C   UNL A   1      36.970  29.948  27.321  1.00  0.00     0.014 A 
ATOM      8  C   UNL A   1      36.432  29.388  29.610  1.00  0.00     0.014 A 
ATOM      9  C   UNL A   1      38.297  29.600  27.549  1.00  0.00     0.010 A 
ATOM     10  C   UNL A   1      37.783  29.129  29.864  1.00  0.00     0.010 A 
ATOM     11  C   UNL A   1      38.722  29.202  28.826  1.00  0.00    -0.014 A 
BRANCH  11  12
ATOM     12  C   UNL A   1      40.163  28.923  29.055  1.00  0.00     0.031 A 
ATOM     13  C   UNL A   1      40.769  27.599  28.684  1.00  0.00     0.074 A 
ATOM     14  C   UNL A   1      40.939  29.904  29.561  1.00  0.00     0.049 A 
ATOM     15  N   UNL A   1      42.015  27.211  28.780  1.00  0.00    -0.248 NA
ATOM     16  C   UNL A   1      39.863  26.577  28.138  1.00  0.00     0.031 C 
ATOM     17  C   UNL A   1      40.460  31.229  29.961  1.00  0.00     0.029 A 
ATOM     18  N   UNL A   1      42.289  29.955  29.794  1.00  0.00    -0.354 N 
ATOM     19  C   UNL A   1      42.043  25.899  28.322  1.00  0.00     0.074 A 
ATOM     20  C   UNL A   1      40.683  25.548  27.972  1.00  0.00     0.031 C 
ATOM     21  C   UNL A   1      41.507  31.983  30.324  1.00  0.00     0.029 A 
ATOM     22  C   UNL A   1      42.722  31.178  30.243  1.00  0.00     0.049 A 
ATOM     23  H   UNL A   1      42.890  29.187  29.652  1.00  0.00     0.167 HD
ATOM     24  C   UNL A   1      43.106  25.069  28.198  1.00  0.00     0.037 A 
ATOM     25  C   UNL A   1      43.958  31.611  30.558  1.00  0.00     0.037 A 
ATOM     26  C   UNL A   1      44.459  25.429  28.536  1.00  0.00     0.049 A 
ATOM     27  C   UNL A   1      45.116  30.669  30.430  1.00  0.00     0.074 A 
ATOM     28  C   UNL A   1      45.606  24.660  28.437  1.00  0.00     0.029 A 
ATOM     29  N   UNL A   1      44.850  26.663  29.037  1.00  0.00    -0.354 N 
ATOM     30  N   UNL A   1      45.121  29.429  30.002  1.00  0.00    -0.248 NA
ATOM     31  C   UNL A   1      46.433  31.175  30.839  1.00  0.00     0.031 C 
ATOM     32  C   UNL A   1      46.685  25.418  28.907  1.00  0.00     0.029 A 
ATOM     33  C   UNL A   1      46.216  26.672  29.265  1.00  0.00     0.049 A 
ATOM     34  H   UNL A   1      44.244  27.421  29.206  1.00  0.00     0.167 HD
ATOM     35  C   UNL A   1      46.441  29.005  30.087  1.00  0.00     0.074 A 
ATOM     36  C   UNL A   1      47.208  30.126  30.592  1.00  0.00     0.031 C 
ATOM     37  C   UNL A   1      46.964  27.794  29.778  1.00  0.00     0.037 A 
BRANCH  24  38
ATOM     38  C   UNL A   1      42.846  23.681  27.684  1.00  0.00     0.058 A 
ATOM     39  C   UNL A   1      42.871  23.413  26.306  1.00  0.00     0.135 A 
ATOM     40  C   UNL A   1      42.542  22.619  28.552  1.00  0.00     0.135 A 
ATOM     41  F   UNL A   1      43.160  24.390  25.432  1.00  0.00    -0.206 F 
ATOM     42  C   UNL A   1      42.606  22.141  25.806  1.00  0.00     0.059 A 
ATOM     43  C   UNL A   1      42.293  21.335  28.074  1.00  0.00     0.059 A 
ATOM     44  F   UNL A   1      42.526  22.817  29.879  1.00  0.00    -0.206 F 
ATOM     45  C   UNL A   1      42.319  21.108  26.698  1.00  0.00     0.060 A 
BRANCH  45  46
ATOM     46  S   UNL A   1      42.051  19.445  26.044  1.00  0.00     0.124 S 
ATOM     47  O   UNL A   1      42.881  19.457  24.845  1.00  0.00    -0.237 OA
ATOM     48  O   UNL A   1      42.523  18.602  27.138  1.00  0.00    -0.237 OA
ATOM     49  O   UNL A   1      40.609  19.405  25.815  1.00  0.00    -0.744 OA
ENDBRANCH  45  46
ENDBRANCH  24  38
BRANCH  25  50
ATOM     50  C   UNL A   1      44.138  33.016  31.003  1.00  0.00     0.058 A 
ATOM     51  C   UNL A   1      44.151  33.348  32.367  1.00  0.00     0.135 A 
ATOM     52  C   UNL A   1      44.196  34.061  30.070  1.00  0.00     0.135 A 
ATOM     53  F   UNL A   1      44.086  32.383  33.296  1.00  0.00    -0.206 F 
ATOM     54  C   UNL A   1      44.170  34.671  32.790  1.00  0.00     0.059 A 
ATOM     55  C   UNL A   1      44.238  35.393  30.471  1.00  0.00     0.059 A 
ATOM     56  F   UNL A   1      44.196  33.788  28.757  1.00  0.00    -0.206 F 
ATOM     57  C   UNL A   1      44.198  35.688  31.834  1.00  0.00     0.060 A 
BRANCH  57  58
ATOM     58  S   UNL A   1      44.157  37.401  32.401  1.00  0.00     0.124 S 
ATOM     59  O   UNL A   1      43.824  38.106  31.167  1.00  0.00    -0.237 OA
ATOM     60  O   UNL A   1      43.108  37.364  33.415  1.00  0.00    -0.237 OA
ATOM     61  O   UNL A   1      45.508  37.621  32.906  1.00  0.00    -0.744 OA
ENDBRANCH  57  58
ENDBRANCH  25  50
BRANCH  37  62
ATOM     62  C   UNL A   1      48.441  27.612  29.976  1.00  0.00     0.058 A 
ATOM     63  C   UNL A   1      48.946  27.169  31.209  1.00  0.00     0.135 A 
ATOM     64  C   UNL A   1      49.359  27.940  28.967  1.00  0.00     0.135 A 
ATOM     65  F   UNL A   1      48.108  26.844  32.206  1.00  0.00    -0.206 F 
ATOM     66  C   UNL A   1      50.313  27.072  31.439  1.00  0.00     0.059 A 
ATOM     67  C   UNL A   1      50.731  27.832  29.169  1.00  0.00     0.059 A 
ATOM     68  F   UNL A   1      48.922  28.354  27.767  1.00  0.00    -0.206 F 
ATOM     69  C   UNL A   1      51.199  27.413  30.415  1.00  0.00     0.060 A 
BRANCH  69  70
ATOM     70  S   UNL A   1      52.972  27.273  30.725  1.00  0.00     0.124 S 
ATOM     71  O   UNL A   1      53.526  27.493  29.394  1.00  0.00    -0.237 OA
ATOM     72  O   UNL A   1      53.203  28.342  31.693  1.00  0.00    -0.237 OA
ATOM     73  O   UNL A   1      53.117  25.920  31.253  1.00  0.00    -0.744 OA
ENDBRANCH  69  70
ENDBRANCH  37  62
ENDBRANCH  11  12
ENDBRANCH   4   6
ENDBRANCH   1   2
BRANCH   1  74
ATOM     74  C   UNL A   1      34.865  32.838  30.016  1.00  0.00     0.042 C 
BRANCH  74  75
ATOM     75  C   UNL A   1      35.953  33.858  30.325  1.00  0.00     0.118 C 
BRANCH  75  76
ATOM     76  N   UNL A   1      35.672  34.618  31.537  1.00  0.00    -0.352 N 
ATOM     77  C   UNL A   1      36.144  34.426  32.811  1.00  0.00     0.254 C 
ATOM     78  H   UNL A   1      35.058  35.380  31.425  1.00  0.00     0.163 HD
ATOM     79  O   UNL A   1      35.704  35.083  33.751  1.00  0.00    -0.269 OA
BRANCH  77  80
ATOM     80  C   UNL A   1      37.146  33.384  33.067  1.00  0.00     0.075 A 
ATOM     81  C   UNL A   1      36.731  32.063  33.227  1.00  0.00     0.017 A 
ATOM     82  C   UNL A   1      38.498  33.702  33.134  1.00  0.00     0.136 A 
ATOM     83  C   UNL A   1      37.690  31.052  33.361  1.00  0.00     0.010 A 
ATOM     84  C   UNL A   1      39.453  32.698  33.252  1.00  0.00     0.048 A 
ATOM     85  F   UNL A   1      38.915  34.972  33.025  1.00  0.00    -0.206 F 
ATOM     86  C   UNL A   1      39.066  31.350  33.340  1.00  0.00    -0.015 A 
BRANCH  86  87
ATOM     87  C   UNL A   1      40.084  30.287  33.359  1.00  0.00    -0.018 A 
ATOM     88  C   UNL A   1      41.411  30.555  33.735  1.00  0.00     0.010 A 
ATOM     89  C   UNL A   1      39.765  28.981  32.942  1.00  0.00     0.010 A 
ATOM     90  C   UNL A   1      42.389  29.557  33.684  1.00  0.00     0.021 A 
ATOM     91  C   UNL A   1      40.741  27.981  32.890  1.00  0.00     0.021 A 
ATOM     92  C   UNL A   1      42.050  28.276  33.259  1.00  0.00     0.041 A 
ATOM     93  Cl  UNL A   1      43.259  27.055  33.182  1.00  0.00    -0.084 Cl
ENDBRANCH  86  87
ENDBRANCH  77  80
ENDBRANCH  75  76
ENDBRANCH  74  75
ENDBRANCH   1  74
TORSDOF 14
ENDMDL
MODEL 2
REMARK VINA RESULT:      -9.9      0.952      1.727
REMARK SMILES O=C(NCCCNC(=O)c1ccc(-c2ccc(Cl)cc2)cc1F)c1ccc(-c2c3nc(c(-c4c(F)cc(S(=O)(=O)[O-])cc4F)c4ccc([nH]4)c(-c4c(F)cc(S(=O)(=O)[O-])cc4F)c4nc(c(-c5c(F)cc(S(=O)(=O)[O-])cc5F)c5ccc2[nH]5)C=C4)C=C3)cc1
REMARK SMILES IDX 4 1 3 2 1 3 2 4 24 6 25 7 89 8 26 9 88 10 27 11 28 12 29 13
REMARK SMILES IDX 82 14 30 15 87 16 81 17 83 18 31 19 86 20 80 21 79 22 32 24
REMARK SMILES IDX 66 25 45 26 65 27 46 28 49 29 64 30 84 31 47 32 48 33 63 35
REMARK SMILES IDX 85 36 50 37 33 38 34 39 43 40 35 41 36 42 42 43 44 44 37 45
REMARK SMILES IDX 38 46 39 47 40 48 41 49 67 50 68 51 77 52 69 53 70 54 76 55
REMARK SMILES IDX 78 56 71 57 72 58 73 59 74 60 75 61 51 62 52 63 61 64 53 65
REMARK SMILES IDX 54 66 60 67 62 68 55 69 56 70 57 71 58 72 59 73 5 74 6 75
REMARK SMILES IDX 7 76 8 77 9 79 10 80 11 81 22 82 12 83 21 84 23 85 13 86
REMARK SMILES IDX 14 87 15 88 20 89 16 90 19 91 17 92 18 93
REMARK H PARENT 3 5 83 23 49 34 7 78
REMARK Flexibility Score: inf
ROOT
ATOM      1  C   UNL A   1      34.728  32.535  28.390  1.00  0.00     0.118 C 
ENDROOT
BRANCH   1   2
ATOM      2  N   UNL A   1      34.080  31.252  28.149  1.00  0.00    -0.352 N 
ATOM      3  O   UNL A   1      33.889  29.086  27.588  1.00  0.00    -0.269 OA
ATOM      4  C   UNL A   1      34.613  29.996  27.984  1.00  0.00     0.251 C 
ATOM      5  H   UNL A   1      33.098  31.291  28.096  1.00  0.00     0.163 HD
BRANCH   4   6
ATOM      6  C   UNL A   1      36.044  29.735  28.258  1.00  0.00     0.039 A 
ATOM      7  C   UNL A   1      37.016  29.934  27.276  1.00  0.00     0.014 A 
ATOM      8  C   UNL A   1      36.428  29.328  29.541  1.00  0.00     0.014 A 
ATOM      9  C   UNL A   1      38.338  29.583  27.526  1.00  0.00     0.010 A 
ATOM     10  C   UNL A   1      37.773  29.064  29.819  1.00  0.00     0.010 A 
ATOM     11  C   UNL A   1      38.735  29.159  28.804  1.00  0.00    -0.014 A 
BRANCH  11  12
ATOM     12  C   UNL A   1      40.171  28.876  29.059  1.00  0.00     0.031 A 
ATOM     13  C   UNL A   1      40.782  27.554  28.690  1.00  0.00     0.074 A 
ATOM     14  C   UNL A   1      40.938  29.851  29.587  1.00  0.00     0.049 A 
ATOM     15  N   UNL A   1      42.025  27.162  28.807  1.00  0.00    -0.248 NA
ATOM     16  C   UNL A   1      39.885  26.537  28.119  1.00  0.00     0.031 C 
ATOM     17  C   UNL A   1      40.453  31.175  29.988  1.00  0.00     0.029 A 
ATOM     18  N   UNL A   1      42.283  29.898  29.847  1.00  0.00    -0.354 N 
ATOM     19  C   UNL A   1      42.060  25.854  28.341  1.00  0.00     0.074 A 
ATOM     20  C   UNL A   1      40.707  25.508  27.962  1.00  0.00     0.031 C 
ATOM     21  C   UNL A   1      41.494  31.924  30.377  1.00  0.00     0.029 A 
ATOM     22  C   UNL A   1      42.709  31.118  30.313  1.00  0.00     0.049 A 
ATOM     23  H   UNL A   1      42.886  29.131  29.711  1.00  0.00     0.167 HD
ATOM     24  C   UNL A   1      43.125  25.024  28.231  1.00  0.00     0.037 A 
ATOM     25  C   UNL A   1      43.939  31.546  30.656  1.00  0.00     0.037 A 
ATOM     26  C   UNL A   1      44.471  25.379  28.598  1.00  0.00     0.049 A 
ATOM     27  C   UNL A   1      45.098  30.603  30.544  1.00  0.00     0.074 A 
ATOM     28  C   UNL A   1      45.618  24.609  28.516  1.00  0.00     0.029 A 
ATOM     29  N   UNL A   1      44.854  26.608  29.116  1.00  0.00    -0.354 N 
ATOM     30  N   UNL A   1      45.110  29.367  30.107  1.00  0.00    -0.248 NA
ATOM     31  C   UNL A   1      46.408  31.104  30.982  1.00  0.00     0.031 C 
ATOM     32  C   UNL A   1      46.689  25.361  29.013  1.00  0.00     0.029 A 
ATOM     33  C   UNL A   1      46.215  26.614  29.371  1.00  0.00     0.049 A 
ATOM     34  H   UNL A   1      44.246  27.366  29.279  1.00  0.00     0.167 HD
ATOM     35  C   UNL A   1      46.427  28.940  30.214  1.00  0.00     0.074 A 
ATOM     36  C   UNL A   1      47.186  30.056  30.742  1.00  0.00     0.031 C 
ATOM     37  C   UNL A   1      46.955  27.730  29.907  1.00  0.00     0.037 A 
BRANCH  24  38
ATOM     38  C   UNL A   1      42.872  23.639  27.702  1.00  0.00     0.058 A 
ATOM     39  C   UNL A   1      42.902  23.386  26.321  1.00  0.00     0.135 A 
ATOM     40  C   UNL A   1      42.571  22.567  28.558  1.00  0.00     0.135 A 
ATOM     41  F   UNL A   1      43.189  24.373  25.458  1.00  0.00    -0.206 F 
ATOM     42  C   UNL A   1      42.644  22.119  25.807  1.00  0.00     0.059 A 
ATOM     43  C   UNL A   1      42.330  21.287  28.066  1.00  0.00     0.059 A 
ATOM     44  F   UNL A   1      42.551  22.751  29.887  1.00  0.00    -0.206 F 
ATOM     45  C   UNL A   1      42.361  21.074  26.688  1.00  0.00     0.060 A 
BRANCH  45  46
ATOM     46  S   UNL A   1      42.102  19.418  26.016  1.00  0.00     0.124 S 
ATOM     47  O   UNL A   1      42.586  18.575  27.103  1.00  0.00    -0.237 OA
ATOM     48  O   UNL A   1      40.661  19.397  25.786  1.00  0.00    -0.237 OA
ATOM     49  O   UNL A   1      42.918  19.417  24.805  1.00  0.00    -0.744 OA
ENDBRANCH  45  46
ENDBRANCH  24  38
BRANCH  25  50
ATOM     50  C   UNL A   1      44.112  32.948  31.115  1.00  0.00     0.058 A 
ATOM     51  C   UNL A   1      44.060  33.276  32.479  1.00  0.00     0.135 A 
ATOM     52  C   UNL A   1      44.231  33.995  30.190  1.00  0.00     0.135 A 
ATOM     53  F   UNL A   1      43.937  32.308  33.400  1.00  0.00    -0.206 F 
ATOM     54  C   UNL A   1      44.073  34.597  32.907  1.00  0.00     0.059 A 
ATOM     55  C   UNL A   1      44.267  35.325  30.597  1.00  0.00     0.059 A 
ATOM     56  F   UNL A   1      44.294  33.726  28.878  1.00  0.00    -0.206 F 
ATOM     57  C   UNL A   1      44.161  35.616  31.958  1.00  0.00     0.060 A 
BRANCH  57  58
ATOM     58  S   UNL A   1      44.111  37.328  32.528  1.00  0.00     0.124 S 
ATOM     59  O   UNL A   1      43.866  38.042  31.279  1.00  0.00    -0.237 OA
ATOM     60  O   UNL A   1      43.001  37.304  33.475  1.00  0.00    -0.237 OA
ATOM     61  O   UNL A   1      45.432  37.526  33.117  1.00  0.00    -0.744 OA
ENDBRANCH  57  58
ENDBRANCH  25  50
BRANCH  37  62
ATOM     62  C   UNL A   1      48.427  27.545  30.132  1.00  0.00     0.058 A 
ATOM     63  C   UNL A   1      49.345  27.802  29.102  1.00  0.00     0.135 A 
ATOM     64  C   UNL A   1      48.922  27.048  31.348  1.00  0.00     0.135 A 
ATOM     65  F   UNL A   1      48.920  28.276  27.920  1.00  0.00    -0.206 F 
ATOM     66  C   UNL A   1      50.704  27.559  29.264  1.00  0.00     0.059 A 
ATOM     67  C   UNL A   1      50.280  26.815  31.539  1.00  0.00     0.059 A 
ATOM     68  F   UNL A   1      48.084  26.801  32.367  1.00  0.00    -0.206 F 
ATOM     69  C   UNL A   1      51.162  27.058  30.484  1.00  0.00     0.060 A 
BRANCH  69  70
ATOM     70  S   UNL A   1      52.930  26.755  30.684  1.00  0.00     0.124 S 
ATOM     71  O   UNL A   1      53.360  26.578  29.301  1.00  0.00    -0.237 OA
ATOM     72  O   UNL A   1      53.383  27.980  31.338  1.00  0.00    -0.237 OA
ATOM     73  O   UNL A   1      52.975  25.556  31.516  1.00  0.00    -0.744 OA
ENDBRANCH  69  70
ENDBRANCH  37  62
ENDBRANCH  11  12
ENDBRANCH   4   6
ENDBRANCH   1   2
BRANCH   1  74
ATOM     74  C   UNL A   1      33.744  33.697  28.374  1.00  0.00     0.042 C 
BRANCH  74  75
ATOM     75  C   UNL A   1      34.179  34.883  29.224  1.00  0.00     0.118 C 
BRANCH  75  76
ATOM     76  N   UNL A   1      33.257  35.146  30.323  1.00  0.00    -0.352 N 
ATOM     77  C   UNL A   1      33.335  34.750  31.635  1.00  0.00     0.254 C 
ATOM     78  H   UNL A   1      32.467  35.686  30.091  1.00  0.00     0.163 HD
ATOM     79  O   UNL A   1      32.402  34.949  32.408  1.00  0.00    -0.269 OA
BRANCH  77  80
ATOM     80  C   UNL A   1      34.525  34.033  32.109  1.00  0.00     0.075 A 
ATOM     81  C   UNL A   1      34.600  32.650  31.939  1.00  0.00     0.017 A 
ATOM     82  C   UNL A   1      35.575  34.718  32.708  1.00  0.00     0.136 A 
ATOM     83  C   UNL A   1      35.776  31.978  32.289  1.00  0.00     0.010 A 
ATOM     84  C   UNL A   1      36.750  34.054  33.043  1.00  0.00     0.048 A 
ATOM     85  F   UNL A   1      35.505  36.041  32.919  1.00  0.00    -0.206 F 
ATOM     86  C   UNL A   1      36.883  32.674  32.813  1.00  0.00    -0.015 A 
BRANCH  86  87
ATOM     87  C   UNL A   1      38.164  32.000  33.072  1.00  0.00    -0.018 A 
ATOM     88  C   UNL A   1      38.273  30.599  33.024  1.00  0.00     0.010 A 
ATOM     89  C   UNL A   1      39.306  32.740  33.431  1.00  0.00     0.010 A 
ATOM     90  C   UNL A   1      39.476  29.959  33.339  1.00  0.00     0.021 A 
ATOM     91  C   UNL A   1      40.510  32.103  33.746  1.00  0.00     0.021 A 
ATOM     92  C   UNL A   1      40.587  30.715  33.701  1.00  0.00     0.041 A 
ATOM     93  Cl  UNL A   1      42.062  29.924  34.103  1.00  0.00    -0.084 Cl
ENDBRANCH  86  87
ENDBRANCH  77  80
ENDBRANCH  75  76
ENDBRANCH  74  75
ENDBRANCH   1  74
TORSDOF 14
ENDMDL
MODEL 3
REMARK VINA RESULT:      -9.9      3.295     10.618
REMARK SMILES O=C(NCCCNC(=O)c1ccc(-c2ccc(Cl)cc2)cc1F)c1ccc(-c2c3nc(c(-c4c(F)cc(S(=O)(=O)[O-])cc4F)c4ccc([nH]4)c(-c4c(F)cc(S(=O)(=O)[O-])cc4F)c4nc(c(-c5c(F)cc(S(=O)(=O)[O-])cc5F)c5ccc2[nH]5)C=C4)C=C3)cc1
REMARK SMILES IDX 4 1 3 2 1 3 2 4 24 6 25 7 89 8 26 9 88 10 27 11 28 12 29 13
REMARK SMILES IDX 82 14 30 15 87 16 81 17 83 18 31 19 86 20 80 21 79 22 32 24
REMARK SMILES IDX 66 25 45 26 65 27 46 28 49 29 64 30 84 31 47 32 48 33 63 35
REMARK SMILES IDX 85 36 50 37 33 38 34 39 43 40 35 41 36 42 42 43 44 44 37 45
REMARK SMILES IDX 38 46 39 47 40 48 41 49 67 50 68 51 77 52 69 53 70 54 76 55
REMARK SMILES IDX 78 56 71 57 72 58 73 59 74 60 75 61 51 62 52 63 61 64 53 65
REMARK SMILES IDX 54 66 60 67 62 68 55 69 56 70 57 71 58 72 59 73 5 74 6 75
REMARK SMILES IDX 7 76 8 77 9 79 10 80 11 81 22 82 12 83 21 84 23 85 13 86
REMARK SMILES IDX 14 87 15 88 20 89 16 90 19 91 17 92 18 93
REMARK H PARENT 3 5 83 23 49 34 7 78
REMARK Flexibility Score: inf
ROOT
ATOM      1  C   UNL A   1      40.542  21.702  26.896  1.00  0.00     0.118 C 
ENDROOT
BRANCH   1   2
ATOM      2  N   UNL A   1      39.468  22.191  26.041  1.00  0.00    -0.352 N 
ATOM      3  O   UNL A   1      37.785  23.511  25.356  1.00  0.00    -0.269 OA
ATOM      4  C   UNL A   1      38.799  23.391  26.040  1.00  0.00     0.251 C 
ATOM      5  H   UNL A   1      39.173  21.557  25.348  1.00  0.00     0.163 HD
BRANCH   4   6
ATOM      6  C   UNL A   1      39.272  24.527  26.863  1.00  0.00     0.039 A 
ATOM      7  C   UNL A   1      38.904  24.650  28.204  1.00  0.00     0.014 A 
ATOM      8  C   UNL A   1      40.143  25.463  26.294  1.00  0.00     0.014 A 
ATOM      9  C   UNL A   1      39.276  25.779  28.925  1.00  0.00     0.010 A 
ATOM     10  C   UNL A   1      40.593  26.551  27.051  1.00  0.00     0.010 A 
ATOM     11  C   UNL A   1      40.137  26.734  28.363  1.00  0.00    -0.014 A 
BRANCH  11  12
ATOM     12  C   UNL A   1      40.585  27.882  29.193  1.00  0.00     0.031 A 
ATOM     13  C   UNL A   1      39.699  29.076  29.413  1.00  0.00     0.074 A 
ATOM     14  C   UNL A   1      41.791  27.816  29.792  1.00  0.00     0.049 A 
ATOM     15  N   UNL A   1      39.922  30.140  30.142  1.00  0.00    -0.248 NA
ATOM     16  C   UNL A   1      38.398  29.080  28.729  1.00  0.00     0.031 C 
ATOM     17  C   UNL A   1      42.739  26.707  29.648  1.00  0.00     0.029 A 
ATOM     18  N   UNL A   1      42.414  28.672  30.662  1.00  0.00    -0.354 N 
ATOM     19  C   UNL A   1      38.801  30.947  29.993  1.00  0.00     0.074 A 
ATOM     20  C   UNL A   1      37.908  30.261  29.084  1.00  0.00     0.031 C 
ATOM     21  C   UNL A   1      43.788  26.919  30.454  1.00  0.00     0.029 A 
ATOM     22  C   UNL A   1      43.619  28.204  31.125  1.00  0.00     0.049 A 
ATOM     23  H   UNL A   1      42.032  29.539  30.931  1.00  0.00     0.167 HD
ATOM     24  C   UNL A   1      38.538  32.144  30.570  1.00  0.00     0.037 A 
ATOM     25  C   UNL A   1      44.497  28.745  31.991  1.00  0.00     0.037 A 
ATOM     26  C   UNL A   1      39.426  32.816  31.484  1.00  0.00     0.049 A 
ATOM     27  C   UNL A   1      44.194  30.079  32.601  1.00  0.00     0.074 A 
ATOM     28  C   UNL A   1      39.244  34.028  32.127  1.00  0.00     0.029 A 
ATOM     29  N   UNL A   1      40.663  32.333  31.888  1.00  0.00    -0.354 N 
ATOM     30  N   UNL A   1      43.130  30.830  32.443  1.00  0.00    -0.248 NA
ATOM     31  C   UNL A   1      45.210  30.647  33.497  1.00  0.00     0.031 C 
ATOM     32  C   UNL A   1      40.384  34.292  32.895  1.00  0.00     0.029 A 
ATOM     33  C   UNL A   1      41.260  33.227  32.760  1.00  0.00     0.049 A 
ATOM     34  H   UNL A   1      41.057  31.478  31.597  1.00  0.00     0.167 HD
ATOM     35  C   UNL A   1      43.346  31.961  33.220  1.00  0.00     0.074 A 
ATOM     36  C   UNL A   1      44.635  31.787  33.860  1.00  0.00     0.031 C 
ATOM     37  C   UNL A   1      42.550  33.044  33.382  1.00  0.00     0.037 A 
BRANCH  24  38
ATOM     38  C   UNL A   1      37.239  32.813  30.218  1.00  0.00     0.058 A 
ATOM     39  C   UNL A   1      37.167  33.709  29.139  1.00  0.00     0.135 A 
ATOM     40  C   UNL A   1      36.071  32.592  30.965  1.00  0.00     0.135 A 
ATOM     41  F   UNL A   1      38.253  33.955  28.389  1.00  0.00    -0.206 F 
ATOM     42  C   UNL A   1      35.981  34.361  28.812  1.00  0.00     0.059 A 
ATOM     43  C   UNL A   1      34.869  33.218  30.642  1.00  0.00     0.059 A 
ATOM     44  F   UNL A   1      36.081  31.729  31.992  1.00  0.00    -0.206 F 
ATOM     45  C   UNL A   1      34.837  34.108  29.568  1.00  0.00     0.060 A 
BRANCH  45  46
ATOM     46  S   UNL A   1      33.286  34.901  29.089  1.00  0.00     0.124 S 
ATOM     47  O   UNL A   1      32.769  33.970  28.093  1.00  0.00    -0.237 OA
ATOM     48  O   UNL A   1      32.559  34.950  30.354  1.00  0.00    -0.237 OA
ATOM     49  O   UNL A   1      33.718  36.199  28.577  1.00  0.00    -0.744 OA
ENDBRANCH  45  46
ENDBRANCH  24  38
BRANCH  25  50
ATOM     50  C   UNL A   1      45.731  27.991  32.331  1.00  0.00     0.058 A 
ATOM     51  C   UNL A   1      46.922  28.189  31.613  1.00  0.00     0.135 A 
ATOM     52  C   UNL A   1      45.712  26.989  33.311  1.00  0.00     0.135 A 
ATOM     53  F   UNL A   1      46.984  29.130  30.658  1.00  0.00    -0.206 F 
ATOM     54  C   UNL A   1      48.036  27.387  31.824  1.00  0.00     0.059 A 
ATOM     55  C   UNL A   1      46.823  26.188  33.555  1.00  0.00     0.059 A 
ATOM     56  F   UNL A   1      44.598  26.774  34.027  1.00  0.00    -0.206 F 
ATOM     57  C   UNL A   1      47.972  26.379  32.787  1.00  0.00     0.060 A 
BRANCH  57  58
ATOM     58  S   UNL A   1      49.408  25.305  33.002  1.00  0.00     0.124 S 
ATOM     59  O   UNL A   1      50.310  26.175  33.750  1.00  0.00    -0.237 OA
ATOM     60  O   UNL A   1      48.844  24.184  33.746  1.00  0.00    -0.237 OA
ATOM     61  O   UNL A   1      49.814  25.007  31.633  1.00  0.00    -0.744 OA
ENDBRANCH  57  58
ENDBRANCH  25  50
BRANCH  37  62
ATOM     62  C   UNL A   1      43.045  34.134  34.288  1.00  0.00     0.058 A 
ATOM     63  C   UNL A   1      42.633  34.188  35.629  1.00  0.00     0.135 A 
ATOM     64  C   UNL A   1      43.873  35.161  33.810  1.00  0.00     0.135 A 
ATOM     65  F   UNL A   1      41.839  33.229  36.133  1.00  0.00    -0.206 F 
ATOM     66  C   UNL A   1      43.015  35.233  36.462  1.00  0.00     0.059 A 
ATOM     67  C   UNL A   1      44.282  36.206  34.631  1.00  0.00     0.059 A 
ATOM     68  F   UNL A   1      44.303  35.143  32.539  1.00  0.00    -0.206 F 
ATOM     69  C   UNL A   1      43.834  36.242  35.952  1.00  0.00     0.060 A 
BRANCH  69  70
ATOM     70  S   UNL A   1      44.328  37.589  37.049  1.00  0.00     0.124 S 
ATOM     71  O   UNL A   1      44.145  38.754  36.191  1.00  0.00    -0.237 OA
ATOM     72  O   UNL A   1      43.380  37.456  38.151  1.00  0.00    -0.237 OA
ATOM     73  O   UNL A   1      45.712  37.262  37.381  1.00  0.00    -0.744 OA
ENDBRANCH  69  70
ENDBRANCH  37  62
ENDBRANCH  11  12
ENDBRANCH   4   6
ENDBRANCH   1   2
BRANCH   1  74
ATOM     74  C   UNL A   1      41.841  21.483  26.133  1.00  0.00     0.042 C 
BRANCH  74  75
ATOM     75  C   UNL A   1      43.088  21.867  26.918  1.00  0.00     0.118 C 
BRANCH  75  76
ATOM     76  N   UNL A   1      44.316  21.535  26.206  1.00  0.00    -0.352 N 
ATOM     77  C   UNL A   1      45.278  22.372  25.697  1.00  0.00     0.254 C 
ATOM     78  H   UNL A   1      44.481  20.574  26.073  1.00  0.00     0.163 HD
ATOM     79  O   UNL A   1      46.193  21.932  25.006  1.00  0.00    -0.269 OA
BRANCH  77  80
ATOM     80  C   UNL A   1      45.184  23.818  25.933  1.00  0.00     0.075 A 
ATOM     81  C   UNL A   1      44.342  24.587  25.130  1.00  0.00     0.017 A 
ATOM     82  C   UNL A   1      45.911  24.419  26.954  1.00  0.00     0.136 A 
ATOM     83  C   UNL A   1      44.165  25.944  25.421  1.00  0.00     0.010 A 
ATOM     84  C   UNL A   1      45.725  25.764  27.254  1.00  0.00     0.048 A 
ATOM     85  F   UNL A   1      46.758  23.705  27.711  1.00  0.00    -0.206 F 
ATOM     86  C   UNL A   1      44.826  26.546  26.509  1.00  0.00    -0.015 A 
BRANCH  86  87
ATOM     87  C   UNL A   1      44.557  27.939  26.898  1.00  0.00    -0.018 A 
ATOM     88  C   UNL A   1      45.427  28.638  27.752  1.00  0.00     0.010 A 
ATOM     89  C   UNL A   1      43.385  28.590  26.469  1.00  0.00     0.010 A 
ATOM     90  C   UNL A   1      45.130  29.938  28.175  1.00  0.00     0.021 A 
ATOM     91  C   UNL A   1      43.087  29.890  26.889  1.00  0.00     0.021 A 
ATOM     92  C   UNL A   1      43.960  30.556  27.743  1.00  0.00     0.041 A 
ATOM     93  Cl  UNL A   1      43.590  32.149  28.277  1.00  0.00    -0.084 Cl
ENDBRANCH  86  87
ENDBRANCH  77  80
ENDBRANCH  75  76
ENDBRANCH  74  75
ENDBRANCH   1  74
TORSDOF 14
ENDMDL
