MODEL 1
REMARK VINA RESULT:     -14.4      0.000      0.000
REMARK SMILES Cc1ccc(-c2cc([C@@H](C)C(=O)NCCCNC(=O)c3ccc(-c4c5nc(c(-c6c(F)cc(S(=O)(=O)[O-])cc6F)c6ccc([nH]6)c(-c6c(F)cc(S(=O)(=O)[O-])cc6F)c6nc(c(-c7c(F)cc(S(=O)(=O)[O-])cc7F)c7ccc4[nH]7)C=C6)C=C5)cc3)ccc2C[C@H]2CCCC2=O)cc1
REMARK SMILES IDX 15 1 14 2 13 3 11 4 12 5 9 7 10 8 8 9 6 10 7 11 88 12 87 13
REMARK SMILES IDX 86 14 5 15 1 16 2 17 3 18 97 19 4 20 96 21 89 22 90 23 91 24
REMARK SMILES IDX 94 25 92 26 93 27 95 28 16 29 17 30 18 31 19 33 20 34 21 35
REMARK SMILES IDX 85 36 22 37 84 38 23 39 24 40 25 41 78 42 26 43 83 44 77 45
REMARK SMILES IDX 79 46 27 47 82 48 76 49 75 50 28 52 62 53 41 54 61 55 42 56
REMARK SMILES IDX 45 57 60 58 80 59 43 60 44 61 59 63 81 64 46 65 29 66 30 67
REMARK SMILES IDX 39 68 31 69 32 70 38 71 40 72 33 73 34 74 35 75 36 76 37 77
REMARK SMILES IDX 63 78 64 79 73 80 65 81 66 82 72 83 74 84 67 85 68 86 69 87
REMARK SMILES IDX 70 88 71 89 47 90 48 91 57 92 49 93 50 94 56 95 58 96 51 97
REMARK SMILES IDX 52 98 53 99 54 100 55 101
REMARK H PARENT 13 6 17 32 79 51 45 62
REMARK Flexibility Score: inf
ROOT
ATOM      1  C   UNL A   1      32.822  29.905  27.254  1.00  0.00     0.042 C 
ENDROOT
BRANCH   1   2
ATOM      2  C   UNL A   1      32.104  28.632  26.816  1.00  0.00     0.117 C 
BRANCH   2   3
ATOM      3  N   UNL A   1      31.409  28.777  25.545  1.00  0.00    -0.356 N 
ATOM      4  C   UNL A   1      31.783  28.562  24.255  1.00  0.00     0.227 C 
ATOM      5  O   UNL A   1      30.933  28.810  23.387  1.00  0.00    -0.274 OA
ATOM      6  H   UNL A   1      30.482  29.096  25.638  1.00  0.00     0.163 HD
BRANCH   4   7
ATOM      7  C   UNL A   1      33.167  28.047  23.815  1.00  0.00     0.105 C 
ATOM      8  C   UNL A   1      33.840  28.846  22.701  1.00  0.00     0.023 C 
BRANCH   7   9
ATOM      9  C   UNL A   1      33.226  26.534  23.657  1.00  0.00    -0.035 A 
ATOM     10  C   UNL A   1      34.260  24.376  24.251  1.00  0.00    -0.015 A 
ATOM     11  C   UNL A   1      34.221  25.787  24.311  1.00  0.00     0.013 A 
ATOM     12  C   UNL A   1      33.180  23.698  23.643  1.00  0.00    -0.039 A 
ATOM     13  C   UNL A   1      32.243  24.444  22.916  1.00  0.00     0.004 A 
ATOM     14  C   UNL A   1      32.306  25.836  22.879  1.00  0.00     0.005 A 
BRANCH  10  15
ATOM     15  C   UNL A   1      35.478  23.671  24.693  1.00  0.00    -0.018 A 
ATOM     16  C   UNL A   1      39.022  21.465  25.837  1.00  0.00     0.044 C 
ATOM     17  C   UNL A   1      37.809  22.251  25.438  1.00  0.00    -0.051 A 
ATOM     18  C   UNL A   1      37.067  21.850  24.326  1.00  0.00     0.004 A 
ATOM     19  C   UNL A   1      37.389  23.371  26.167  1.00  0.00     0.004 A 
ATOM     20  C   UNL A   1      35.927  22.561  23.953  1.00  0.00     0.009 A 
ATOM     21  C   UNL A   1      36.236  24.076  25.796  1.00  0.00     0.009 A 
ENDBRANCH  10  15
BRANCH  12  22
ATOM     22  C   UNL A   1      32.973  22.199  23.752  1.00  0.00     0.047 C 
BRANCH  22  23
ATOM     23  C   UNL A   1      32.361  21.682  25.063  1.00  0.00     0.060 C 
ATOM     24  C   UNL A   1      33.317  21.082  26.099  1.00  0.00     0.012 C 
ATOM     25  C   UNL A   1      31.670  22.766  25.857  1.00  0.00     0.136 C 
ATOM     26  C   UNL A   1      33.557  22.171  27.137  1.00  0.00     0.009 C 
ATOM     27  C   UNL A   1      32.236  22.918  27.242  1.00  0.00     0.076 C 
ATOM     28  O   UNL A   1      30.723  23.414  25.429  1.00  0.00    -0.299 OA
ENDBRANCH  22  23
ENDBRANCH  12  22
ENDBRANCH   7   9
ENDBRANCH   4   7
ENDBRANCH   2   3
ENDBRANCH   1   2
BRANCH   1  29
ATOM     29  C   UNL A   1      34.330  29.890  27.039  1.00  0.00     0.118 C 
BRANCH  29  30
ATOM     30  N   UNL A   1      34.967  31.000  27.755  1.00  0.00    -0.352 N 
ATOM     31  C   UNL A   1      36.218  31.056  28.340  1.00  0.00     0.251 C 
ATOM     32  H   UNL A   1      34.427  31.820  27.830  1.00  0.00     0.163 HD
ATOM     33  O   UNL A   1      36.634  32.044  28.913  1.00  0.00    -0.269 OA
BRANCH  31  34
ATOM     34  C   UNL A   1      37.053  29.854  28.192  1.00  0.00     0.039 A 
ATOM     35  C   UNL A   1      37.184  29.011  29.299  1.00  0.00     0.014 A 
ATOM     36  C   UNL A   1      37.929  29.793  27.113  1.00  0.00     0.014 A 
ATOM     37  C   UNL A   1      38.325  28.224  29.413  1.00  0.00     0.010 A 
ATOM     38  C   UNL A   1      39.098  29.074  27.267  1.00  0.00     0.010 A 
ATOM     39  C   UNL A   1      39.324  28.337  28.441  1.00  0.00    -0.014 A 
BRANCH  39  40
ATOM     40  C   UNL A   1      40.674  27.813  28.624  1.00  0.00     0.031 A 
ATOM     41  C   UNL A   1      40.988  26.410  28.231  1.00  0.00     0.074 A 
ATOM     42  C   UNL A   1      41.671  28.602  29.096  1.00  0.00     0.049 A 
ATOM     43  N   UNL A   1      41.934  25.707  28.762  1.00  0.00    -0.248 NA
ATOM     44  C   UNL A   1      40.236  25.675  27.214  1.00  0.00     0.031 C 
ATOM     45  C   UNL A   1      43.098  28.281  29.060  1.00  0.00     0.029 A 
ATOM     46  N   UNL A   1      41.633  29.783  29.849  1.00  0.00    -0.354 N 
ATOM     47  C   UNL A   1      42.105  24.584  27.986  1.00  0.00     0.074 A 
ATOM     48  C   UNL A   1      40.984  24.575  27.075  1.00  0.00     0.031 C 
ATOM     49  C   UNL A   1      43.730  29.013  29.988  1.00  0.00     0.029 A 
ATOM     50  C   UNL A   1      42.709  29.707  30.750  1.00  0.00     0.049 A 
ATOM     51  H   UNL A   1      40.983  30.517  29.763  1.00  0.00     0.167 HD
ATOM     52  C   UNL A   1      43.248  23.846  28.079  1.00  0.00     0.037 A 
ATOM     53  C   UNL A   1      42.625  29.701  32.115  1.00  0.00     0.037 A 
ATOM     54  C   UNL A   1      44.171  24.392  29.066  1.00  0.00     0.049 A 
ATOM     55  C   UNL A   1      43.326  28.526  32.772  1.00  0.00     0.074 A 
ATOM     56  C   UNL A   1      45.261  25.239  28.950  1.00  0.00     0.029 A 
ATOM     57  N   UNL A   1      43.863  24.330  30.419  1.00  0.00    -0.354 N 
ATOM     58  N   UNL A   1      43.705  27.460  32.125  1.00  0.00    -0.248 NA
ATOM     59  C   UNL A   1      43.604  28.424  34.205  1.00  0.00     0.031 C 
ATOM     60  C   UNL A   1      45.594  25.713  30.239  1.00  0.00     0.029 A 
ATOM     61  C   UNL A   1      44.706  25.154  31.141  1.00  0.00     0.049 A 
ATOM     62  H   UNL A   1      43.147  23.778  30.808  1.00  0.00     0.167 HD
ATOM     63  C   UNL A   1      44.200  26.530  33.004  1.00  0.00     0.074 A 
ATOM     64  C   UNL A   1      44.152  27.197  34.290  1.00  0.00     0.031 C 
ATOM     65  C   UNL A   1      44.578  25.286  32.585  1.00  0.00     0.037 A 
BRANCH  52  66
ATOM     66  C   UNL A   1      43.627  22.819  27.040  1.00  0.00     0.058 A 
ATOM     67  C   UNL A   1      42.906  21.614  26.906  1.00  0.00     0.135 A 
ATOM     68  C   UNL A   1      44.735  22.955  26.182  1.00  0.00     0.135 A 
ATOM     69  F   UNL A   1      41.791  21.377  27.609  1.00  0.00    -0.206 F 
ATOM     70  C   UNL A   1      43.315  20.579  26.067  1.00  0.00     0.059 A 
ATOM     71  C   UNL A   1      45.192  21.914  25.367  1.00  0.00     0.059 A 
ATOM     72  F   UNL A   1      45.411  24.113  26.113  1.00  0.00    -0.206 F 
ATOM     73  C   UNL A   1      44.480  20.722  25.326  1.00  0.00     0.060 A 
BRANCH  73  74
ATOM     74  S   UNL A   1      45.057  19.315  24.356  1.00  0.00     0.124 S 
ATOM     75  O   UNL A   1      44.444  19.561  23.055  1.00  0.00    -0.237 OA
ATOM     76  O   UNL A   1      46.506  19.481  24.417  1.00  0.00    -0.237 OA
ATOM     77  O   UNL A   1      44.524  18.164  25.081  1.00  0.00    -0.744 OA
ENDBRANCH  73  74
ENDBRANCH  52  66
BRANCH  53  78
ATOM     78  C   UNL A   1      41.429  30.375  32.671  1.00  0.00     0.058 A 
ATOM     79  C   UNL A   1      40.293  29.591  32.934  1.00  0.00     0.135 A 
ATOM     80  C   UNL A   1      41.534  31.617  33.312  1.00  0.00     0.135 A 
ATOM     81  F   UNL A   1      40.131  28.411  32.315  1.00  0.00    -0.206 F 
ATOM     82  C   UNL A   1      39.392  29.938  33.931  1.00  0.00     0.059 A 
ATOM     83  C   UNL A   1      40.641  31.985  34.316  1.00  0.00     0.059 A 
ATOM     84  F   UNL A   1      42.592  32.407  33.083  1.00  0.00    -0.206 F 
ATOM     85  C   UNL A   1      39.618  31.102  34.664  1.00  0.00     0.060 A 
BRANCH  85  86
ATOM     86  S   UNL A   1      38.695  31.308  36.205  1.00  0.00     0.124 S 
ATOM     87  O   UNL A   1      37.498  32.003  35.750  1.00  0.00    -0.237 OA
ATOM     88  O   UNL A   1      38.507  29.917  36.614  1.00  0.00    -0.237 OA
ATOM     89  O   UNL A   1      39.608  32.086  37.035  1.00  0.00    -0.744 OA
ENDBRANCH  85  86
ENDBRANCH  53  78
BRANCH  65  90
ATOM     90  C   UNL A   1      44.949  24.109  33.460  1.00  0.00     0.058 A 
ATOM     91  C   UNL A   1      44.104  23.016  33.715  1.00  0.00     0.135 A 
ATOM     92  C   UNL A   1      46.266  23.989  33.972  1.00  0.00     0.135 A 
ATOM     93  F   UNL A   1      42.871  22.952  33.194  1.00  0.00    -0.206 F 
ATOM     94  C   UNL A   1      44.509  21.916  34.477  1.00  0.00     0.059 A 
ATOM     95  C   UNL A   1      46.707  22.877  34.688  1.00  0.00     0.059 A 
ATOM     96  F   UNL A   1      47.182  24.951  33.783  1.00  0.00    -0.206 F 
ATOM     97  C   UNL A   1      45.812  21.855  34.960  1.00  0.00     0.060 A 
BRANCH  97  98
ATOM     98  S   UNL A   1      46.366  20.415  35.892  1.00  0.00     0.124 S 
ATOM     99  O   UNL A   1      46.234  20.889  37.266  1.00  0.00    -0.237 OA
ATOM    100  O   UNL A   1      45.419  19.380  35.490  1.00  0.00    -0.237 OA
ATOM    101  O   UNL A   1      47.733  20.220  35.418  1.00  0.00    -0.744 OA
ENDBRANCH  97  98
ENDBRANCH  65  90
ENDBRANCH  39  40
ENDBRANCH  31  34
ENDBRANCH  29  30
ENDBRANCH   1  29
TORSDOF 17
ENDMDL
MODEL 2
REMARK VINA RESULT:     -14.2      0.870      1.466
REMARK SMILES Cc1ccc(-c2cc([C@@H](C)C(=O)NCCCNC(=O)c3ccc(-c4c5nc(c(-c6c(F)cc(S(=O)(=O)[O-])cc6F)c6ccc([nH]6)c(-c6c(F)cc(S(=O)(=O)[O-])cc6F)c6nc(c(-c7c(F)cc(S(=O)(=O)[O-])cc7F)c7ccc4[nH]7)C=C6)C=C5)cc3)ccc2C[C@H]2CCCC2=O)cc1
REMARK SMILES IDX 15 1 14 2 13 3 11 4 12 5 9 7 10 8 8 9 6 10 7 11 88 12 87 13
REMARK SMILES IDX 86 14 5 15 1 16 2 17 3 18 97 19 4 20 96 21 89 22 90 23 91 24
REMARK SMILES IDX 94 25 92 26 93 27 95 28 16 29 17 30 18 31 19 33 20 34 21 35
REMARK SMILES IDX 85 36 22 37 84 38 23 39 24 40 25 41 78 42 26 43 83 44 77 45
REMARK SMILES IDX 79 46 27 47 82 48 76 49 75 50 28 52 62 53 41 54 61 55 42 56
REMARK SMILES IDX 45 57 60 58 80 59 43 60 44 61 59 63 81 64 46 65 29 66 30 67
REMARK SMILES IDX 39 68 31 69 32 70 38 71 40 72 33 73 34 74 35 75 36 76 37 77
REMARK SMILES IDX 63 78 64 79 73 80 65 81 66 82 72 83 74 84 67 85 68 86 69 87
REMARK SMILES IDX 70 88 71 89 47 90 48 91 57 92 49 93 50 94 56 95 58 96 51 97
REMARK SMILES IDX 52 98 53 99 54 100 55 101
REMARK H PARENT 13 6 17 32 79 51 45 62
REMARK Flexibility Score: inf
ROOT
ATOM      1  C   UNL A   1      32.649  29.780  27.249  1.00  0.00     0.042 C 
ENDROOT
BRANCH   1   2
ATOM      2  C   UNL A   1      31.938  28.530  26.737  1.00  0.00     0.117 C 
BRANCH   2   3
ATOM      3  N   UNL A   1      31.334  28.714  25.425  1.00  0.00    -0.356 N 
ATOM      4  C   UNL A   1      31.792  28.520  24.159  1.00  0.00     0.227 C 
ATOM      5  O   UNL A   1      31.008  28.801  23.241  1.00  0.00    -0.274 OA
ATOM      6  H   UNL A   1      30.408  29.046  25.462  1.00  0.00     0.163 HD
BRANCH   4   7
ATOM      7  C   UNL A   1      33.195  27.991  23.803  1.00  0.00     0.105 C 
ATOM      8  C   UNL A   1      33.936  28.773  22.721  1.00  0.00     0.023 C 
BRANCH   7   9
ATOM      9  C   UNL A   1      33.252  26.476  23.665  1.00  0.00    -0.035 A 
ATOM     10  C   UNL A   1      34.298  24.327  24.267  1.00  0.00    -0.015 A 
ATOM     11  C   UNL A   1      34.260  25.738  24.309  1.00  0.00     0.013 A 
ATOM     12  C   UNL A   1      33.206  23.640  23.690  1.00  0.00    -0.039 A 
ATOM     13  C   UNL A   1      32.255  24.376  22.971  1.00  0.00     0.004 A 
ATOM     14  C   UNL A   1      32.316  25.767  22.914  1.00  0.00     0.005 A 
BRANCH  10  15
ATOM     15  C   UNL A   1      35.525  23.628  24.694  1.00  0.00    -0.018 A 
ATOM     16  C   UNL A   1      39.096  21.443  25.792  1.00  0.00     0.044 C 
ATOM     17  C   UNL A   1      37.874  22.222  25.410  1.00  0.00    -0.051 A 
ATOM     18  C   UNL A   1      37.134  21.832  24.292  1.00  0.00     0.004 A 
ATOM     19  C   UNL A   1      37.443  23.324  26.159  1.00  0.00     0.004 A 
ATOM     20  C   UNL A   1      35.985  22.536  23.934  1.00  0.00     0.009 A 
ATOM     21  C   UNL A   1      36.281  24.023  25.803  1.00  0.00     0.009 A 
ENDBRANCH  10  15
BRANCH  12  22
ATOM     22  C   UNL A   1      33.003  22.142  23.823  1.00  0.00     0.047 C 
BRANCH  22  23
ATOM     23  C   UNL A   1      32.398  21.645  25.145  1.00  0.00     0.060 C 
ATOM     24  C   UNL A   1      33.368  21.144  26.219  1.00  0.00     0.012 C 
ATOM     25  C   UNL A   1      31.632  22.719  25.882  1.00  0.00     0.136 C 
ATOM     26  C   UNL A   1      33.527  22.286  27.215  1.00  0.00     0.009 C 
ATOM     27  C   UNL A   1      32.164  22.959  27.268  1.00  0.00     0.076 C 
ATOM     28  O   UNL A   1      30.658  23.294  25.413  1.00  0.00    -0.299 OA
ENDBRANCH  22  23
ENDBRANCH  12  22
ENDBRANCH   7   9
ENDBRANCH   4   7
ENDBRANCH   2   3
ENDBRANCH   1   2
BRANCH   1  29
ATOM     29  C   UNL A   1      34.170  29.691  27.248  1.00  0.00     0.118 C 
BRANCH  29  30
ATOM     30  N   UNL A   1      34.756  30.835  27.954  1.00  0.00    -0.352 N 
ATOM     31  C   UNL A   1      35.938  30.906  28.667  1.00  0.00     0.251 C 
ATOM     32  H   UNL A   1      34.235  31.669  27.914  1.00  0.00     0.163 HD
ATOM     33  O   UNL A   1      36.317  31.923  29.214  1.00  0.00    -0.269 OA
BRANCH  31  34
ATOM     34  C   UNL A   1      36.751  29.680  28.691  1.00  0.00     0.039 A 
ATOM     35  C   UNL A   1      37.025  29.105  29.935  1.00  0.00     0.014 A 
ATOM     36  C   UNL A   1      37.482  29.355  27.553  1.00  0.00     0.014 A 
ATOM     37  C   UNL A   1      38.174  28.334  30.080  1.00  0.00     0.010 A 
ATOM     38  C   UNL A   1      38.663  28.658  27.719  1.00  0.00     0.010 A 
ATOM     39  C   UNL A   1      39.039  28.199  28.991  1.00  0.00    -0.014 A 
BRANCH  39  40
ATOM     40  C   UNL A   1      40.404  27.695  29.118  1.00  0.00     0.031 A 
ATOM     41  C   UNL A   1      40.733  26.316  28.660  1.00  0.00     0.074 A 
ATOM     42  C   UNL A   1      41.398  28.484  29.596  1.00  0.00     0.049 A 
ATOM     43  N   UNL A   1      41.706  25.611  29.137  1.00  0.00    -0.248 NA
ATOM     44  C   UNL A   1      39.968  25.608  27.633  1.00  0.00     0.031 C 
ATOM     45  C   UNL A   1      42.829  28.192  29.509  1.00  0.00     0.029 A 
ATOM     46  N   UNL A   1      41.358  29.632  30.397  1.00  0.00    -0.354 N 
ATOM     47  C   UNL A   1      41.877  24.523  28.311  1.00  0.00     0.074 A 
ATOM     48  C   UNL A   1      40.732  24.529  27.431  1.00  0.00     0.031 C 
ATOM     49  C   UNL A   1      43.472  28.899  30.450  1.00  0.00     0.029 A 
ATOM     50  C   UNL A   1      42.459  29.542  31.266  1.00  0.00     0.049 A 
ATOM     51  H   UNL A   1      40.693  30.357  30.358  1.00  0.00     0.167 HD
ATOM     52  C   UNL A   1      43.035  23.805  28.345  1.00  0.00     0.037 A 
ATOM     53  C   UNL A   1      42.412  29.479  32.631  1.00  0.00     0.037 A 
ATOM     54  C   UNL A   1      43.974  24.328  29.329  1.00  0.00     0.049 A 
ATOM     55  C   UNL A   1      43.151  28.293  33.221  1.00  0.00     0.074 A 
ATOM     56  C   UNL A   1      45.045  25.200  29.219  1.00  0.00     0.029 A 
ATOM     57  N   UNL A   1      43.704  24.206  30.686  1.00  0.00    -0.354 N 
ATOM     58  N   UNL A   1      43.533  27.261  32.521  1.00  0.00    -0.248 NA
ATOM     59  C   UNL A   1      43.469  28.138  34.641  1.00  0.00     0.031 C 
ATOM     60  C   UNL A   1      45.403  25.629  30.518  1.00  0.00     0.029 A 
ATOM     61  C   UNL A   1      44.551  25.016  31.419  1.00  0.00     0.049 A 
ATOM     62  H   UNL A   1      43.008  23.624  31.071  1.00  0.00     0.167 HD
ATOM     63  C   UNL A   1      44.069  26.307  33.349  1.00  0.00     0.074 A 
ATOM     64  C   UNL A   1      44.042  26.920  34.661  1.00  0.00     0.031 C 
ATOM     65  C   UNL A   1      44.459  25.088  32.870  1.00  0.00     0.037 A 
BRANCH  52  66
ATOM     66  C   UNL A   1      43.405  22.828  27.255  1.00  0.00     0.058 A 
ATOM     67  C   UNL A   1      42.754  21.582  27.138  1.00  0.00     0.135 A 
ATOM     68  C   UNL A   1      44.441  23.054  26.329  1.00  0.00     0.135 A 
ATOM     69  F   UNL A   1      41.708  21.258  27.907  1.00  0.00    -0.206 F 
ATOM     70  C   UNL A   1      43.168  20.595  26.245  1.00  0.00     0.059 A 
ATOM     71  C   UNL A   1      44.905  22.064  25.457  1.00  0.00     0.059 A 
ATOM     72  F   UNL A   1      45.036  24.255  26.246  1.00  0.00    -0.206 F 
ATOM     73  C   UNL A   1      44.268  20.829  25.432  1.00  0.00     0.060 A 
BRANCH  73  74
ATOM     74  S   UNL A   1      44.865  19.485  24.388  1.00  0.00     0.124 S 
ATOM     75  O   UNL A   1      46.296  19.480  24.675  1.00  0.00    -0.237 OA
ATOM     76  O   UNL A   1      44.110  18.347  24.900  1.00  0.00    -0.237 OA
ATOM     77  O   UNL A   1      44.509  19.922  23.040  1.00  0.00    -0.744 OA
ENDBRANCH  73  74
ENDBRANCH  52  66
BRANCH  53  78
ATOM     78  C   UNL A   1      41.218  30.107  33.245  1.00  0.00     0.058 A 
ATOM     79  C   UNL A   1      41.180  31.508  33.326  1.00  0.00     0.135 A 
ATOM     80  C   UNL A   1      40.008  29.408  33.344  1.00  0.00     0.135 A 
ATOM     81  F   UNL A   1      42.318  32.218  33.273  1.00  0.00    -0.206 F 
ATOM     82  C   UNL A   1      39.976  32.199  33.320  1.00  0.00     0.059 A 
ATOM     83  C   UNL A   1      38.787  30.080  33.339  1.00  0.00     0.059 A 
ATOM     84  F   UNL A   1      39.994  28.068  33.286  1.00  0.00    -0.206 F 
ATOM     85  C   UNL A   1      38.787  31.473  33.253  1.00  0.00     0.060 A 
BRANCH  85  86
ATOM     86  S   UNL A   1      37.282  32.378  32.822  1.00  0.00     0.124 S 
ATOM     87  O   UNL A   1      36.878  32.924  34.112  1.00  0.00    -0.237 OA
ATOM     88  O   UNL A   1      37.798  33.346  31.854  1.00  0.00    -0.237 OA
ATOM     89  O   UNL A   1      36.420  31.340  32.270  1.00  0.00    -0.744 OA
ENDBRANCH  85  86
ENDBRANCH  53  78
BRANCH  65  90
ATOM     90  C   UNL A   1      44.874  23.884  33.686  1.00  0.00     0.058 A 
ATOM     91  C   UNL A   1      43.999  22.864  34.093  1.00  0.00     0.135 A 
ATOM     92  C   UNL A   1      46.245  23.656  33.972  1.00  0.00     0.135 A 
ATOM     93  F   UNL A   1      42.694  22.902  33.787  1.00  0.00    -0.206 F 
ATOM     94  C   UNL A   1      44.435  21.734  34.792  1.00  0.00     0.059 A 
ATOM     95  C   UNL A   1      46.708  22.512  34.619  1.00  0.00     0.059 A 
ATOM     96  F   UNL A   1      47.191  24.540  33.619  1.00  0.00    -0.206 F 
ATOM     97  C   UNL A   1      45.792  21.566  35.050  1.00  0.00     0.060 A 
BRANCH  97  98
ATOM     98  S   UNL A   1      46.376  20.085  35.896  1.00  0.00     0.124 S 
ATOM     99  O   UNL A   1      47.823  20.230  35.771  1.00  0.00    -0.237 OA
ATOM    100  O   UNL A   1      45.842  20.246  37.245  1.00  0.00    -0.237 OA
ATOM    101  O   UNL A   1      45.778  19.003  35.119  1.00  0.00    -0.744 OA
ENDBRANCH  97  98
ENDBRANCH  65  90
ENDBRANCH  39  40
ENDBRANCH  31  34
ENDBRANCH  29  30
ENDBRANCH   1  29
TORSDOF 17
ENDMDL
MODEL 3
REMARK VINA RESULT:     -14.1      4.799     11.228
REMARK SMILES Cc1ccc(-c2cc([C@@H](C)C(=O)NCCCNC(=O)c3ccc(-c4c5nc(c(-c6c(F)cc(S(=O)(=O)[O-])cc6F)c6ccc([nH]6)c(-c6c(F)cc(S(=O)(=O)[O-])cc6F)c6nc(c(-c7c(F)cc(S(=O)(=O)[O-])cc7F)c7ccc4[nH]7)C=C6)C=C5)cc3)ccc2C[C@H]2CCCC2=O)cc1
REMARK SMILES IDX 15 1 14 2 13 3 11 4 12 5 9 7 10 8 8 9 6 10 7 11 88 12 87 13
REMARK SMILES IDX 86 14 5 15 1 16 2 17 3 18 97 19 4 20 96 21 89 22 90 23 91 24
REMARK SMILES IDX 94 25 92 26 93 27 95 28 16 29 17 30 18 31 19 33 20 34 21 35
REMARK SMILES IDX 85 36 22 37 84 38 23 39 24 40 25 41 78 42 26 43 83 44 77 45
REMARK SMILES IDX 79 46 27 47 82 48 76 49 75 50 28 52 62 53 41 54 61 55 42 56
REMARK SMILES IDX 45 57 60 58 80 59 43 60 44 61 59 63 81 64 46 65 29 66 30 67
REMARK SMILES IDX 39 68 31 69 32 70 38 71 40 72 33 73 34 74 35 75 36 76 37 77
REMARK SMILES IDX 63 78 64 79 73 80 65 81 66 82 72 83 74 84 67 85 68 86 69 87
REMARK SMILES IDX 70 88 71 89 47 90 48 91 57 92 49 93 50 94 56 95 58 96 51 97
REMARK SMILES IDX 52 98 53 99 54 100 55 101
REMARK H PARENT 13 6 17 32 79 51 45 62
REMARK Flexibility Score: inf
ROOT
ATOM      1  C   UNL A   1      37.727  22.070  25.193  1.00  0.00     0.042 C 
ENDROOT
BRANCH   1   2
ATOM      2  C   UNL A   1      36.624  22.449  24.208  1.00  0.00     0.117 C 
BRANCH   2   3
ATOM      3  N   UNL A   1      35.452  21.592  24.305  1.00  0.00    -0.356 N 
ATOM      4  C   UNL A   1      34.384  21.575  25.148  1.00  0.00     0.227 C 
ATOM      5  O   UNL A   1      33.552  20.675  24.964  1.00  0.00    -0.274 OA
ATOM      6  H   UNL A   1      35.427  20.881  23.624  1.00  0.00     0.163 HD
BRANCH   4   7
ATOM      7  C   UNL A   1      34.154  22.578  26.295  1.00  0.00     0.105 C 
ATOM      8  C   UNL A   1      33.964  21.960  27.678  1.00  0.00     0.023 C 
BRANCH   7   9
ATOM      9  C   UNL A   1      33.175  23.689  25.938  1.00  0.00    -0.035 A 
ATOM     10  C   UNL A   1      32.670  26.094  25.749  1.00  0.00    -0.015 A 
ATOM     11  C   UNL A   1      33.520  25.036  26.140  1.00  0.00     0.013 A 
ATOM     12  C   UNL A   1      31.513  25.786  24.998  1.00  0.00    -0.039 A 
ATOM     13  C   UNL A   1      31.127  24.445  24.880  1.00  0.00     0.004 A 
ATOM     14  C   UNL A   1      31.920  23.421  25.396  1.00  0.00     0.005 A 
BRANCH  10  15
ATOM     15  C   UNL A   1      32.938  27.454  26.251  1.00  0.00    -0.018 A 
ATOM     16  C   UNL A   1      33.520  31.472  27.755  1.00  0.00     0.044 C 
ATOM     17  C   UNL A   1      33.335  30.071  27.253  1.00  0.00    -0.051 A 
ATOM     18  C   UNL A   1      32.053  29.521  27.213  1.00  0.00     0.004 A 
ATOM     19  C   UNL A   1      34.418  29.305  26.803  1.00  0.00     0.004 A 
ATOM     20  C   UNL A   1      31.862  28.226  26.733  1.00  0.00     0.009 A 
ATOM     21  C   UNL A   1      34.221  28.007  26.310  1.00  0.00     0.009 A 
ENDBRANCH  10  15
BRANCH  12  22
ATOM     22  C   UNL A   1      30.674  26.838  24.296  1.00  0.00     0.047 C 
BRANCH  22  23
ATOM     23  C   UNL A   1      31.199  27.348  22.945  1.00  0.00     0.060 C 
ATOM     24  C   UNL A   1      32.018  28.643  22.951  1.00  0.00     0.012 C 
ATOM     25  C   UNL A   1      32.142  26.376  22.276  1.00  0.00     0.136 C 
ATOM     26  C   UNL A   1      33.480  28.222  22.876  1.00  0.00     0.009 C 
ATOM     27  C   UNL A   1      33.492  26.980  21.998  1.00  0.00     0.076 C 
ATOM     28  O   UNL A   1      31.822  25.238  21.956  1.00  0.00    -0.299 OA
ENDBRANCH  22  23
ENDBRANCH  12  22
ENDBRANCH   7   9
ENDBRANCH   4   7
ENDBRANCH   2   3
ENDBRANCH   1   2
BRANCH   1  29
ATOM     29  C   UNL A   1      38.093  23.163  26.188  1.00  0.00     0.118 C 
BRANCH  29  30
ATOM     30  N   UNL A   1      39.445  22.953  26.715  1.00  0.00    -0.352 N 
ATOM     31  C   UNL A   1      40.280  23.849  27.355  1.00  0.00     0.251 C 
ATOM     32  H   UNL A   1      39.809  22.046  26.595  1.00  0.00     0.163 HD
ATOM     33  O   UNL A   1      41.392  23.550  27.747  1.00  0.00    -0.269 OA
BRANCH  31  34
ATOM     34  C   UNL A   1      39.728  25.193  27.585  1.00  0.00     0.039 A 
ATOM     35  C   UNL A   1      40.252  26.249  26.835  1.00  0.00     0.014 A 
ATOM     36  C   UNL A   1      38.988  25.409  28.743  1.00  0.00     0.014 A 
ATOM     37  C   UNL A   1      40.195  27.537  27.357  1.00  0.00     0.010 A 
ATOM     38  C   UNL A   1      39.005  26.674  29.296  1.00  0.00     0.010 A 
ATOM     39  C   UNL A   1      39.659  27.726  28.634  1.00  0.00    -0.014 A 
BRANCH  39  40
ATOM     40  C   UNL A   1      39.840  28.957  29.398  1.00  0.00     0.031 A 
ATOM     41  C   UNL A   1      38.799  30.022  29.350  1.00  0.00     0.074 A 
ATOM     42  C   UNL A   1      40.918  29.127  30.203  1.00  0.00     0.049 A 
ATOM     43  N   UNL A   1      39.041  31.276  29.555  1.00  0.00    -0.248 NA
ATOM     44  C   UNL A   1      37.394  29.758  29.039  1.00  0.00     0.031 C 
ATOM     45  C   UNL A   1      41.066  30.175  31.213  1.00  0.00     0.029 A 
ATOM     46  N   UNL A   1      42.177  28.513  30.198  1.00  0.00    -0.354 N 
ATOM     47  C   UNL A   1      37.831  31.916  29.695  1.00  0.00     0.074 A 
ATOM     48  C   UNL A   1      36.837  30.945  29.300  1.00  0.00     0.031 C 
ATOM     49  C   UNL A   1      42.371  30.340  31.477  1.00  0.00     0.029 A 
ATOM     50  C   UNL A   1      43.103  29.516  30.533  1.00  0.00     0.049 A 
ATOM     51  H   UNL A   1      42.373  27.569  30.000  1.00  0.00     0.167 HD
ATOM     52  C   UNL A   1      37.765  33.151  30.269  1.00  0.00     0.037 A 
ATOM     53  C   UNL A   1      44.131  29.965  29.751  1.00  0.00     0.037 A 
ATOM     54  C   UNL A   1      39.079  33.642  30.661  1.00  0.00     0.049 A 
ATOM     55  C   UNL A   1      44.132  31.466  29.533  1.00  0.00     0.074 A 
ATOM     56  C   UNL A   1      39.761  33.612  31.867  1.00  0.00     0.029 A 
ATOM     57  N   UNL A   1      40.010  33.997  29.692  1.00  0.00    -0.354 N 
ATOM     58  N   UNL A   1      43.108  32.232  29.787  1.00  0.00    -0.248 NA
ATOM     59  C   UNL A   1      45.250  32.219  28.962  1.00  0.00     0.031 C 
ATOM     60  C   UNL A   1      41.117  33.923  31.618  1.00  0.00     0.029 A 
ATOM     61  C   UNL A   1      41.261  34.143  30.260  1.00  0.00     0.049 A 
ATOM     62  H   UNL A   1      39.805  34.127  28.738  1.00  0.00     0.167 HD
ATOM     63  C   UNL A   1      43.372  33.515  29.381  1.00  0.00     0.074 A 
ATOM     64  C   UNL A   1      44.740  33.463  28.906  1.00  0.00     0.031 C 
ATOM     65  C   UNL A   1      42.420  34.493  29.451  1.00  0.00     0.037 A 
BRANCH  52  66
ATOM     66  C   UNL A   1      36.461  33.746  30.742  1.00  0.00     0.058 A 
ATOM     67  C   UNL A   1      35.488  34.198  29.826  1.00  0.00     0.135 A 
ATOM     68  C   UNL A   1      36.145  33.944  32.100  1.00  0.00     0.135 A 
ATOM     69  F   UNL A   1      35.623  34.016  28.507  1.00  0.00    -0.206 F 
ATOM     70  C   UNL A   1      34.344  34.889  30.220  1.00  0.00     0.059 A 
ATOM     71  C   UNL A   1      35.029  34.675  32.518  1.00  0.00     0.059 A 
ATOM     72  F   UNL A   1      36.921  33.428  33.067  1.00  0.00    -0.206 F 
ATOM     73  C   UNL A   1      34.138  35.156  31.566  1.00  0.00     0.060 A 
BRANCH  73  74
ATOM     74  S   UNL A   1      32.722  36.171  32.032  1.00  0.00     0.124 S 
ATOM     75  O   UNL A   1      32.414  36.867  30.787  1.00  0.00    -0.237 OA
ATOM     76  O   UNL A   1      31.754  35.164  32.453  1.00  0.00    -0.237 OA
ATOM     77  O   UNL A   1      33.251  37.020  33.097  1.00  0.00    -0.744 OA
ENDBRANCH  73  74
ENDBRANCH  52  66
BRANCH  53  78
ATOM     78  C   UNL A   1      44.648  28.979  28.773  1.00  0.00     0.058 A 
ATOM     79  C   UNL A   1      44.137  29.020  27.465  1.00  0.00     0.135 A 
ATOM     80  C   UNL A   1      45.873  28.332  28.981  1.00  0.00     0.135 A 
ATOM     81  F   UNL A   1      42.950  29.597  27.222  1.00  0.00    -0.206 F 
ATOM     82  C   UNL A   1      44.895  28.599  26.380  1.00  0.00     0.059 A 
ATOM     83  C   UNL A   1      46.651  27.902  27.908  1.00  0.00     0.059 A 
ATOM     84  F   UNL A   1      46.395  28.254  30.214  1.00  0.00    -0.206 F 
ATOM     85  C   UNL A   1      46.180  28.109  26.611  1.00  0.00     0.060 A 
BRANCH  85  86
ATOM     86  S   UNL A   1      47.286  27.973  25.187  1.00  0.00     0.124 S 
ATOM     87  O   UNL A   1      48.500  28.609  25.685  1.00  0.00    -0.237 OA
ATOM     88  O   UNL A   1      47.352  26.523  25.014  1.00  0.00    -0.237 OA
ATOM     89  O   UNL A   1      46.570  28.696  24.142  1.00  0.00    -0.744 OA
ENDBRANCH  85  86
ENDBRANCH  53  78
BRANCH  65  90
ATOM     90  C   UNL A   1      42.504  35.885  28.862  1.00  0.00     0.058 A 
ATOM     91  C   UNL A   1      41.823  36.295  27.705  1.00  0.00     0.135 A 
ATOM     92  C   UNL A   1      43.195  36.911  29.556  1.00  0.00     0.135 A 
ATOM     93  F   UNL A   1      41.041  35.450  27.019  1.00  0.00    -0.206 F 
ATOM     94  C   UNL A   1      41.876  37.610  27.230  1.00  0.00     0.059 A 
ATOM     95  C   UNL A   1      43.217  38.238  29.130  1.00  0.00     0.059 A 
ATOM     96  F   UNL A   1      43.871  36.659  30.688  1.00  0.00    -0.206 F 
ATOM     97  C   UNL A   1      42.575  38.574  27.949  1.00  0.00     0.060 A 
BRANCH  97  98
ATOM     98  S   UNL A   1      42.601  40.285  27.381  1.00  0.00     0.124 S 
ATOM     99  O   UNL A   1      43.510  40.200  26.242  1.00  0.00    -0.237 OA
ATOM    100  O   UNL A   1      41.203  40.542  27.051  1.00  0.00    -0.237 OA
ATOM    101  O   UNL A   1      43.106  41.011  28.542  1.00  0.00    -0.744 OA
ENDBRANCH  97  98
ENDBRANCH  65  90
ENDBRANCH  39  40
ENDBRANCH  31  34
ENDBRANCH  29  30
ENDBRANCH   1  29
TORSDOF 17
ENDMDL
