MODEL 1
REMARK VINA RESULT:     -13.0      0.000      0.000
REMARK SMILES O=C(COc1nc(Nc2ccc(Cl)cc2Cl)nc2c1C[N@H+](Cc1ccccc1)CC2)NCCCNC(=O)c1ccc(-c2c3nc(c(-c4c(F)cc(S(=O)(=O)[O-])cc4F)c4ccc([nH]4)c(-c4c(F)cc(S(=O)(=O)[O-])cc4F)c4nc(c(-c5c(F)cc(S(=O)(=O)[O-])cc5F)c5ccc2[nH]5)C=C4)C=C3)cc1
REMARK SMILES IDX 32 1 31 2 1 3 2 4 3 6 4 7 5 8 6 9 19 10 7 11 18 12 20 13
REMARK SMILES IDX 17 14 30 15 21 16 29 17 8 19 9 21 10 22 15 23 11 24 14 25
REMARK SMILES IDX 16 26 12 27 13 28 22 29 23 30 24 31 28 32 25 33 27 34 26 35
REMARK SMILES IDX 33 36 34 37 35 38 36 39 37 41 38 42 39 43 103 44 40 45
REMARK SMILES IDX 102 46 41 47 42 48 43 49 96 50 44 51 101 52 95 53 97 54
REMARK SMILES IDX 45 55 100 56 94 57 93 58 46 60 80 61 59 62 79 63 60 64 63 65
REMARK SMILES IDX 78 66 98 67 61 68 62 69 77 71 99 72 64 73 47 74 48 75 57 76
REMARK SMILES IDX 49 77 50 78 56 79 58 80 51 81 52 82 53 83 54 84 55 85 81 86
REMARK SMILES IDX 82 87 91 88 83 89 84 90 90 91 92 92 85 93 86 94 87 95 88 96
REMARK SMILES IDX 89 97 65 98 66 99 75 100 67 101 68 102 74 103 76 104 69 105
REMARK SMILES IDX 70 106 71 107 72 108 73 109
REMARK H PARENT 31 5 21 18 8 20 35 40 97 59 63 70
REMARK Flexibility Score: inf
ROOT
ATOM      1  C   UNL A   1      33.853  31.366  27.504  1.00  0.00     0.117 C 
ENDROOT
BRANCH   1   2
ATOM      2  N   UNL A   1      33.340  30.079  27.910  1.00  0.00    -0.353 N 
ATOM      3  O   UNL A   1      31.621  29.994  26.381  1.00  0.00    -0.271 OA
ATOM      4  C   UNL A   1      32.300  29.458  27.254  1.00  0.00     0.258 C 
ATOM      5  H   UNL A   1      33.749  29.628  28.683  1.00  0.00     0.163 HD
BRANCH   4   6
ATOM      6  C   UNL A   1      31.991  28.050  27.769  1.00  0.00     0.331 C 
BRANCH   6   7
ATOM      7  O   UNL A   1      31.339  27.170  26.856  1.00  0.00    -0.467 OA
BRANCH   7   8
ATOM      8  C   UNL A   1      32.216  26.748  25.880  1.00  0.00     0.228 A 
ATOM      9  N   UNL A   1      33.310  26.093  26.285  1.00  0.00    -0.177 NA
ATOM     10  C   UNL A   1      31.868  26.931  24.564  1.00  0.00     0.090 A 
ATOM     11  C   UNL A   1      34.120  25.619  25.329  1.00  0.00     0.230 A 
ATOM     12  C   UNL A   1      32.757  26.411  23.649  1.00  0.00     0.064 A 
ATOM     13  C   UNL A   1      30.567  27.545  24.161  1.00  0.00     0.307 C 
ATOM     14  N   UNL A   1      33.897  25.781  24.014  1.00  0.00    -0.217 NA
ATOM     15  C   UNL A   1      32.490  26.575  22.176  1.00  0.00     0.118 C 
ATOM     16  N   UNL A   1      30.510  27.932  22.745  1.00  0.00    -0.327 N 
ATOM     17  C   UNL A   1      31.007  26.853  21.883  1.00  0.00     0.269 C 
ATOM     18  H   UNL A   1      31.142  28.721  22.607  1.00  0.00     0.348 HD
BRANCH  11  19
ATOM     19  N   UNL A   1      35.291  24.959  25.684  1.00  0.00    -0.323 N 
ATOM     20  H   UNL A   1      35.973  25.503  26.140  1.00  0.00     0.170 HD
BRANCH  19  21
ATOM     21  C   UNL A   1      35.617  23.616  25.470  1.00  0.00     0.060 A 
ATOM     22  C   UNL A   1      36.617  23.312  24.534  1.00  0.00     0.029 A 
ATOM     23  C   UNL A   1      34.993  22.551  26.149  1.00  0.00     0.066 A 
ATOM     24  C   UNL A   1      37.026  21.993  24.324  1.00  0.00     0.023 A 
ATOM     25  C   UNL A   1      35.381  21.227  25.918  1.00  0.00     0.043 A 
ATOM     26  Cl  UNL A   1      33.703  22.820  27.272  1.00  0.00    -0.082 Cl
ATOM     27  C   UNL A   1      36.411  20.958  25.022  1.00  0.00     0.042 A 
ATOM     28  Cl  UNL A   1      36.939  19.338  24.790  1.00  0.00    -0.084 Cl
ENDBRANCH  19  21
ENDBRANCH  11  19
BRANCH  16  29
ATOM     29  C   UNL A   1      29.183  28.443  22.356  1.00  0.00     0.299 C 
BRANCH  29  30
ATOM     30  C   UNL A   1      28.948  29.931  22.525  1.00  0.00     0.006 A 
ATOM     31  C   UNL A   1      29.382  30.592  23.684  1.00  0.00     0.009 A 
ATOM     32  C   UNL A   1      28.312  30.682  21.524  1.00  0.00     0.009 A 
ATOM     33  C   UNL A   1      29.213  31.971  23.822  1.00  0.00     0.001 A 
ATOM     34  C   UNL A   1      28.165  32.064  21.651  1.00  0.00     0.001 A 
ATOM     35  C   UNL A   1      28.618  32.709  22.800  1.00  0.00     0.000 A 
ENDBRANCH  29  30
ENDBRANCH  16  29
ENDBRANCH   7   8
ENDBRANCH   6   7
ENDBRANCH   4   6
ENDBRANCH   1   2
BRANCH   1  36
ATOM     36  C   UNL A   1      35.360  31.492  27.646  1.00  0.00     0.042 C 
BRANCH  36  37
ATOM     37  C   UNL A   1      35.800  32.172  28.938  1.00  0.00     0.118 C 
BRANCH  37  38
ATOM     38  N   UNL A   1      35.637  31.331  30.121  1.00  0.00    -0.352 N 
ATOM     39  C   UNL A   1      36.476  30.392  30.672  1.00  0.00     0.251 C 
ATOM     40  H   UNL A   1      34.788  31.458  30.602  1.00  0.00     0.163 HD
ATOM     41  O   UNL A   1      36.076  29.694  31.602  1.00  0.00    -0.269 OA
BRANCH  39  42
ATOM     42  C   UNL A   1      37.838  30.194  30.133  1.00  0.00     0.039 A 
ATOM     43  C   UNL A   1      38.933  30.386  30.980  1.00  0.00     0.014 A 
ATOM     44  C   UNL A   1      38.041  29.816  28.804  1.00  0.00     0.014 A 
ATOM     45  C   UNL A   1      40.221  30.103  30.522  1.00  0.00     0.010 A 
ATOM     46  C   UNL A   1      39.315  29.455  28.373  1.00  0.00     0.010 A 
ATOM     47  C   UNL A   1      40.417  29.586  29.230  1.00  0.00    -0.014 A 
BRANCH  47  48
ATOM     48  C   UNL A   1      41.762  29.158  28.768  1.00  0.00     0.031 A 
ATOM     49  C   UNL A   1      42.891  30.149  28.693  1.00  0.00     0.074 A 
ATOM     50  C   UNL A   1      41.950  27.888  28.355  1.00  0.00     0.049 A 
ATOM     51  N   UNL A   1      44.113  29.976  28.259  1.00  0.00    -0.248 NA
ATOM     52  C   UNL A   1      42.603  31.521  29.143  1.00  0.00     0.031 C 
ATOM     53  C   UNL A   1      40.920  26.845  28.330  1.00  0.00     0.029 A 
ATOM     54  N   UNL A   1      43.070  27.256  27.875  1.00  0.00    -0.354 N 
ATOM     55  C   UNL A   1      44.734  31.213  28.374  1.00  0.00     0.074 A 
ATOM     56  C   UNL A   1      43.740  32.142  28.867  1.00  0.00     0.031 C 
ATOM     57  C   UNL A   1      41.466  25.698  27.897  1.00  0.00     0.029 A 
ATOM     58  C   UNL A   1      42.872  25.928  27.579  1.00  0.00     0.049 A 
ATOM     59  H   UNL A   1      43.935  27.711  27.755  1.00  0.00     0.167 HD
ATOM     60  C   UNL A   1      46.024  31.539  28.119  1.00  0.00     0.037 A 
ATOM     61  C   UNL A   1      43.727  25.000  27.107  1.00  0.00     0.037 A 
ATOM     62  C   UNL A   1      47.018  30.606  27.662  1.00  0.00     0.049 A 
ATOM     63  C   UNL A   1      45.152  25.385  26.830  1.00  0.00     0.074 A 
ATOM     64  C   UNL A   1      48.363  30.829  27.426  1.00  0.00     0.029 A 
ATOM     65  N   UNL A   1      46.777  29.270  27.378  1.00  0.00    -0.354 N 
ATOM     66  N   UNL A   1      45.734  26.550  26.989  1.00  0.00    -0.248 NA
ATOM     67  C   UNL A   1      46.039  24.336  26.309  1.00  0.00     0.031 C 
ATOM     68  C   UNL A   1      48.931  29.634  26.972  1.00  0.00     0.029 A 
ATOM     69  C   UNL A   1      47.946  28.659  26.955  1.00  0.00     0.049 A 
ATOM     70  H   UNL A   1      45.904  28.822  27.462  1.00  0.00     0.167 HD
ATOM     71  C   UNL A   1      47.057  26.369  26.604  1.00  0.00     0.074 A 
ATOM     72  C   UNL A   1      47.194  24.982  26.213  1.00  0.00     0.031 C 
ATOM     73  C   UNL A   1      48.066  27.274  26.576  1.00  0.00     0.037 A 
BRANCH  60  74
ATOM     74  C   UNL A   1      46.437  32.964  28.355  1.00  0.00     0.058 A 
ATOM     75  C   UNL A   1      46.937  33.381  29.599  1.00  0.00     0.135 A 
ATOM     76  C   UNL A   1      46.366  33.913  27.323  1.00  0.00     0.135 A 
ATOM     77  F   UNL A   1      47.011  32.515  30.622  1.00  0.00    -0.206 F 
ATOM     78  C   UNL A   1      47.328  34.696  29.820  1.00  0.00     0.059 A 
ATOM     79  C   UNL A   1      46.774  35.231  27.516  1.00  0.00     0.059 A 
ATOM     80  F   UNL A   1      45.894  33.567  26.116  1.00  0.00    -0.206 F 
ATOM     81  C   UNL A   1      47.241  35.615  28.772  1.00  0.00     0.060 A 
BRANCH  81  82
ATOM     82  S   UNL A   1      47.754  37.319  29.079  1.00  0.00     0.124 S 
ATOM     83  O   UNL A   1      47.436  37.467  30.496  1.00  0.00    -0.237 OA
ATOM     84  O   UNL A   1      49.174  37.283  28.748  1.00  0.00    -0.237 OA
ATOM     85  O   UNL A   1      46.920  38.094  28.166  1.00  0.00    -0.744 OA
ENDBRANCH  81  82
ENDBRANCH  60  74
BRANCH  61  86
ATOM     86  C   UNL A   1      43.262  23.602  26.908  1.00  0.00     0.058 A 
ATOM     87  C   UNL A   1      42.987  23.118  25.621  1.00  0.00     0.135 A 
ATOM     88  C   UNL A   1      43.114  22.716  27.987  1.00  0.00     0.135 A 
ATOM     89  F   UNL A   1      43.109  23.931  24.559  1.00  0.00    -0.206 F 
ATOM     90  C   UNL A   1      42.577  21.807  25.407  1.00  0.00     0.059 A 
ATOM     91  C   UNL A   1      42.723  21.394  27.797  1.00  0.00     0.059 A 
ATOM     92  F   UNL A   1      43.380  23.129  29.236  1.00  0.00    -0.206 F 
ATOM     93  C   UNL A   1      42.450  20.951  26.502  1.00  0.00     0.060 A 
BRANCH  93  94
ATOM     94  S   UNL A   1      41.972  19.234  26.206  1.00  0.00     0.124 S 
ATOM     95  O   UNL A   1      42.835  18.879  25.085  1.00  0.00    -0.237 OA
ATOM     96  O   UNL A   1      42.293  18.602  27.482  1.00  0.00    -0.237 OA
ATOM     97  O   UNL A   1      40.548  19.329  25.903  1.00  0.00    -0.744 OA
ENDBRANCH  93  94
ENDBRANCH  61  86
BRANCH  73  98
ATOM     98  C   UNL A   1      49.414  26.800  26.118  1.00  0.00     0.058 A 
ATOM     99  C   UNL A   1      49.855  27.015  24.804  1.00  0.00     0.135 A 
ATOM    100  C   UNL A   1      50.310  26.215  27.027  1.00  0.00     0.135 A 
ATOM    101  F   UNL A   1      49.031  27.564  23.897  1.00  0.00    -0.206 F 
ATOM    102  C   UNL A   1      51.140  26.668  24.405  1.00  0.00     0.059 A 
ATOM    103  C   UNL A   1      51.608  25.877  26.656  1.00  0.00     0.059 A 
ATOM    104  F   UNL A   1      49.936  25.995  28.297  1.00  0.00    -0.206 F 
ATOM    105  C   UNL A   1      52.013  26.107  25.341  1.00  0.00     0.060 A 
BRANCH 105 106
ATOM    106  S   UNL A   1      53.703  25.733  24.829  1.00  0.00     0.124 S 
ATOM    107  O   UNL A   1      54.472  26.665  25.646  1.00  0.00    -0.237 OA
ATOM    108  O   UNL A   1      53.833  24.323  25.183  1.00  0.00    -0.237 OA
ATOM    109  O   UNL A   1      53.694  26.014  23.395  1.00  0.00    -0.744 OA
ENDBRANCH 105 106
ENDBRANCH  73  98
ENDBRANCH  47  48
ENDBRANCH  39  42
ENDBRANCH  37  38
ENDBRANCH  36  37
ENDBRANCH   1  36
TORSDOF 19
ENDMDL
MODEL 2
REMARK VINA RESULT:     -12.8      1.727      4.723
REMARK SMILES O=C(COc1nc(Nc2ccc(Cl)cc2Cl)nc2c1C[N@H+](Cc1ccccc1)CC2)NCCCNC(=O)c1ccc(-c2c3nc(c(-c4c(F)cc(S(=O)(=O)[O-])cc4F)c4ccc([nH]4)c(-c4c(F)cc(S(=O)(=O)[O-])cc4F)c4nc(c(-c5c(F)cc(S(=O)(=O)[O-])cc5F)c5ccc2[nH]5)C=C4)C=C3)cc1
REMARK SMILES IDX 32 1 31 2 1 3 2 4 3 6 4 7 5 8 6 9 19 10 7 11 18 12 20 13
REMARK SMILES IDX 17 14 30 15 21 16 29 17 8 19 9 21 10 22 15 23 11 24 14 25
REMARK SMILES IDX 16 26 12 27 13 28 22 29 23 30 24 31 28 32 25 33 27 34 26 35
REMARK SMILES IDX 33 36 34 37 35 38 36 39 37 41 38 42 39 43 103 44 40 45
REMARK SMILES IDX 102 46 41 47 42 48 43 49 96 50 44 51 101 52 95 53 97 54
REMARK SMILES IDX 45 55 100 56 94 57 93 58 46 60 80 61 59 62 79 63 60 64 63 65
REMARK SMILES IDX 78 66 98 67 61 68 62 69 77 71 99 72 64 73 47 74 48 75 57 76
REMARK SMILES IDX 49 77 50 78 56 79 58 80 51 81 52 82 53 83 54 84 55 85 81 86
REMARK SMILES IDX 82 87 91 88 83 89 84 90 90 91 92 92 85 93 86 94 87 95 88 96
REMARK SMILES IDX 89 97 65 98 66 99 75 100 67 101 68 102 74 103 76 104 69 105
REMARK SMILES IDX 70 106 71 107 72 108 73 109
REMARK H PARENT 31 5 21 18 8 20 35 40 97 59 63 70
REMARK Flexibility Score: inf
ROOT
ATOM      1  C   UNL A   1      33.806  31.165  27.796  1.00  0.00     0.117 C 
ENDROOT
BRANCH   1   2
ATOM      2  N   UNL A   1      33.672  29.735  27.644  1.00  0.00    -0.353 N 
ATOM      3  O   UNL A   1      31.877  29.797  26.204  1.00  0.00    -0.271 OA
ATOM      4  C   UNL A   1      32.755  29.166  26.789  1.00  0.00     0.258 C 
ATOM      5  H   UNL A   1      34.259  29.145  28.170  1.00  0.00     0.163 HD
BRANCH   4   6
ATOM      6  C   UNL A   1      32.859  27.642  26.688  1.00  0.00     0.331 C 
BRANCH   6   7
ATOM      7  O   UNL A   1      31.740  26.897  27.163  1.00  0.00    -0.467 OA
BRANCH   7   8
ATOM      8  C   UNL A   1      31.138  26.215  26.128  1.00  0.00     0.228 A 
ATOM      9  N   UNL A   1      30.234  26.883  25.402  1.00  0.00    -0.177 NA
ATOM     10  C   UNL A   1      31.569  24.942  25.844  1.00  0.00     0.090 A 
ATOM     11  C   UNL A   1      29.707  26.240  24.351  1.00  0.00     0.230 A 
ATOM     12  C   UNL A   1      30.976  24.357  24.746  1.00  0.00     0.064 A 
ATOM     13  C   UNL A   1      32.682  24.289  26.598  1.00  0.00     0.307 C 
ATOM     14  N   UNL A   1      30.027  24.979  24.011  1.00  0.00    -0.217 NA
ATOM     15  C   UNL A   1      31.354  22.953  24.356  1.00  0.00     0.118 C 
ATOM     16  N   UNL A   1      32.790  22.844  26.358  1.00  0.00    -0.327 N 
ATOM     17  C   UNL A   1      32.722  22.542  24.924  1.00  0.00     0.269 C 
ATOM     18  H   UNL A   1      31.981  22.391  26.784  1.00  0.00     0.348 HD
BRANCH  11  19
ATOM     19  N   UNL A   1      28.738  26.866  23.576  1.00  0.00    -0.323 N 
ATOM     20  H   UNL A   1      27.956  26.318  23.335  1.00  0.00     0.170 HD
BRANCH  19  21
ATOM     21  C   UNL A   1      28.738  28.180  23.099  1.00  0.00     0.060 A 
ATOM     22  C   UNL A   1      27.576  28.949  23.259  1.00  0.00     0.029 A 
ATOM     23  C   UNL A   1      29.848  28.773  22.466  1.00  0.00     0.066 A 
ATOM     24  C   UNL A   1      27.540  30.287  22.857  1.00  0.00     0.023 A 
ATOM     25  C   UNL A   1      29.804  30.103  22.035  1.00  0.00     0.043 A 
ATOM     26  Cl  UNL A   1      31.303  27.884  22.161  1.00  0.00    -0.082 Cl
ATOM     27  C   UNL A   1      28.656  30.859  22.254  1.00  0.00     0.042 A 
ATOM     28  Cl  UNL A   1      28.624  32.515  21.791  1.00  0.00    -0.084 Cl
ENDBRANCH  19  21
ENDBRANCH  11  19
BRANCH  16  29
ATOM     29  C   UNL A   1      33.954  22.249  27.039  1.00  0.00     0.299 C 
BRANCH  29  30
ATOM     30  C   UNL A   1      35.258  22.226  26.266  1.00  0.00     0.006 A 
ATOM     31  C   UNL A   1      35.692  21.048  25.641  1.00  0.00     0.009 A 
ATOM     32  C   UNL A   1      36.049  23.380  26.144  1.00  0.00     0.009 A 
ATOM     33  C   UNL A   1      36.867  21.034  24.887  1.00  0.00     0.001 A 
ATOM     34  C   UNL A   1      37.210  23.372  25.370  1.00  0.00     0.001 A 
ATOM     35  C   UNL A   1      37.618  22.200  24.739  1.00  0.00     0.000 A 
ENDBRANCH  29  30
ENDBRANCH  16  29
ENDBRANCH   7   8
ENDBRANCH   6   7
ENDBRANCH   4   6
ENDBRANCH   1   2
BRANCH   1  36
ATOM     36  C   UNL A   1      35.229  31.664  27.617  1.00  0.00     0.042 C 
BRANCH  36  37
ATOM     37  C   UNL A   1      35.882  32.135  28.912  1.00  0.00     0.118 C 
BRANCH  37  38
ATOM     38  N   UNL A   1      35.663  31.230  30.036  1.00  0.00    -0.352 N 
ATOM     39  C   UNL A   1      36.471  30.253  30.567  1.00  0.00     0.251 C 
ATOM     40  H   UNL A   1      34.794  31.336  30.487  1.00  0.00     0.163 HD
ATOM     41  O   UNL A   1      36.028  29.506  31.437  1.00  0.00    -0.269 OA
BRANCH  39  42
ATOM     42  C   UNL A   1      37.855  30.075  30.077  1.00  0.00     0.039 A 
ATOM     43  C   UNL A   1      38.898  30.029  31.005  1.00  0.00     0.014 A 
ATOM     44  C   UNL A   1      38.127  29.948  28.713  1.00  0.00     0.014 A 
ATOM     45  C   UNL A   1      40.198  29.758  30.573  1.00  0.00     0.010 A 
ATOM     46  C   UNL A   1      39.406  29.596  28.292  1.00  0.00     0.010 A 
ATOM     47  C   UNL A   1      40.453  29.488  29.218  1.00  0.00    -0.014 A 
BRANCH  47  48
ATOM     48  C   UNL A   1      41.802  29.071  28.757  1.00  0.00     0.031 A 
ATOM     49  C   UNL A   1      42.922  30.072  28.679  1.00  0.00     0.074 A 
ATOM     50  C   UNL A   1      42.002  27.802  28.349  1.00  0.00     0.049 A 
ATOM     51  N   UNL A   1      44.145  29.910  28.245  1.00  0.00    -0.248 NA
ATOM     52  C   UNL A   1      42.621  31.443  29.124  1.00  0.00     0.031 C 
ATOM     53  C   UNL A   1      40.983  26.749  28.327  1.00  0.00     0.029 A 
ATOM     54  N   UNL A   1      43.128  27.178  27.870  1.00  0.00    -0.354 N 
ATOM     55  C   UNL A   1      44.755  31.153  28.355  1.00  0.00     0.074 A 
ATOM     56  C   UNL A   1      43.752  32.074  28.845  1.00  0.00     0.031 C 
ATOM     57  C   UNL A   1      41.539  25.605  27.898  1.00  0.00     0.029 A 
ATOM     58  C   UNL A   1      42.942  25.847  27.578  1.00  0.00     0.049 A 
ATOM     59  H   UNL A   1      43.989  27.641  27.748  1.00  0.00     0.167 HD
ATOM     60  C   UNL A   1      46.041  31.490  28.099  1.00  0.00     0.037 A 
ATOM     61  C   UNL A   1      43.806  24.926  27.110  1.00  0.00     0.037 A 
ATOM     62  C   UNL A   1      47.044  30.565  27.645  1.00  0.00     0.049 A 
ATOM     63  C   UNL A   1      45.228  25.324  26.831  1.00  0.00     0.074 A 
ATOM     64  C   UNL A   1      48.387  30.800  27.408  1.00  0.00     0.029 A 
ATOM     65  N   UNL A   1      46.816  29.226  27.365  1.00  0.00    -0.354 N 
ATOM     66  N   UNL A   1      45.798  26.495  26.986  1.00  0.00    -0.248 NA
ATOM     67  C   UNL A   1      46.124  24.281  26.313  1.00  0.00     0.031 C 
ATOM     68  C   UNL A   1      48.966  29.609  26.958  1.00  0.00     0.029 A 
ATOM     69  C   UNL A   1      47.991  28.624  26.945  1.00  0.00     0.049 A 
ATOM     70  H   UNL A   1      45.947  28.770  27.451  1.00  0.00     0.167 HD
ATOM     71  C   UNL A   1      47.123  26.325  26.601  1.00  0.00     0.074 A 
ATOM     72  C   UNL A   1      47.273  24.938  26.214  1.00  0.00     0.031 C 
ATOM     73  C   UNL A   1      48.123  27.239  26.569  1.00  0.00     0.037 A 
BRANCH  60  74
ATOM     74  C   UNL A   1      46.441  32.920  28.330  1.00  0.00     0.058 A 
ATOM     75  C   UNL A   1      46.963  33.340  29.564  1.00  0.00     0.135 A 
ATOM     76  C   UNL A   1      46.335  33.871  27.303  1.00  0.00     0.135 A 
ATOM     77  F   UNL A   1      47.070  32.473  30.583  1.00  0.00    -0.206 F 
ATOM     78  C   UNL A   1      47.341  34.660  29.781  1.00  0.00     0.059 A 
ATOM     79  C   UNL A   1      46.730  35.193  27.491  1.00  0.00     0.059 A 
ATOM     80  F   UNL A   1      45.841  33.522  26.106  1.00  0.00    -0.206 F 
ATOM     81  C   UNL A   1      47.220  35.580  28.738  1.00  0.00     0.060 A 
BRANCH  81  82
ATOM     82  S   UNL A   1      47.717  37.289  29.038  1.00  0.00     0.124 S 
ATOM     83  O   UNL A   1      46.519  37.833  29.670  1.00  0.00    -0.237 OA
ATOM     84  O   UNL A   1      48.876  37.130  29.909  1.00  0.00    -0.237 OA
ATOM     85  O   UNL A   1      48.006  37.799  27.701  1.00  0.00    -0.744 OA
ENDBRANCH  81  82
ENDBRANCH  60  74
BRANCH  61  86
ATOM     86  C   UNL A   1      43.355  23.523  26.916  1.00  0.00     0.058 A 
ATOM     87  C   UNL A   1      43.056  23.041  25.633  1.00  0.00     0.135 A 
ATOM     88  C   UNL A   1      43.243  22.632  27.994  1.00  0.00     0.135 A 
ATOM     89  F   UNL A   1      43.142  23.859  24.572  1.00  0.00    -0.206 F 
ATOM     90  C   UNL A   1      42.657  21.726  25.423  1.00  0.00     0.059 A 
ATOM     91  C   UNL A   1      42.864  21.305  27.807  1.00  0.00     0.059 A 
ATOM     92  F   UNL A   1      43.532  23.042  29.238  1.00  0.00    -0.206 F 
ATOM     93  C   UNL A   1      42.567  20.863  26.517  1.00  0.00     0.060 A 
BRANCH  93  94
ATOM     94  S   UNL A   1      42.104  19.142  26.225  1.00  0.00     0.124 S 
ATOM     95  O   UNL A   1      40.691  19.272  25.887  1.00  0.00    -0.237 OA
ATOM     96  O   UNL A   1      42.990  18.769  25.127  1.00  0.00    -0.237 OA
ATOM     97  O   UNL A   1      42.392  18.495  27.501  1.00  0.00    -0.744 OA
ENDBRANCH  93  94
ENDBRANCH  61  86
BRANCH  73  98
ATOM     98  C   UNL A   1      49.476  26.777  26.113  1.00  0.00     0.058 A 
ATOM     99  C   UNL A   1      49.872  26.894  24.772  1.00  0.00     0.135 A 
ATOM    100  C   UNL A   1      50.418  26.305  27.040  1.00  0.00     0.135 A 
ATOM    101  F   UNL A   1      49.004  27.333  23.847  1.00  0.00    -0.206 F 
ATOM    102  C   UNL A   1      51.159  26.561  24.366  1.00  0.00     0.059 A 
ATOM    103  C   UNL A   1      51.717  25.983  26.660  1.00  0.00     0.059 A 
ATOM    104  F   UNL A   1      50.087  26.181  28.336  1.00  0.00    -0.206 F 
ATOM    105  C   UNL A   1      52.078  26.113  25.319  1.00  0.00     0.060 A 
BRANCH 105 106
ATOM    106  S   UNL A   1      53.766  25.758  24.789  1.00  0.00     0.124 S 
ATOM    107  O   UNL A   1      54.538  26.210  25.942  1.00  0.00    -0.237 OA
ATOM    108  O   UNL A   1      53.730  24.315  24.577  1.00  0.00    -0.237 OA
ATOM    109  O   UNL A   1      53.918  26.559  23.578  1.00  0.00    -0.744 OA
ENDBRANCH 105 106
ENDBRANCH  73  98
ENDBRANCH  47  48
ENDBRANCH  39  42
ENDBRANCH  37  38
ENDBRANCH  36  37
ENDBRANCH   1  36
TORSDOF 19
ENDMDL
MODEL 3
REMARK VINA RESULT:     -12.7      6.231     11.470
REMARK SMILES O=C(COc1nc(Nc2ccc(Cl)cc2Cl)nc2c1C[N@H+](Cc1ccccc1)CC2)NCCCNC(=O)c1ccc(-c2c3nc(c(-c4c(F)cc(S(=O)(=O)[O-])cc4F)c4ccc([nH]4)c(-c4c(F)cc(S(=O)(=O)[O-])cc4F)c4nc(c(-c5c(F)cc(S(=O)(=O)[O-])cc5F)c5ccc2[nH]5)C=C4)C=C3)cc1
REMARK SMILES IDX 32 1 31 2 1 3 2 4 3 6 4 7 5 8 6 9 19 10 7 11 18 12 20 13
REMARK SMILES IDX 17 14 30 15 21 16 29 17 8 19 9 21 10 22 15 23 11 24 14 25
REMARK SMILES IDX 16 26 12 27 13 28 22 29 23 30 24 31 28 32 25 33 27 34 26 35
REMARK SMILES IDX 33 36 34 37 35 38 36 39 37 41 38 42 39 43 103 44 40 45
REMARK SMILES IDX 102 46 41 47 42 48 43 49 96 50 44 51 101 52 95 53 97 54
REMARK SMILES IDX 45 55 100 56 94 57 93 58 46 60 80 61 59 62 79 63 60 64 63 65
REMARK SMILES IDX 78 66 98 67 61 68 62 69 77 71 99 72 64 73 47 74 48 75 57 76
REMARK SMILES IDX 49 77 50 78 56 79 58 80 51 81 52 82 53 83 54 84 55 85 81 86
REMARK SMILES IDX 82 87 91 88 83 89 84 90 90 91 92 92 85 93 86 94 87 95 88 96
REMARK SMILES IDX 89 97 65 98 66 99 75 100 67 101 68 102 74 103 76 104 69 105
REMARK SMILES IDX 70 106 71 107 72 108 73 109
REMARK H PARENT 31 5 21 18 8 20 35 40 97 59 63 70
REMARK Flexibility Score: inf
ROOT
ATOM      1  C   UNL A   1      39.749  21.825  26.130  1.00  0.00     0.117 C 
ENDROOT
BRANCH   1   2
ATOM      2  N   UNL A   1      38.310  21.946  26.119  1.00  0.00    -0.353 N 
ATOM      3  O   UNL A   1      38.246  24.247  26.096  1.00  0.00    -0.271 OA
ATOM      4  C   UNL A   1      37.672  23.163  26.024  1.00  0.00     0.258 C 
ATOM      5  H   UNL A   1      37.765  21.129  26.180  1.00  0.00     0.163 HD
BRANCH   4   6
ATOM      6  C   UNL A   1      36.149  23.060  25.907  1.00  0.00     0.331 C 
BRANCH   6   7
ATOM      7  O   UNL A   1      35.448  24.276  25.656  1.00  0.00    -0.467 OA
BRANCH   7   8
ATOM      8  C   UNL A   1      34.133  24.019  25.331  1.00  0.00     0.228 A 
ATOM      9  N   UNL A   1      33.688  22.774  25.531  1.00  0.00    -0.177 NA
ATOM     10  C   UNL A   1      33.344  25.067  24.924  1.00  0.00     0.090 A 
ATOM     11  C   UNL A   1      32.390  22.549  25.286  1.00  0.00     0.230 A 
ATOM     12  C   UNL A   1      32.023  24.746  24.696  1.00  0.00     0.064 A 
ATOM     13  C   UNL A   1      33.853  26.469  24.850  1.00  0.00     0.307 C 
ATOM     14  N   UNL A   1      31.540  23.491  24.843  1.00  0.00    -0.217 NA
ATOM     15  C   UNL A   1      31.070  25.811  24.222  1.00  0.00     0.118 C 
ATOM     16  N   UNL A   1      32.968  27.382  24.113  1.00  0.00    -0.327 N 
ATOM     17  C   UNL A   1      31.575  27.226  24.545  1.00  0.00     0.269 C 
ATOM     18  H   UNL A   1      32.993  27.119  23.127  1.00  0.00     0.348 HD
BRANCH  11  19
ATOM     19  N   UNL A   1      31.872  21.268  25.441  1.00  0.00    -0.323 N 
ATOM     20  H   UNL A   1      31.048  21.197  25.976  1.00  0.00     0.170 HD
BRANCH  19  21
ATOM     21  C   UNL A   1      32.380  20.071  24.929  1.00  0.00     0.060 A 
ATOM     22  C   UNL A   1      32.874  19.115  25.830  1.00  0.00     0.029 A 
ATOM     23  C   UNL A   1      32.420  19.772  23.553  1.00  0.00     0.066 A 
ATOM     24  C   UNL A   1      33.336  17.876  25.380  1.00  0.00     0.023 A 
ATOM     25  C   UNL A   1      32.911  18.544  23.098  1.00  0.00     0.043 A 
ATOM     26  Cl  UNL A   1      31.898  20.914  22.360  1.00  0.00    -0.082 Cl
ATOM     27  C   UNL A   1      33.346  17.594  24.017  1.00  0.00     0.042 A 
ATOM     28  Cl  UNL A   1      33.882  16.056  23.465  1.00  0.00    -0.084 Cl
ENDBRANCH  19  21
ENDBRANCH  11  19
BRANCH  16  29
ATOM     29  C   UNL A   1      33.450  28.774  24.141  1.00  0.00     0.299 C 
BRANCH  29  30
ATOM     30  C   UNL A   1      33.592  29.420  25.506  1.00  0.00     0.006 A 
ATOM     31  C   UNL A   1      34.736  29.192  26.284  1.00  0.00     0.009 A 
ATOM     32  C   UNL A   1      32.596  30.271  26.012  1.00  0.00     0.009 A 
ATOM     33  C   UNL A   1      34.894  29.824  27.519  1.00  0.00     0.001 A 
ATOM     34  C   UNL A   1      32.765  30.921  27.235  1.00  0.00     0.001 A 
ATOM     35  C   UNL A   1      33.916  30.699  27.987  1.00  0.00     0.000 A 
ENDBRANCH  29  30
ENDBRANCH  16  29
ENDBRANCH   7   8
ENDBRANCH   6   7
ENDBRANCH   4   6
ENDBRANCH   1   2
BRANCH   1  36
ATOM     36  C   UNL A   1      40.358  21.944  27.516  1.00  0.00     0.042 C 
BRANCH  36  37
ATOM     37  C   UNL A   1      41.251  23.168  27.692  1.00  0.00     0.118 C 
BRANCH  37  38
ATOM     38  N   UNL A   1      41.584  23.829  26.434  1.00  0.00    -0.352 N 
ATOM     39  C   UNL A   1      41.549  25.159  26.086  1.00  0.00     0.251 C 
ATOM     40  H   UNL A   1      41.884  23.224  25.718  1.00  0.00     0.163 HD
ATOM     41  O   UNL A   1      41.742  25.485  24.916  1.00  0.00    -0.269 OA
BRANCH  39  42
ATOM     42  C   UNL A   1      41.248  26.192  27.100  1.00  0.00     0.039 A 
ATOM     43  C   UNL A   1      40.244  25.944  28.039  1.00  0.00     0.014 A 
ATOM     44  C   UNL A   1      41.953  27.398  27.132  1.00  0.00     0.014 A 
ATOM     45  C   UNL A   1      40.016  26.860  29.068  1.00  0.00     0.010 A 
ATOM     46  C   UNL A   1      41.783  28.271  28.204  1.00  0.00     0.010 A 
ATOM     47  C   UNL A   1      40.819  28.007  29.187  1.00  0.00    -0.014 A 
BRANCH  47  48
ATOM     48  C   UNL A   1      40.680  28.928  30.345  1.00  0.00     0.031 A 
ATOM     49  C   UNL A   1      41.594  28.801  31.532  1.00  0.00     0.074 A 
ATOM     50  C   UNL A   1      39.686  29.839  30.352  1.00  0.00     0.049 A 
ATOM     51  N   UNL A   1      41.584  29.470  32.655  1.00  0.00    -0.248 NA
ATOM     52  C   UNL A   1      42.641  27.769  31.457  1.00  0.00     0.031 C 
ATOM     53  C   UNL A   1      38.701  30.027  29.283  1.00  0.00     0.029 A 
ATOM     54  N   UNL A   1      39.336  30.779  31.290  1.00  0.00    -0.354 N 
ATOM     55  C   UNL A   1      42.613  28.938  33.423  1.00  0.00     0.074 A 
ATOM     56  C   UNL A   1      43.191  27.852  32.660  1.00  0.00     0.031 C 
ATOM     57  C   UNL A   1      37.885  31.043  29.608  1.00  0.00     0.029 A 
ATOM     58  C   UNL A   1      38.262  31.556  30.921  1.00  0.00     0.049 A 
ATOM     59  H   UNL A   1      39.809  30.887  32.147  1.00  0.00     0.167 HD
ATOM     60  C   UNL A   1      43.054  29.335  34.640  1.00  0.00     0.037 A 
ATOM     61  C   UNL A   1      37.654  32.569  31.567  1.00  0.00     0.037 A 
ATOM     62  C   UNL A   1      42.499  30.437  35.380  1.00  0.00     0.049 A 
ATOM     63  C   UNL A   1      38.160  32.992  32.917  1.00  0.00     0.074 A 
ATOM     64  C   UNL A   1      42.912  30.949  36.597  1.00  0.00     0.029 A 
ATOM     65  N   UNL A   1      41.416  31.200  34.970  1.00  0.00    -0.354 N 
ATOM     66  N   UNL A   1      39.164  32.506  33.607  1.00  0.00    -0.248 NA
ATOM     67  C   UNL A   1      37.453  34.096  33.580  1.00  0.00     0.031 C 
ATOM     68  C   UNL A   1      42.060  32.005  36.937  1.00  0.00     0.029 A 
ATOM     69  C   UNL A   1      41.137  32.171  35.917  1.00  0.00     0.049 A 
ATOM     70  H   UNL A   1      40.918  31.069  34.130  1.00  0.00     0.167 HD
ATOM     71  C   UNL A   1      39.220  33.256  34.775  1.00  0.00     0.074 A 
ATOM     72  C   UNL A   1      38.155  34.234  34.697  1.00  0.00     0.031 C 
ATOM     73  C   UNL A   1      40.076  33.141  35.820  1.00  0.00     0.037 A 
BRANCH  60  74
ATOM     74  C   UNL A   1      44.213  28.586  35.234  1.00  0.00     0.058 A 
ATOM     75  C   UNL A   1      45.538  28.973  34.979  1.00  0.00     0.135 A 
ATOM     76  C   UNL A   1      44.000  27.497  36.093  1.00  0.00     0.135 A 
ATOM     77  F   UNL A   1      45.795  29.999  34.152  1.00  0.00    -0.206 F 
ATOM     78  C   UNL A   1      46.614  28.289  35.532  1.00  0.00     0.059 A 
ATOM     79  C   UNL A   1      45.062  26.812  36.677  1.00  0.00     0.059 A 
ATOM     80  F   UNL A   1      42.753  27.086  36.368  1.00  0.00    -0.206 F 
ATOM     81  C   UNL A   1      46.365  27.207  36.380  1.00  0.00     0.060 A 
BRANCH  81  82
ATOM     82  S   UNL A   1      47.775  26.331  37.090  1.00  0.00     0.124 S 
ATOM     83  O   UNL A   1      48.229  27.282  38.100  1.00  0.00    -0.237 OA
ATOM     84  O   UNL A   1      47.160  25.110  37.599  1.00  0.00    -0.237 OA
ATOM     85  O   UNL A   1      48.671  26.150  35.952  1.00  0.00    -0.744 OA
ENDBRANCH  81  82
ENDBRANCH  60  74
BRANCH  61  86
ATOM     86  C   UNL A   1      36.521  33.281  30.920  1.00  0.00     0.058 A 
ATOM     87  C   UNL A   1      35.214  33.135  31.408  1.00  0.00     0.135 A 
ATOM     88  C   UNL A   1      36.721  34.141  29.829  1.00  0.00     0.135 A 
ATOM     89  F   UNL A   1      34.974  32.319  32.446  1.00  0.00    -0.206 F 
ATOM     90  C   UNL A   1      34.143  33.811  30.836  1.00  0.00     0.059 A 
ATOM     91  C   UNL A   1      35.667  34.843  29.251  1.00  0.00     0.059 A 
ATOM     92  F   UNL A   1      37.955  34.325  29.335  1.00  0.00    -0.206 F 
ATOM     93  C   UNL A   1      34.379  34.667  29.759  1.00  0.00     0.060 A 
BRANCH  93  94
ATOM     94  S   UNL A   1      32.988  35.584  29.061  1.00  0.00     0.124 S 
ATOM     95  O   UNL A   1      32.426  34.606  28.137  1.00  0.00    -0.237 OA
ATOM     96  O   UNL A   1      32.188  35.875  30.246  1.00  0.00    -0.237 OA
ATOM     97  O   UNL A   1      33.626  36.743  28.443  1.00  0.00    -0.744 OA
ENDBRANCH  93  94
ENDBRANCH  61  86
BRANCH  73  98
ATOM     98  C   UNL A   1      39.914  34.099  36.963  1.00  0.00     0.058 A 
ATOM     99  C   UNL A   1      40.489  35.379  36.929  1.00  0.00     0.135 A 
ATOM    100  C   UNL A   1      39.096  33.772  38.056  1.00  0.00     0.135 A 
ATOM    101  F   UNL A   1      41.285  35.735  35.909  1.00  0.00    -0.206 F 
ATOM    102  C   UNL A   1      40.256  36.304  37.940  1.00  0.00     0.059 A 
ATOM    103  C   UNL A   1      38.834  34.688  39.070  1.00  0.00     0.059 A 
ATOM    104  F   UNL A   1      38.519  32.562  38.130  1.00  0.00    -0.206 F 
ATOM    105  C   UNL A   1      39.420  35.952  39.003  1.00  0.00     0.060 A 
BRANCH 105 106
ATOM    106  S   UNL A   1      39.066  37.190  40.269  1.00  0.00     0.124 S 
ATOM    107  O   UNL A   1      38.217  36.439  41.187  1.00  0.00    -0.237 OA
ATOM    108  O   UNL A   1      40.398  37.520  40.764  1.00  0.00    -0.237 OA
ATOM    109  O   UNL A   1      38.400  38.256  39.525  1.00  0.00    -0.744 OA
ENDBRANCH 105 106
ENDBRANCH  73  98
ENDBRANCH  47  48
ENDBRANCH  39  42
ENDBRANCH  37  38
ENDBRANCH  36  37
ENDBRANCH   1  36
TORSDOF 19
ENDMDL
