MODEL 1
REMARK VINA RESULT:     -13.7      0.000      0.000
REMARK SMILES CN(C)C(=O)c1cccc(N2CCC3(CC2)[C@H](C(=O)NCCCNC(=O)c2ccc(-c4c5nc(c(-c6c(F)cc(S(=O)(=O)[O-])cc6F)c6ccc([nH]6)c(-c6c(F)cc(S(=O)(=O)[O-])cc6F)c6nc(c(-c7c(F)cc(S(=O)(=O)[O-])cc7F)c7ccc4[nH]7)C=C6)C=C5)cc2)CC(=O)N3C)n1
REMARK SMILES IDX 22 1 21 2 20 3 18 4 19 5 17 7 11 8 12 9 16 10 13 11 15 12
REMARK SMILES IDX 14 13 96 14 93 15 94 16 97 17 95 18 10 19 6 20 7 21 98 22
REMARK SMILES IDX 8 23 9 24 4 25 1 26 2 27 3 28 5 29 23 30 24 31 25 32 26 34
REMARK SMILES IDX 27 35 28 36 92 37 29 38 91 39 30 40 31 41 32 42 85 43 33 44
REMARK SMILES IDX 90 45 84 46 86 47 34 48 89 49 83 50 82 51 35 53 69 54 48 55
REMARK SMILES IDX 68 56 49 57 52 58 67 59 87 60 50 61 51 62 66 64 88 65 53 66
REMARK SMILES IDX 36 67 37 68 46 69 38 70 39 71 45 72 47 73 40 74 41 75 42 76
REMARK SMILES IDX 43 77 44 78 70 79 71 80 80 81 72 82 73 83 79 84 81 85 74 86
REMARK SMILES IDX 75 87 76 88 77 89 78 90 54 91 55 92 64 93 56 94 57 95 63 96
REMARK SMILES IDX 65 97 58 98 59 99 60 100 61 101 62 102
REMARK H PARENT 20 6 24 33 86 52 52 63
REMARK Flexibility Score: inf
ROOT
ATOM      1  C   UNL A   1      34.627  31.206  27.609  1.00  0.00     0.042 C 
ENDROOT
BRANCH   1   2
ATOM      2  C   UNL A   1      34.579  29.682  27.457  1.00  0.00     0.117 C 
BRANCH   2   3
ATOM      3  N   UNL A   1      33.280  29.069  27.718  1.00  0.00    -0.356 N 
ATOM      4  C   UNL A   1      32.367  28.413  26.960  1.00  0.00     0.226 C 
ATOM      5  O   UNL A   1      31.386  27.958  27.563  1.00  0.00    -0.275 OA
ATOM      6  H   UNL A   1      33.003  29.153  28.660  1.00  0.00     0.163 HD
BRANCH   4   7
ATOM      7  C   UNL A   1      32.452  28.213  25.446  1.00  0.00     0.113 C 
ATOM      8  N   UNL A   1      33.923  24.292  24.655  1.00  0.00    -0.356 N 
ATOM      9  C   UNL A   1      32.838  24.318  25.610  1.00  0.00     0.120 C 
ATOM     10  C   UNL A   1      33.786  25.085  23.443  1.00  0.00     0.120 C 
ATOM     11  C   UNL A   1      32.701  25.762  26.039  1.00  0.00     0.051 C 
ATOM     12  C   UNL A   1      33.484  26.554  23.797  1.00  0.00     0.051 C 
ATOM     13  C   UNL A   1      32.395  26.752  24.900  1.00  0.00     0.058 C 
ATOM     14  N   UNL A   1      31.047  26.730  24.297  1.00  0.00    -0.339 N 
ATOM     15  C   UNL A   1      31.403  29.023  24.699  1.00  0.00     0.116 C 
ATOM     16  C   UNL A   1      30.491  27.991  24.123  1.00  0.00     0.223 C 
ATOM     17  C   UNL A   1      30.344  25.568  23.788  1.00  0.00     0.147 C 
ATOM     18  O   UNL A   1      29.415  28.246  23.594  1.00  0.00    -0.275 OA
BRANCH   8  19
ATOM     19  C   UNL A   1      34.792  23.224  24.752  1.00  0.00     0.129 A 
ATOM     20  C   UNL A   1      35.147  20.933  24.938  1.00  0.00     0.130 A 
ATOM     21  C   UNL A   1      36.499  21.095  25.202  1.00  0.00     0.034 A 
ATOM     22  N   UNL A   1      34.296  21.970  24.726  1.00  0.00    -0.226 NA
ATOM     23  C   UNL A   1      36.997  22.387  25.261  1.00  0.00     0.006 A 
ATOM     24  C   UNL A   1      36.139  23.457  25.018  1.00  0.00     0.047 A 
BRANCH  20  25
ATOM     25  C   UNL A   1      34.571  19.560  24.791  1.00  0.00     0.272 C 
ATOM     26  C   UNL A   1      32.696  18.001  24.899  1.00  0.00     0.146 C 
ATOM     27  N   UNL A   1      33.193  19.368  24.955  1.00  0.00    -0.343 N 
ATOM     28  C   UNL A   1      32.207  20.435  25.022  1.00  0.00     0.146 C 
ATOM     29  O   UNL A   1      35.345  18.629  24.570  1.00  0.00    -0.267 OA
ENDBRANCH  20  25
ENDBRANCH   8  19
ENDBRANCH   4   7
ENDBRANCH   2   3
ENDBRANCH   1   2
BRANCH   1  30
ATOM     30  C   UNL A   1      35.783  31.712  28.464  1.00  0.00     0.118 C 
BRANCH  30  31
ATOM     31  N   UNL A   1      35.649  31.240  29.831  1.00  0.00    -0.352 N 
ATOM     32  C   UNL A   1      36.410  30.310  30.495  1.00  0.00     0.251 C 
ATOM     33  H   UNL A   1      34.914  31.640  30.350  1.00  0.00     0.163 HD
ATOM     34  O   UNL A   1      35.936  29.740  31.474  1.00  0.00    -0.269 OA
BRANCH  32  35
ATOM     35  C   UNL A   1      37.789  30.002  30.048  1.00  0.00     0.039 A 
ATOM     36  C   UNL A   1      38.044  29.875  28.679  1.00  0.00     0.014 A 
ATOM     37  C   UNL A   1      38.814  29.757  30.969  1.00  0.00     0.014 A 
ATOM     38  C   UNL A   1      39.321  29.516  28.239  1.00  0.00     0.010 A 
ATOM     39  C   UNL A   1      40.107  29.483  30.524  1.00  0.00     0.010 A 
ATOM     40  C   UNL A   1      40.369  29.327  29.156  1.00  0.00    -0.014 A 
BRANCH  40  41
ATOM     41  C   UNL A   1      41.725  28.920  28.695  1.00  0.00     0.031 A 
ATOM     42  C   UNL A   1      42.841  29.933  28.639  1.00  0.00     0.074 A 
ATOM     43  C   UNL A   1      41.945  27.648  28.303  1.00  0.00     0.049 A 
ATOM     44  N   UNL A   1      44.084  29.774  28.259  1.00  0.00    -0.248 NA
ATOM     45  C   UNL A   1      42.518  31.313  29.039  1.00  0.00     0.031 C 
ATOM     46  C   UNL A   1      40.934  26.589  28.262  1.00  0.00     0.029 A 
ATOM     47  N   UNL A   1      43.088  27.029  27.863  1.00  0.00    -0.354 N 
ATOM     48  C   UNL A   1      44.678  31.027  28.353  1.00  0.00     0.074 A 
ATOM     49  C   UNL A   1      43.652  31.950  28.780  1.00  0.00     0.031 C 
ATOM     50  C   UNL A   1      41.510  25.445  27.858  1.00  0.00     0.029 A 
ATOM     51  C   UNL A   1      42.919  25.695  27.573  1.00  0.00     0.049 A 
ATOM     52  H   UNL A   1      43.950  27.496  27.765  1.00  0.00     0.167 HD
ATOM     53  C   UNL A   1      45.968  31.374  28.127  1.00  0.00     0.037 A 
ATOM     54  C   UNL A   1      43.800  24.778  27.127  1.00  0.00     0.037 A 
ATOM     55  C   UNL A   1      46.996  30.439  27.751  1.00  0.00     0.049 A 
ATOM     56  C   UNL A   1      45.231  25.190  26.895  1.00  0.00     0.074 A 
ATOM     57  C   UNL A   1      48.350  30.674  27.586  1.00  0.00     0.029 A 
ATOM     58  N   UNL A   1      46.787  29.095  27.481  1.00  0.00    -0.354 N 
ATOM     59  N   UNL A   1      45.792  26.362  27.076  1.00  0.00    -0.248 NA
ATOM     60  C   UNL A   1      46.151  24.155  26.403  1.00  0.00     0.031 C 
ATOM     61  C   UNL A   1      48.951  29.486  27.161  1.00  0.00     0.029 A 
ATOM     62  C   UNL A   1      47.982  28.496  27.119  1.00  0.00     0.049 A 
ATOM     63  H   UNL A   1      45.919  28.635  27.539  1.00  0.00     0.167 HD
ATOM     64  C   UNL A   1      47.136  26.194  26.757  1.00  0.00     0.074 A 
ATOM     65  C   UNL A   1      47.305  24.806  26.383  1.00  0.00     0.031 C 
ATOM     66  C   UNL A   1      48.138  27.106  26.770  1.00  0.00     0.037 A 
BRANCH  53  67
ATOM     67  C   UNL A   1      46.356  32.819  28.283  1.00  0.00     0.058 A 
ATOM     68  C   UNL A   1      46.248  33.735  27.224  1.00  0.00     0.135 A 
ATOM     69  C   UNL A   1      46.766  33.312  29.533  1.00  0.00     0.135 A 
ATOM     70  F   UNL A   1      45.878  33.317  26.003  1.00  0.00    -0.206 F 
ATOM     71  C   UNL A   1      46.543  35.084  27.395  1.00  0.00     0.059 A 
ATOM     72  C   UNL A   1      47.037  34.662  29.735  1.00  0.00     0.059 A 
ATOM     73  F   UNL A   1      46.888  32.480  30.580  1.00  0.00    -0.206 F 
ATOM     74  C   UNL A   1      46.930  35.540  28.658  1.00  0.00     0.060 A 
BRANCH  74  75
ATOM     75  S   UNL A   1      47.266  37.300  28.873  1.00  0.00     0.124 S 
ATOM     76  O   UNL A   1      47.763  37.337  30.244  1.00  0.00    -0.237 OA
ATOM     77  O   UNL A   1      48.257  37.556  27.832  1.00  0.00    -0.237 OA
ATOM     78  O   UNL A   1      45.963  37.924  28.662  1.00  0.00    -0.744 OA
ENDBRANCH  74  75
ENDBRANCH  53  67
BRANCH  54  79
ATOM     79  C   UNL A   1      43.372  23.372  26.884  1.00  0.00     0.058 A 
ATOM     80  C   UNL A   1      43.120  22.498  27.953  1.00  0.00     0.135 A 
ATOM     81  C   UNL A   1      43.239  22.863  25.582  1.00  0.00     0.135 A 
ATOM     82  F   UNL A   1      43.237  22.934  29.216  1.00  0.00    -0.206 F 
ATOM     83  C   UNL A   1      42.794  21.162  27.743  1.00  0.00     0.059 A 
ATOM     84  C   UNL A   1      42.883  21.538  25.347  1.00  0.00     0.059 A 
ATOM     85  F   UNL A   1      43.452  23.660  24.523  1.00  0.00    -0.206 F 
ATOM     86  C   UNL A   1      42.683  20.690  26.435  1.00  0.00     0.060 A 
BRANCH  86  87
ATOM     87  S   UNL A   1      42.263  18.952  26.175  1.00  0.00     0.124 S 
ATOM     88  O   UNL A   1      43.209  18.578  25.130  1.00  0.00    -0.237 OA
ATOM     89  O   UNL A   1      42.508  18.376  27.494  1.00  0.00    -0.237 OA
ATOM     90  O   UNL A   1      40.861  19.002  25.772  1.00  0.00    -0.744 OA
ENDBRANCH  86  87
ENDBRANCH  54  79
BRANCH  66  91
ATOM     91  C   UNL A   1      49.519  26.627  26.416  1.00  0.00     0.058 A 
ATOM     92  C   UNL A   1      50.349  26.000  27.359  1.00  0.00     0.135 A 
ATOM     93  C   UNL A   1      49.997  26.751  25.101  1.00  0.00     0.135 A 
ATOM     94  F   UNL A   1      49.944  25.862  28.631  1.00  0.00    -0.206 F 
ATOM     95  C   UNL A   1      51.614  25.534  27.015  1.00  0.00     0.059 A 
ATOM     96  C   UNL A   1      51.244  26.263  24.728  1.00  0.00     0.059 A 
ATOM     97  F   UNL A   1      49.237  27.331  24.158  1.00  0.00    -0.206 F 
ATOM     98  C   UNL A   1      52.051  25.668  25.696  1.00  0.00     0.060 A 
BRANCH  98  99
ATOM     99  S   UNL A   1      53.680  25.026  25.256  1.00  0.00     0.124 S 
ATOM    100  O   UNL A   1      53.896  25.639  23.951  1.00  0.00    -0.237 OA
ATOM    101  O   UNL A   1      54.517  25.530  26.341  1.00  0.00    -0.237 OA
ATOM    102  O   UNL A   1      53.484  23.579  25.246  1.00  0.00    -0.744 OA
ENDBRANCH  98  99
ENDBRANCH  66  91
ENDBRANCH  40  41
ENDBRANCH  32  35
ENDBRANCH  30  31
ENDBRANCH   1  30
TORSDOF 15
ENDMDL
MODEL 2
REMARK VINA RESULT:     -13.3      0.387      1.480
REMARK SMILES CN(C)C(=O)c1cccc(N2CCC3(CC2)[C@H](C(=O)NCCCNC(=O)c2ccc(-c4c5nc(c(-c6c(F)cc(S(=O)(=O)[O-])cc6F)c6ccc([nH]6)c(-c6c(F)cc(S(=O)(=O)[O-])cc6F)c6nc(c(-c7c(F)cc(S(=O)(=O)[O-])cc7F)c7ccc4[nH]7)C=C6)C=C5)cc2)CC(=O)N3C)n1
REMARK SMILES IDX 22 1 21 2 20 3 18 4 19 5 17 7 11 8 12 9 16 10 13 11 15 12
REMARK SMILES IDX 14 13 96 14 93 15 94 16 97 17 95 18 10 19 6 20 7 21 98 22
REMARK SMILES IDX 8 23 9 24 4 25 1 26 2 27 3 28 5 29 23 30 24 31 25 32 26 34
REMARK SMILES IDX 27 35 28 36 92 37 29 38 91 39 30 40 31 41 32 42 85 43 33 44
REMARK SMILES IDX 90 45 84 46 86 47 34 48 89 49 83 50 82 51 35 53 69 54 48 55
REMARK SMILES IDX 68 56 49 57 52 58 67 59 87 60 50 61 51 62 66 64 88 65 53 66
REMARK SMILES IDX 36 67 37 68 46 69 38 70 39 71 45 72 47 73 40 74 41 75 42 76
REMARK SMILES IDX 43 77 44 78 70 79 71 80 80 81 72 82 73 83 79 84 81 85 74 86
REMARK SMILES IDX 75 87 76 88 77 89 78 90 54 91 55 92 64 93 56 94 57 95 63 96
REMARK SMILES IDX 65 97 58 98 59 99 60 100 61 101 62 102
REMARK H PARENT 20 6 24 33 86 52 52 63
REMARK Flexibility Score: inf
ROOT
ATOM      1  C   UNL A   1      34.817  30.199  27.770  1.00  0.00     0.042 C 
ENDROOT
BRANCH   1   2
ATOM      2  C   UNL A   1      33.376  30.572  27.410  1.00  0.00     0.117 C 
BRANCH   2   3
ATOM      3  N   UNL A   1      32.387  29.519  27.626  1.00  0.00    -0.356 N 
ATOM      4  C   UNL A   1      31.843  28.550  26.848  1.00  0.00     0.226 C 
ATOM      5  O   UNL A   1      31.067  27.770  27.415  1.00  0.00    -0.275 OA
ATOM      6  H   UNL A   1      32.035  29.512  28.545  1.00  0.00     0.163 HD
BRANCH   4   7
ATOM      7  C   UNL A   1      32.104  28.364  25.352  1.00  0.00     0.113 C 
ATOM      8  N   UNL A   1      33.887  24.545  24.725  1.00  0.00    -0.356 N 
ATOM      9  C   UNL A   1      32.707  24.499  25.558  1.00  0.00     0.120 C 
ATOM     10  C   UNL A   1      33.833  25.336  23.505  1.00  0.00     0.120 C 
ATOM     11  C   UNL A   1      32.436  25.930  25.970  1.00  0.00     0.051 C 
ATOM     12  C   UNL A   1      33.406  26.782  23.825  1.00  0.00     0.051 C 
ATOM     13  C   UNL A   1      32.195  26.906  24.803  1.00  0.00     0.058 C 
ATOM     14  N   UNL A   1      30.923  26.806  24.059  1.00  0.00    -0.339 N 
ATOM     15  C   UNL A   1      31.093  29.114  24.496  1.00  0.00     0.116 C 
ATOM     16  C   UNL A   1      30.313  28.031  23.826  1.00  0.00     0.223 C 
ATOM     17  C   UNL A   1      30.351  25.606  23.478  1.00  0.00     0.147 C 
ATOM     18  O   UNL A   1      29.286  28.224  23.184  1.00  0.00    -0.275 OA
BRANCH   8  19
ATOM     19  C   UNL A   1      34.805  23.532  24.916  1.00  0.00     0.129 A 
ATOM     20  C   UNL A   1      35.277  21.265  25.142  1.00  0.00     0.130 A 
ATOM     21  C   UNL A   1      36.581  21.508  25.547  1.00  0.00     0.034 A 
ATOM     22  N   UNL A   1      34.392  22.250  24.839  1.00  0.00    -0.226 NA
ATOM     23  C   UNL A   1      36.991  22.828  25.656  1.00  0.00     0.006 A 
ATOM     24  C   UNL A   1      36.100  23.845  25.322  1.00  0.00     0.047 A 
BRANCH  20  25
ATOM     25  C   UNL A   1      34.805  19.861  24.937  1.00  0.00     0.272 C 
ATOM     26  C   UNL A   1      33.043  18.171  24.940  1.00  0.00     0.146 C 
ATOM     27  N   UNL A   1      33.440  19.567  25.052  1.00  0.00    -0.343 N 
ATOM     28  C   UNL A   1      32.379  20.560  25.120  1.00  0.00     0.146 C 
ATOM     29  O   UNL A   1      35.650  18.994  24.712  1.00  0.00    -0.267 OA
ENDBRANCH  20  25
ENDBRANCH   8  19
ENDBRANCH   4   7
ENDBRANCH   2   3
ENDBRANCH   1   2
BRANCH   1  30
ATOM     30  C   UNL A   1      35.618  31.333  28.400  1.00  0.00     0.118 C 
BRANCH  30  31
ATOM     31  N   UNL A   1      35.631  31.202  29.846  1.00  0.00    -0.352 N 
ATOM     32  C   UNL A   1      36.442  30.416  30.628  1.00  0.00     0.251 C 
ATOM     33  H   UNL A   1      34.971  31.749  30.330  1.00  0.00     0.163 HD
ATOM     34  O   UNL A   1      36.071  30.116  31.759  1.00  0.00    -0.269 OA
BRANCH  32  35
ATOM     35  C   UNL A   1      37.753  29.942  30.123  1.00  0.00     0.039 A 
ATOM     36  C   UNL A   1      38.673  29.408  31.028  1.00  0.00     0.014 A 
ATOM     37  C   UNL A   1      38.112  30.096  28.779  1.00  0.00     0.014 A 
ATOM     38  C   UNL A   1      39.941  29.020  30.586  1.00  0.00     0.010 A 
ATOM     39  C   UNL A   1      39.345  29.629  28.325  1.00  0.00     0.010 A 
ATOM     40  C   UNL A   1      40.287  29.116  29.227  1.00  0.00    -0.014 A 
BRANCH  40  41
ATOM     41  C   UNL A   1      41.644  28.728  28.754  1.00  0.00     0.031 A 
ATOM     42  C   UNL A   1      42.750  29.753  28.702  1.00  0.00     0.074 A 
ATOM     43  C   UNL A   1      41.874  27.463  28.348  1.00  0.00     0.049 A 
ATOM     44  N   UNL A   1      43.992  29.610  28.314  1.00  0.00    -0.248 NA
ATOM     45  C   UNL A   1      42.415  31.126  29.119  1.00  0.00     0.031 C 
ATOM     46  C   UNL A   1      40.875  26.394  28.302  1.00  0.00     0.029 A 
ATOM     47  N   UNL A   1      43.022  26.859  27.895  1.00  0.00    -0.354 N 
ATOM     48  C   UNL A   1      44.574  30.868  28.418  1.00  0.00     0.074 A 
ATOM     49  C   UNL A   1      43.541  31.776  28.860  1.00  0.00     0.031 C 
ATOM     50  C   UNL A   1      41.459  25.259  27.883  1.00  0.00     0.029 A 
ATOM     51  C   UNL A   1      42.864  25.527  27.592  1.00  0.00     0.049 A 
ATOM     52  H   UNL A   1      43.878  27.336  27.798  1.00  0.00     0.167 HD
ATOM     53  C   UNL A   1      45.859  31.230  28.188  1.00  0.00     0.037 A 
ATOM     54  C   UNL A   1      43.751  24.623  27.132  1.00  0.00     0.037 A 
ATOM     55  C   UNL A   1      46.894  30.310  27.797  1.00  0.00     0.049 A 
ATOM     56  C   UNL A   1      45.177  25.052  26.897  1.00  0.00     0.074 A 
ATOM     57  C   UNL A   1      48.245  30.560  27.626  1.00  0.00     0.029 A 
ATOM     58  N   UNL A   1      46.698  28.966  27.514  1.00  0.00    -0.354 N 
ATOM     59  N   UNL A   1      45.728  26.228  27.087  1.00  0.00    -0.248 NA
ATOM     60  C   UNL A   1      46.105  24.032  26.389  1.00  0.00     0.031 C 
ATOM     61  C   UNL A   1      48.856  29.383  27.186  1.00  0.00     0.029 A 
ATOM     62  C   UNL A   1      47.897  28.384  27.140  1.00  0.00     0.049 A 
ATOM     63  H   UNL A   1      45.834  28.497  27.572  1.00  0.00     0.167 HD
ATOM     64  C   UNL A   1      47.071  26.077  26.758  1.00  0.00     0.074 A 
ATOM     65  C   UNL A   1      47.252  24.695  26.370  1.00  0.00     0.031 C 
ATOM     66  C   UNL A   1      48.065  26.999  26.775  1.00  0.00     0.037 A 
BRANCH  53  67
ATOM     67  C   UNL A   1      46.234  32.678  28.356  1.00  0.00     0.058 A 
ATOM     68  C   UNL A   1      46.755  33.174  29.562  1.00  0.00     0.135 A 
ATOM     69  C   UNL A   1      46.146  33.564  27.269  1.00  0.00     0.135 A 
ATOM     70  F   UNL A   1      46.845  32.377  30.639  1.00  0.00    -0.206 F 
ATOM     71  C   UNL A   1      47.164  34.498  29.688  1.00  0.00     0.059 A 
ATOM     72  C   UNL A   1      46.577  34.884  27.364  1.00  0.00     0.059 A 
ATOM     73  F   UNL A   1      45.654  33.143  26.094  1.00  0.00    -0.206 F 
ATOM     74  C   UNL A   1      47.078  35.344  28.580  1.00  0.00     0.060 A 
BRANCH  74  75
ATOM     75  S   UNL A   1      47.655  37.046  28.750  1.00  0.00     0.124 S 
ATOM     76  O   UNL A   1      46.890  37.499  29.907  1.00  0.00    -0.237 OA
ATOM     77  O   UNL A   1      49.087  36.870  28.966  1.00  0.00    -0.237 OA
ATOM     78  O   UNL A   1      47.286  37.658  27.477  1.00  0.00    -0.744 OA
ENDBRANCH  74  75
ENDBRANCH  53  67
BRANCH  54  79
ATOM     79  C   UNL A   1      43.337  23.215  26.877  1.00  0.00     0.058 A 
ATOM     80  C   UNL A   1      43.080  22.334  27.939  1.00  0.00     0.135 A 
ATOM     81  C   UNL A   1      43.221  22.713  25.572  1.00  0.00     0.135 A 
ATOM     82  F   UNL A   1      43.181  22.764  29.206  1.00  0.00    -0.206 F 
ATOM     83  C   UNL A   1      42.766  20.997  27.718  1.00  0.00     0.059 A 
ATOM     84  C   UNL A   1      42.877  21.387  25.325  1.00  0.00     0.059 A 
ATOM     85  F   UNL A   1      43.439  23.517  24.519  1.00  0.00    -0.206 F 
ATOM     86  C   UNL A   1      42.672  20.531  26.407  1.00  0.00     0.060 A 
BRANCH  86  87
ATOM     87  S   UNL A   1      42.267  18.792  26.133  1.00  0.00     0.124 S 
ATOM     88  O   UNL A   1      42.553  18.217  27.443  1.00  0.00    -0.237 OA
ATOM     89  O   UNL A   1      40.858  18.860  25.759  1.00  0.00    -0.237 OA
ATOM     90  O   UNL A   1      43.175  18.400  25.059  1.00  0.00    -0.744 OA
ENDBRANCH  86  87
ENDBRANCH  54  79
BRANCH  66  91
ATOM     91  C   UNL A   1      49.448  26.538  26.409  1.00  0.00     0.058 A 
ATOM     92  C   UNL A   1      49.981  26.740  25.127  1.00  0.00     0.135 A 
ATOM     93  C   UNL A   1      50.271  25.932  27.374  1.00  0.00     0.135 A 
ATOM     94  F   UNL A   1      49.236  27.309  24.167  1.00  0.00    -0.206 F 
ATOM     95  C   UNL A   1      51.273  26.336  24.806  1.00  0.00     0.059 A 
ATOM     96  C   UNL A   1      51.576  25.550  27.084  1.00  0.00     0.059 A 
ATOM     97  F   UNL A   1      49.814  25.727  28.620  1.00  0.00    -0.206 F 
ATOM     98  C   UNL A   1      52.064  25.743  25.793  1.00  0.00     0.060 A 
BRANCH  98  99
ATOM     99  S   UNL A   1      53.750  25.257  25.372  1.00  0.00     0.124 S 
ATOM    100  O   UNL A   1      53.668  23.804  25.460  1.00  0.00    -0.237 OA
ATOM    101  O   UNL A   1      53.906  25.804  24.027  1.00  0.00    -0.237 OA
ATOM    102  O   UNL A   1      54.558  25.904  26.402  1.00  0.00    -0.744 OA
ENDBRANCH  98  99
ENDBRANCH  66  91
ENDBRANCH  40  41
ENDBRANCH  32  35
ENDBRANCH  30  31
ENDBRANCH   1  30
TORSDOF 15
ENDMDL
MODEL 3
REMARK VINA RESULT:     -13.2      6.324     12.168
REMARK SMILES CN(C)C(=O)c1cccc(N2CCC3(CC2)[C@H](C(=O)NCCCNC(=O)c2ccc(-c4c5nc(c(-c6c(F)cc(S(=O)(=O)[O-])cc6F)c6ccc([nH]6)c(-c6c(F)cc(S(=O)(=O)[O-])cc6F)c6nc(c(-c7c(F)cc(S(=O)(=O)[O-])cc7F)c7ccc4[nH]7)C=C6)C=C5)cc2)CC(=O)N3C)n1
REMARK SMILES IDX 22 1 21 2 20 3 18 4 19 5 17 7 11 8 12 9 16 10 13 11 15 12
REMARK SMILES IDX 14 13 96 14 93 15 94 16 97 17 95 18 10 19 6 20 7 21 98 22
REMARK SMILES IDX 8 23 9 24 4 25 1 26 2 27 3 28 5 29 23 30 24 31 25 32 26 34
REMARK SMILES IDX 27 35 28 36 92 37 29 38 91 39 30 40 31 41 32 42 85 43 33 44
REMARK SMILES IDX 90 45 84 46 86 47 34 48 89 49 83 50 82 51 35 53 69 54 48 55
REMARK SMILES IDX 68 56 49 57 52 58 67 59 87 60 50 61 51 62 66 64 88 65 53 66
REMARK SMILES IDX 36 67 37 68 46 69 38 70 39 71 45 72 47 73 40 74 41 75 42 76
REMARK SMILES IDX 43 77 44 78 70 79 71 80 80 81 72 82 73 83 79 84 81 85 74 86
REMARK SMILES IDX 75 87 76 88 77 89 78 90 54 91 55 92 64 93 56 94 57 95 63 96
REMARK SMILES IDX 65 97 58 98 59 99 60 100 61 101 62 102
REMARK H PARENT 20 6 24 33 86 52 52 63
REMARK Flexibility Score: inf
ROOT
ATOM      1  C   UNL A   1      39.000  23.234  26.759  1.00  0.00     0.042 C 
ENDROOT
BRANCH   1   2
ATOM      2  C   UNL A   1      38.672  21.965  25.966  1.00  0.00     0.117 C 
BRANCH   2   3
ATOM      3  N   UNL A   1      38.019  22.187  24.678  1.00  0.00    -0.356 N 
ATOM      4  C   UNL A   1      36.730  22.283  24.269  1.00  0.00     0.226 C 
ATOM      5  O   UNL A   1      36.558  22.558  23.074  1.00  0.00    -0.275 OA
ATOM      6  H   UNL A   1      38.662  22.289  23.940  1.00  0.00     0.163 HD
BRANCH   4   7
ATOM      7  C   UNL A   1      35.501  22.067  25.154  1.00  0.00     0.113 C 
ATOM      8  N   UNL A   1      33.230  25.672  25.266  1.00  0.00    -0.356 N 
ATOM      9  C   UNL A   1      33.596  25.263  23.928  1.00  0.00     0.120 C 
ATOM     10  C   UNL A   1      32.705  24.660  26.170  1.00  0.00     0.120 C 
ATOM     11  C   UNL A   1      34.676  24.217  24.097  1.00  0.00     0.051 C 
ATOM     12  C   UNL A   1      33.685  23.476  26.273  1.00  0.00     0.051 C 
ATOM     13  C   UNL A   1      34.256  22.976  24.908  1.00  0.00     0.058 C 
ATOM     14  N   UNL A   1      33.324  22.016  24.285  1.00  0.00    -0.339 N 
ATOM     15  C   UNL A   1      35.024  20.623  25.132  1.00  0.00     0.116 C 
ATOM     16  C   UNL A   1      33.701  20.688  24.442  1.00  0.00     0.223 C 
ATOM     17  C   UNL A   1      32.052  22.322  23.659  1.00  0.00     0.147 C 
ATOM     18  O   UNL A   1      33.073  19.703  24.071  1.00  0.00    -0.275 OA
BRANCH   8  19
ATOM     19  C   UNL A   1      33.010  27.023  25.449  1.00  0.00     0.129 A 
ATOM     20  C   UNL A   1      31.922  28.982  24.830  1.00  0.00     0.130 A 
ATOM     21  C   UNL A   1      32.739  29.769  25.629  1.00  0.00     0.034 A 
ATOM     22  N   UNL A   1      32.051  27.634  24.725  1.00  0.00    -0.226 NA
ATOM     23  C   UNL A   1      33.744  29.138  26.346  1.00  0.00     0.006 A 
ATOM     24  C   UNL A   1      33.868  27.753  26.266  1.00  0.00     0.047 A 
BRANCH  20  25
ATOM     25  C   UNL A   1      30.776  29.600  24.093  1.00  0.00     0.272 C 
ATOM     26  C   UNL A   1      29.290  29.725  22.160  1.00  0.00     0.146 C 
ATOM     27  N   UNL A   1      30.343  29.031  22.888  1.00  0.00    -0.343 N 
ATOM     28  C   UNL A   1      30.754  27.729  22.389  1.00  0.00     0.146 C 
ATOM     29  O   UNL A   1      30.275  30.624  24.557  1.00  0.00    -0.267 OA
ENDBRANCH  20  25
ENDBRANCH   8  19
ENDBRANCH   4   7
ENDBRANCH   2   3
ENDBRANCH   1   2
BRANCH   1  30
ATOM     30  C   UNL A   1      40.437  23.303  27.261  1.00  0.00     0.118 C 
BRANCH  30  31
ATOM     31  N   UNL A   1      41.278  23.996  26.301  1.00  0.00    -0.352 N 
ATOM     32  C   UNL A   1      41.469  25.348  26.148  1.00  0.00     0.251 C 
ATOM     33  H   UNL A   1      41.775  23.421  25.676  1.00  0.00     0.163 HD
ATOM     34  O   UNL A   1      41.873  25.775  25.070  1.00  0.00    -0.269 OA
BRANCH  32  35
ATOM     35  C   UNL A   1      41.206  26.282  27.269  1.00  0.00     0.039 A 
ATOM     36  C   UNL A   1      42.035  27.395  27.430  1.00  0.00     0.014 A 
ATOM     37  C   UNL A   1      40.201  26.024  28.208  1.00  0.00     0.014 A 
ATOM     38  C   UNL A   1      41.848  28.250  28.520  1.00  0.00     0.010 A 
ATOM     39  C   UNL A   1      39.963  26.925  29.245  1.00  0.00     0.010 A 
ATOM     40  C   UNL A   1      40.803  28.031  29.434  1.00  0.00    -0.014 A 
BRANCH  40  41
ATOM     41  C   UNL A   1      40.616  28.923  30.610  1.00  0.00     0.031 A 
ATOM     42  C   UNL A   1      41.476  28.750  31.837  1.00  0.00     0.074 A 
ATOM     43  C   UNL A   1      39.656  29.871  30.584  1.00  0.00     0.049 A 
ATOM     44  N   UNL A   1      41.458  29.422  32.960  1.00  0.00    -0.248 NA
ATOM     45  C   UNL A   1      42.472  27.666  31.813  1.00  0.00     0.031 C 
ATOM     46  C   UNL A   1      38.727  30.105  29.476  1.00  0.00     0.029 A 
ATOM     47  N   UNL A   1      39.302  30.816  31.514  1.00  0.00    -0.354 N 
ATOM     48  C   UNL A   1      42.416  28.831  33.776  1.00  0.00     0.074 A 
ATOM     49  C   UNL A   1      42.967  27.716  33.041  1.00  0.00     0.031 C 
ATOM     50  C   UNL A   1      37.936  31.147  29.775  1.00  0.00     0.029 A 
ATOM     51  C   UNL A   1      38.272  31.633  31.110  1.00  0.00     0.049 A 
ATOM     52  H   UNL A   1      39.745  30.902  32.390  1.00  0.00     0.167 HD
ATOM     53  C   UNL A   1      42.817  29.199  35.017  1.00  0.00     0.037 A 
ATOM     54  C   UNL A   1      37.666  32.657  31.743  1.00  0.00     0.037 A 
ATOM     55  C   UNL A   1      42.300  30.342  35.722  1.00  0.00     0.049 A 
ATOM     56  C   UNL A   1      38.142  33.051  33.118  1.00  0.00     0.074 A 
ATOM     57  C   UNL A   1      42.703  30.851  36.945  1.00  0.00     0.029 A 
ATOM     58  N   UNL A   1      41.267  31.152  35.273  1.00  0.00    -0.354 N 
ATOM     59  N   UNL A   1      39.112  32.534  33.835  1.00  0.00    -0.248 NA
ATOM     60  C   UNL A   1      37.446  34.170  33.769  1.00  0.00     0.031 C 
ATOM     61  C   UNL A   1      41.878  31.934  37.261  1.00  0.00     0.029 A 
ATOM     62  C   UNL A   1      41.000  32.137  36.208  1.00  0.00     0.049 A 
ATOM     63  H   UNL A   1      40.796  31.043  34.416  1.00  0.00     0.167 HD
ATOM     64  C   UNL A   1      39.166  33.289  35.003  1.00  0.00     0.074 A 
ATOM     65  C   UNL A   1      38.140  34.304  34.890  1.00  0.00     0.031 C 
ATOM     66  C   UNL A   1      39.988  33.154  36.072  1.00  0.00     0.037 A 
BRANCH  53  67
ATOM     67  C   UNL A   1      43.872  28.371  35.700  1.00  0.00     0.058 A 
ATOM     68  C   UNL A   1      43.542  27.301  36.548  1.00  0.00     0.135 A 
ATOM     69  C   UNL A   1      45.233  28.601  35.439  1.00  0.00     0.135 A 
ATOM     70  F   UNL A   1      42.259  27.045  36.846  1.00  0.00    -0.206 F 
ATOM     71  C   UNL A   1      44.523  26.497  37.120  1.00  0.00     0.059 A 
ATOM     72  C   UNL A   1      46.230  27.792  35.977  1.00  0.00     0.059 A 
ATOM     73  F   UNL A   1      45.606  29.612  34.638  1.00  0.00    -0.206 F 
ATOM     74  C   UNL A   1      45.865  26.746  36.822  1.00  0.00     0.060 A 
BRANCH  74  75
ATOM     75  S   UNL A   1      47.121  25.666  37.540  1.00  0.00     0.124 S 
ATOM     76  O   UNL A   1      47.070  24.520  36.637  1.00  0.00    -0.237 OA
ATOM     77  O   UNL A   1      48.324  26.488  37.453  1.00  0.00    -0.237 OA
ATOM     78  O   UNL A   1      46.628  25.421  38.891  1.00  0.00    -0.744 OA
ENDBRANCH  74  75
ENDBRANCH  53  67
BRANCH  54  79
ATOM     79  C   UNL A   1      36.556  33.403  31.088  1.00  0.00     0.058 A 
ATOM     80  C   UNL A   1      35.227  33.239  31.511  1.00  0.00     0.135 A 
ATOM     81  C   UNL A   1      36.793  34.267  30.008  1.00  0.00     0.135 A 
ATOM     82  F   UNL A   1      34.946  32.422  32.537  1.00  0.00    -0.206 F 
ATOM     83  C   UNL A   1      34.171  33.870  30.861  1.00  0.00     0.059 A 
ATOM     84  C   UNL A   1      35.756  34.934  29.362  1.00  0.00     0.059 A 
ATOM     85  F   UNL A   1      38.047  34.473  29.574  1.00  0.00    -0.206 F 
ATOM     86  C   UNL A   1      34.446  34.712  29.783  1.00  0.00     0.060 A 
BRANCH  86  87
ATOM     87  S   UNL A   1      33.066  35.522  28.945  1.00  0.00     0.124 S 
ATOM     88  O   UNL A   1      33.760  36.527  28.146  1.00  0.00    -0.237 OA
ATOM     89  O   UNL A   1      32.467  34.418  28.202  1.00  0.00    -0.237 OA
ATOM     90  O   UNL A   1      32.259  36.038  30.047  1.00  0.00    -0.744 OA
ENDBRANCH  86  87
ENDBRANCH  54  79
BRANCH  66  91
ATOM     91  C   UNL A   1      39.849  34.153  37.187  1.00  0.00     0.058 A 
ATOM     92  C   UNL A   1      40.523  35.385  37.166  1.00  0.00     0.135 A 
ATOM     93  C   UNL A   1      38.988  33.896  38.266  1.00  0.00     0.135 A 
ATOM     94  F   UNL A   1      41.362  35.679  36.161  1.00  0.00    -0.206 F 
ATOM     95  C   UNL A   1      40.366  36.315  38.188  1.00  0.00     0.059 A 
ATOM     96  C   UNL A   1      38.791  34.825  39.282  1.00  0.00     0.059 A 
ATOM     97  F   UNL A   1      38.310  32.738  38.329  1.00  0.00    -0.206 F 
ATOM     98  C   UNL A   1      39.495  36.026  39.241  1.00  0.00     0.060 A 
BRANCH  98  99
ATOM     99  S   UNL A   1      39.274  37.259  40.541  1.00  0.00     0.124 S 
ATOM    100  O   UNL A   1      38.231  38.104  39.971  1.00  0.00    -0.237 OA
ATOM    101  O   UNL A   1      38.874  36.440  41.682  1.00  0.00    -0.237 OA
ATOM    102  O   UNL A   1      40.592  37.876  40.652  1.00  0.00    -0.744 OA
ENDBRANCH  98  99
ENDBRANCH  66  91
ENDBRANCH  40  41
ENDBRANCH  32  35
ENDBRANCH  30  31
ENDBRANCH   1  30
TORSDOF 15
ENDMDL
