MODEL 1
REMARK VINA RESULT:     -11.6      0.000      0.000
REMARK SMILES C[C@@H]1[C@@H](C(=O)NCCCNC(=O)c2ccc(-c3c4nc(c(-c5c(F)cc(S(=O)(=O)[O-])cc5F)c5ccc([nH]5)c(-c5c(F)cc(S(=O)(=O)[O-])cc5F)c5nc(c(-c6c(F)cc(S(=O)(=O)[O-])cc6F)c6ccc3[nH]6)C=C5)C=C4)cc2)CCN1C(=O)CN1C(=O)CNC1=O
REMARK SMILES IDX 8 1 7 2 6 3 4 4 5 5 3 7 1 8 2 9 81 10 79 11 80 12 82 13
REMARK SMILES IDX 83 14 84 15 85 16 86 17 90 18 87 19 88 20 89 21 91 22 9 24
REMARK SMILES IDX 10 25 11 26 12 28 13 29 14 30 78 31 15 32 77 33 16 34 17 35
REMARK SMILES IDX 18 36 71 37 19 38 76 39 70 40 72 41 20 42 75 43 69 44 68 45
REMARK SMILES IDX 21 47 55 48 34 49 54 50 35 51 38 52 53 53 73 54 36 55 37 56
REMARK SMILES IDX 52 58 74 59 39 60 22 61 23 62 32 63 24 64 25 65 31 66 33 67
REMARK SMILES IDX 26 68 27 69 28 70 29 71 30 72 56 73 57 74 66 75 58 76 59 77
REMARK SMILES IDX 65 78 67 79 60 80 61 81 62 82 63 83 64 84 40 85 41 86 50 87
REMARK SMILES IDX 42 88 43 89 49 90 51 91 44 92 45 93 46 94 47 95 48 96
REMARK H PARENT 6 6 89 23 10 27 72 46 38 57
REMARK Flexibility Score: inf
ROOT
ATOM      1  C   UNL A   1      32.647  28.220  25.973  1.00  0.00     0.042 C 
ENDROOT
BRANCH   1   2
ATOM      2  C   UNL A   1      31.286  27.572  26.182  1.00  0.00     0.117 C 
BRANCH   2   3
ATOM      3  N   UNL A   1      31.381  26.324  26.912  1.00  0.00    -0.356 N 
ATOM      4  C   UNL A   1      31.912  25.130  26.554  1.00  0.00     0.225 C 
ATOM      5  O   UNL A   1      31.525  24.148  27.199  1.00  0.00    -0.275 OA
ATOM      6  H   UNL A   1      30.998  26.348  27.818  1.00  0.00     0.163 HD
BRANCH   4   7
ATOM      7  C   UNL A   1      32.799  24.967  25.321  1.00  0.00     0.102 C 
ATOM      8  C   UNL A   1      32.572  23.649  23.164  1.00  0.00     0.032 C 
ATOM      9  C   UNL A   1      32.547  23.572  24.691  1.00  0.00     0.094 C 
ATOM     10  N   UNL A   1      33.642  22.728  25.208  1.00  0.00    -0.338 N 
ATOM     11  C   UNL A   1      34.323  24.959  25.490  1.00  0.00     0.037 C 
ATOM     12  C   UNL A   1      34.662  23.529  25.845  1.00  0.00     0.121 C 
BRANCH  10  13
ATOM     13  C   UNL A   1      33.656  21.358  25.422  1.00  0.00     0.243 C 
ATOM     14  O   UNL A   1      34.644  20.778  25.879  1.00  0.00    -0.273 OA
BRANCH  13  15
ATOM     15  C   UNL A   1      32.372  20.590  25.146  1.00  0.00     0.230 C 
BRANCH  15  16
ATOM     16  N   UNL A   1      32.513  19.413  24.314  1.00  0.00    -0.253 N 
ATOM     17  C   UNL A   1      32.283  19.445  22.966  1.00  0.00     0.250 C 
ATOM     18  C   UNL A   1      32.564  18.121  24.747  1.00  0.00     0.325 C 
ATOM     19  O   UNL A   1      32.163  20.446  22.272  1.00  0.00    -0.272 OA
ATOM     20  C   UNL A   1      32.141  18.020  22.459  1.00  0.00     0.218 C 
ATOM     21  N   UNL A   1      32.320  17.292  23.676  1.00  0.00    -0.329 N 
ATOM     22  O   UNL A   1      32.802  17.709  25.864  1.00  0.00    -0.248 OA
ATOM     23  H   UNL A   1      32.275  16.311  23.741  1.00  0.00     0.165 HD
ENDBRANCH  15  16
ENDBRANCH  13  15
ENDBRANCH  10  13
ENDBRANCH   4   7
ENDBRANCH   2   3
ENDBRANCH   1   2
BRANCH   1  24
ATOM     24  C   UNL A   1      33.403  28.529  27.257  1.00  0.00     0.118 C 
BRANCH  24  25
ATOM     25  N   UNL A   1      33.401  29.944  27.601  1.00  0.00    -0.352 N 
ATOM     26  C   UNL A   1      34.380  30.727  28.168  1.00  0.00     0.251 C 
ATOM     27  H   UNL A   1      32.563  30.417  27.393  1.00  0.00     0.163 HD
ATOM     28  O   UNL A   1      34.106  31.872  28.521  1.00  0.00    -0.269 OA
BRANCH  26  29
ATOM     29  C   UNL A   1      35.742  30.190  28.394  1.00  0.00     0.039 A 
ATOM     30  C   UNL A   1      36.670  30.239  27.350  1.00  0.00     0.014 A 
ATOM     31  C   UNL A   1      36.111  29.639  29.621  1.00  0.00     0.014 A 
ATOM     32  C   UNL A   1      37.986  29.821  27.570  1.00  0.00     0.010 A 
ATOM     33  C   UNL A   1      37.444  29.328  29.872  1.00  0.00     0.010 A 
ATOM     34  C   UNL A   1      38.399  29.410  28.849  1.00  0.00    -0.014 A 
BRANCH  34  35
ATOM     35  C   UNL A   1      39.815  29.060  29.140  1.00  0.00     0.031 A 
ATOM     36  C   UNL A   1      40.737  30.085  29.749  1.00  0.00     0.074 A 
ATOM     37  C   UNL A   1      40.294  27.849  28.788  1.00  0.00     0.049 A 
ATOM     38  N   UNL A   1      42.022  30.006  29.985  1.00  0.00    -0.248 NA
ATOM     39  C   UNL A   1      40.143  31.383  30.110  1.00  0.00     0.031 C 
ATOM     40  C   UNL A   1      39.520  26.787  28.142  1.00  0.00     0.029 A 
ATOM     41  N   UNL A   1      41.551  27.311  28.912  1.00  0.00    -0.354 N 
ATOM     42  C   UNL A   1      42.390  31.244  30.499  1.00  0.00     0.074 A 
ATOM     43  C   UNL A   1      41.208  32.077  30.485  1.00  0.00     0.031 C 
ATOM     44  C   UNL A   1      40.309  25.716  27.954  1.00  0.00     0.029 A 
ATOM     45  C   UNL A   1      41.656  26.028  28.424  1.00  0.00     0.049 A 
ATOM     46  H   UNL A   1      42.307  27.796  29.314  1.00  0.00     0.167 HD
ATOM     47  C   UNL A   1      43.597  31.644  30.967  1.00  0.00     0.037 A 
ATOM     48  C   UNL A   1      42.716  25.200  28.355  1.00  0.00     0.037 A 
ATOM     49  C   UNL A   1      44.763  30.801  31.012  1.00  0.00     0.049 A 
ATOM     50  C   UNL A   1      44.045  25.664  28.888  1.00  0.00     0.074 A 
ATOM     51  C   UNL A   1      46.016  31.093  31.523  1.00  0.00     0.029 A 
ATOM     52  N   UNL A   1      44.819  29.500  30.534  1.00  0.00    -0.354 N 
ATOM     53  N   UNL A   1      44.360  26.819  29.422  1.00  0.00    -0.248 NA
ATOM     54  C   UNL A   1      45.160  24.711  28.812  1.00  0.00     0.031 C 
ATOM     55  C   UNL A   1      46.841  29.982  31.316  1.00  0.00     0.029 A 
ATOM     56  C   UNL A   1      46.089  28.981  30.723  1.00  0.00     0.049 A 
ATOM     57  H   UNL A   1      44.066  29.017  30.121  1.00  0.00     0.167 HD
ATOM     58  C   UNL A   1      45.702  26.721  29.774  1.00  0.00     0.074 A 
ATOM     59  C   UNL A   1      46.135  25.391  29.400  1.00  0.00     0.031 C 
ATOM     60  C   UNL A   1      46.502  27.650  30.355  1.00  0.00     0.037 A 
BRANCH  47  61
ATOM     61  C   UNL A   1      43.714  33.055  31.479  1.00  0.00     0.058 A 
ATOM     62  C   UNL A   1      43.409  33.383  32.810  1.00  0.00     0.135 A 
ATOM     63  C   UNL A   1      44.166  34.086  30.640  1.00  0.00     0.135 A 
ATOM     64  F   UNL A   1      42.957  32.439  33.653  1.00  0.00    -0.206 F 
ATOM     65  C   UNL A   1      43.515  34.687  33.281  1.00  0.00     0.059 A 
ATOM     66  C   UNL A   1      44.309  35.393  31.099  1.00  0.00     0.059 A 
ATOM     67  F   UNL A   1      44.473  33.830  29.358  1.00  0.00    -0.206 F 
ATOM     68  C   UNL A   1      43.966  35.686  32.418  1.00  0.00     0.060 A 
BRANCH  68  69
ATOM     69  S   UNL A   1      44.102  37.372  33.046  1.00  0.00     0.124 S 
ATOM     70  O   UNL A   1      43.019  37.404  34.026  1.00  0.00    -0.237 OA
ATOM     71  O   UNL A   1      45.454  37.392  33.596  1.00  0.00    -0.237 OA
ATOM     72  O   UNL A   1      43.898  38.196  31.860  1.00  0.00    -0.744 OA
ENDBRANCH  68  69
ENDBRANCH  47  61
BRANCH  48  73
ATOM     73  C   UNL A   1      42.558  23.835  27.784  1.00  0.00     0.058 A 
ATOM     74  C   UNL A   1      42.431  22.715  28.620  1.00  0.00     0.135 A 
ATOM     75  C   UNL A   1      42.519  23.622  26.397  1.00  0.00     0.135 A 
ATOM     76  F   UNL A   1      42.469  22.866  29.952  1.00  0.00    -0.206 F 
ATOM     77  C   UNL A   1      42.289  21.431  28.103  1.00  0.00     0.059 A 
ATOM     78  C   UNL A   1      42.351  22.351  25.856  1.00  0.00     0.059 A 
ATOM     79  F   UNL A   1      42.618  24.662  25.554  1.00  0.00    -0.206 F 
ATOM     80  C   UNL A   1      42.247  21.260  26.718  1.00  0.00     0.060 A 
BRANCH  80  81
ATOM     81  S   UNL A   1      42.012  19.595  26.059  1.00  0.00     0.124 S 
ATOM     82  O   UNL A   1      42.489  18.772  27.163  1.00  0.00    -0.237 OA
ATOM     83  O   UNL A   1      40.575  19.563  25.811  1.00  0.00    -0.237 OA
ATOM     84  O   UNL A   1      42.846  19.590  24.860  1.00  0.00    -0.744 OA
ENDBRANCH  80  81
ENDBRANCH  48  73
BRANCH  60  85
ATOM     85  C   UNL A   1      47.919  27.250  30.659  1.00  0.00     0.058 A 
ATOM     86  C   UNL A   1      48.259  26.581  31.845  1.00  0.00     0.135 A 
ATOM     87  C   UNL A   1      48.940  27.492  29.726  1.00  0.00     0.135 A 
ATOM     88  F   UNL A   1      47.322  26.331  32.774  1.00  0.00    -0.206 F 
ATOM     89  C   UNL A   1      49.567  26.184  32.105  1.00  0.00     0.059 A 
ATOM     90  C   UNL A   1      50.249  27.079  29.952  1.00  0.00     0.059 A 
ATOM     91  F   UNL A   1      48.666  28.119  28.571  1.00  0.00    -0.206 F 
ATOM     92  C   UNL A   1      50.555  26.436  31.151  1.00  0.00     0.060 A 
BRANCH  92  93
ATOM     93  S   UNL A   1      52.241  25.883  31.483  1.00  0.00     0.124 S 
ATOM     94  O   UNL A   1      52.671  26.844  32.494  1.00  0.00    -0.237 OA
ATOM     95  O   UNL A   1      52.035  24.517  31.954  1.00  0.00    -0.237 OA
ATOM     96  O   UNL A   1      52.900  26.000  30.186  1.00  0.00    -0.744 OA
ENDBRANCH  92  93
ENDBRANCH  60  85
ENDBRANCH  34  35
ENDBRANCH  26  29
ENDBRANCH  24  25
ENDBRANCH   1  24
TORSDOF 16
ENDMDL
MODEL 2
REMARK VINA RESULT:     -11.5      1.471      2.543
REMARK SMILES C[C@@H]1[C@@H](C(=O)NCCCNC(=O)c2ccc(-c3c4nc(c(-c5c(F)cc(S(=O)(=O)[O-])cc5F)c5ccc([nH]5)c(-c5c(F)cc(S(=O)(=O)[O-])cc5F)c5nc(c(-c6c(F)cc(S(=O)(=O)[O-])cc6F)c6ccc3[nH]6)C=C5)C=C4)cc2)CCN1C(=O)CN1C(=O)CNC1=O
REMARK SMILES IDX 8 1 7 2 6 3 4 4 5 5 3 7 1 8 2 9 81 10 79 11 80 12 82 13
REMARK SMILES IDX 83 14 84 15 85 16 86 17 90 18 87 19 88 20 89 21 91 22 9 24
REMARK SMILES IDX 10 25 11 26 12 28 13 29 14 30 78 31 15 32 77 33 16 34 17 35
REMARK SMILES IDX 18 36 71 37 19 38 76 39 70 40 72 41 20 42 75 43 69 44 68 45
REMARK SMILES IDX 21 47 55 48 34 49 54 50 35 51 38 52 53 53 73 54 36 55 37 56
REMARK SMILES IDX 52 58 74 59 39 60 22 61 23 62 32 63 24 64 25 65 31 66 33 67
REMARK SMILES IDX 26 68 27 69 28 70 29 71 30 72 56 73 57 74 66 75 58 76 59 77
REMARK SMILES IDX 65 78 67 79 60 80 61 81 62 82 63 83 64 84 40 85 41 86 50 87
REMARK SMILES IDX 42 88 43 89 49 90 51 91 44 92 45 93 46 94 47 95 48 96
REMARK H PARENT 6 6 89 23 10 27 72 46 38 57
REMARK Flexibility Score: inf
ROOT
ATOM      1  C   UNL A   1      33.932  28.384  25.808  1.00  0.00     0.042 C 
ENDROOT
BRANCH   1   2
ATOM      2  C   UNL A   1      33.222  29.294  24.817  1.00  0.00     0.117 C 
BRANCH   2   3
ATOM      3  N   UNL A   1      33.693  29.099  23.461  1.00  0.00    -0.356 N 
ATOM      4  C   UNL A   1      33.433  28.112  22.569  1.00  0.00     0.225 C 
ATOM      5  O   UNL A   1      34.247  27.985  21.647  1.00  0.00    -0.275 OA
ATOM      6  H   UNL A   1      34.303  29.798  23.134  1.00  0.00     0.163 HD
BRANCH   4   7
ATOM      7  C   UNL A   1      32.305  27.103  22.774  1.00  0.00     0.102 C 
ATOM      8  C   UNL A   1      31.595  25.646  24.727  1.00  0.00     0.032 C 
ATOM      9  C   UNL A   1      32.755  26.039  23.811  1.00  0.00     0.094 C 
ATOM     10  N   UNL A   1      33.212  24.897  22.996  1.00  0.00    -0.338 N 
ATOM     11  C   UNL A   1      31.865  26.221  21.599  1.00  0.00     0.037 C 
ATOM     12  C   UNL A   1      32.828  25.055  21.613  1.00  0.00     0.121 C 
BRANCH  10  13
ATOM     13  C   UNL A   1      34.158  23.932  23.307  1.00  0.00     0.243 C 
ATOM     14  O   UNL A   1      34.770  23.311  22.435  1.00  0.00    -0.273 OA
BRANCH  13  15
ATOM     15  C   UNL A   1      34.482  23.713  24.778  1.00  0.00     0.230 C 
BRANCH  15  16
ATOM     16  N   UNL A   1      35.104  22.445  25.099  1.00  0.00    -0.253 N 
ATOM     17  C   UNL A   1      36.461  22.279  25.090  1.00  0.00     0.250 C 
ATOM     18  C   UNL A   1      34.487  21.230  25.132  1.00  0.00     0.325 C 
ATOM     19  O   UNL A   1      37.303  23.167  25.043  1.00  0.00    -0.272 OA
ATOM     20  C   UNL A   1      36.773  20.792  25.089  1.00  0.00     0.218 C 
ATOM     21  N   UNL A   1      35.452  20.249  25.098  1.00  0.00    -0.329 N 
ATOM     22  O   UNL A   1      33.298  20.989  25.203  1.00  0.00    -0.248 OA
ATOM     23  H   UNL A   1      35.253  19.285  25.083  1.00  0.00     0.165 HD
ENDBRANCH  15  16
ENDBRANCH  13  15
ENDBRANCH  10  13
ENDBRANCH   4   7
ENDBRANCH   2   3
ENDBRANCH   1   2
BRANCH   1  24
ATOM     24  C   UNL A   1      33.505  28.572  27.257  1.00  0.00     0.118 C 
BRANCH  24  25
ATOM     25  N   UNL A   1      33.494  29.966  27.678  1.00  0.00    -0.352 N 
ATOM     26  C   UNL A   1      34.471  30.726  28.280  1.00  0.00     0.251 C 
ATOM     27  H   UNL A   1      32.652  30.443  27.501  1.00  0.00     0.163 HD
ATOM     28  O   UNL A   1      34.191  31.847  28.697  1.00  0.00    -0.269 OA
BRANCH  26  29
ATOM     29  C   UNL A   1      35.839  30.188  28.467  1.00  0.00     0.039 A 
ATOM     30  C   UNL A   1      36.724  30.199  27.385  1.00  0.00     0.014 A 
ATOM     31  C   UNL A   1      36.255  29.673  29.695  1.00  0.00     0.014 A 
ATOM     32  C   UNL A   1      38.046  29.781  27.565  1.00  0.00     0.010 A 
ATOM     33  C   UNL A   1      37.596  29.363  29.901  1.00  0.00     0.010 A 
ATOM     34  C   UNL A   1      38.509  29.408  28.838  1.00  0.00    -0.014 A 
BRANCH  34  35
ATOM     35  C   UNL A   1      39.934  29.059  29.082  1.00  0.00     0.031 A 
ATOM     36  C   UNL A   1      40.879  30.090  29.643  1.00  0.00     0.074 A 
ATOM     37  C   UNL A   1      40.398  27.843  28.730  1.00  0.00     0.049 A 
ATOM     38  N   UNL A   1      42.172  30.013  29.833  1.00  0.00    -0.248 NA
ATOM     39  C   UNL A   1      40.300  31.395  30.007  1.00  0.00     0.031 C 
ATOM     40  C   UNL A   1      39.600  26.772  28.127  1.00  0.00     0.029 A 
ATOM     41  N   UNL A   1      41.658  27.303  28.816  1.00  0.00    -0.354 N 
ATOM     42  C   UNL A   1      42.560  31.257  30.316  1.00  0.00     0.074 A 
ATOM     43  C   UNL A   1      41.379  32.091  30.334  1.00  0.00     0.031 C 
ATOM     44  C   UNL A   1      40.380  25.698  27.926  1.00  0.00     0.029 A 
ATOM     45  C   UNL A   1      41.743  26.014  28.342  1.00  0.00     0.049 A 
ATOM     46  H   UNL A   1      42.429  27.793  29.183  1.00  0.00     0.167 HD
ATOM     47  C   UNL A   1      43.784  31.661  30.734  1.00  0.00     0.037 A 
ATOM     48  C   UNL A   1      42.799  25.183  28.246  1.00  0.00     0.037 A 
ATOM     49  C   UNL A   1      44.949  30.816  30.749  1.00  0.00     0.049 A 
ATOM     50  C   UNL A   1      44.147  25.652  28.723  1.00  0.00     0.074 A 
ATOM     51  C   UNL A   1      46.220  31.113  31.210  1.00  0.00     0.029 A 
ATOM     52  N   UNL A   1      44.986  29.509  30.287  1.00  0.00    -0.354 N 
ATOM     53  N   UNL A   1      44.483  26.814  29.230  1.00  0.00    -0.248 NA
ATOM     54  C   UNL A   1      45.258  24.696  28.621  1.00  0.00     0.031 C 
ATOM     55  C   UNL A   1      47.036  29.998  30.988  1.00  0.00     0.029 A 
ATOM     56  C   UNL A   1      46.262  28.990  30.437  1.00  0.00     0.049 A 
ATOM     57  H   UNL A   1      44.218  29.021  29.909  1.00  0.00     0.167 HD
ATOM     58  C   UNL A   1      45.837  26.718  29.534  1.00  0.00     0.074 A 
ATOM     59  C   UNL A   1      46.254  25.382  29.163  1.00  0.00     0.031 C 
ATOM     60  C   UNL A   1      46.659  27.653  30.072  1.00  0.00     0.037 A 
BRANCH  47  61
ATOM     61  C   UNL A   1      43.921  33.079  31.222  1.00  0.00     0.058 A 
ATOM     62  C   UNL A   1      44.125  34.147  30.334  1.00  0.00     0.135 A 
ATOM     63  C   UNL A   1      43.815  33.378  32.590  1.00  0.00     0.135 A 
ATOM     64  F   UNL A   1      44.250  33.917  29.016  1.00  0.00    -0.206 F 
ATOM     65  C   UNL A   1      44.253  35.456  30.786  1.00  0.00     0.059 A 
ATOM     66  C   UNL A   1      43.909  34.685  33.062  1.00  0.00     0.059 A 
ATOM     67  F   UNL A   1      43.618  32.396  33.484  1.00  0.00    -0.206 F 
ATOM     68  C   UNL A   1      44.144  35.715  32.153  1.00  0.00     0.060 A 
BRANCH  68  69
ATOM     69  S   UNL A   1      44.308  37.419  32.722  1.00  0.00     0.124 S 
ATOM     70  O   UNL A   1      45.684  37.430  33.213  1.00  0.00    -0.237 OA
ATOM     71  O   UNL A   1      44.066  38.182  31.501  1.00  0.00    -0.237 OA
ATOM     72  O   UNL A   1      43.276  37.537  33.747  1.00  0.00    -0.744 OA
ENDBRANCH  68  69
ENDBRANCH  47  61
BRANCH  48  73
ATOM     73  C   UNL A   1      42.619  23.811  27.700  1.00  0.00     0.058 A 
ATOM     74  C   UNL A   1      42.442  22.712  28.556  1.00  0.00     0.135 A 
ATOM     75  C   UNL A   1      42.607  23.569  26.317  1.00  0.00     0.135 A 
ATOM     76  F   UNL A   1      42.452  22.891  29.886  1.00  0.00    -0.206 F 
ATOM     77  C   UNL A   1      42.277  21.422  28.063  1.00  0.00     0.059 A 
ATOM     78  C   UNL A   1      42.419  22.291  25.799  1.00  0.00     0.059 A 
ATOM     79  F   UNL A   1      42.754  24.587  25.456  1.00  0.00    -0.206 F 
ATOM     80  C   UNL A   1      42.265  21.222  26.681  1.00  0.00     0.060 A 
BRANCH  80  81
ATOM     81  S   UNL A   1      42.002  19.549  26.052  1.00  0.00     0.124 S 
ATOM     82  O   UNL A   1      42.928  19.510  24.927  1.00  0.00    -0.237 OA
ATOM     83  O   UNL A   1      42.359  18.729  27.204  1.00  0.00    -0.237 OA
ATOM     84  O   UNL A   1      40.584  19.543  25.704  1.00  0.00    -0.744 OA
ENDBRANCH  80  81
ENDBRANCH  48  73
BRANCH  60  85
ATOM     85  C   UNL A   1      48.085  27.255  30.331  1.00  0.00     0.058 A 
ATOM     86  C   UNL A   1      49.099  27.482  29.387  1.00  0.00     0.135 A 
ATOM     87  C   UNL A   1      48.451  26.688  31.562  1.00  0.00     0.135 A 
ATOM     88  F   UNL A   1      48.802  28.016  28.191  1.00  0.00    -0.206 F 
ATOM     89  C   UNL A   1      50.422  27.142  29.647  1.00  0.00     0.059 A 
ATOM     90  C   UNL A   1      49.772  26.366  31.855  1.00  0.00     0.059 A 
ATOM     91  F   UNL A   1      47.521  26.459  32.504  1.00  0.00    -0.206 F 
ATOM     92  C   UNL A   1      50.749  26.586  30.886  1.00  0.00     0.060 A 
BRANCH  92  93
ATOM     93  S   UNL A   1      52.476  26.183  31.225  1.00  0.00     0.124 S 
ATOM     94  O   UNL A   1      52.875  27.298  32.079  1.00  0.00    -0.237 OA
ATOM     95  O   UNL A   1      52.370  24.886  31.886  1.00  0.00    -0.237 OA
ATOM     96  O   UNL A   1      53.087  26.157  29.900  1.00  0.00    -0.744 OA
ENDBRANCH  92  93
ENDBRANCH  60  85
ENDBRANCH  34  35
ENDBRANCH  26  29
ENDBRANCH  24  25
ENDBRANCH   1  24
TORSDOF 16
ENDMDL
MODEL 3
REMARK VINA RESULT:     -11.5      4.786     10.180
REMARK SMILES C[C@@H]1[C@@H](C(=O)NCCCNC(=O)c2ccc(-c3c4nc(c(-c5c(F)cc(S(=O)(=O)[O-])cc5F)c5ccc([nH]5)c(-c5c(F)cc(S(=O)(=O)[O-])cc5F)c5nc(c(-c6c(F)cc(S(=O)(=O)[O-])cc6F)c6ccc3[nH]6)C=C5)C=C4)cc2)CCN1C(=O)CN1C(=O)CNC1=O
REMARK SMILES IDX 8 1 7 2 6 3 4 4 5 5 3 7 1 8 2 9 81 10 79 11 80 12 82 13
REMARK SMILES IDX 83 14 84 15 85 16 86 17 90 18 87 19 88 20 89 21 91 22 9 24
REMARK SMILES IDX 10 25 11 26 12 28 13 29 14 30 78 31 15 32 77 33 16 34 17 35
REMARK SMILES IDX 18 36 71 37 19 38 76 39 70 40 72 41 20 42 75 43 69 44 68 45
REMARK SMILES IDX 21 47 55 48 34 49 54 50 35 51 38 52 53 53 73 54 36 55 37 56
REMARK SMILES IDX 52 58 74 59 39 60 22 61 23 62 32 63 24 64 25 65 31 66 33 67
REMARK SMILES IDX 26 68 27 69 28 70 29 71 30 72 56 73 57 74 66 75 58 76 59 77
REMARK SMILES IDX 65 78 67 79 60 80 61 81 62 82 63 83 64 84 40 85 41 86 50 87
REMARK SMILES IDX 42 88 43 89 49 90 51 91 44 92 45 93 46 94 47 95 48 96
REMARK H PARENT 6 6 89 23 10 27 72 46 38 57
REMARK Flexibility Score: inf
ROOT
ATOM      1  C   UNL A   1      37.282  23.318  25.851  1.00  0.00     0.042 C 
ENDROOT
BRANCH   1   2
ATOM      2  C   UNL A   1      36.033  24.074  25.425  1.00  0.00     0.117 C 
BRANCH   2   3
ATOM      3  N   UNL A   1      35.581  23.683  24.105  1.00  0.00    -0.356 N 
ATOM      4  C   UNL A   1      34.491  24.066  23.396  1.00  0.00     0.225 C 
ATOM      5  O   UNL A   1      34.144  23.308  22.482  1.00  0.00    -0.275 OA
ATOM      6  H   UNL A   1      36.161  23.032  23.648  1.00  0.00     0.163 HD
BRANCH   4   7
ATOM      7  C   UNL A   1      33.634  25.263  23.800  1.00  0.00     0.102 C 
ATOM      8  C   UNL A   1      33.211  26.448  26.004  1.00  0.00     0.032 C 
ATOM      9  C   UNL A   1      33.195  25.101  25.280  1.00  0.00     0.094 C 
ATOM     10  N   UNL A   1      31.831  24.543  25.204  1.00  0.00    -0.338 N 
ATOM     11  C   UNL A   1      32.287  25.490  23.103  1.00  0.00     0.037 C 
ATOM     12  C   UNL A   1      31.311  24.616  23.858  1.00  0.00     0.121 C 
BRANCH  10  13
ATOM     13  C   UNL A   1      31.170  23.738  26.119  1.00  0.00     0.243 C 
ATOM     14  O   UNL A   1      30.471  24.209  27.020  1.00  0.00    -0.273 OA
BRANCH  13  15
ATOM     15  C   UNL A   1      31.269  22.231  25.929  1.00  0.00     0.230 C 
BRANCH  15  16
ATOM     16  N   UNL A   1      32.609  21.710  25.751  1.00  0.00    -0.253 N 
ATOM     17  C   UNL A   1      32.949  20.935  24.676  1.00  0.00     0.250 C 
ATOM     18  C   UNL A   1      33.577  21.630  26.707  1.00  0.00     0.325 C 
ATOM     19  O   UNL A   1      32.289  20.772  23.659  1.00  0.00    -0.272 OA
ATOM     20  C   UNL A   1      34.273  20.249  24.967  1.00  0.00     0.218 C 
ATOM     21  N   UNL A   1      34.547  20.755  26.275  1.00  0.00    -0.329 N 
ATOM     22  O   UNL A   1      33.642  22.221  27.766  1.00  0.00    -0.248 OA
ATOM     23  H   UNL A   1      35.338  20.507  26.805  1.00  0.00     0.165 HD
ENDBRANCH  15  16
ENDBRANCH  13  15
ENDBRANCH  10  13
ENDBRANCH   4   7
ENDBRANCH   2   3
ENDBRANCH   1   2
BRANCH   1  24
ATOM     24  C   UNL A   1      38.290  24.150  26.630  1.00  0.00     0.118 C 
BRANCH  24  25
ATOM     25  N   UNL A   1      39.612  24.175  26.017  1.00  0.00    -0.352 N 
ATOM     26  C   UNL A   1      40.717  24.941  26.309  1.00  0.00     0.251 C 
ATOM     27  H   UNL A   1      39.734  23.541  25.275  1.00  0.00     0.163 HD
ATOM     28  O   UNL A   1      41.687  24.911  25.554  1.00  0.00    -0.269 OA
BRANCH  26  29
ATOM     29  C   UNL A   1      40.732  25.827  27.496  1.00  0.00     0.039 A 
ATOM     30  C   UNL A   1      41.713  26.818  27.589  1.00  0.00     0.014 A 
ATOM     31  C   UNL A   1      39.790  25.689  28.516  1.00  0.00     0.014 A 
ATOM     32  C   UNL A   1      41.689  27.722  28.656  1.00  0.00     0.010 A 
ATOM     33  C   UNL A   1      39.700  26.654  29.515  1.00  0.00     0.010 A 
ATOM     34  C   UNL A   1      40.651  27.681  29.602  1.00  0.00    -0.014 A 
BRANCH  34  35
ATOM     35  C   UNL A   1      40.538  28.692  30.687  1.00  0.00     0.031 A 
ATOM     36  C   UNL A   1      41.405  28.583  31.915  1.00  0.00     0.074 A 
ATOM     37  C   UNL A   1      39.607  29.663  30.605  1.00  0.00     0.049 A 
ATOM     38  N   UNL A   1      41.388  29.303  33.007  1.00  0.00    -0.248 NA
ATOM     39  C   UNL A   1      42.402  27.498  31.931  1.00  0.00     0.031 C 
ATOM     40  C   UNL A   1      38.668  29.848  29.496  1.00  0.00     0.029 A 
ATOM     41  N   UNL A   1      39.285  30.674  31.478  1.00  0.00    -0.354 N 
ATOM     42  C   UNL A   1      42.350  28.748  33.843  1.00  0.00     0.074 A 
ATOM     43  C   UNL A   1      42.891  27.595  33.158  1.00  0.00     0.031 C 
ATOM     44  C   UNL A   1      37.899  30.921  29.741  1.00  0.00     0.029 A 
ATOM     45  C   UNL A   1      38.256  31.477  31.043  1.00  0.00     0.049 A 
ATOM     46  H   UNL A   1      39.748  30.812  32.336  1.00  0.00     0.167 HD
ATOM     47  C   UNL A   1      42.765  29.175  35.060  1.00  0.00     0.037 A 
ATOM     48  C   UNL A   1      37.661  32.535  31.627  1.00  0.00     0.037 A 
ATOM     49  C   UNL A   1      42.249  30.344  35.723  1.00  0.00     0.049 A 
ATOM     50  C   UNL A   1      38.145  32.995  32.976  1.00  0.00     0.074 A 
ATOM     51  C   UNL A   1      42.647  30.895  36.929  1.00  0.00     0.029 A 
ATOM     52  N   UNL A   1      41.228  31.145  35.234  1.00  0.00    -0.354 N 
ATOM     53  N   UNL A   1      39.096  32.491  33.726  1.00  0.00    -0.248 NA
ATOM     54  C   UNL A   1      37.480  34.170  33.555  1.00  0.00     0.031 C 
ATOM     55  C   UNL A   1      41.837  32.005  37.189  1.00  0.00     0.029 A 
ATOM     56  C   UNL A   1      40.969  32.176  36.123  1.00  0.00     0.049 A 
ATOM     57  H   UNL A   1      40.755  31.002  34.382  1.00  0.00     0.167 HD
ATOM     58  C   UNL A   1      39.162  33.306  34.852  1.00  0.00     0.074 A 
ATOM     59  C   UNL A   1      38.163  34.339  34.679  1.00  0.00     0.031 C 
ATOM     60  C   UNL A   1      39.978  33.205  35.931  1.00  0.00     0.037 A 
BRANCH  47  61
ATOM     61  C   UNL A   1      43.842  28.379  35.748  1.00  0.00     0.058 A 
ATOM     62  C   UNL A   1      43.533  27.343  36.644  1.00  0.00     0.135 A 
ATOM     63  C   UNL A   1      45.198  28.632  35.486  1.00  0.00     0.135 A 
ATOM     64  F   UNL A   1      42.253  27.067  36.945  1.00  0.00    -0.206 F 
ATOM     65  C   UNL A   1      44.528  26.609  37.281  1.00  0.00     0.059 A 
ATOM     66  C   UNL A   1      46.210  27.889  36.088  1.00  0.00     0.059 A 
ATOM     67  F   UNL A   1      45.552  29.610  34.636  1.00  0.00    -0.206 F 
ATOM     68  C   UNL A   1      45.865  26.890  36.996  1.00  0.00     0.060 A 
BRANCH  68  69
ATOM     69  S   UNL A   1      47.144  25.925  37.827  1.00  0.00     0.124 S 
ATOM     70  O   UNL A   1      46.787  24.566  37.429  1.00  0.00    -0.237 OA
ATOM     71  O   UNL A   1      48.369  26.457  37.236  1.00  0.00    -0.237 OA
ATOM     72  O   UNL A   1      46.944  26.239  39.238  1.00  0.00    -0.744 OA
ENDBRANCH  68  69
ENDBRANCH  47  61
BRANCH  48  73
ATOM     73  C   UNL A   1      36.561  33.250  30.927  1.00  0.00     0.058 A 
ATOM     74  C   UNL A   1      35.233  33.136  31.367  1.00  0.00     0.135 A 
ATOM     75  C   UNL A   1      36.811  34.071  29.816  1.00  0.00     0.135 A 
ATOM     76  F   UNL A   1      34.941  32.359  32.421  1.00  0.00    -0.206 F 
ATOM     77  C   UNL A   1      34.190  33.793  30.721  1.00  0.00     0.059 A 
ATOM     78  C   UNL A   1      35.789  34.759  29.169  1.00  0.00     0.059 A 
ATOM     79  F   UNL A   1      38.066  34.228  29.366  1.00  0.00    -0.206 F 
ATOM     80  C   UNL A   1      34.480  34.606  29.623  1.00  0.00     0.060 A 
BRANCH  80  81
ATOM     81  S   UNL A   1      33.126  35.493  28.823  1.00  0.00     0.124 S 
ATOM     82  O   UNL A   1      33.848  36.498  28.052  1.00  0.00    -0.237 OA
ATOM     83  O   UNL A   1      32.481  34.437  28.051  1.00  0.00    -0.237 OA
ATOM     84  O   UNL A   1      32.347  36.000  29.949  1.00  0.00    -0.744 OA
ENDBRANCH  80  81
ENDBRANCH  48  73
BRANCH  60  85
ATOM     85  C   UNL A   1      39.855  34.262  36.993  1.00  0.00     0.058 A 
ATOM     86  C   UNL A   1      40.451  35.524  36.852  1.00  0.00     0.135 A 
ATOM     87  C   UNL A   1      39.084  34.024  38.142  1.00  0.00     0.135 A 
ATOM     88  F   UNL A   1      41.204  35.801  35.775  1.00  0.00    -0.206 F 
ATOM     89  C   UNL A   1      40.304  36.509  37.824  1.00  0.00     0.059 A 
ATOM     90  C   UNL A   1      38.900  35.003  39.114  1.00  0.00     0.059 A 
ATOM     91  F   UNL A   1      38.483  32.836  38.321  1.00  0.00    -0.206 F 
ATOM     92  C   UNL A   1      39.524  36.239  38.951  1.00  0.00     0.060 A 
BRANCH  92  93
ATOM     93  S   UNL A   1      39.311  37.536  40.187  1.00  0.00     0.124 S 
ATOM     94  O   UNL A   1      38.909  36.763  41.358  1.00  0.00    -0.237 OA
ATOM     95  O   UNL A   1      40.642  38.132  40.248  1.00  0.00    -0.237 OA
ATOM     96  O   UNL A   1      38.276  38.389  39.612  1.00  0.00    -0.744 OA
ENDBRANCH  92  93
ENDBRANCH  60  85
ENDBRANCH  34  35
ENDBRANCH  26  29
ENDBRANCH  24  25
ENDBRANCH   1  24
TORSDOF 16
ENDMDL
