MODEL 1
REMARK VINA RESULT:     -11.6      0.000      0.000
REMARK SMILES CN(C)S(=O)(=O)c1ccc(N(CC(=O)NCCCNC(=O)c2ccc(-c3c4nc(c(-c5c(F)cc(S(=O)(=O)[O-])cc5F)c5ccc([nH]5)c(-c5c(F)cc(S(=O)(=O)[O-])cc5F)c5nc(c(-c6c(F)cc(S(=O)(=O)[O-])cc6F)c6ccc3[nH]6)C=C5)C=C4)cc2)C(C)(C)C)cc1
REMARK SMILES IDX 16 1 15 2 13 3 14 4 12 6 11 7 10 8 7 9 8 10 93 11 9 12 92 13
REMARK SMILES IDX 4 14 5 15 6 16 2 17 1 18 3 19 88 20 89 21 90 22 91 23 17 24
REMARK SMILES IDX 18 25 19 26 20 27 21 29 22 30 23 31 87 32 24 33 86 34 25 35
REMARK SMILES IDX 26 36 27 37 80 38 28 39 85 40 79 41 81 42 29 43 84 44 78 45
REMARK SMILES IDX 77 46 30 48 64 49 43 50 63 51 44 52 47 53 62 54 82 55 45 56
REMARK SMILES IDX 46 57 61 59 83 60 48 61 31 62 32 63 41 64 33 65 34 66 40 67
REMARK SMILES IDX 42 68 35 69 36 70 37 71 38 72 39 73 65 74 66 75 75 76 67 77
REMARK SMILES IDX 68 78 74 79 76 80 69 81 70 82 71 83 72 84 73 85 49 86 50 87
REMARK SMILES IDX 59 88 51 89 52 90 58 91 60 92 53 93 54 94 55 95 56 96 57 97
REMARK H PARENT 15 5 19 28 81 47 47 58
REMARK Flexibility Score: inf
ROOT
ATOM      1  C   UNL A   1      37.920  23.675  25.837  1.00  0.00     0.117 C 
ENDROOT
BRANCH   1   2
ATOM      2  N   UNL A   1      37.603  23.464  24.441  1.00  0.00    -0.354 N 
ATOM      3  C   UNL A   1      36.547  22.807  23.883  1.00  0.00     0.239 C 
ATOM      4  O   UNL A   1      36.386  22.936  22.663  1.00  0.00    -0.273 OA
ATOM      5  H   UNL A   1      38.242  23.852  23.800  1.00  0.00     0.163 HD
BRANCH   3   6
ATOM      6  C   UNL A   1      35.536  22.023  24.733  1.00  0.00     0.217 C 
BRANCH   6   7
ATOM      7  N   UNL A   1      34.119  22.498  24.659  1.00  0.00    -0.357 N 
BRANCH   7   8
ATOM      8  C   UNL A   1      33.856  23.882  24.746  1.00  0.00     0.038 A 
ATOM      9  C   UNL A   1      33.554  26.745  24.887  1.00  0.00     0.082 A 
ATOM     10  C   UNL A   1      33.536  26.097  23.663  1.00  0.00     0.024 A 
ATOM     11  C   UNL A   1      33.691  25.997  26.045  1.00  0.00     0.024 A 
ATOM     12  C   UNL A   1      33.637  24.697  23.611  1.00  0.00     0.027 A 
ATOM     13  C   UNL A   1      33.836  24.599  25.960  1.00  0.00     0.027 A 
BRANCH   9  14
ATOM     14  S   UNL A   1      33.513  28.516  24.953  1.00  0.00     0.242 S 
ATOM     15  O   UNL A   1      33.629  29.014  23.597  1.00  0.00    -0.207 OA
ATOM     16  O   UNL A   1      34.435  28.941  25.984  1.00  0.00    -0.207 OA
BRANCH  14  17
ATOM     17  N   UNL A   1      31.920  28.854  25.492  1.00  0.00    -0.204 NA
ATOM     18  C   UNL A   1      31.907  29.728  26.690  1.00  0.00     0.124 C 
ATOM     19  C   UNL A   1      30.995  29.351  24.450  1.00  0.00     0.124 C 
ENDBRANCH  14  17
ENDBRANCH   9  14
ENDBRANCH   7   8
BRANCH   7  20
ATOM     20  C   UNL A   1      33.045  21.455  24.373  1.00  0.00     0.032 C 
ATOM     21  C   UNL A   1      32.474  21.606  22.946  1.00  0.00     0.034 C 
ATOM     22  C   UNL A   1      33.574  20.033  24.667  1.00  0.00     0.034 C 
ATOM     23  C   UNL A   1      31.789  21.573  25.286  1.00  0.00     0.034 C 
ENDBRANCH   7  20
ENDBRANCH   6   7
ENDBRANCH   3   6
ENDBRANCH   1   2
BRANCH   1  24
ATOM     24  C   UNL A   1      38.880  22.636  26.400  1.00  0.00     0.042 C 
BRANCH  24  25
ATOM     25  C   UNL A   1      40.078  23.246  27.119  1.00  0.00     0.118 C 
BRANCH  25  26
ATOM     26  N   UNL A   1      41.041  23.817  26.186  1.00  0.00    -0.352 N 
ATOM     27  C   UNL A   1      41.513  25.101  26.088  1.00  0.00     0.251 C 
ATOM     28  H   UNL A   1      41.409  23.185  25.526  1.00  0.00     0.163 HD
ATOM     29  O   UNL A   1      42.132  25.442  25.084  1.00  0.00    -0.269 OA
BRANCH  27  30
ATOM     30  C   UNL A   1      41.277  26.069  27.181  1.00  0.00     0.039 A 
ATOM     31  C   UNL A   1      40.242  25.828  28.087  1.00  0.00     0.014 A 
ATOM     32  C   UNL A   1      42.051  27.228  27.292  1.00  0.00     0.014 A 
ATOM     33  C   UNL A   1      40.017  26.725  29.135  1.00  0.00     0.010 A 
ATOM     34  C   UNL A   1      41.876  28.078  28.382  1.00  0.00     0.010 A 
ATOM     35  C   UNL A   1      40.852  27.841  29.310  1.00  0.00    -0.014 A 
BRANCH  35  36
ATOM     36  C   UNL A   1      40.670  28.769  30.457  1.00  0.00     0.031 A 
ATOM     37  C   UNL A   1      41.512  28.615  31.696  1.00  0.00     0.074 A 
ATOM     38  C   UNL A   1      39.708  29.710  30.404  1.00  0.00     0.049 A 
ATOM     39  N   UNL A   1      41.460  29.288  32.818  1.00  0.00    -0.248 NA
ATOM     40  C   UNL A   1      42.529  27.551  31.685  1.00  0.00     0.031 C 
ATOM     41  C   UNL A   1      38.800  29.930  29.274  1.00  0.00     0.029 A 
ATOM     42  N   UNL A   1      39.323  30.655  31.322  1.00  0.00    -0.354 N 
ATOM     43  C   UNL A   1      42.421  28.721  33.647  1.00  0.00     0.074 A 
ATOM     44  C   UNL A   1      43.007  27.617  32.919  1.00  0.00     0.031 C 
ATOM     45  C   UNL A   1      37.987  30.960  29.555  1.00  0.00     0.029 A 
ATOM     46  C   UNL A   1      38.281  31.446  30.899  1.00  0.00     0.049 A 
ATOM     47  H   UNL A   1      39.755  30.757  32.202  1.00  0.00     0.167 HD
ATOM     48  C   UNL A   1      42.794  29.099  34.893  1.00  0.00     0.037 A 
ATOM     49  C   UNL A   1      37.628  32.445  31.527  1.00  0.00     0.037 A 
ATOM     50  C   UNL A   1      42.222  30.216  35.599  1.00  0.00     0.049 A 
ATOM     51  C   UNL A   1      38.053  32.835  32.918  1.00  0.00     0.074 A 
ATOM     52  C   UNL A   1      42.576  30.721  36.838  1.00  0.00     0.029 A 
ATOM     53  N   UNL A   1      41.173  30.997  35.135  1.00  0.00    -0.354 N 
ATOM     54  N   UNL A   1      39.013  32.333  33.659  1.00  0.00    -0.248 NA
ATOM     55  C   UNL A   1      37.310  33.929  33.557  1.00  0.00     0.031 C 
ATOM     56  C   UNL A   1      41.703  31.768  37.150  1.00  0.00     0.029 A 
ATOM     57  C   UNL A   1      40.847  31.959  36.077  1.00  0.00     0.049 A 
ATOM     58  H   UNL A   1      40.726  30.883  34.265  1.00  0.00     0.167 HD
ATOM     59  C   UNL A   1      39.010  33.074  34.836  1.00  0.00     0.074 A 
ATOM     60  C   UNL A   1      37.963  34.065  34.703  1.00  0.00     0.031 C 
ATOM     61  C   UNL A   1      39.806  32.947  35.927  1.00  0.00     0.037 A 
BRANCH  48  62
ATOM     62  C   UNL A   1      43.870  28.300  35.581  1.00  0.00     0.058 A 
ATOM     63  C   UNL A   1      45.232  28.611  35.436  1.00  0.00     0.135 A 
ATOM     64  C   UNL A   1      43.530  27.242  36.440  1.00  0.00     0.135 A 
ATOM     65  F   UNL A   1      45.617  29.603  34.617  1.00  0.00    -0.206 F 
ATOM     66  C   UNL A   1      46.219  27.889  36.100  1.00  0.00     0.059 A 
ATOM     67  C   UNL A   1      44.498  26.526  37.138  1.00  0.00     0.059 A 
ATOM     68  F   UNL A   1      42.245  26.900  36.616  1.00  0.00    -0.206 F 
ATOM     69  C   UNL A   1      45.842  26.849  36.952  1.00  0.00     0.060 A 
BRANCH  69  70
ATOM     70  S   UNL A   1      47.134  25.936  37.820  1.00  0.00     0.124 S 
ATOM     71  O   UNL A   1      46.997  26.455  39.177  1.00  0.00    -0.237 OA
ATOM     72  O   UNL A   1      46.720  24.550  37.625  1.00  0.00    -0.237 OA
ATOM     73  O   UNL A   1      48.356  26.326  37.121  1.00  0.00    -0.744 OA
ENDBRANCH  69  70
ENDBRANCH  48  62
BRANCH  49  74
ATOM     74  C   UNL A   1      36.516  33.159  30.842  1.00  0.00     0.058 A 
ATOM     75  C   UNL A   1      36.774  34.099  29.834  1.00  0.00     0.135 A 
ATOM     76  C   UNL A   1      35.174  32.923  31.183  1.00  0.00     0.135 A 
ATOM     77  F   UNL A   1      38.040  34.365  29.475  1.00  0.00    -0.206 F 
ATOM     78  C   UNL A   1      35.750  34.799  29.207  1.00  0.00     0.059 A 
ATOM     79  C   UNL A   1      34.129  33.588  30.549  1.00  0.00     0.059 A 
ATOM     80  F   UNL A   1      34.869  32.022  32.130  1.00  0.00    -0.206 F 
ATOM     81  C   UNL A   1      34.429  34.536  29.572  1.00  0.00     0.060 A 
BRANCH  81  82
ATOM     82  S   UNL A   1      33.105  35.437  28.735  1.00  0.00     0.124 S 
ATOM     83  O   UNL A   1      33.862  36.377  27.916  1.00  0.00    -0.237 OA
ATOM     84  O   UNL A   1      32.417  34.371  28.014  1.00  0.00    -0.237 OA
ATOM     85  O   UNL A   1      32.352  36.028  29.837  1.00  0.00    -0.744 OA
ENDBRANCH  81  82
ENDBRANCH  49  74
BRANCH  61  86
ATOM     86  C   UNL A   1      39.610  33.931  37.050  1.00  0.00     0.058 A 
ATOM     87  C   UNL A   1      38.858  33.613  38.192  1.00  0.00     0.135 A 
ATOM     88  C   UNL A   1      40.230  35.190  37.004  1.00  0.00     0.135 A 
ATOM     89  F   UNL A   1      38.238  32.426  38.285  1.00  0.00    -0.206 F 
ATOM     90  C   UNL A   1      38.706  34.518  39.236  1.00  0.00     0.059 A 
ATOM     91  C   UNL A   1      40.120  36.099  38.052  1.00  0.00     0.059 A 
ATOM     92  F   UNL A   1      40.971  35.542  35.941  1.00  0.00    -0.206 F 
ATOM     93  C   UNL A   1      39.345  35.758  39.159  1.00  0.00     0.060 A 
BRANCH  93  94
ATOM     94  S   UNL A   1      39.169  36.909  40.539  1.00  0.00     0.124 S 
ATOM     95  O   UNL A   1      40.554  37.311  40.766  1.00  0.00    -0.237 OA
ATOM     96  O   UNL A   1      38.294  37.933  39.980  1.00  0.00    -0.237 OA
ATOM     97  O   UNL A   1      38.574  36.091  41.591  1.00  0.00    -0.744 OA
ENDBRANCH  93  94
ENDBRANCH  61  86
ENDBRANCH  35  36
ENDBRANCH  27  30
ENDBRANCH  25  26
ENDBRANCH  24  25
ENDBRANCH   1  24
TORSDOF 18
ENDMDL
MODEL 2
REMARK VINA RESULT:     -11.4      6.504     11.987
REMARK SMILES CN(C)S(=O)(=O)c1ccc(N(CC(=O)NCCCNC(=O)c2ccc(-c3c4nc(c(-c5c(F)cc(S(=O)(=O)[O-])cc5F)c5ccc([nH]5)c(-c5c(F)cc(S(=O)(=O)[O-])cc5F)c5nc(c(-c6c(F)cc(S(=O)(=O)[O-])cc6F)c6ccc3[nH]6)C=C5)C=C4)cc2)C(C)(C)C)cc1
REMARK SMILES IDX 16 1 15 2 13 3 14 4 12 6 11 7 10 8 7 9 8 10 93 11 9 12 92 13
REMARK SMILES IDX 4 14 5 15 6 16 2 17 1 18 3 19 88 20 89 21 90 22 91 23 17 24
REMARK SMILES IDX 18 25 19 26 20 27 21 29 22 30 23 31 87 32 24 33 86 34 25 35
REMARK SMILES IDX 26 36 27 37 80 38 28 39 85 40 79 41 81 42 29 43 84 44 78 45
REMARK SMILES IDX 77 46 30 48 64 49 43 50 63 51 44 52 47 53 62 54 82 55 45 56
REMARK SMILES IDX 46 57 61 59 83 60 48 61 31 62 32 63 41 64 33 65 34 66 40 67
REMARK SMILES IDX 42 68 35 69 36 70 37 71 38 72 39 73 65 74 66 75 75 76 67 77
REMARK SMILES IDX 68 78 74 79 76 80 69 81 70 82 71 83 72 84 73 85 49 86 50 87
REMARK SMILES IDX 59 88 51 89 52 90 58 91 60 92 53 93 54 94 55 95 56 96 57 97
REMARK H PARENT 15 5 19 28 81 47 47 58
REMARK Flexibility Score: inf
ROOT
ATOM      1  C   UNL A   1      33.523  29.953  26.777  1.00  0.00     0.117 C 
ENDROOT
BRANCH   1   2
ATOM      2  N   UNL A   1      32.348  29.205  27.172  1.00  0.00    -0.354 N 
ATOM      3  C   UNL A   1      32.073  27.879  27.013  1.00  0.00     0.239 C 
ATOM      4  O   UNL A   1      31.088  27.434  27.615  1.00  0.00    -0.273 OA
ATOM      5  H   UNL A   1      31.646  29.729  27.620  1.00  0.00     0.163 HD
BRANCH   3   6
ATOM      6  C   UNL A   1      32.993  26.947  26.210  1.00  0.00     0.217 C 
BRANCH   6   7
ATOM      7  N   UNL A   1      32.392  26.343  24.981  1.00  0.00    -0.357 N 
BRANCH   7   8
ATOM      8  C   UNL A   1      31.410  27.068  24.271  1.00  0.00     0.038 A 
ATOM      9  C   UNL A   1      29.368  28.674  23.023  1.00  0.00     0.082 A 
ATOM     10  C   UNL A   1      30.678  29.122  23.077  1.00  0.00     0.024 A 
ATOM     11  C   UNL A   1      29.057  27.433  23.552  1.00  0.00     0.024 A 
ATOM     12  C   UNL A   1      31.672  28.309  23.646  1.00  0.00     0.027 A 
ATOM     13  C   UNL A   1      30.066  26.658  24.157  1.00  0.00     0.027 A 
BRANCH   9  14
ATOM     14  S   UNL A   1      28.096  29.731  22.384  1.00  0.00     0.242 S 
ATOM     15  O   UNL A   1      26.828  29.268  22.910  1.00  0.00    -0.207 OA
ATOM     16  O   UNL A   1      28.308  29.864  20.959  1.00  0.00    -0.207 OA
BRANCH  14  17
ATOM     17  N   UNL A   1      28.437  31.244  23.116  1.00  0.00    -0.204 NA
ATOM     18  C   UNL A   1      28.787  32.283  22.118  1.00  0.00     0.124 C 
ATOM     19  C   UNL A   1      27.410  31.730  24.064  1.00  0.00     0.124 C 
ENDBRANCH  14  17
ENDBRANCH   9  14
ENDBRANCH   7   8
BRANCH   7  20
ATOM     20  C   UNL A   1      32.967  25.016  24.500  1.00  0.00     0.032 C 
ATOM     21  C   UNL A   1      33.009  24.942  22.958  1.00  0.00     0.034 C 
ATOM     22  C   UNL A   1      34.341  24.747  25.157  1.00  0.00     0.034 C 
ATOM     23  C   UNL A   1      32.120  23.774  24.906  1.00  0.00     0.034 C 
ENDBRANCH   7  20
ENDBRANCH   6   7
ENDBRANCH   3   6
ENDBRANCH   1   2
BRANCH   1  24
ATOM     24  C   UNL A   1      34.745  29.649  27.633  1.00  0.00     0.042 C 
BRANCH  24  25
ATOM     25  C   UNL A   1      35.532  30.893  28.028  1.00  0.00     0.118 C 
BRANCH  25  26
ATOM     26  N   UNL A   1      35.539  31.098  29.471  1.00  0.00    -0.352 N 
ATOM     27  C   UNL A   1      36.459  30.702  30.409  1.00  0.00     0.251 C 
ATOM     28  H   UNL A   1      34.768  31.596  29.826  1.00  0.00     0.163 HD
ATOM     29  O   UNL A   1      36.166  30.754  31.600  1.00  0.00    -0.269 OA
BRANCH  27  30
ATOM     30  C   UNL A   1      37.790  30.214  29.990  1.00  0.00     0.039 A 
ATOM     31  C   UNL A   1      38.118  30.223  28.632  1.00  0.00     0.014 A 
ATOM     32  C   UNL A   1      38.699  29.717  30.928  1.00  0.00     0.014 A 
ATOM     33  C   UNL A   1      39.379  29.781  28.223  1.00  0.00     0.010 A 
ATOM     34  C   UNL A   1      39.982  29.352  30.527  1.00  0.00     0.010 A 
ATOM     35  C   UNL A   1      40.333  29.371  29.169  1.00  0.00    -0.014 A 
BRANCH  35  36
ATOM     36  C   UNL A   1      41.701  28.961  28.757  1.00  0.00     0.031 A 
ATOM     37  C   UNL A   1      42.811  29.977  28.699  1.00  0.00     0.074 A 
ATOM     38  C   UNL A   1      41.928  27.687  28.381  1.00  0.00     0.049 A 
ATOM     39  N   UNL A   1      44.051  29.824  28.310  1.00  0.00    -0.248 NA
ATOM     40  C   UNL A   1      42.480  31.352  29.108  1.00  0.00     0.031 C 
ATOM     41  C   UNL A   1      40.923  26.621  28.354  1.00  0.00     0.029 A 
ATOM     42  N   UNL A   1      43.073  27.071  27.939  1.00  0.00    -0.354 N 
ATOM     43  C   UNL A   1      44.641  31.078  28.411  1.00  0.00     0.074 A 
ATOM     44  C   UNL A   1      43.610  31.994  28.851  1.00  0.00     0.031 C 
ATOM     45  C   UNL A   1      41.501  25.480  27.949  1.00  0.00     0.029 A 
ATOM     46  C   UNL A   1      42.904  25.739  27.642  1.00  0.00     0.049 A 
ATOM     47  H   UNL A   1      43.934  27.539  27.846  1.00  0.00     0.167 HD
ATOM     48  C   UNL A   1      45.927  31.431  28.178  1.00  0.00     0.037 A 
ATOM     49  C   UNL A   1      43.779  24.830  27.166  1.00  0.00     0.037 A 
ATOM     50  C   UNL A   1      46.952  30.507  27.766  1.00  0.00     0.049 A 
ATOM     51  C   UNL A   1      45.200  25.252  26.901  1.00  0.00     0.074 A 
ATOM     52  C   UNL A   1      48.300  30.751  27.568  1.00  0.00     0.029 A 
ATOM     53  N   UNL A   1      46.744  29.165  27.481  1.00  0.00    -0.354 N 
ATOM     54  N   UNL A   1      45.757  26.429  27.071  1.00  0.00    -0.248 NA
ATOM     55  C   UNL A   1      46.113  24.224  26.384  1.00  0.00     0.031 C 
ATOM     56  C   UNL A   1      48.895  29.573  27.106  1.00  0.00     0.029 A 
ATOM     57  C   UNL A   1      47.932  28.577  27.079  1.00  0.00     0.049 A 
ATOM     58  H   UNL A   1      45.880  28.699  27.553  1.00  0.00     0.167 HD
ATOM     59  C   UNL A   1      47.092  26.271  26.716  1.00  0.00     0.074 A 
ATOM     60  C   UNL A   1      47.261  24.885  26.333  1.00  0.00     0.031 C 
ATOM     61  C   UNL A   1      48.089  27.191  26.710  1.00  0.00     0.037 A 
BRANCH  48  62
ATOM     62  C   UNL A   1      46.307  32.877  28.360  1.00  0.00     0.058 A 
ATOM     63  C   UNL A   1      46.217  33.805  27.310  1.00  0.00     0.135 A 
ATOM     64  C   UNL A   1      46.715  33.352  29.617  1.00  0.00     0.135 A 
ATOM     65  F   UNL A   1      45.847  33.405  26.082  1.00  0.00    -0.206 F 
ATOM     66  C   UNL A   1      46.540  35.146  27.493  1.00  0.00     0.059 A 
ATOM     67  C   UNL A   1      47.012  34.695  29.832  1.00  0.00     0.059 A 
ATOM     68  F   UNL A   1      46.820  32.510  30.657  1.00  0.00    -0.206 F 
ATOM     69  C   UNL A   1      46.934  35.583  28.760  1.00  0.00     0.060 A 
BRANCH  69  70
ATOM     70  S   UNL A   1      47.329  37.329  28.984  1.00  0.00     0.124 S 
ATOM     71  O   UNL A   1      46.799  37.580  30.320  1.00  0.00    -0.237 OA
ATOM     72  O   UNL A   1      48.785  37.336  28.868  1.00  0.00    -0.237 OA
ATOM     73  O   UNL A   1      46.614  37.984  27.892  1.00  0.00    -0.744 OA
ENDBRANCH  69  70
ENDBRANCH  48  62
BRANCH  49  74
ATOM     74  C   UNL A   1      43.344  23.427  26.925  1.00  0.00     0.058 A 
ATOM     75  C   UNL A   1      43.167  22.533  27.991  1.00  0.00     0.135 A 
ATOM     76  C   UNL A   1      43.101  22.948  25.627  1.00  0.00     0.135 A 
ATOM     77  F   UNL A   1      43.392  22.939  29.250  1.00  0.00    -0.206 F 
ATOM     78  C   UNL A   1      42.794  21.210  27.781  1.00  0.00     0.059 A 
ATOM     79  C   UNL A   1      42.696  21.638  25.394  1.00  0.00     0.059 A 
ATOM     80  F   UNL A   1      43.239  23.765  24.571  1.00  0.00    -0.206 F 
ATOM     81  C   UNL A   1      42.560  20.771  26.477  1.00  0.00     0.060 A 
BRANCH  81  82
ATOM     82  S   UNL A   1      42.055  19.056  26.219  1.00  0.00     0.124 S 
ATOM     83  O   UNL A   1      42.981  18.631  25.176  1.00  0.00    -0.237 OA
ATOM     84  O   UNL A   1      42.269  18.472  27.539  1.00  0.00    -0.237 OA
ATOM     85  O   UNL A   1      40.659  19.174  25.812  1.00  0.00    -0.744 OA
ENDBRANCH  81  82
ENDBRANCH  49  74
BRANCH  61  86
ATOM     86  C   UNL A   1      49.466  26.723  26.320  1.00  0.00     0.058 A 
ATOM     87  C   UNL A   1      49.957  26.870  25.013  1.00  0.00     0.135 A 
ATOM     88  C   UNL A   1      50.324  26.169  27.284  1.00  0.00     0.135 A 
ATOM     89  F   UNL A   1      49.177  27.387  24.051  1.00  0.00    -0.206 F 
ATOM     90  C   UNL A   1      51.241  26.460  24.670  1.00  0.00     0.059 A 
ATOM     91  C   UNL A   1      51.624  25.783  26.970  1.00  0.00     0.059 A 
ATOM     92  F   UNL A   1      49.910  26.015  28.552  1.00  0.00    -0.206 F 
ATOM     93  C   UNL A   1      52.069  25.921  25.657  1.00  0.00     0.060 A 
BRANCH  93  94
ATOM     94  S   UNL A   1      53.746  25.428  25.205  1.00  0.00     0.124 S 
ATOM     95  O   UNL A   1      53.677  23.977  25.356  1.00  0.00    -0.237 OA
ATOM     96  O   UNL A   1      53.856  25.918  23.835  1.00  0.00    -0.237 OA
ATOM     97  O   UNL A   1      54.580  26.120  26.182  1.00  0.00    -0.744 OA
ENDBRANCH  93  94
ENDBRANCH  61  86
ENDBRANCH  35  36
ENDBRANCH  27  30
ENDBRANCH  25  26
ENDBRANCH  24  25
ENDBRANCH   1  24
TORSDOF 18
ENDMDL
MODEL 3
REMARK VINA RESULT:     -11.3      6.547     11.774
REMARK SMILES CN(C)S(=O)(=O)c1ccc(N(CC(=O)NCCCNC(=O)c2ccc(-c3c4nc(c(-c5c(F)cc(S(=O)(=O)[O-])cc5F)c5ccc([nH]5)c(-c5c(F)cc(S(=O)(=O)[O-])cc5F)c5nc(c(-c6c(F)cc(S(=O)(=O)[O-])cc6F)c6ccc3[nH]6)C=C5)C=C4)cc2)C(C)(C)C)cc1
REMARK SMILES IDX 16 1 15 2 13 3 14 4 12 6 11 7 10 8 7 9 8 10 93 11 9 12 92 13
REMARK SMILES IDX 4 14 5 15 6 16 2 17 1 18 3 19 88 20 89 21 90 22 91 23 17 24
REMARK SMILES IDX 18 25 19 26 20 27 21 29 22 30 23 31 87 32 24 33 86 34 25 35
REMARK SMILES IDX 26 36 27 37 80 38 28 39 85 40 79 41 81 42 29 43 84 44 78 45
REMARK SMILES IDX 77 46 30 48 64 49 43 50 63 51 44 52 47 53 62 54 82 55 45 56
REMARK SMILES IDX 46 57 61 59 83 60 48 61 31 62 32 63 41 64 33 65 34 66 40 67
REMARK SMILES IDX 42 68 35 69 36 70 37 71 38 72 39 73 65 74 66 75 75 76 67 77
REMARK SMILES IDX 68 78 74 79 76 80 69 81 70 82 71 83 72 84 73 85 49 86 50 87
REMARK SMILES IDX 59 88 51 89 52 90 58 91 60 92 53 93 54 94 55 95 56 96 57 97
REMARK H PARENT 15 5 19 28 81 47 47 58
REMARK Flexibility Score: inf
ROOT
ATOM      1  C   UNL A   1      34.216  29.256  27.196  1.00  0.00     0.117 C 
ENDROOT
BRANCH   1   2
ATOM      2  N   UNL A   1      33.032  28.671  27.789  1.00  0.00    -0.354 N 
ATOM      3  C   UNL A   1      31.836  28.365  27.211  1.00  0.00     0.239 C 
ATOM      4  O   UNL A   1      31.048  27.685  27.879  1.00  0.00    -0.273 OA
ATOM      5  H   UNL A   1      33.100  28.464  28.749  1.00  0.00     0.163 HD
BRANCH   3   6
ATOM      6  C   UNL A   1      31.511  28.751  25.760  1.00  0.00     0.217 C 
BRANCH   6   7
ATOM      7  N   UNL A   1      31.475  27.622  24.780  1.00  0.00    -0.357 N 
BRANCH   7   8
ATOM      8  C   UNL A   1      32.333  26.518  24.975  1.00  0.00     0.038 A 
ATOM      9  C   UNL A   1      34.122  24.346  25.598  1.00  0.00     0.082 A 
ATOM     10  C   UNL A   1      32.780  24.266  25.928  1.00  0.00     0.024 A 
ATOM     11  C   UNL A   1      34.589  25.472  24.940  1.00  0.00     0.024 A 
ATOM     12  C   UNL A   1      31.910  25.311  25.578  1.00  0.00     0.027 A 
ATOM     13  C   UNL A   1      33.703  26.524  24.641  1.00  0.00     0.027 A 
BRANCH   9  14
ATOM     14  S   UNL A   1      35.239  23.070  26.114  1.00  0.00     0.242 S 
ATOM     15  O   UNL A   1      34.587  22.303  27.156  1.00  0.00    -0.207 OA
ATOM     16  O   UNL A   1      36.533  23.679  26.336  1.00  0.00    -0.207 OA
BRANCH  14  17
ATOM     17  N   UNL A   1      35.355  22.064  24.729  1.00  0.00    -0.204 NA
ATOM     18  C   UNL A   1      36.509  22.425  23.871  1.00  0.00     0.124 C 
ATOM     19  C   UNL A   1      35.318  20.611  25.002  1.00  0.00     0.124 C 
ENDBRANCH  14  17
ENDBRANCH   9  14
ENDBRANCH   7   8
BRANCH   7  20
ATOM     20  C   UNL A   1      30.419  27.681  23.683  1.00  0.00     0.032 C 
ATOM     21  C   UNL A   1      29.258  26.701  23.960  1.00  0.00     0.034 C 
ATOM     22  C   UNL A   1      29.945  29.136  23.460  1.00  0.00     0.034 C 
ATOM     23  C   UNL A   1      30.938  27.249  22.280  1.00  0.00     0.034 C 
ENDBRANCH   7  20
ENDBRANCH   6   7
ENDBRANCH   3   6
ENDBRANCH   1   2
BRANCH   1  24
ATOM     24  C   UNL A   1      34.406  30.723  27.553  1.00  0.00     0.042 C 
BRANCH  24  25
ATOM     25  C   UNL A   1      35.744  31.015  28.223  1.00  0.00     0.118 C 
BRANCH  25  26
ATOM     26  N   UNL A   1      35.699  30.769  29.658  1.00  0.00    -0.352 N 
ATOM     27  C   UNL A   1      36.572  30.074  30.458  1.00  0.00     0.251 C 
ATOM     28  H   UNL A   1      34.926  31.161  30.126  1.00  0.00     0.163 HD
ATOM     29  O   UNL A   1      36.234  29.770  31.598  1.00  0.00    -0.269 OA
BRANCH  27  30
ATOM     30  C   UNL A   1      37.907  29.692  29.950  1.00  0.00     0.039 A 
ATOM     31  C   UNL A   1      38.139  29.711  28.573  1.00  0.00     0.014 A 
ATOM     32  C   UNL A   1      38.917  29.283  30.826  1.00  0.00     0.014 A 
ATOM     33  C   UNL A   1      39.400  29.369  28.079  1.00  0.00     0.010 A 
ATOM     34  C   UNL A   1      40.194  29.019  30.338  1.00  0.00     0.010 A 
ATOM     35  C   UNL A   1      40.448  29.050  28.959  1.00  0.00    -0.014 A 
BRANCH  35  36
ATOM     36  C   UNL A   1      41.814  28.748  28.456  1.00  0.00     0.031 A 
ATOM     37  C   UNL A   1      42.168  27.353  28.017  1.00  0.00     0.074 A 
ATOM     38  C   UNL A   1      42.749  29.719  28.449  1.00  0.00     0.049 A 
ATOM     39  N   UNL A   1      43.318  26.884  27.604  1.00  0.00    -0.248 NA
ATOM     40  C   UNL A   1      41.098  26.343  28.070  1.00  0.00     0.031 C 
ATOM     41  C   UNL A   1      42.537  31.100  28.890  1.00  0.00     0.029 A 
ATOM     42  N   UNL A   1      44.067  29.694  28.067  1.00  0.00    -0.354 N 
ATOM     43  C   UNL A   1      43.115  25.529  27.366  1.00  0.00     0.074 A 
ATOM     44  C   UNL A   1      41.745  25.239  27.727  1.00  0.00     0.031 C 
ATOM     45  C   UNL A   1      43.674  31.795  28.726  1.00  0.00     0.029 A 
ATOM     46  C   UNL A   1      44.708  30.902  28.213  1.00  0.00     0.049 A 
ATOM     47  H   UNL A   1      44.511  28.886  27.719  1.00  0.00     0.167 HD
ATOM     48  C   UNL A   1      43.985  24.616  26.873  1.00  0.00     0.037 A 
ATOM     49  C   UNL A   1      45.988  31.249  27.971  1.00  0.00     0.037 A 
ATOM     50  C   UNL A   1      45.340  24.921  26.491  1.00  0.00     0.049 A 
ATOM     51  C   UNL A   1      46.938  30.210  27.437  1.00  0.00     0.074 A 
ATOM     52  C   UNL A   1      46.281  24.082  25.919  1.00  0.00     0.029 A 
ATOM     53  N   UNL A   1      45.951  26.157  26.648  1.00  0.00    -0.354 N 
ATOM     54  N   UNL A   1      46.709  28.950  27.150  1.00  0.00    -0.248 NA
ATOM     55  C   UNL A   1      48.321  30.641  27.188  1.00  0.00     0.031 C 
ATOM     56  C   UNL A   1      47.477  24.792  25.786  1.00  0.00     0.029 A 
ATOM     57  C   UNL A   1      47.265  26.094  26.214  1.00  0.00     0.049 A 
ATOM     58  H   UNL A   1      45.515  26.960  27.015  1.00  0.00     0.167 HD
ATOM     59  C   UNL A   1      47.908  28.449  26.656  1.00  0.00     0.074 A 
ATOM     60  C   UNL A   1      48.856  29.543  26.671  1.00  0.00     0.031 C 
ATOM     61  C   UNL A   1      48.196  27.195  26.225  1.00  0.00     0.037 A 
BRANCH  48  62
ATOM     62  C   UNL A   1      43.506  23.196  26.716  1.00  0.00     0.058 A 
ATOM     63  C   UNL A   1      43.262  22.631  25.454  1.00  0.00     0.135 A 
ATOM     64  C   UNL A   1      43.341  22.374  27.843  1.00  0.00     0.135 A 
ATOM     65  F   UNL A   1      43.390  23.373  24.343  1.00  0.00    -0.206 F 
ATOM     66  C   UNL A   1      42.850  21.309  25.316  1.00  0.00     0.059 A 
ATOM     67  C   UNL A   1      42.960  21.041  27.727  1.00  0.00     0.059 A 
ATOM     68  F   UNL A   1      43.558  22.862  29.074  1.00  0.00    -0.206 F 
ATOM     69  C   UNL A   1      42.705  20.520  26.459  1.00  0.00     0.060 A 
BRANCH  69  70
ATOM     70  S   UNL A   1      42.189  18.802  26.259  1.00  0.00     0.124 S 
ATOM     71  O   UNL A   1      42.335  18.294  27.619  1.00  0.00    -0.237 OA
ATOM     72  O   UNL A   1      40.818  18.943  25.778  1.00  0.00    -0.237 OA
ATOM     73  O   UNL A   1      43.139  18.271  25.286  1.00  0.00    -0.744 OA
ENDBRANCH  69  70
ENDBRANCH  48  62
BRANCH  49  74
ATOM     74  C   UNL A   1      46.443  32.645  28.213  1.00  0.00     0.058 A 
ATOM     75  C   UNL A   1      46.990  33.022  29.449  1.00  0.00     0.135 A 
ATOM     76  C   UNL A   1      46.337  33.633  27.221  1.00  0.00     0.135 A 
ATOM     77  F   UNL A   1      47.108  32.117  30.433  1.00  0.00    -0.206 F 
ATOM     78  C   UNL A   1      47.390  34.329  29.703  1.00  0.00     0.059 A 
ATOM     79  C   UNL A   1      46.759  34.940  27.440  1.00  0.00     0.059 A 
ATOM     80  F   UNL A   1      45.837  33.324  26.014  1.00  0.00    -0.206 F 
ATOM     81  C   UNL A   1      47.270  35.283  28.691  1.00  0.00     0.060 A 
BRANCH  81  82
ATOM     82  S   UNL A   1      47.812  36.973  29.027  1.00  0.00     0.124 S 
ATOM     83  O   UNL A   1      47.329  37.677  27.844  1.00  0.00    -0.237 OA
ATOM     84  O   UNL A   1      47.121  37.274  30.276  1.00  0.00    -0.237 OA
ATOM     85  O   UNL A   1      49.262  36.846  29.134  1.00  0.00    -0.744 OA
ENDBRANCH  81  82
ENDBRANCH  49  74
BRANCH  61  86
ATOM     86  C   UNL A   1      49.581  26.945  25.690  1.00  0.00     0.058 A 
ATOM     87  C   UNL A   1      49.921  27.214  24.355  1.00  0.00     0.135 A 
ATOM     88  C   UNL A   1      50.595  26.479  26.543  1.00  0.00     0.135 A 
ATOM     89  F   UNL A   1      48.990  27.654  23.495  1.00  0.00    -0.206 F 
ATOM     90  C   UNL A   1      51.211  27.005  23.878  1.00  0.00     0.059 A 
ATOM     91  C   UNL A   1      51.901  26.295  26.096  1.00  0.00     0.059 A 
ATOM     92  F   UNL A   1      50.329  26.216  27.832  1.00  0.00    -0.206 F 
ATOM     93  C   UNL A   1      52.196  26.550  24.758  1.00  0.00     0.060 A 
BRANCH  93  94
ATOM     94  S   UNL A   1      53.873  26.319  24.133  1.00  0.00     0.124 S 
ATOM     95  O   UNL A   1      53.634  26.138  22.705  1.00  0.00    -0.237 OA
ATOM     96  O   UNL A   1      54.522  27.568  24.515  1.00  0.00    -0.237 OA
ATOM     97  O   UNL A   1      54.342  25.133  24.845  1.00  0.00    -0.744 OA
ENDBRANCH  93  94
ENDBRANCH  61  86
ENDBRANCH  35  36
ENDBRANCH  27  30
ENDBRANCH  25  26
ENDBRANCH  24  25
ENDBRANCH   1  24
TORSDOF 18
ENDMDL
