MODEL 1
REMARK VINA RESULT:     -13.7      0.000      0.000
REMARK SMILES O=C(NCCCNC(=O)C1(Cc2ccccc2Cl)CCN(c2ncnc3[nH]ccc23)CC1)c1ccc(-c2c3nc(c(-c4c(F)cc(S(=O)(=O)[O-])cc4F)c4ccc([nH]4)c(-c4c(F)cc(S(=O)(=O)[O-])cc4F)c4nc(c(-c5c(F)cc(S(=O)(=O)[O-])cc5F)c5ccc2[nH]5)C=C4)C=C3)cc1
REMARK SMILES IDX 4 1 3 2 1 3 2 4 33 6 34 7 98 8 35 9 97 10 36 11 37 12 38 13
REMARK SMILES IDX 91 14 39 15 96 16 90 17 92 18 40 19 95 20 89 21 88 22 41 24
REMARK SMILES IDX 75 25 54 26 74 27 55 28 58 29 73 30 93 31 56 32 57 33 72 35
REMARK SMILES IDX 94 36 59 37 42 38 43 39 52 40 44 41 45 42 51 43 53 44 46 45
REMARK SMILES IDX 47 46 48 47 49 48 50 49 76 50 77 51 86 52 78 53 79 54 85 55
REMARK SMILES IDX 87 56 80 57 81 58 82 59 83 60 84 61 60 62 61 63 70 64 62 65
REMARK SMILES IDX 63 66 69 67 71 68 64 69 65 70 66 71 67 72 68 73 5 74 6 75
REMARK SMILES IDX 7 76 8 77 9 79 10 80 19 81 32 82 20 83 31 84 21 85 11 86
REMARK SMILES IDX 12 87 13 88 17 89 14 90 16 91 18 92 15 93 22 94 23 95 30 96
REMARK SMILES IDX 24 97 26 98 29 99 25 100 27 101 28 102
REMARK H PARENT 3 5 92 23 58 34 7 78 27 103
REMARK Flexibility Score: inf
ROOT
ATOM      1  C   UNL A   1      40.320  23.205  26.870  1.00  0.00     0.118 C 
ENDROOT
BRANCH   1   2
ATOM      2  N   UNL A   1      41.078  23.990  25.912  1.00  0.00    -0.352 N 
ATOM      3  O   UNL A   1      41.907  25.829  24.942  1.00  0.00    -0.269 OA
ATOM      4  C   UNL A   1      41.503  25.292  25.974  1.00  0.00     0.251 C 
ATOM      5  H   UNL A   1      41.326  23.511  25.088  1.00  0.00     0.163 HD
BRANCH   4   6
ATOM      6  C   UNL A   1      41.488  26.067  27.241  1.00  0.00     0.039 A 
ATOM      7  C   UNL A   1      42.515  26.955  27.575  1.00  0.00     0.014 A 
ATOM      8  C   UNL A   1      40.349  25.999  28.051  1.00  0.00     0.014 A 
ATOM      9  C   UNL A   1      42.432  27.720  28.743  1.00  0.00     0.010 A 
ATOM     10  C   UNL A   1      40.240  26.806  29.190  1.00  0.00     0.010 A 
ATOM     11  C   UNL A   1      41.281  27.677  29.548  1.00  0.00    -0.014 A 
BRANCH  11  12
ATOM     12  C   UNL A   1      41.116  28.629  30.680  1.00  0.00     0.031 A 
ATOM     13  C   UNL A   1      41.944  28.510  31.931  1.00  0.00     0.074 A 
ATOM     14  C   UNL A   1      40.168  29.584  30.593  1.00  0.00     0.049 A 
ATOM     15  N   UNL A   1      41.889  29.226  33.026  1.00  0.00    -0.248 NA
ATOM     16  C   UNL A   1      42.961  27.447  31.962  1.00  0.00     0.031 C 
ATOM     17  C   UNL A   1      39.274  29.779  29.447  1.00  0.00     0.029 A 
ATOM     18  N   UNL A   1      39.783  30.560  31.479  1.00  0.00    -0.354 N 
ATOM     19  C   UNL A   1      42.843  28.692  33.883  1.00  0.00     0.074 A 
ATOM     20  C   UNL A   1      43.458  27.582  33.186  1.00  0.00     0.031 C 
ATOM     21  C   UNL A   1      38.453  30.810  29.697  1.00  0.00     0.029 A 
ATOM     22  C   UNL A   1      38.725  31.320  31.037  1.00  0.00     0.049 A 
ATOM     23  H   UNL A   1      40.223  30.702  32.348  1.00  0.00     0.167 HD
ATOM     24  C   UNL A   1      43.176  29.097  35.133  1.00  0.00     0.037 A 
ATOM     25  C   UNL A   1      38.025  32.295  31.648  1.00  0.00     0.037 A 
ATOM     26  C   UNL A   1      42.574  30.216  35.813  1.00  0.00     0.049 A 
ATOM     27  C   UNL A   1      38.402  32.707  33.044  1.00  0.00     0.074 A 
ATOM     28  C   UNL A   1      42.910  30.755  37.044  1.00  0.00     0.029 A 
ATOM     29  N   UNL A   1      41.503  30.956  35.334  1.00  0.00    -0.354 N 
ATOM     30  N   UNL A   1      39.367  32.247  33.803  1.00  0.00    -0.248 NA
ATOM     31  C   UNL A   1      37.594  33.763  33.670  1.00  0.00     0.031 C 
ATOM     32  C   UNL A   1      42.010  31.785  37.333  1.00  0.00     0.029 A 
ATOM     33  C   UNL A   1      41.141  31.919  36.263  1.00  0.00     0.049 A 
ATOM     34  H   UNL A   1      41.065  30.817  34.464  1.00  0.00     0.167 HD
ATOM     35  C   UNL A   1      39.286  32.962  34.993  1.00  0.00     0.074 A 
ATOM     36  C   UNL A   1      38.194  33.901  34.845  1.00  0.00     0.031 C 
ATOM     37  C   UNL A   1      40.048  32.846  36.107  1.00  0.00     0.037 A 
BRANCH  24  38
ATOM     38  C   UNL A   1      44.236  28.325  35.871  1.00  0.00     0.058 A 
ATOM     39  C   UNL A   1      45.596  28.646  35.759  1.00  0.00     0.135 A 
ATOM     40  C   UNL A   1      43.875  27.308  36.772  1.00  0.00     0.135 A 
ATOM     41  F   UNL A   1      45.999  29.602  34.906  1.00  0.00    -0.206 F 
ATOM     42  C   UNL A   1      46.565  27.979  36.504  1.00  0.00     0.059 A 
ATOM     43  C   UNL A   1      44.824  26.642  37.543  1.00  0.00     0.059 A 
ATOM     44  F   UNL A   1      42.586  26.963  36.920  1.00  0.00    -0.206 F 
ATOM     45  C   UNL A   1      46.168  26.979  37.395  1.00  0.00     0.060 A 
BRANCH  45  46
ATOM     46  S   UNL A   1      47.439  26.144  38.370  1.00  0.00     0.124 S 
ATOM     47  O   UNL A   1      48.660  26.671  37.766  1.00  0.00    -0.237 OA
ATOM     48  O   UNL A   1      47.151  26.601  39.719  1.00  0.00    -0.237 OA
ATOM     49  O   UNL A   1      47.180  24.725  38.119  1.00  0.00    -0.744 OA
ENDBRANCH  45  46
ENDBRANCH  24  38
BRANCH  25  50
ATOM     50  C   UNL A   1      36.871  32.926  30.954  1.00  0.00     0.058 A 
ATOM     51  C   UNL A   1      35.552  32.558  31.256  1.00  0.00     0.135 A 
ATOM     52  C   UNL A   1      37.067  33.915  29.978  1.00  0.00     0.135 A 
ATOM     53  F   UNL A   1      35.314  31.610  32.176  1.00  0.00    -0.206 F 
ATOM     54  C   UNL A   1      34.468  33.136  30.603  1.00  0.00     0.059 A 
ATOM     55  C   UNL A   1      35.999  34.528  29.331  1.00  0.00     0.059 A 
ATOM     56  F   UNL A   1      38.310  34.312  29.663  1.00  0.00    -0.206 F 
ATOM     57  C   UNL A   1      34.702  34.122  29.642  1.00  0.00     0.060 A 
BRANCH  57  58
ATOM     58  S   UNL A   1      33.289  34.896  28.827  1.00  0.00     0.124 S 
ATOM     59  O   UNL A   1      32.459  35.262  29.967  1.00  0.00    -0.237 OA
ATOM     60  O   UNL A   1      33.914  36.003  28.109  1.00  0.00    -0.237 OA
ATOM     61  O   UNL A   1      32.766  33.828  27.979  1.00  0.00    -0.744 OA
ENDBRANCH  57  58
ENDBRANCH  25  50
BRANCH  37  62
ATOM     62  C   UNL A   1      39.734  33.760  37.258  1.00  0.00     0.058 A 
ATOM     63  C   UNL A   1      38.872  33.365  38.291  1.00  0.00     0.135 A 
ATOM     64  C   UNL A   1      40.350  35.018  37.361  1.00  0.00     0.135 A 
ATOM     65  F   UNL A   1      38.249  32.177  38.234  1.00  0.00    -0.206 F 
ATOM     66  C   UNL A   1      38.622  34.189  39.384  1.00  0.00     0.059 A 
ATOM     67  C   UNL A   1      40.135  35.849  38.456  1.00  0.00     0.059 A 
ATOM     68  F   UNL A   1      41.189  35.441  36.401  1.00  0.00    -0.206 F 
ATOM     69  C   UNL A   1      39.263  35.427  39.460  1.00  0.00     0.060 A 
BRANCH  69  70
ATOM     70  S   UNL A   1      38.976  36.464  40.910  1.00  0.00     0.124 S 
ATOM     71  O   UNL A   1      40.284  36.436  41.555  1.00  0.00    -0.237 OA
ATOM     72  O   UNL A   1      38.591  37.739  40.312  1.00  0.00    -0.237 OA
ATOM     73  O   UNL A   1      37.910  35.766  41.621  1.00  0.00    -0.744 OA
ENDBRANCH  69  70
ENDBRANCH  37  62
ENDBRANCH  11  12
ENDBRANCH   4   6
ENDBRANCH   1   2
BRANCH   1  74
ATOM     74  C   UNL A   1      39.793  21.906  26.262  1.00  0.00     0.042 C 
BRANCH  74  75
ATOM     75  C   UNL A   1      38.286  21.848  25.999  1.00  0.00     0.117 C 
BRANCH  75  76
ATOM     76  N   UNL A   1      37.879  22.206  24.651  1.00  0.00    -0.356 N 
ATOM     77  C   UNL A   1      36.710  22.453  24.016  1.00  0.00     0.226 C 
ATOM     78  H   UNL A   1      38.651  22.292  24.046  1.00  0.00     0.163 HD
ATOM     79  O   UNL A   1      36.852  22.890  22.866  1.00  0.00    -0.274 OA
BRANCH  77  80
ATOM     80  C   UNL A   1      35.298  22.306  24.622  1.00  0.00     0.057 C 
ATOM     81  C   UNL A   1      34.232  22.637  23.525  1.00  0.00     0.039 C 
ATOM     82  C   UNL A   1      35.168  23.322  25.825  1.00  0.00     0.039 C 
ATOM     83  C   UNL A   1      34.076  24.130  23.246  1.00  0.00     0.119 C 
ATOM     84  C   UNL A   1      34.815  24.774  25.470  1.00  0.00     0.119 C 
ATOM     85  N   UNL A   1      33.738  24.775  24.494  1.00  0.00    -0.356 N 
BRANCH  80  86
ATOM     86  C   UNL A   1      34.962  20.909  25.223  1.00  0.00     0.054 C 
BRANCH  86  87
ATOM     87  C   UNL A   1      34.237  19.708  24.638  1.00  0.00    -0.028 A 
ATOM     88  C   UNL A   1      35.066  18.553  24.569  1.00  0.00     0.005 A 
ATOM     89  C   UNL A   1      32.959  19.592  24.079  1.00  0.00     0.044 A 
ATOM     90  C   UNL A   1      34.664  17.370  23.950  1.00  0.00     0.000 A 
ATOM     91  C   UNL A   1      32.557  18.396  23.456  1.00  0.00     0.021 A 
ATOM     92  Cl  UNL A   1      31.786  20.846  24.036  1.00  0.00    -0.084 Cl
ATOM     93  C   UNL A   1      33.406  17.294  23.381  1.00  0.00     0.002 A 
ENDBRANCH  86  87
ENDBRANCH  80  86
BRANCH  85  94
ATOM     94  C   UNL A   1      32.468  25.215  24.811  1.00  0.00     0.141 A 
ATOM     95  N   UNL A   1      32.062  26.417  24.304  1.00  0.00    -0.219 NA
ATOM     96  C   UNL A   1      31.521  24.523  25.615  1.00  0.00     0.061 A 
ATOM     97  C   UNL A   1      30.810  26.854  24.533  1.00  0.00     0.226 A 
ATOM     98  C   UNL A   1      30.272  25.111  25.775  1.00  0.00     0.142 A 
ATOM     99  C   UNL A   1      31.472  23.322  26.394  1.00  0.00     0.033 A 
ATOM    100  N   UNL A   1      29.842  26.267  25.252  1.00  0.00    -0.218 NA
ATOM    101  N   UNL A   1      29.504  24.313  26.578  1.00  0.00    -0.346 N 
ATOM    102  C   UNL A   1      30.224  23.219  26.971  1.00  0.00     0.085 A 
ATOM    103  H   UNL A   1      28.572  24.498  26.836  1.00  0.00     0.167 HD
ENDBRANCH  85  94
ENDBRANCH  77  80
ENDBRANCH  75  76
ENDBRANCH  74  75
ENDBRANCH   1  74
TORSDOF 16
ENDMDL
MODEL 2
REMARK VINA RESULT:     -13.6      6.564     12.180
REMARK SMILES O=C(NCCCNC(=O)C1(Cc2ccccc2Cl)CCN(c2ncnc3[nH]ccc23)CC1)c1ccc(-c2c3nc(c(-c4c(F)cc(S(=O)(=O)[O-])cc4F)c4ccc([nH]4)c(-c4c(F)cc(S(=O)(=O)[O-])cc4F)c4nc(c(-c5c(F)cc(S(=O)(=O)[O-])cc5F)c5ccc2[nH]5)C=C4)C=C3)cc1
REMARK SMILES IDX 4 1 3 2 1 3 2 4 33 6 34 7 98 8 35 9 97 10 36 11 37 12 38 13
REMARK SMILES IDX 91 14 39 15 96 16 90 17 92 18 40 19 95 20 89 21 88 22 41 24
REMARK SMILES IDX 75 25 54 26 74 27 55 28 58 29 73 30 93 31 56 32 57 33 72 35
REMARK SMILES IDX 94 36 59 37 42 38 43 39 52 40 44 41 45 42 51 43 53 44 46 45
REMARK SMILES IDX 47 46 48 47 49 48 50 49 76 50 77 51 86 52 78 53 79 54 85 55
REMARK SMILES IDX 87 56 80 57 81 58 82 59 83 60 84 61 60 62 61 63 70 64 62 65
REMARK SMILES IDX 63 66 69 67 71 68 64 69 65 70 66 71 67 72 68 73 5 74 6 75
REMARK SMILES IDX 7 76 8 77 9 79 10 80 19 81 32 82 20 83 31 84 21 85 11 86
REMARK SMILES IDX 12 87 13 88 17 89 14 90 16 91 18 92 15 93 22 94 23 95 30 96
REMARK SMILES IDX 24 97 26 98 29 99 25 100 27 101 28 102
REMARK H PARENT 3 5 92 23 58 34 7 78 27 103
REMARK Flexibility Score: inf
ROOT
ATOM      1  C   UNL A   1      35.641  31.383  28.500  1.00  0.00     0.118 C 
ENDROOT
BRANCH   1   2
ATOM      2  N   UNL A   1      35.582  30.942  29.882  1.00  0.00    -0.352 N 
ATOM      3  O   UNL A   1      36.151  29.777  31.707  1.00  0.00    -0.269 OA
ATOM      4  C   UNL A   1      36.510  30.276  30.641  1.00  0.00     0.251 C 
ATOM      5  H   UNL A   1      34.742  31.157  30.350  1.00  0.00     0.163 HD
BRANCH   4   6
ATOM      6  C   UNL A   1      37.925  30.138  30.212  1.00  0.00     0.039 A 
ATOM      7  C   UNL A   1      38.973  30.080  31.135  1.00  0.00     0.014 A 
ATOM      8  C   UNL A   1      38.194  29.927  28.854  1.00  0.00     0.014 A 
ATOM      9  C   UNL A   1      40.286  29.879  30.698  1.00  0.00     0.010 A 
ATOM     10  C   UNL A   1      39.500  29.670  28.422  1.00  0.00     0.010 A 
ATOM     11  C   UNL A   1      40.561  29.641  29.341  1.00  0.00    -0.014 A 
BRANCH  11  12
ATOM     12  C   UNL A   1      41.928  29.239  28.906  1.00  0.00     0.031 A 
ATOM     13  C   UNL A   1      43.039  30.247  28.785  1.00  0.00     0.074 A 
ATOM     14  C   UNL A   1      42.150  27.952  28.570  1.00  0.00     0.049 A 
ATOM     15  N   UNL A   1      44.269  30.069  28.373  1.00  0.00    -0.248 NA
ATOM     16  C   UNL A   1      42.730  31.633  29.167  1.00  0.00     0.031 C 
ATOM     17  C   UNL A   1      41.144  26.887  28.609  1.00  0.00     0.029 A 
ATOM     18  N   UNL A   1      43.281  27.319  28.117  1.00  0.00    -0.354 N 
ATOM     19  C   UNL A   1      44.876  31.317  28.425  1.00  0.00     0.074 A 
ATOM     20  C   UNL A   1      43.875  32.250  28.899  1.00  0.00     0.031 C 
ATOM     21  C   UNL A   1      41.702  25.736  28.205  1.00  0.00     0.029 A 
ATOM     22  C   UNL A   1      43.089  25.987  27.831  1.00  0.00     0.049 A 
ATOM     23  H   UNL A   1      44.147  27.775  28.008  1.00  0.00     0.167 HD
ATOM     24  C   UNL A   1      46.152  31.650  28.112  1.00  0.00     0.037 A 
ATOM     25  C   UNL A   1      43.921  25.072  27.296  1.00  0.00     0.037 A 
ATOM     26  C   UNL A   1      47.150  30.712  27.661  1.00  0.00     0.049 A 
ATOM     27  C   UNL A   1      45.324  25.476  26.936  1.00  0.00     0.074 A 
ATOM     28  C   UNL A   1      48.491  30.942  27.406  1.00  0.00     0.029 A 
ATOM     29  N   UNL A   1      46.915  29.374  27.378  1.00  0.00    -0.354 N 
ATOM     30  N   UNL A   1      45.904  26.643  27.076  1.00  0.00    -0.248 NA
ATOM     31  C   UNL A   1      46.183  24.443  26.339  1.00  0.00     0.031 C 
ATOM     32  C   UNL A   1      49.055  29.758  26.920  1.00  0.00     0.029 A 
ATOM     33  C   UNL A   1      48.077  28.778  26.914  1.00  0.00     0.049 A 
ATOM     34  H   UNL A   1      46.051  28.917  27.491  1.00  0.00     0.167 HD
ATOM     35  C   UNL A   1      47.198  26.484  26.592  1.00  0.00     0.074 A 
ATOM     36  C   UNL A   1      47.323  25.103  26.176  1.00  0.00     0.031 C 
ATOM     37  C   UNL A   1      48.189  27.402  26.499  1.00  0.00     0.037 A 
BRANCH  24  38
ATOM     38  C   UNL A   1      46.560  33.094  28.228  1.00  0.00     0.058 A 
ATOM     39  C   UNL A   1      47.124  33.609  29.405  1.00  0.00     0.135 A 
ATOM     40  C   UNL A   1      46.467  33.949  27.117  1.00  0.00     0.135 A 
ATOM     41  F   UNL A   1      47.228  32.838  30.500  1.00  0.00    -0.206 F 
ATOM     42  C   UNL A   1      47.571  34.925  29.481  1.00  0.00     0.059 A 
ATOM     43  C   UNL A   1      46.926  35.263  27.164  1.00  0.00     0.059 A 
ATOM     44  F   UNL A   1      45.937  33.506  25.966  1.00  0.00    -0.206 F 
ATOM     45  C   UNL A   1      47.469  35.744  28.354  1.00  0.00     0.060 A 
BRANCH  45  46
ATOM     46  S   UNL A   1      48.078  37.441  28.467  1.00  0.00     0.124 S 
ATOM     47  O   UNL A   1      47.657  37.809  29.817  1.00  0.00    -0.237 OA
ATOM     48  O   UNL A   1      49.508  37.275  28.271  1.00  0.00    -0.237 OA
ATOM     49  O   UNL A   1      47.371  38.127  27.384  1.00  0.00    -0.744 OA
ENDBRANCH  45  46
ENDBRANCH  24  38
BRANCH  25  50
ATOM     50  C   UNL A   1      43.435  23.691  27.035  1.00  0.00     0.058 A 
ATOM     51  C   UNL A   1      43.278  22.768  28.078  1.00  0.00     0.135 A 
ATOM     52  C   UNL A   1      43.112  23.272  25.735  1.00  0.00     0.135 A 
ATOM     53  F   UNL A   1      43.583  23.119  29.337  1.00  0.00    -0.206 F 
ATOM     54  C   UNL A   1      42.833  21.471  27.841  1.00  0.00     0.059 A 
ATOM     55  C   UNL A   1      42.639  21.990  25.476  1.00  0.00     0.059 A 
ATOM     56  F   UNL A   1      43.231  24.124  24.705  1.00  0.00    -0.206 F 
ATOM     57  C   UNL A   1      42.516  21.092  26.534  1.00  0.00     0.060 A 
BRANCH  57  58
ATOM     58  S   UNL A   1      41.901  19.419  26.239  1.00  0.00     0.124 S 
ATOM     59  O   UNL A   1      42.265  18.751  27.481  1.00  0.00    -0.237 OA
ATOM     60  O   UNL A   1      40.474  19.646  26.029  1.00  0.00    -0.237 OA
ATOM     61  O   UNL A   1      42.640  18.997  25.052  1.00  0.00    -0.744 OA
ENDBRANCH  57  58
ENDBRANCH  25  50
BRANCH  37  62
ATOM     62  C   UNL A   1      49.503  26.947  25.929  1.00  0.00     0.058 A 
ATOM     63  C   UNL A   1      49.804  27.104  24.568  1.00  0.00     0.135 A 
ATOM     64  C   UNL A   1      50.495  26.406  26.763  1.00  0.00     0.135 A 
ATOM     65  F   UNL A   1      48.885  27.605  23.727  1.00  0.00    -0.206 F 
ATOM     66  C   UNL A   1      51.039  26.732  24.049  1.00  0.00     0.059 A 
ATOM     67  C   UNL A   1      51.746  26.049  26.271  1.00  0.00     0.059 A 
ATOM     68  F   UNL A   1      50.258  26.240  28.075  1.00  0.00    -0.206 F 
ATOM     69  C   UNL A   1      52.007  26.210  24.911  1.00  0.00     0.060 A 
BRANCH  69  70
ATOM     70  S   UNL A   1      53.627  25.784  24.237  1.00  0.00     0.124 S 
ATOM     71  O   UNL A   1      53.800  24.421  24.729  1.00  0.00    -0.237 OA
ATOM     72  O   UNL A   1      53.413  25.915  22.799  1.00  0.00    -0.237 OA
ATOM     73  O   UNL A   1      54.513  26.782  24.827  1.00  0.00    -0.744 OA
ENDBRANCH  69  70
ENDBRANCH  37  62
ENDBRANCH  11  12
ENDBRANCH   4   6
ENDBRANCH   1   2
BRANCH   1  74
ATOM     74  C   UNL A   1      34.969  30.394  27.550  1.00  0.00     0.042 C 
BRANCH  74  75
ATOM     75  C   UNL A   1      33.535  30.729  27.134  1.00  0.00     0.117 C 
BRANCH  75  76
ATOM     76  N   UNL A   1      32.517  29.823  27.638  1.00  0.00    -0.356 N 
ATOM     77  C   UNL A   1      31.827  28.763  27.157  1.00  0.00     0.226 C 
ATOM     78  H   UNL A   1      32.266  30.034  28.567  1.00  0.00     0.163 HD
ATOM     79  O   UNL A   1      31.152  28.179  28.016  1.00  0.00    -0.274 OA
BRANCH  77  80
ATOM     80  C   UNL A   1      31.883  28.221  25.713  1.00  0.00     0.057 C 
ATOM     81  C   UNL A   1      30.852  27.054  25.563  1.00  0.00     0.039 C 
ATOM     82  C   UNL A   1      33.345  27.690  25.440  1.00  0.00     0.039 C 
ATOM     83  C   UNL A   1      31.312  25.740  26.189  1.00  0.00     0.119 C 
ATOM     84  C   UNL A   1      33.670  26.272  25.935  1.00  0.00     0.119 C 
ATOM     85  N   UNL A   1      32.574  25.383  25.582  1.00  0.00    -0.356 N 
BRANCH  80  86
ATOM     86  C   UNL A   1      31.606  29.264  24.589  1.00  0.00     0.054 C 
BRANCH  86  87
ATOM     87  C   UNL A   1      30.321  29.675  23.890  1.00  0.00    -0.028 A 
ATOM     88  C   UNL A   1      29.873  30.965  24.290  1.00  0.00     0.005 A 
ATOM     89  C   UNL A   1      29.482  28.965  23.022  1.00  0.00     0.044 A 
ATOM     90  C   UNL A   1      28.650  31.499  23.885  1.00  0.00     0.000 A 
ATOM     91  C   UNL A   1      28.250  29.509  22.614  1.00  0.00     0.021 A 
ATOM     92  Cl  UNL A   1      29.804  27.393  22.409  1.00  0.00    -0.084 Cl
ATOM     93  C   UNL A   1      27.830  30.763  23.050  1.00  0.00     0.002 A 
ENDBRANCH  86  87
ENDBRANCH  80  86
BRANCH  85  94
ATOM     94  C   UNL A   1      32.716  24.396  24.629  1.00  0.00     0.141 A 
ATOM     95  N   UNL A   1      32.802  23.102  25.056  1.00  0.00    -0.219 NA
ATOM     96  C   UNL A   1      32.767  24.595  23.221  1.00  0.00     0.061 A 
ATOM     97  C   UNL A   1      32.876  22.101  24.159  1.00  0.00     0.226 A 
ATOM     98  C   UNL A   1      32.861  23.461  22.422  1.00  0.00     0.142 A 
ATOM     99  C   UNL A   1      32.782  25.699  22.309  1.00  0.00     0.033 A 
ATOM    100  N   UNL A   1      32.906  22.184  22.821  1.00  0.00    -0.218 NA
ATOM    101  N   UNL A   1      32.907  23.846  21.110  1.00  0.00    -0.346 N 
ATOM    102  C   UNL A   1      32.866  25.210  21.022  1.00  0.00     0.085 A 
ATOM    103  H   UNL A   1      32.962  23.233  20.341  1.00  0.00     0.167 HD
ENDBRANCH  85  94
ENDBRANCH  77  80
ENDBRANCH  75  76
ENDBRANCH  74  75
ENDBRANCH   1  74
TORSDOF 16
ENDMDL
MODEL 3
REMARK VINA RESULT:     -13.4      6.440     11.895
REMARK SMILES O=C(NCCCNC(=O)C1(Cc2ccccc2Cl)CCN(c2ncnc3[nH]ccc23)CC1)c1ccc(-c2c3nc(c(-c4c(F)cc(S(=O)(=O)[O-])cc4F)c4ccc([nH]4)c(-c4c(F)cc(S(=O)(=O)[O-])cc4F)c4nc(c(-c5c(F)cc(S(=O)(=O)[O-])cc5F)c5ccc2[nH]5)C=C4)C=C3)cc1
REMARK SMILES IDX 4 1 3 2 1 3 2 4 33 6 34 7 98 8 35 9 97 10 36 11 37 12 38 13
REMARK SMILES IDX 91 14 39 15 96 16 90 17 92 18 40 19 95 20 89 21 88 22 41 24
REMARK SMILES IDX 75 25 54 26 74 27 55 28 58 29 73 30 93 31 56 32 57 33 72 35
REMARK SMILES IDX 94 36 59 37 42 38 43 39 52 40 44 41 45 42 51 43 53 44 46 45
REMARK SMILES IDX 47 46 48 47 49 48 50 49 76 50 77 51 86 52 78 53 79 54 85 55
REMARK SMILES IDX 87 56 80 57 81 58 82 59 83 60 84 61 60 62 61 63 70 64 62 65
REMARK SMILES IDX 63 66 69 67 71 68 64 69 65 70 66 71 67 72 68 73 5 74 6 75
REMARK SMILES IDX 7 76 8 77 9 79 10 80 19 81 32 82 20 83 31 84 21 85 11 86
REMARK SMILES IDX 12 87 13 88 17 89 14 90 16 91 18 92 15 93 22 94 23 95 30 96
REMARK SMILES IDX 24 97 26 98 29 99 25 100 27 101 28 102
REMARK H PARENT 3 5 92 23 58 34 7 78 27 103
REMARK Flexibility Score: inf
ROOT
ATOM      1  C   UNL A   1      35.129  30.641  27.824  1.00  0.00     0.118 C 
ENDROOT
BRANCH   1   2
ATOM      2  N   UNL A   1      35.269  31.149  29.176  1.00  0.00    -0.352 N 
ATOM      3  O   UNL A   1      36.035  31.253  31.277  1.00  0.00    -0.269 OA
ATOM      4  C   UNL A   1      36.249  30.927  30.109  1.00  0.00     0.251 C 
ATOM      5  H   UNL A   1      34.545  31.750  29.470  1.00  0.00     0.163 HD
BRANCH   4   6
ATOM      6  C   UNL A   1      37.550  30.306  29.752  1.00  0.00     0.039 A 
ATOM      7  C   UNL A   1      37.975  30.196  28.425  1.00  0.00     0.014 A 
ATOM      8  C   UNL A   1      38.424  29.947  30.785  1.00  0.00     0.014 A 
ATOM      9  C   UNL A   1      39.237  29.669  28.131  1.00  0.00     0.010 A 
ATOM     10  C   UNL A   1      39.709  29.474  30.493  1.00  0.00     0.010 A 
ATOM     11  C   UNL A   1      40.130  29.331  29.162  1.00  0.00    -0.014 A 
BRANCH  11  12
ATOM     12  C   UNL A   1      41.536  28.954  28.849  1.00  0.00     0.031 A 
ATOM     13  C   UNL A   1      42.637  29.978  28.835  1.00  0.00     0.074 A 
ATOM     14  C   UNL A   1      41.807  27.673  28.524  1.00  0.00     0.049 A 
ATOM     15  N   UNL A   1      43.902  29.823  28.533  1.00  0.00    -0.248 NA
ATOM     16  C   UNL A   1      42.274  31.357  29.198  1.00  0.00     0.031 C 
ATOM     17  C   UNL A   1      40.819  26.592  28.465  1.00  0.00     0.029 A 
ATOM     18  N   UNL A   1      42.984  27.061  28.170  1.00  0.00    -0.354 N 
ATOM     19  C   UNL A   1      44.483  31.080  28.649  1.00  0.00     0.074 A 
ATOM     20  C   UNL A   1      43.428  31.993  29.037  1.00  0.00     0.031 C 
ATOM     21  C   UNL A   1      41.429  25.454  28.105  1.00  0.00     0.029 A 
ATOM     22  C   UNL A   1      42.839  25.728  27.858  1.00  0.00     0.049 A 
ATOM     23  H   UNL A   1      43.849  27.530  28.142  1.00  0.00     0.167 HD
ATOM     24  C   UNL A   1      45.776  31.435  28.453  1.00  0.00     0.037 A 
ATOM     25  C   UNL A   1      43.731  24.831  27.393  1.00  0.00     0.037 A 
ATOM     26  C   UNL A   1      46.824  30.516  28.086  1.00  0.00     0.049 A 
ATOM     27  C   UNL A   1      45.153  25.259  27.162  1.00  0.00     0.074 A 
ATOM     28  C   UNL A   1      48.179  30.768  27.954  1.00  0.00     0.029 A 
ATOM     29  N   UNL A   1      46.636  29.177  27.774  1.00  0.00    -0.354 N 
ATOM     30  N   UNL A   1      45.700  26.433  27.363  1.00  0.00    -0.248 NA
ATOM     31  C   UNL A   1      46.078  24.245  26.637  1.00  0.00     0.031 C 
ATOM     32  C   UNL A   1      48.803  29.597  27.512  1.00  0.00     0.029 A 
ATOM     33  C   UNL A   1      47.845  28.602  27.411  1.00  0.00     0.049 A 
ATOM     34  H   UNL A   1      45.773  28.706  27.806  1.00  0.00     0.167 HD
ATOM     35  C   UNL A   1      47.034  26.298  26.995  1.00  0.00     0.074 A 
ATOM     36  C   UNL A   1      47.217  24.922  26.582  1.00  0.00     0.031 C 
ATOM     37  C   UNL A   1      48.015  27.231  26.997  1.00  0.00     0.037 A 
BRANCH  24  38
ATOM     38  C   UNL A   1      46.149  32.883  28.616  1.00  0.00     0.058 A 
ATOM     39  C   UNL A   1      46.576  33.401  29.847  1.00  0.00     0.135 A 
ATOM     40  C   UNL A   1      46.163  33.741  27.503  1.00  0.00     0.135 A 
ATOM     41  F   UNL A   1      46.573  32.628  30.945  1.00  0.00    -0.206 F 
ATOM     42  C   UNL A   1      46.994  34.723  29.974  1.00  0.00     0.059 A 
ATOM     43  C   UNL A   1      46.597  35.061  27.602  1.00  0.00     0.059 A 
ATOM     44  F   UNL A   1      45.767  33.295  26.301  1.00  0.00    -0.206 F 
ATOM     45  C   UNL A   1      47.003  35.545  28.844  1.00  0.00     0.060 A 
BRANCH  45  46
ATOM     46  S   UNL A   1      47.572  37.249  29.027  1.00  0.00     0.124 S 
ATOM     47  O   UNL A   1      47.825  37.619  27.637  1.00  0.00    -0.237 OA
ATOM     48  O   UNL A   1      46.434  37.895  29.659  1.00  0.00    -0.237 OA
ATOM     49  O   UNL A   1      48.766  37.119  29.865  1.00  0.00    -0.744 OA
ENDBRANCH  45  46
ENDBRANCH  24  38
BRANCH  25  50
ATOM     50  C   UNL A   1      43.292  23.445  27.079  1.00  0.00     0.058 A 
ATOM     51  C   UNL A   1      43.105  23.024  25.755  1.00  0.00     0.135 A 
ATOM     52  C   UNL A   1      43.057  22.512  28.102  1.00  0.00     0.135 A 
ATOM     53  F   UNL A   1      43.309  23.882  24.743  1.00  0.00    -0.206 F 
ATOM     54  C   UNL A   1      42.686  21.732  25.455  1.00  0.00     0.059 A 
ATOM     55  C   UNL A   1      42.663  21.207  27.826  1.00  0.00     0.059 A 
ATOM     56  F   UNL A   1      43.236  22.863  29.385  1.00  0.00    -0.206 F 
ATOM     57  C   UNL A   1      42.467  20.830  26.499  1.00  0.00     0.060 A 
BRANCH  57  58
ATOM     58  S   UNL A   1      41.960  19.144  26.100  1.00  0.00     0.124 S 
ATOM     59  O   UNL A   1      42.262  18.446  27.342  1.00  0.00    -0.237 OA
ATOM     60  O   UNL A   1      40.543  19.312  25.789  1.00  0.00    -0.237 OA
ATOM     61  O   UNL A   1      42.805  18.802  24.959  1.00  0.00    -0.744 OA
ENDBRANCH  57  58
ENDBRANCH  25  50
BRANCH  37  62
ATOM     62  C   UNL A   1      49.382  26.801  26.544  1.00  0.00     0.058 A 
ATOM     63  C   UNL A   1      50.290  26.202  27.430  1.00  0.00     0.135 A 
ATOM     64  C   UNL A   1      49.764  26.932  25.200  1.00  0.00     0.135 A 
ATOM     65  F   UNL A   1      49.977  26.064  28.728  1.00  0.00    -0.206 F 
ATOM     66  C   UNL A   1      51.535  25.755  27.000  1.00  0.00     0.059 A 
ATOM     67  C   UNL A   1      50.995  26.471  24.743  1.00  0.00     0.059 A 
ATOM     68  F   UNL A   1      48.929  27.495  24.311  1.00  0.00    -0.206 F 
ATOM     69  C   UNL A   1      51.876  25.889  25.653  1.00  0.00     0.060 A 
BRANCH  69  70
ATOM     70  S   UNL A   1      53.472  25.254  25.096  1.00  0.00     0.124 S 
ATOM     71  O   UNL A   1      53.460  25.626  23.685  1.00  0.00    -0.237 OA
ATOM     72  O   UNL A   1      54.413  25.989  25.937  1.00  0.00    -0.237 OA
ATOM     73  O   UNL A   1      53.383  23.823  25.369  1.00  0.00    -0.744 OA
ENDBRANCH  69  70
ENDBRANCH  37  62
ENDBRANCH  11  12
ENDBRANCH   4   6
ENDBRANCH   1   2
BRANCH   1  74
ATOM     74  C   UNL A   1      33.745  30.923  27.242  1.00  0.00     0.042 C 
BRANCH  74  75
ATOM     75  C   UNL A   1      33.056  29.748  26.543  1.00  0.00     0.117 C 
BRANCH  75  76
ATOM     76  N   UNL A   1      33.674  29.319  25.300  1.00  0.00    -0.356 N 
ATOM     77  C   UNL A   1      33.518  28.291  24.434  1.00  0.00     0.226 C 
ATOM     78  H   UNL A   1      34.389  29.934  25.016  1.00  0.00     0.163 HD
ATOM     79  O   UNL A   1      34.177  28.414  23.393  1.00  0.00    -0.274 OA
BRANCH  77  80
ATOM     80  C   UNL A   1      32.570  27.086  24.616  1.00  0.00     0.057 C 
ATOM     81  C   UNL A   1      33.015  26.270  25.875  1.00  0.00     0.039 C 
ATOM     82  C   UNL A   1      32.666  26.183  23.324  1.00  0.00     0.039 C 
ATOM     83  C   UNL A   1      34.250  25.402  25.643  1.00  0.00     0.119 C 
ATOM     84  C   UNL A   1      33.838  25.192  23.257  1.00  0.00     0.119 C 
ATOM     85  N   UNL A   1      33.962  24.516  24.539  1.00  0.00    -0.356 N 
BRANCH  80  86
ATOM     86  C   UNL A   1      31.059  27.432  24.768  1.00  0.00     0.054 C 
BRANCH  86  87
ATOM     87  C   UNL A   1      30.069  28.068  23.806  1.00  0.00    -0.028 A 
ATOM     88  C   UNL A   1      30.572  29.264  23.221  1.00  0.00     0.005 A 
ATOM     89  C   UNL A   1      28.746  27.731  23.496  1.00  0.00     0.044 A 
ATOM     90  C   UNL A   1      29.797  30.093  22.410  1.00  0.00     0.000 A 
ATOM     91  C   UNL A   1      27.968  28.569  22.676  1.00  0.00     0.021 A 
ATOM     92  Cl  UNL A   1      27.920  26.344  24.083  1.00  0.00    -0.084 Cl
ATOM     93  C   UNL A   1      28.484  29.749  22.144  1.00  0.00     0.002 A 
ENDBRANCH  86  87
ENDBRANCH  80  86
BRANCH  85  94
ATOM     94  C   UNL A   1      33.669  23.175  24.687  1.00  0.00     0.141 A 
ATOM     95  N   UNL A   1      32.354  22.806  24.704  1.00  0.00    -0.219 NA
ATOM     96  C   UNL A   1      34.617  22.122  24.810  1.00  0.00     0.061 A 
ATOM     97  C   UNL A   1      32.023  21.503  24.781  1.00  0.00     0.226 A 
ATOM     98  C   UNL A   1      34.120  20.827  24.898  1.00  0.00     0.142 A 
ATOM     99  C   UNL A   1      36.039  21.985  24.909  1.00  0.00     0.033 A 
ATOM    100  N   UNL A   1      32.837  20.442  24.875  1.00  0.00    -0.218 NA
ATOM    101  N   UNL A   1      35.168  19.956  25.018  1.00  0.00    -0.346 N 
ATOM    102  C   UNL A   1      36.348  20.647  25.033  1.00  0.00     0.085 A 
ATOM    103  H   UNL A   1      35.087  18.977  25.086  1.00  0.00     0.167 HD
ENDBRANCH  85  94
ENDBRANCH  77  80
ENDBRANCH  75  76
ENDBRANCH  74  75
ENDBRANCH   1  74
TORSDOF 16
ENDMDL
