MODEL 1
REMARK VINA RESULT:     -12.4      0.000      0.000
REMARK SMILES Cc1nc(C(=O)NCCCNC(=O)c2ccc(-c3c4nc(c(-c5c(F)cc(S(=O)(=O)[O-])cc5F)c5ccc([nH]5)c(-c5c(F)cc(S(=O)(=O)[O-])cc5F)c5nc(c(-c6c(F)cc(S(=O)(=O)[O-])cc6F)c6ccc3[nH]6)C=C5)C=C4)cc2)nn1-c1cccc(C(F)(F)F)c1
REMARK SMILES IDX 9 1 8 2 7 3 5 4 6 5 4 7 1 8 2 9 3 10 81 11 80 12 82 13 83 14
REMARK SMILES IDX 91 15 84 16 86 17 85 18 87 19 88 20 89 21 90 22 10 23 11 24
REMARK SMILES IDX 12 25 13 27 14 28 15 29 79 30 16 31 78 32 17 33 18 34 19 35
REMARK SMILES IDX 72 36 20 37 77 38 71 39 73 40 21 41 76 42 70 43 69 44 22 46
REMARK SMILES IDX 56 47 35 48 55 49 36 50 39 51 54 52 74 53 37 54 38 55 53 57
REMARK SMILES IDX 75 58 40 59 23 60 24 61 33 62 25 63 26 64 32 65 34 66 27 67
REMARK SMILES IDX 28 68 29 69 30 70 31 71 57 72 58 73 67 74 59 75 60 76 66 77
REMARK SMILES IDX 68 78 61 79 62 80 63 81 64 82 65 83 41 84 42 85 51 86 43 87
REMARK SMILES IDX 44 88 50 89 52 90 45 91 46 92 47 93 48 94 49 95
REMARK H PARENT 7 6 11 26 73 45 39 56
REMARK Flexibility Score: inf
ROOT
ATOM      1  C   UNL A   1      32.762  28.368  27.126  1.00  0.00     0.042 C 
ENDROOT
BRANCH   1   2
ATOM      2  C   UNL A   1      32.501  27.205  26.164  1.00  0.00     0.118 C 
BRANCH   2   3
ATOM      3  N   UNL A   1      31.684  26.148  26.750  1.00  0.00    -0.349 N 
ATOM      4  C   UNL A   1      31.724  24.771  26.600  1.00  0.00     0.290 C 
ATOM      5  O   UNL A   1      30.887  24.120  27.229  1.00  0.00    -0.266 OA
ATOM      6  H   UNL A   1      30.981  26.470  27.359  1.00  0.00     0.163 HD
BRANCH   4   7
ATOM      7  C   UNL A   1      32.711  24.127  25.705  1.00  0.00     0.239 A 
ATOM      8  C   UNL A   1      34.071  23.221  22.523  1.00  0.00     0.090 C 
ATOM      9  C   UNL A   1      33.763  23.611  23.920  1.00  0.00     0.130 A 
ATOM     10  N   UNL A   1      32.662  24.215  24.324  1.00  0.00    -0.207 NA
ATOM     11  N   UNL A   1      34.498  23.250  25.029  1.00  0.00    -0.217 N 
ATOM     12  N   UNL A   1      33.736  23.374  26.129  1.00  0.00    -0.140 NA
BRANCH  11  13
ATOM     13  C   UNL A   1      35.864  22.926  25.189  1.00  0.00     0.067 A 
ATOM     14  C   UNL A   1      36.281  21.618  24.901  1.00  0.00     0.028 A 
ATOM     15  C   UNL A   1      36.751  23.835  25.775  1.00  0.00     0.041 A 
ATOM     16  C   UNL A   1      37.593  21.230  25.157  1.00  0.00     0.003 A 
ATOM     17  C   UNL A   1      38.062  23.431  26.085  1.00  0.00     0.058 A 
ATOM     18  C   UNL A   1      38.477  22.131  25.748  1.00  0.00     0.013 A 
BRANCH  17  19
ATOM     19  C   UNL A   1      39.011  24.351  26.814  1.00  0.00     0.416 C 
ATOM     20  F   UNL A   1      39.619  23.741  27.868  1.00  0.00    -0.166 F 
ATOM     21  F   UNL A   1      40.015  24.800  26.011  1.00  0.00    -0.166 F 
ATOM     22  F   UNL A   1      38.410  25.462  27.319  1.00  0.00    -0.166 F 
ENDBRANCH  17  19
ENDBRANCH  11  13
ENDBRANCH   4   7
ENDBRANCH   2   3
ENDBRANCH   1   2
BRANCH   1  23
ATOM     23  C   UNL A   1      34.030  29.126  26.760  1.00  0.00     0.118 C 
BRANCH  23  24
ATOM     24  N   UNL A   1      33.890  30.572  26.953  1.00  0.00    -0.352 N 
ATOM     25  C   UNL A   1      34.587  31.409  27.806  1.00  0.00     0.251 C 
ATOM     26  H   UNL A   1      33.204  31.009  26.398  1.00  0.00     0.163 HD
ATOM     27  O   UNL A   1      34.156  32.518  28.070  1.00  0.00    -0.269 OA
BRANCH  25  28
ATOM     28  C   UNL A   1      35.842  30.922  28.411  1.00  0.00     0.039 A 
ATOM     29  C   UNL A   1      36.018  29.565  28.687  1.00  0.00     0.014 A 
ATOM     30  C   UNL A   1      36.866  31.833  28.654  1.00  0.00     0.014 A 
ATOM     31  C   UNL A   1      37.270  29.122  29.108  1.00  0.00     0.010 A 
ATOM     32  C   UNL A   1      38.136  31.375  28.918  1.00  0.00     0.010 A 
ATOM     33  C   UNL A   1      38.342  30.026  29.184  1.00  0.00    -0.014 A 
BRANCH  33  34
ATOM     34  C   UNL A   1      39.704  29.535  29.399  1.00  0.00     0.031 A 
ATOM     35  C   UNL A   1      40.100  29.403  30.831  1.00  0.00     0.074 A 
ATOM     36  C   UNL A   1      40.491  29.029  28.424  1.00  0.00     0.049 A 
ATOM     37  N   UNL A   1      40.998  30.083  31.464  1.00  0.00    -0.248 NA
ATOM     38  C   UNL A   1      39.313  28.509  31.699  1.00  0.00     0.031 C 
ATOM     39  C   UNL A   1      40.157  28.803  27.015  1.00  0.00     0.029 A 
ATOM     40  N   UNL A   1      41.736  28.483  28.522  1.00  0.00    -0.354 N 
ATOM     41  C   UNL A   1      41.065  29.534  32.740  1.00  0.00     0.074 A 
ATOM     42  C   UNL A   1      39.886  28.719  32.887  1.00  0.00     0.031 C 
ATOM     43  C   UNL A   1      41.049  27.947  26.471  1.00  0.00     0.029 A 
ATOM     44  C   UNL A   1      42.104  27.696  27.433  1.00  0.00     0.049 A 
ATOM     45  H   UNL A   1      42.325  28.630  29.297  1.00  0.00     0.167 HD
ATOM     46  C   UNL A   1      42.214  29.585  33.472  1.00  0.00     0.037 A 
ATOM     47  C   UNL A   1      43.177  26.868  27.343  1.00  0.00     0.037 A 
ATOM     48  C   UNL A   1      43.126  30.574  32.947  1.00  0.00     0.049 A 
ATOM     49  C   UNL A   1      44.162  27.327  28.357  1.00  0.00     0.074 A 
ATOM     50  C   UNL A   1      43.018  31.919  32.637  1.00  0.00     0.029 A 
ATOM     51  N   UNL A   1      44.251  30.138  32.287  1.00  0.00    -0.354 N 
ATOM     52  N   UNL A   1      44.795  28.468  28.290  1.00  0.00    -0.248 NA
ATOM     53  C   UNL A   1      44.103  26.728  29.682  1.00  0.00     0.031 C 
ATOM     54  C   UNL A   1      43.738  32.070  31.415  1.00  0.00     0.029 A 
ATOM     55  C   UNL A   1      44.312  30.836  31.107  1.00  0.00     0.049 A 
ATOM     56  H   UNL A   1      44.887  29.456  32.599  1.00  0.00     0.167 HD
ATOM     57  C   UNL A   1      44.805  28.940  29.594  1.00  0.00     0.074 A 
ATOM     58  C   UNL A   1      44.457  27.784  30.418  1.00  0.00     0.031 C 
ATOM     59  C   UNL A   1      44.809  30.279  29.869  1.00  0.00     0.037 A 
BRANCH  46  60
ATOM     60  C   UNL A   1      42.668  28.490  34.409  1.00  0.00     0.058 A 
ATOM     61  C   UNL A   1      43.038  28.817  35.730  1.00  0.00     0.135 A 
ATOM     62  C   UNL A   1      43.029  27.192  33.982  1.00  0.00     0.135 A 
ATOM     63  F   UNL A   1      42.760  30.029  36.236  1.00  0.00    -0.206 F 
ATOM     64  C   UNL A   1      43.776  27.950  36.536  1.00  0.00     0.059 A 
ATOM     65  C   UNL A   1      43.712  26.291  34.789  1.00  0.00     0.059 A 
ATOM     66  F   UNL A   1      42.829  26.769  32.728  1.00  0.00    -0.206 F 
ATOM     67  C   UNL A   1      44.122  26.693  36.048  1.00  0.00     0.060 A 
BRANCH  67  68
ATOM     68  S   UNL A   1      45.159  25.609  37.043  1.00  0.00     0.124 S 
ATOM     69  O   UNL A   1      46.439  25.725  36.355  1.00  0.00    -0.237 OA
ATOM     70  O   UNL A   1      45.079  26.237  38.358  1.00  0.00    -0.237 OA
ATOM     71  O   UNL A   1      44.493  24.315  36.931  1.00  0.00    -0.744 OA
ENDBRANCH  67  68
ENDBRANCH  46  60
BRANCH  47  72
ATOM     72  C   UNL A   1      43.277  25.552  26.650  1.00  0.00     0.058 A 
ATOM     73  C   UNL A   1      43.988  25.422  25.442  1.00  0.00     0.135 A 
ATOM     74  C   UNL A   1      42.926  24.344  27.287  1.00  0.00     0.135 A 
ATOM     75  F   UNL A   1      44.375  26.514  24.765  1.00  0.00    -0.206 F 
ATOM     76  C   UNL A   1      44.387  24.179  24.936  1.00  0.00     0.059 A 
ATOM     77  C   UNL A   1      43.297  23.093  26.794  1.00  0.00     0.059 A 
ATOM     78  F   UNL A   1      42.290  24.337  28.468  1.00  0.00    -0.206 F 
ATOM     79  C   UNL A   1      44.058  23.019  25.635  1.00  0.00     0.060 A 
BRANCH  79  80
ATOM     80  S   UNL A   1      44.747  21.432  25.107  1.00  0.00     0.124 S 
ATOM     81  O   UNL A   1      43.812  20.483  25.702  1.00  0.00    -0.237 OA
ATOM     82  O   UNL A   1      44.704  21.544  23.653  1.00  0.00    -0.237 OA
ATOM     83  O   UNL A   1      46.087  21.434  25.688  1.00  0.00    -0.744 OA
ENDBRANCH  79  80
ENDBRANCH  47  72
BRANCH  59  84
ATOM     84  C   UNL A   1      45.126  31.255  28.763  1.00  0.00     0.058 A 
ATOM     85  C   UNL A   1      44.241  31.626  27.735  1.00  0.00     0.135 A 
ATOM     86  C   UNL A   1      46.342  31.954  28.837  1.00  0.00     0.135 A 
ATOM     87  F   UNL A   1      43.011  31.099  27.652  1.00  0.00    -0.206 F 
ATOM     88  C   UNL A   1      44.574  32.603  26.794  1.00  0.00     0.059 A 
ATOM     89  C   UNL A   1      46.679  32.957  27.932  1.00  0.00     0.059 A 
ATOM     90  F   UNL A   1      47.208  31.696  29.831  1.00  0.00    -0.206 F 
ATOM     91  C   UNL A   1      45.798  33.263  26.899  1.00  0.00     0.060 A 
BRANCH  91  92
ATOM     92  S   UNL A   1      46.206  34.562  25.715  1.00  0.00     0.124 S 
ATOM     93  O   UNL A   1      45.291  34.273  24.615  1.00  0.00    -0.237 OA
ATOM     94  O   UNL A   1      45.925  35.781  26.468  1.00  0.00    -0.237 OA
ATOM     95  O   UNL A   1      47.619  34.331  25.426  1.00  0.00    -0.744 OA
ENDBRANCH  91  92
ENDBRANCH  59  84
ENDBRANCH  33  34
ENDBRANCH  25  28
ENDBRANCH  23  24
ENDBRANCH   1  23
TORSDOF 15
ENDMDL
MODEL 2
REMARK VINA RESULT:     -12.4      2.861      9.260
REMARK SMILES Cc1nc(C(=O)NCCCNC(=O)c2ccc(-c3c4nc(c(-c5c(F)cc(S(=O)(=O)[O-])cc5F)c5ccc([nH]5)c(-c5c(F)cc(S(=O)(=O)[O-])cc5F)c5nc(c(-c6c(F)cc(S(=O)(=O)[O-])cc6F)c6ccc3[nH]6)C=C5)C=C4)cc2)nn1-c1cccc(C(F)(F)F)c1
REMARK SMILES IDX 9 1 8 2 7 3 5 4 6 5 4 7 1 8 2 9 3 10 81 11 80 12 82 13 83 14
REMARK SMILES IDX 91 15 84 16 86 17 85 18 87 19 88 20 89 21 90 22 10 23 11 24
REMARK SMILES IDX 12 25 13 27 14 28 15 29 79 30 16 31 78 32 17 33 18 34 19 35
REMARK SMILES IDX 72 36 20 37 77 38 71 39 73 40 21 41 76 42 70 43 69 44 22 46
REMARK SMILES IDX 56 47 35 48 55 49 36 50 39 51 54 52 74 53 37 54 38 55 53 57
REMARK SMILES IDX 75 58 40 59 23 60 24 61 33 62 25 63 26 64 32 65 34 66 27 67
REMARK SMILES IDX 28 68 29 69 30 70 31 71 57 72 58 73 67 74 59 75 60 76 66 77
REMARK SMILES IDX 68 78 61 79 62 80 63 81 64 82 65 83 41 84 42 85 51 86 43 87
REMARK SMILES IDX 44 88 50 89 52 90 45 91 46 92 47 93 48 94 49 95
REMARK H PARENT 7 6 11 26 73 45 39 56
REMARK Flexibility Score: inf
ROOT
ATOM      1  C   UNL A   1      36.679  23.316  24.624  1.00  0.00     0.042 C 
ENDROOT
BRANCH   1   2
ATOM      2  C   UNL A   1      35.204  23.725  24.563  1.00  0.00     0.118 C 
BRANCH   2   3
ATOM      3  N   UNL A   1      34.784  24.158  23.235  1.00  0.00    -0.349 N 
ATOM      4  C   UNL A   1      33.847  25.095  22.831  1.00  0.00     0.290 C 
ATOM      5  O   UNL A   1      33.700  25.246  21.617  1.00  0.00    -0.266 OA
ATOM      6  H   UNL A   1      35.249  23.703  22.495  1.00  0.00     0.163 HD
BRANCH   4   7
ATOM      7  C   UNL A   1      33.049  25.854  23.820  1.00  0.00     0.239 A 
ATOM      8  C   UNL A   1      30.434  26.257  26.227  1.00  0.00     0.090 C 
ATOM      9  C   UNL A   1      31.655  26.259  25.386  1.00  0.00     0.130 A 
ATOM     10  N   UNL A   1      32.021  25.296  24.561  1.00  0.00    -0.207 NA
ATOM     11  N   UNL A   1      32.499  27.334  25.208  1.00  0.00    -0.217 N 
ATOM     12  N   UNL A   1      33.216  27.157  24.085  1.00  0.00    -0.140 NA
BRANCH  11  13
ATOM     13  C   UNL A   1      32.801  28.440  26.032  1.00  0.00     0.067 A 
ATOM     14  C   UNL A   1      31.909  29.523  26.055  1.00  0.00     0.028 A 
ATOM     15  C   UNL A   1      34.036  28.532  26.684  1.00  0.00     0.041 A 
ATOM     16  C   UNL A   1      32.229  30.678  26.763  1.00  0.00     0.003 A 
ATOM     17  C   UNL A   1      34.385  29.717  27.355  1.00  0.00     0.058 A 
ATOM     18  C   UNL A   1      33.462  30.775  27.407  1.00  0.00     0.013 A 
BRANCH  17  19
ATOM     19  C   UNL A   1      35.750  29.889  27.977  1.00  0.00     0.416 C 
ATOM     20  F   UNL A   1      36.650  28.977  27.515  1.00  0.00    -0.166 F 
ATOM     21  F   UNL A   1      36.288  31.112  27.713  1.00  0.00    -0.166 F 
ATOM     22  F   UNL A   1      35.751  29.763  29.331  1.00  0.00    -0.166 F 
ENDBRANCH  17  19
ENDBRANCH  11  13
ENDBRANCH   4   7
ENDBRANCH   2   3
ENDBRANCH   1   2
BRANCH   1  23
ATOM     23  C   UNL A   1      37.177  23.224  26.060  1.00  0.00     0.118 C 
BRANCH  23  24
ATOM     24  N   UNL A   1      38.200  22.188  26.229  1.00  0.00    -0.352 N 
ATOM     25  C   UNL A   1      39.558  22.333  26.448  1.00  0.00     0.251 C 
ATOM     26  H   UNL A   1      37.875  21.260  26.181  1.00  0.00     0.163 HD
ATOM     27  O   UNL A   1      40.315  21.394  26.268  1.00  0.00    -0.269 OA
BRANCH  25  28
ATOM     28  C   UNL A   1      40.074  23.648  26.875  1.00  0.00     0.039 A 
ATOM     29  C   UNL A   1      39.480  24.825  26.418  1.00  0.00     0.014 A 
ATOM     30  C   UNL A   1      41.131  23.693  27.779  1.00  0.00     0.014 A 
ATOM     31  C   UNL A   1      39.889  26.040  26.964  1.00  0.00     0.010 A 
ATOM     32  C   UNL A   1      41.424  24.870  28.426  1.00  0.00     0.010 A 
ATOM     33  C   UNL A   1      40.837  26.056  28.001  1.00  0.00    -0.014 A 
BRANCH  33  34
ATOM     34  C   UNL A   1      41.102  27.295  28.735  1.00  0.00     0.031 A 
ATOM     35  C   UNL A   1      42.226  28.111  28.192  1.00  0.00     0.074 A 
ATOM     36  C   UNL A   1      40.291  27.800  29.690  1.00  0.00     0.049 A 
ATOM     37  N   UNL A   1      43.360  28.361  28.758  1.00  0.00    -0.248 NA
ATOM     38  C   UNL A   1      42.138  28.594  26.803  1.00  0.00     0.031 C 
ATOM     39  C   UNL A   1      38.993  27.289  30.140  1.00  0.00     0.029 A 
ATOM     40  N   UNL A   1      40.401  28.969  30.381  1.00  0.00    -0.354 N 
ATOM     41  C   UNL A   1      44.028  29.235  27.907  1.00  0.00     0.074 A 
ATOM     42  C   UNL A   1      43.328  29.183  26.650  1.00  0.00     0.031 C 
ATOM     43  C   UNL A   1      38.334  28.258  30.811  1.00  0.00     0.029 A 
ATOM     44  C   UNL A   1      39.220  29.392  30.985  1.00  0.00     0.049 A 
ATOM     45  H   UNL A   1      41.244  29.473  30.447  1.00  0.00     0.167 HD
ATOM     46  C   UNL A   1      44.942  30.127  28.385  1.00  0.00     0.037 A 
ATOM     47  C   UNL A   1      38.974  30.602  31.551  1.00  0.00     0.037 A 
ATOM     48  C   UNL A   1      45.382  29.766  29.712  1.00  0.00     0.049 A 
ATOM     49  C   UNL A   1      40.294  31.194  31.893  1.00  0.00     0.074 A 
ATOM     50  C   UNL A   1      45.901  28.613  30.278  1.00  0.00     0.029 A 
ATOM     51  N   UNL A   1      44.947  30.526  30.772  1.00  0.00    -0.354 N 
ATOM     52  N   UNL A   1      41.091  30.713  32.810  1.00  0.00    -0.248 NA
ATOM     53  C   UNL A   1      40.934  32.047  30.902  1.00  0.00     0.031 C 
ATOM     54  C   UNL A   1      45.266  28.514  31.551  1.00  0.00     0.029 A 
ATOM     55  C   UNL A   1      44.476  29.651  31.719  1.00  0.00     0.049 A 
ATOM     56  H   UNL A   1      44.968  31.507  30.838  1.00  0.00     0.167 HD
ATOM     57  C   UNL A   1      42.359  30.816  32.261  1.00  0.00     0.074 A 
ATOM     58  C   UNL A   1      42.211  31.735  31.133  1.00  0.00     0.031 C 
ATOM     59  C   UNL A   1      43.352  29.933  32.584  1.00  0.00     0.037 A 
BRANCH  46  60
ATOM     60  C   UNL A   1      45.144  31.514  27.821  1.00  0.00     0.058 A 
ATOM     61  C   UNL A   1      46.431  31.910  27.400  1.00  0.00     0.135 A 
ATOM     62  C   UNL A   1      44.199  32.557  27.947  1.00  0.00     0.135 A 
ATOM     63  F   UNL A   1      47.413  31.005  27.261  1.00  0.00    -0.206 F 
ATOM     64  C   UNL A   1      46.771  33.248  27.194  1.00  0.00     0.059 A 
ATOM     65  C   UNL A   1      44.500  33.888  27.690  1.00  0.00     0.059 A 
ATOM     66  F   UNL A   1      42.965  32.352  28.425  1.00  0.00    -0.206 F 
ATOM     67  C   UNL A   1      45.799  34.232  27.358  1.00  0.00     0.060 A 
BRANCH  67  68
ATOM     68  S   UNL A   1      46.255  35.965  27.193  1.00  0.00     0.124 S 
ATOM     69  O   UNL A   1      46.951  36.201  28.452  1.00  0.00    -0.237 OA
ATOM     70  O   UNL A   1      47.088  35.947  25.995  1.00  0.00    -0.237 OA
ATOM     71  O   UNL A   1      44.967  36.636  27.044  1.00  0.00    -0.744 OA
ENDBRANCH  67  68
ENDBRANCH  46  60
BRANCH  47  72
ATOM     72  C   UNL A   1      37.708  31.388  31.546  1.00  0.00     0.058 A 
ATOM     73  C   UNL A   1      36.878  31.431  32.683  1.00  0.00     0.135 A 
ATOM     74  C   UNL A   1      37.420  32.335  30.542  1.00  0.00     0.135 A 
ATOM     75  F   UNL A   1      37.078  30.576  33.698  1.00  0.00    -0.206 F 
ATOM     76  C   UNL A   1      35.876  32.396  32.845  1.00  0.00     0.059 A 
ATOM     77  C   UNL A   1      36.416  33.295  30.672  1.00  0.00     0.059 A 
ATOM     78  F   UNL A   1      38.169  32.426  29.433  1.00  0.00    -0.206 F 
ATOM     79  C   UNL A   1      35.670  33.341  31.843  1.00  0.00     0.060 A 
BRANCH  79  80
ATOM     80  S   UNL A   1      34.529  34.716  32.131  1.00  0.00     0.124 S 
ATOM     81  O   UNL A   1      33.465  34.072  32.893  1.00  0.00    -0.237 OA
ATOM     82  O   UNL A   1      35.362  35.659  32.869  1.00  0.00    -0.237 OA
ATOM     83  O   UNL A   1      34.162  35.139  30.782  1.00  0.00    -0.744 OA
ENDBRANCH  79  80
ENDBRANCH  47  72
BRANCH  59  84
ATOM     84  C   UNL A   1      43.172  29.032  33.780  1.00  0.00     0.058 A 
ATOM     85  C   UNL A   1      43.454  29.390  35.111  1.00  0.00     0.135 A 
ATOM     86  C   UNL A   1      42.547  27.791  33.576  1.00  0.00     0.135 A 
ATOM     87  F   UNL A   1      43.942  30.601  35.417  1.00  0.00    -0.206 F 
ATOM     88  C   UNL A   1      43.180  28.531  36.178  1.00  0.00     0.059 A 
ATOM     89  C   UNL A   1      42.232  26.935  34.628  1.00  0.00     0.059 A 
ATOM     90  F   UNL A   1      42.192  27.411  32.337  1.00  0.00    -0.206 F 
ATOM     91  C   UNL A   1      42.570  27.303  35.927  1.00  0.00     0.060 A 
BRANCH  91  92
ATOM     92  S   UNL A   1      42.168  26.216  37.311  1.00  0.00     0.124 S 
ATOM     93  O   UNL A   1      40.802  26.617  37.629  1.00  0.00    -0.237 OA
ATOM     94  O   UNL A   1      42.317  24.887  36.726  1.00  0.00    -0.237 OA
ATOM     95  O   UNL A   1      43.168  26.559  38.318  1.00  0.00    -0.744 OA
ENDBRANCH  91  92
ENDBRANCH  59  84
ENDBRANCH  33  34
ENDBRANCH  25  28
ENDBRANCH  23  24
ENDBRANCH   1  23
TORSDOF 15
ENDMDL
MODEL 3
REMARK VINA RESULT:     -12.0      2.899      9.123
REMARK SMILES Cc1nc(C(=O)NCCCNC(=O)c2ccc(-c3c4nc(c(-c5c(F)cc(S(=O)(=O)[O-])cc5F)c5ccc([nH]5)c(-c5c(F)cc(S(=O)(=O)[O-])cc5F)c5nc(c(-c6c(F)cc(S(=O)(=O)[O-])cc6F)c6ccc3[nH]6)C=C5)C=C4)cc2)nn1-c1cccc(C(F)(F)F)c1
REMARK SMILES IDX 9 1 8 2 7 3 5 4 6 5 4 7 1 8 2 9 3 10 81 11 80 12 82 13 83 14
REMARK SMILES IDX 91 15 84 16 86 17 85 18 87 19 88 20 89 21 90 22 10 23 11 24
REMARK SMILES IDX 12 25 13 27 14 28 15 29 79 30 16 31 78 32 17 33 18 34 19 35
REMARK SMILES IDX 72 36 20 37 77 38 71 39 73 40 21 41 76 42 70 43 69 44 22 46
REMARK SMILES IDX 56 47 35 48 55 49 36 50 39 51 54 52 74 53 37 54 38 55 53 57
REMARK SMILES IDX 75 58 40 59 23 60 24 61 33 62 25 63 26 64 32 65 34 66 27 67
REMARK SMILES IDX 28 68 29 69 30 70 31 71 57 72 58 73 67 74 59 75 60 76 66 77
REMARK SMILES IDX 68 78 61 79 62 80 63 81 64 82 65 83 41 84 42 85 51 86 43 87
REMARK SMILES IDX 44 88 50 89 52 90 45 91 46 92 47 93 48 94 49 95
REMARK H PARENT 7 6 11 26 73 45 39 56
REMARK Flexibility Score: inf
ROOT
ATOM      1  C   UNL A   1      39.301  21.636  26.092  1.00  0.00     0.042 C 
ENDROOT
BRANCH   1   2
ATOM      2  C   UNL A   1      38.106  22.575  25.900  1.00  0.00     0.118 C 
BRANCH   2   3
ATOM      3  N   UNL A   1      37.688  22.692  24.507  1.00  0.00    -0.349 N 
ATOM      4  C   UNL A   1      36.459  22.995  23.943  1.00  0.00     0.290 C 
ATOM      5  O   UNL A   1      36.404  23.016  22.712  1.00  0.00    -0.266 OA
ATOM      6  H   UNL A   1      38.405  22.527  23.854  1.00  0.00     0.163 HD
BRANCH   4   7
ATOM      7  C   UNL A   1      35.272  23.252  24.788  1.00  0.00     0.239 A 
ATOM      8  C   UNL A   1      33.008  22.554  27.468  1.00  0.00     0.090 C 
ATOM      9  C   UNL A   1      33.896  23.100  26.415  1.00  0.00     0.130 A 
ATOM     10  N   UNL A   1      34.933  22.479  25.886  1.00  0.00    -0.207 NA
ATOM     11  N   UNL A   1      33.674  24.262  25.708  1.00  0.00    -0.217 N 
ATOM     12  N   UNL A   1      34.389  24.236  24.570  1.00  0.00    -0.140 NA
BRANCH  11  13
ATOM     13  C   UNL A   1      32.973  25.444  26.036  1.00  0.00     0.067 A 
ATOM     14  C   UNL A   1      31.570  25.428  25.984  1.00  0.00     0.028 A 
ATOM     15  C   UNL A   1      33.656  26.646  26.247  1.00  0.00     0.041 A 
ATOM     16  C   UNL A   1      30.850  26.601  26.186  1.00  0.00     0.003 A 
ATOM     17  C   UNL A   1      32.933  27.843  26.399  1.00  0.00     0.058 A 
ATOM     18  C   UNL A   1      31.528  27.802  26.389  1.00  0.00     0.013 A 
BRANCH  17  19
ATOM     19  C   UNL A   1      33.639  29.172  26.522  1.00  0.00     0.416 C 
ATOM     20  F   UNL A   1      33.552  29.914  25.383  1.00  0.00    -0.166 F 
ATOM     21  F   UNL A   1      33.116  29.945  27.513  1.00  0.00    -0.166 F 
ATOM     22  F   UNL A   1      34.967  29.059  26.795  1.00  0.00    -0.166 F 
ENDBRANCH  17  19
ENDBRANCH  11  13
ENDBRANCH   4   7
ENDBRANCH   2   3
ENDBRANCH   1   2
BRANCH   1  23
ATOM     23  C   UNL A   1      40.528  22.384  26.594  1.00  0.00     0.118 C 
BRANCH  23  24
ATOM     24  N   UNL A   1      41.702  22.161  25.745  1.00  0.00    -0.352 N 
ATOM     25  C   UNL A   1      42.626  23.078  25.277  1.00  0.00     0.251 C 
ATOM     26  H   UNL A   1      41.854  21.228  25.470  1.00  0.00     0.163 HD
ATOM     27  O   UNL A   1      43.361  22.793  24.348  1.00  0.00    -0.269 OA
BRANCH  25  28
ATOM     28  C   UNL A   1      42.683  24.413  25.904  1.00  0.00     0.039 A 
ATOM     29  C   UNL A   1      41.936  25.473  25.386  1.00  0.00     0.014 A 
ATOM     30  C   UNL A   1      43.455  24.584  27.049  1.00  0.00     0.014 A 
ATOM     31  C   UNL A   1      41.890  26.671  26.094  1.00  0.00     0.010 A 
ATOM     32  C   UNL A   1      43.287  25.708  27.822  1.00  0.00     0.010 A 
ATOM     33  C   UNL A   1      42.537  26.773  27.338  1.00  0.00    -0.014 A 
BRANCH  33  34
ATOM     34  C   UNL A   1      42.307  27.940  28.192  1.00  0.00     0.031 A 
ATOM     35  C   UNL A   1      43.353  28.998  28.098  1.00  0.00     0.074 A 
ATOM     36  C   UNL A   1      41.155  28.176  28.859  1.00  0.00     0.049 A 
ATOM     37  N   UNL A   1      44.182  29.367  29.017  1.00  0.00    -0.248 NA
ATOM     38  C   UNL A   1      43.603  29.625  26.788  1.00  0.00     0.031 C 
ATOM     39  C   UNL A   1      39.913  27.399  28.828  1.00  0.00     0.029 A 
ATOM     40  N   UNL A   1      40.808  29.253  29.618  1.00  0.00    -0.354 N 
ATOM     41  C   UNL A   1      44.889  30.441  28.486  1.00  0.00     0.074 A 
ATOM     42  C   UNL A   1      44.637  30.424  27.068  1.00  0.00     0.031 C 
ATOM     43  C   UNL A   1      38.898  28.150  29.306  1.00  0.00     0.029 A 
ATOM     44  C   UNL A   1      39.438  29.390  29.828  1.00  0.00     0.049 A 
ATOM     45  H   UNL A   1      41.470  29.883  29.987  1.00  0.00     0.167 HD
ATOM     46  C   UNL A   1      45.411  31.410  29.290  1.00  0.00     0.037 A 
ATOM     47  C   UNL A   1      38.790  30.460  30.356  1.00  0.00     0.037 A 
ATOM     48  C   UNL A   1      45.483  30.970  30.663  1.00  0.00     0.049 A 
ATOM     49  C   UNL A   1      39.792  31.224  31.146  1.00  0.00     0.074 A 
ATOM     50  C   UNL A   1      46.024  29.864  31.295  1.00  0.00     0.029 A 
ATOM     51  N   UNL A   1      44.597  31.508  31.567  1.00  0.00    -0.354 N 
ATOM     52  N   UNL A   1      40.346  30.778  32.241  1.00  0.00    -0.248 NA
ATOM     53  C   UNL A   1      40.520  32.289  30.472  1.00  0.00     0.031 C 
ATOM     54  C   UNL A   1      45.061  29.501  32.283  1.00  0.00     0.029 A 
ATOM     55  C   UNL A   1      44.044  30.456  32.253  1.00  0.00     0.049 A 
ATOM     56  H   UNL A   1      44.398  32.463  31.696  1.00  0.00     0.167 HD
ATOM     57  C   UNL A   1      41.674  31.164  32.143  1.00  0.00     0.074 A 
ATOM     58  C   UNL A   1      41.699  32.175  31.088  1.00  0.00     0.031 C 
ATOM     59  C   UNL A   1      42.676  30.432  32.719  1.00  0.00     0.037 A 
BRANCH  46  60
ATOM     60  C   UNL A   1      45.492  32.870  28.908  1.00  0.00     0.058 A 
ATOM     61  C   UNL A   1      46.690  33.580  29.136  1.00  0.00     0.135 A 
ATOM     62  C   UNL A   1      44.364  33.665  28.603  1.00  0.00     0.135 A 
ATOM     63  F   UNL A   1      47.821  32.929  29.449  1.00  0.00    -0.206 F 
ATOM     64  C   UNL A   1      46.743  34.975  29.135  1.00  0.00     0.059 A 
ATOM     65  C   UNL A   1      44.409  35.052  28.539  1.00  0.00     0.059 A 
ATOM     66  F   UNL A   1      43.140  33.144  28.454  1.00  0.00    -0.206 F 
ATOM     67  C   UNL A   1      45.591  35.702  28.850  1.00  0.00     0.060 A 
BRANCH  67  68
ATOM     68  S   UNL A   1      45.628  37.499  28.947  1.00  0.00     0.124 S 
ATOM     69  O   UNL A   1      45.253  37.869  27.588  1.00  0.00    -0.237 OA
ATOM     70  O   UNL A   1      44.634  37.767  29.982  1.00  0.00    -0.237 OA
ATOM     71  O   UNL A   1      47.009  37.784  29.325  1.00  0.00    -0.744 OA
ENDBRANCH  67  68
ENDBRANCH  46  60
BRANCH  47  72
ATOM     72  C   UNL A   1      37.456  31.012  29.985  1.00  0.00     0.058 A 
ATOM     73  C   UNL A   1      36.661  31.682  30.935  1.00  0.00     0.135 A 
ATOM     74  C   UNL A   1      37.050  31.148  28.642  1.00  0.00     0.135 A 
ATOM     75  F   UNL A   1      36.971  31.621  32.239  1.00  0.00    -0.206 F 
ATOM     76  C   UNL A   1      35.578  32.492  30.570  1.00  0.00     0.059 A 
ATOM     77  C   UNL A   1      35.964  31.934  28.256  1.00  0.00     0.059 A 
ATOM     78  F   UNL A   1      37.752  30.597  27.642  1.00  0.00    -0.206 F 
ATOM     79  C   UNL A   1      35.253  32.631  29.223  1.00  0.00     0.060 A 
BRANCH  79  80
ATOM     80  S   UNL A   1      33.998  33.835  28.727  1.00  0.00     0.124 S 
ATOM     81  O   UNL A   1      33.421  34.219  30.011  1.00  0.00    -0.237 OA
ATOM     82  O   UNL A   1      34.795  34.855  28.055  1.00  0.00    -0.237 OA
ATOM     83  O   UNL A   1      33.116  33.065  27.853  1.00  0.00    -0.744 OA
ENDBRANCH  79  80
ENDBRANCH  47  72
BRANCH  59  84
ATOM     84  C   UNL A   1      42.321  29.374  33.733  1.00  0.00     0.058 A 
ATOM     85  C   UNL A   1      41.949  28.052  33.426  1.00  0.00     0.135 A 
ATOM     86  C   UNL A   1      42.510  29.680  35.091  1.00  0.00     0.135 A 
ATOM     87  F   UNL A   1      41.859  27.633  32.156  1.00  0.00    -0.206 F 
ATOM     88  C   UNL A   1      41.719  27.101  34.424  1.00  0.00     0.059 A 
ATOM     89  C   UNL A   1      42.322  28.739  36.099  1.00  0.00     0.059 A 
ATOM     90  F   UNL A   1      42.926  30.905  35.453  1.00  0.00    -0.206 F 
ATOM     91  C   UNL A   1      41.907  27.455  35.759  1.00  0.00     0.060 A 
BRANCH  91  92
ATOM     92  S   UNL A   1      41.661  26.212  37.045  1.00  0.00     0.124 S 
ATOM     93  O   UNL A   1      42.842  26.398  37.881  1.00  0.00    -0.237 OA
ATOM     94  O   UNL A   1      40.392  26.616  37.642  1.00  0.00    -0.237 OA
ATOM     95  O   UNL A   1      41.617  24.954  36.302  1.00  0.00    -0.744 OA
ENDBRANCH  91  92
ENDBRANCH  59  84
ENDBRANCH  33  34
ENDBRANCH  25  28
ENDBRANCH  23  24
ENDBRANCH   1  23
TORSDOF 15
ENDMDL
