MODEL 1
REMARK VINA RESULT:     -10.9      0.000      0.000
REMARK SMILES COc1cc(Cl)cc(/C=C/C(=O)NCCCNC(=O)c2ccc(-c3c4nc(c(-c5c(F)cc(S(=O)(=O)[O-])cc5F)c5ccc([nH]5)c(-c5c(F)cc(S(=O)(=O)[O-])cc5F)c5nc(c(-c6c(F)cc(S(=O)(=O)[O-])cc6F)c6ccc3[nH]6)C=C5)C=C4)cc2)c1OC
REMARK SMILES IDX 15 1 14 2 13 3 11 4 12 5 10 7 9 8 8 9 3 10 4 11 86 12 5 13
REMARK SMILES IDX 6 14 7 15 2 16 1 17 87 18 88 19 16 20 17 21 18 22 19 24
REMARK SMILES IDX 20 25 21 26 85 27 22 28 84 29 23 30 24 31 25 32 78 33 26 34
REMARK SMILES IDX 83 35 77 36 79 37 27 38 82 39 76 40 75 41 28 43 62 44 41 45
REMARK SMILES IDX 61 46 42 47 45 48 60 49 80 50 43 51 44 52 59 54 81 55 46 56
REMARK SMILES IDX 29 57 30 58 39 59 31 60 32 61 38 62 40 63 33 64 34 65 35 66
REMARK SMILES IDX 36 67 37 68 63 69 64 70 73 71 65 72 66 73 72 74 74 75 67 76
REMARK SMILES IDX 68 77 69 78 70 79 71 80 47 81 48 82 57 83 49 84 50 85 56 86
REMARK SMILES IDX 58 87 51 88 52 89 53 90 54 91 55 92
REMARK H PARENT 13 6 17 23 79 42 45 53
REMARK Flexibility Score: inf
ROOT
ATOM      1  C   UNL A   1      33.794  28.178  25.284  1.00  0.00     0.042 C 
ENDROOT
BRANCH   1   2
ATOM      2  C   UNL A   1      32.562  27.658  24.549  1.00  0.00     0.118 C 
BRANCH   2   3
ATOM      3  N   UNL A   1      32.822  27.474  23.130  1.00  0.00    -0.352 N 
ATOM      4  C   UNL A   1      33.442  26.455  22.478  1.00  0.00     0.244 C 
ATOM      5  O   UNL A   1      33.452  26.426  21.250  1.00  0.00    -0.270 OA
ATOM      6  H   UNL A   1      32.499  28.201  22.551  1.00  0.00     0.163 HD
BRANCH   4   7
ATOM      7  C   UNL A   1      34.022  25.323  23.232  1.00  0.00     0.072 C 
ATOM      8  C   UNL A   1      33.813  24.035  22.924  1.00  0.00     0.018 C 
BRANCH   8   9
ATOM      9  C   UNL A   1      34.386  22.903  23.677  1.00  0.00     0.022 A 
ATOM     10  C   UNL A   1      34.165  20.738  24.759  1.00  0.00     0.162 A 
ATOM     11  C   UNL A   1      35.501  20.815  25.173  1.00  0.00     0.071 A 
ATOM     12  C   UNL A   1      33.598  21.763  23.981  1.00  0.00     0.168 A 
ATOM     13  C   UNL A   1      36.261  21.936  24.869  1.00  0.00     0.045 A 
ATOM     14  Cl  UNL A   1      37.894  22.034  25.404  1.00  0.00    -0.084 Cl
ATOM     15  C   UNL A   1      35.710  22.983  24.141  1.00  0.00     0.032 A 
BRANCH  10  16
ATOM     16  O   UNL A   1      33.465  19.604  25.083  1.00  0.00    -0.493 OA
ATOM     17  C   UNL A   1      33.945  18.470  24.356  1.00  0.00     0.278 C 
ENDBRANCH  10  16
BRANCH  12  18
ATOM     18  O   UNL A   1      32.325  21.799  23.464  1.00  0.00    -0.492 OA
ATOM     19  C   UNL A   1      31.962  20.902  22.426  1.00  0.00     0.278 C 
ENDBRANCH  12  18
ENDBRANCH   8   9
ENDBRANCH   4   7
ENDBRANCH   2   3
ENDBRANCH   1   2
BRANCH   1  20
ATOM     20  C   UNL A   1      33.600  28.290  26.794  1.00  0.00     0.118 C 
BRANCH  20  21
ATOM     21  N   UNL A   1      33.458  29.672  27.226  1.00  0.00    -0.352 N 
ATOM     22  C   UNL A   1      34.315  30.465  27.947  1.00  0.00     0.251 C 
ATOM     23  H   UNL A   1      32.616  30.107  26.959  1.00  0.00     0.163 HD
ATOM     24  O   UNL A   1      33.905  31.531  28.398  1.00  0.00    -0.269 OA
BRANCH  22  25
ATOM     25  C   UNL A   1      35.716  30.048  28.189  1.00  0.00     0.039 A 
ATOM     26  C   UNL A   1      36.080  29.627  29.471  1.00  0.00     0.014 A 
ATOM     27  C   UNL A   1      36.684  30.134  27.184  1.00  0.00     0.014 A 
ATOM     28  C   UNL A   1      37.403  29.267  29.739  1.00  0.00     0.010 A 
ATOM     29  C   UNL A   1      37.985  29.703  27.431  1.00  0.00     0.010 A 
ATOM     30  C   UNL A   1      38.365  29.290  28.717  1.00  0.00    -0.014 A 
BRANCH  30  31
ATOM     31  C   UNL A   1      39.784  28.943  28.985  1.00  0.00     0.031 A 
ATOM     32  C   UNL A   1      40.695  29.958  29.622  1.00  0.00     0.074 A 
ATOM     33  C   UNL A   1      40.262  27.738  28.621  1.00  0.00     0.049 A 
ATOM     34  N   UNL A   1      41.974  29.875  29.887  1.00  0.00    -0.248 NA
ATOM     35  C   UNL A   1      40.093  31.252  29.982  1.00  0.00     0.031 C 
ATOM     36  C   UNL A   1      39.485  26.681  27.971  1.00  0.00     0.029 A 
ATOM     37  N   UNL A   1      41.517  27.200  28.745  1.00  0.00    -0.354 N 
ATOM     38  C   UNL A   1      42.330  31.105  30.428  1.00  0.00     0.074 A 
ATOM     39  C   UNL A   1      41.147  31.937  30.396  1.00  0.00     0.031 C 
ATOM     40  C   UNL A   1      40.272  25.609  27.785  1.00  0.00     0.029 A 
ATOM     41  C   UNL A   1      41.615  25.914  28.270  1.00  0.00     0.049 A 
ATOM     42  H   UNL A   1      42.276  27.688  29.138  1.00  0.00     0.167 HD
ATOM     43  C   UNL A   1      43.524  31.499  30.932  1.00  0.00     0.037 A 
ATOM     44  C   UNL A   1      42.669  25.075  28.235  1.00  0.00     0.037 A 
ATOM     45  C   UNL A   1      44.692  30.658  30.980  1.00  0.00     0.049 A 
ATOM     46  C   UNL A   1      43.989  25.533  28.794  1.00  0.00     0.074 A 
ATOM     47  C   UNL A   1      45.944  30.946  31.494  1.00  0.00     0.029 A 
ATOM     48  N   UNL A   1      44.747  29.358  30.498  1.00  0.00    -0.354 N 
ATOM     49  N   UNL A   1      44.301  26.688  29.332  1.00  0.00    -0.248 NA
ATOM     50  C   UNL A   1      45.097  24.571  28.747  1.00  0.00     0.031 C 
ATOM     51  C   UNL A   1      46.765  29.829  31.295  1.00  0.00     0.029 A 
ATOM     52  C   UNL A   1      46.013  28.831  30.696  1.00  0.00     0.049 A 
ATOM     53  H   UNL A   1      43.998  28.880  30.076  1.00  0.00     0.167 HD
ATOM     54  C   UNL A   1      45.630  26.577  29.725  1.00  0.00     0.074 A 
ATOM     55  C   UNL A   1      46.062  25.243  29.360  1.00  0.00     0.031 C 
ATOM     56  C   UNL A   1      46.420  27.494  30.338  1.00  0.00     0.037 A 
BRANCH  43  57
ATOM     57  C   UNL A   1      43.614  32.904  31.465  1.00  0.00     0.058 A 
ATOM     58  C   UNL A   1      43.885  33.995  30.622  1.00  0.00     0.135 A 
ATOM     59  C   UNL A   1      43.455  33.165  32.836  1.00  0.00     0.135 A 
ATOM     60  F   UNL A   1      44.060  33.803  29.304  1.00  0.00    -0.206 F 
ATOM     61  C   UNL A   1      44.051  35.282  31.123  1.00  0.00     0.059 A 
ATOM     62  C   UNL A   1      43.585  34.450  33.356  1.00  0.00     0.059 A 
ATOM     63  F   UNL A   1      43.189  32.163  33.688  1.00  0.00    -0.206 F 
ATOM     64  C   UNL A   1      43.911  35.498  32.494  1.00  0.00     0.060 A 
BRANCH  64  65
ATOM     65  S   UNL A   1      44.175  37.162  33.140  1.00  0.00     0.124 S 
ATOM     66  O   UNL A   1      45.405  36.983  33.905  1.00  0.00    -0.237 OA
ATOM     67  O   UNL A   1      44.299  37.957  31.922  1.00  0.00    -0.237 OA
ATOM     68  O   UNL A   1      42.975  37.414  33.930  1.00  0.00    -0.744 OA
ENDBRANCH  64  65
ENDBRANCH  43  57
BRANCH  44  69
ATOM     69  C   UNL A   1      42.498  23.696  27.707  1.00  0.00     0.058 A 
ATOM     70  C   UNL A   1      42.490  23.457  26.325  1.00  0.00     0.135 A 
ATOM     71  C   UNL A   1      42.376  22.591  28.563  1.00  0.00     0.135 A 
ATOM     72  F   UNL A   1      42.599  24.484  25.468  1.00  0.00    -0.206 F 
ATOM     73  C   UNL A   1      42.359  22.174  25.808  1.00  0.00     0.059 A 
ATOM     74  C   UNL A   1      42.265  21.294  28.069  1.00  0.00     0.059 A 
ATOM     75  F   UNL A   1      42.394  22.764  29.894  1.00  0.00    -0.206 F 
ATOM     76  C   UNL A   1      42.253  21.096  26.689  1.00  0.00     0.060 A 
BRANCH  76  77
ATOM     77  S   UNL A   1      42.153  19.427  26.005  1.00  0.00     0.124 S 
ATOM     78  O   UNL A   1      42.636  18.624  27.121  1.00  0.00    -0.237 OA
ATOM     79  O   UNL A   1      40.730  19.306  25.698  1.00  0.00    -0.237 OA
ATOM     80  O   UNL A   1      43.032  19.488  24.842  1.00  0.00    -0.744 OA
ENDBRANCH  76  77
ENDBRANCH  44  69
BRANCH  56  81
ATOM     81  C   UNL A   1      47.815  27.069  30.701  1.00  0.00     0.058 A 
ATOM     82  C   UNL A   1      48.101  26.418  31.910  1.00  0.00     0.135 A 
ATOM     83  C   UNL A   1      48.874  27.282  29.803  1.00  0.00     0.135 A 
ATOM     84  F   UNL A   1      47.126  26.196  32.806  1.00  0.00    -0.206 F 
ATOM     85  C   UNL A   1      49.395  26.014  32.228  1.00  0.00     0.059 A 
ATOM     86  C   UNL A   1      50.169  26.863  30.088  1.00  0.00     0.059 A 
ATOM     87  F   UNL A   1      48.652  27.891  28.628  1.00  0.00    -0.206 F 
ATOM     88  C   UNL A   1      50.422  26.242  31.310  1.00  0.00     0.060 A 
BRANCH  88  89
ATOM     89  S   UNL A   1      52.091  25.689  31.722  1.00  0.00     0.124 S 
ATOM     90  O   UNL A   1      51.866  24.282  32.035  1.00  0.00    -0.237 OA
ATOM     91  O   UNL A   1      52.824  25.956  30.488  1.00  0.00    -0.237 OA
ATOM     92  O   UNL A   1      52.458  26.534  32.855  1.00  0.00    -0.744 OA
ENDBRANCH  88  89
ENDBRANCH  56  81
ENDBRANCH  30  31
ENDBRANCH  22  25
ENDBRANCH  20  21
ENDBRANCH   1  20
TORSDOF 16
ENDMDL
MODEL 2
REMARK VINA RESULT:     -10.7      3.589      6.514
REMARK SMILES COc1cc(Cl)cc(/C=C/C(=O)NCCCNC(=O)c2ccc(-c3c4nc(c(-c5c(F)cc(S(=O)(=O)[O-])cc5F)c5ccc([nH]5)c(-c5c(F)cc(S(=O)(=O)[O-])cc5F)c5nc(c(-c6c(F)cc(S(=O)(=O)[O-])cc6F)c6ccc3[nH]6)C=C5)C=C4)cc2)c1OC
REMARK SMILES IDX 15 1 14 2 13 3 11 4 12 5 10 7 9 8 8 9 3 10 4 11 86 12 5 13
REMARK SMILES IDX 6 14 7 15 2 16 1 17 87 18 88 19 16 20 17 21 18 22 19 24
REMARK SMILES IDX 20 25 21 26 85 27 22 28 84 29 23 30 24 31 25 32 78 33 26 34
REMARK SMILES IDX 83 35 77 36 79 37 27 38 82 39 76 40 75 41 28 43 62 44 41 45
REMARK SMILES IDX 61 46 42 47 45 48 60 49 80 50 43 51 44 52 59 54 81 55 46 56
REMARK SMILES IDX 29 57 30 58 39 59 31 60 32 61 38 62 40 63 33 64 34 65 35 66
REMARK SMILES IDX 36 67 37 68 63 69 64 70 73 71 65 72 66 73 72 74 74 75 67 76
REMARK SMILES IDX 68 77 69 78 70 79 71 80 47 81 48 82 57 83 49 84 50 85 56 86
REMARK SMILES IDX 58 87 51 88 52 89 53 90 54 91 55 92
REMARK H PARENT 13 6 17 23 79 42 45 53
REMARK Flexibility Score: inf
ROOT
ATOM      1  C   UNL A   1      34.679  32.735  30.509  1.00  0.00     0.042 C 
ENDROOT
BRANCH   1   2
ATOM      2  C   UNL A   1      35.367  33.967  31.091  1.00  0.00     0.118 C 
BRANCH   2   3
ATOM      3  N   UNL A   1      36.538  34.344  30.315  1.00  0.00    -0.352 N 
ATOM      4  C   UNL A   1      37.859  34.182  30.588  1.00  0.00     0.244 C 
ATOM      5  O   UNL A   1      38.701  34.459  29.737  1.00  0.00    -0.270 OA
ATOM      6  H   UNL A   1      36.342  34.788  29.458  1.00  0.00     0.163 HD
BRANCH   4   7
ATOM      7  C   UNL A   1      38.294  33.577  31.864  1.00  0.00     0.072 C 
ATOM      8  C   UNL A   1      38.064  32.300  32.203  1.00  0.00     0.018 C 
BRANCH   8   9
ATOM      9  C   UNL A   1      38.492  31.694  33.479  1.00  0.00     0.022 A 
ATOM     10  C   UNL A   1      38.171  31.282  35.852  1.00  0.00     0.162 A 
ATOM     11  C   UNL A   1      39.388  30.589  35.891  1.00  0.00     0.071 A 
ATOM     12  C   UNL A   1      37.691  31.817  34.643  1.00  0.00     0.168 A 
ATOM     13  C   UNL A   1      40.163  30.478  34.744  1.00  0.00     0.045 A 
ATOM     14  Cl  UNL A   1      41.669  29.648  34.806  1.00  0.00    -0.084 Cl
ATOM     15  C   UNL A   1      39.732  31.037  33.547  1.00  0.00     0.032 A 
BRANCH  10  16
ATOM     16  O   UNL A   1      37.445  31.355  37.014  1.00  0.00    -0.493 OA
ATOM     17  C   UNL A   1      37.864  32.459  37.820  1.00  0.00     0.278 C 
ENDBRANCH  10  16
BRANCH  12  18
ATOM     18  O   UNL A   1      36.499  32.471  34.445  1.00  0.00    -0.492 OA
ATOM     19  C   UNL A   1      36.341  33.802  34.912  1.00  0.00     0.278 C 
ENDBRANCH  12  18
ENDBRANCH   8   9
ENDBRANCH   4   7
ENDBRANCH   2   3
ENDBRANCH   1   2
BRANCH   1  20
ATOM     20  C   UNL A   1      34.683  32.701  28.984  1.00  0.00     0.118 C 
BRANCH  20  21
ATOM     21  N   UNL A   1      33.953  31.556  28.461  1.00  0.00    -0.352 N 
ATOM     22  C   UNL A   1      34.414  30.353  27.990  1.00  0.00     0.251 C 
ATOM     23  H   UNL A   1      32.974  31.661  28.441  1.00  0.00     0.163 HD
ATOM     24  O   UNL A   1      33.644  29.613  27.385  1.00  0.00    -0.269 OA
BRANCH  22  25
ATOM     25  C   UNL A   1      35.822  29.943  28.201  1.00  0.00     0.039 A 
ATOM     26  C   UNL A   1      36.199  29.457  29.456  1.00  0.00     0.014 A 
ATOM     27  C   UNL A   1      36.783  30.100  27.199  1.00  0.00     0.014 A 
ATOM     28  C   UNL A   1      37.529  29.101  29.697  1.00  0.00     0.010 A 
ATOM     29  C   UNL A   1      38.092  29.674  27.414  1.00  0.00     0.010 A 
ATOM     30  C   UNL A   1      38.484  29.195  28.673  1.00  0.00    -0.014 A 
BRANCH  30  31
ATOM     31  C   UNL A   1      39.910  28.854  28.915  1.00  0.00     0.031 A 
ATOM     32  C   UNL A   1      40.830  29.876  29.527  1.00  0.00     0.074 A 
ATOM     33  C   UNL A   1      40.384  27.649  28.548  1.00  0.00     0.049 A 
ATOM     34  N   UNL A   1      42.114  29.799  29.766  1.00  0.00    -0.248 NA
ATOM     35  C   UNL A   1      40.231  31.170  29.892  1.00  0.00     0.031 C 
ATOM     36  C   UNL A   1      39.598  26.585  27.920  1.00  0.00     0.029 A 
ATOM     37  N   UNL A   1      41.644  27.115  28.650  1.00  0.00    -0.354 N 
ATOM     38  C   UNL A   1      42.478  31.033  30.293  1.00  0.00     0.074 A 
ATOM     39  C   UNL A   1      41.291  31.861  30.280  1.00  0.00     0.031 C 
ATOM     40  C   UNL A   1      40.385  25.514  27.725  1.00  0.00     0.029 A 
ATOM     41  C   UNL A   1      41.736  25.827  28.181  1.00  0.00     0.049 A 
ATOM     42  H   UNL A   1      42.409  27.608  29.024  1.00  0.00     0.167 HD
ATOM     43  C   UNL A   1      43.680  31.434  30.771  1.00  0.00     0.037 A 
ATOM     44  C   UNL A   1      42.792  24.991  28.129  1.00  0.00     0.037 A 
ATOM     45  C   UNL A   1      44.851  30.597  30.800  1.00  0.00     0.049 A 
ATOM     46  C   UNL A   1      44.122  25.456  28.658  1.00  0.00     0.074 A 
ATOM     47  C   UNL A   1      46.113  30.891  31.287  1.00  0.00     0.029 A 
ATOM     48  N   UNL A   1      44.902  29.294  30.324  1.00  0.00    -0.354 N 
ATOM     49  N   UNL A   1      44.440  26.616  29.184  1.00  0.00    -0.248 NA
ATOM     50  C   UNL A   1      45.232  24.497  28.595  1.00  0.00     0.031 C 
ATOM     51  C   UNL A   1      46.933  29.776  31.077  1.00  0.00     0.029 A 
ATOM     52  C   UNL A   1      46.172  28.772  30.500  1.00  0.00     0.049 A 
ATOM     53  H   UNL A   1      44.145  28.811  29.920  1.00  0.00     0.167 HD
ATOM     54  C   UNL A   1      45.777  26.511  29.550  1.00  0.00     0.074 A 
ATOM     55  C   UNL A   1      46.206  25.176  29.185  1.00  0.00     0.031 C 
ATOM     56  C   UNL A   1      46.576  27.434  30.142  1.00  0.00     0.037 A 
BRANCH  43  57
ATOM     57  C   UNL A   1      43.777  32.842  31.293  1.00  0.00     0.058 A 
ATOM     58  C   UNL A   1      44.166  33.910  30.465  1.00  0.00     0.135 A 
ATOM     59  C   UNL A   1      43.503  33.130  32.640  1.00  0.00     0.135 A 
ATOM     60  F   UNL A   1      44.453  33.691  29.172  1.00  0.00    -0.206 F 
ATOM     61  C   UNL A   1      44.336  35.196  30.965  1.00  0.00     0.059 A 
ATOM     62  C   UNL A   1      43.636  34.416  33.155  1.00  0.00     0.059 A 
ATOM     63  F   UNL A   1      43.121  32.152  33.476  1.00  0.00    -0.206 F 
ATOM     64  C   UNL A   1      44.080  35.438  32.315  1.00  0.00     0.060 A 
BRANCH  64  65
ATOM     65  S   UNL A   1      44.349  37.100  32.962  1.00  0.00     0.124 S 
ATOM     66  O   UNL A   1      45.478  36.881  33.862  1.00  0.00    -0.237 OA
ATOM     67  O   UNL A   1      44.644  37.866  31.755  1.00  0.00    -0.237 OA
ATOM     68  O   UNL A   1      43.082  37.422  33.610  1.00  0.00    -0.744 OA
ENDBRANCH  64  65
ENDBRANCH  43  57
BRANCH  44  69
ATOM     69  C   UNL A   1      42.614  23.608  27.613  1.00  0.00     0.058 A 
ATOM     70  C   UNL A   1      42.723  23.340  26.241  1.00  0.00     0.135 A 
ATOM     71  C   UNL A   1      42.371  22.528  28.474  1.00  0.00     0.135 A 
ATOM     72  F   UNL A   1      42.950  24.343  25.379  1.00  0.00    -0.206 F 
ATOM     73  C   UNL A   1      42.588  22.051  25.737  1.00  0.00     0.059 A 
ATOM     74  C   UNL A   1      42.254  21.225  27.996  1.00  0.00     0.059 A 
ATOM     75  F   UNL A   1      42.275  22.729  29.798  1.00  0.00    -0.206 F 
ATOM     76  C   UNL A   1      42.359  20.998  26.625  1.00  0.00     0.060 A 
BRANCH  76  77
ATOM     77  S   UNL A   1      42.255  19.319  25.965  1.00  0.00     0.124 S 
ATOM     78  O   UNL A   1      40.821  19.181  25.741  1.00  0.00    -0.237 OA
ATOM     79  O   UNL A   1      43.084  19.409  24.767  1.00  0.00    -0.237 OA
ATOM     80  O   UNL A   1      42.809  18.502  27.040  1.00  0.00    -0.744 OA
ENDBRANCH  76  77
ENDBRANCH  44  69
BRANCH  56  81
ATOM     81  C   UNL A   1      47.980  27.016  30.479  1.00  0.00     0.058 A 
ATOM     82  C   UNL A   1      49.066  27.321  29.646  1.00  0.00     0.135 A 
ATOM     83  C   UNL A   1      48.243  26.334  31.679  1.00  0.00     0.135 A 
ATOM     84  F   UNL A   1      48.868  27.965  28.486  1.00  0.00    -0.206 F 
ATOM     85  C   UNL A   1      50.364  26.942  29.978  1.00  0.00     0.059 A 
ATOM     86  C   UNL A   1      49.535  25.969  32.043  1.00  0.00     0.059 A 
ATOM     87  F   UNL A   1      47.240  26.027  32.517  1.00  0.00    -0.206 F 
ATOM     88  C   UNL A   1      50.588  26.266  31.179  1.00  0.00     0.060 A 
BRANCH  88  89
ATOM     89  S   UNL A   1      52.278  25.804  31.612  1.00  0.00     0.124 S 
ATOM     90  O   UNL A   1      52.590  26.774  32.656  1.00  0.00    -0.237 OA
ATOM     91  O   UNL A   1      52.122  24.422  32.056  1.00  0.00    -0.237 OA
ATOM     92  O   UNL A   1      53.007  25.972  30.358  1.00  0.00    -0.744 OA
ENDBRANCH  88  89
ENDBRANCH  56  81
ENDBRANCH  30  31
ENDBRANCH  22  25
ENDBRANCH  20  21
ENDBRANCH   1  20
TORSDOF 16
ENDMDL
MODEL 3
REMARK VINA RESULT:     -10.7      2.908      3.920
REMARK SMILES COc1cc(Cl)cc(/C=C/C(=O)NCCCNC(=O)c2ccc(-c3c4nc(c(-c5c(F)cc(S(=O)(=O)[O-])cc5F)c5ccc([nH]5)c(-c5c(F)cc(S(=O)(=O)[O-])cc5F)c5nc(c(-c6c(F)cc(S(=O)(=O)[O-])cc6F)c6ccc3[nH]6)C=C5)C=C4)cc2)c1OC
REMARK SMILES IDX 15 1 14 2 13 3 11 4 12 5 10 7 9 8 8 9 3 10 4 11 86 12 5 13
REMARK SMILES IDX 6 14 7 15 2 16 1 17 87 18 88 19 16 20 17 21 18 22 19 24
REMARK SMILES IDX 20 25 21 26 85 27 22 28 84 29 23 30 24 31 25 32 78 33 26 34
REMARK SMILES IDX 83 35 77 36 79 37 27 38 82 39 76 40 75 41 28 43 62 44 41 45
REMARK SMILES IDX 61 46 42 47 45 48 60 49 80 50 43 51 44 52 59 54 81 55 46 56
REMARK SMILES IDX 29 57 30 58 39 59 31 60 32 61 38 62 40 63 33 64 34 65 35 66
REMARK SMILES IDX 36 67 37 68 63 69 64 70 73 71 65 72 66 73 72 74 74 75 67 76
REMARK SMILES IDX 68 77 69 78 70 79 71 80 47 81 48 82 57 83 49 84 50 85 56 86
REMARK SMILES IDX 58 87 51 88 52 89 53 90 54 91 55 92
REMARK H PARENT 13 6 17 23 79 42 45 53
REMARK Flexibility Score: inf
ROOT
ATOM      1  C   UNL A   1      34.280  31.302  27.637  1.00  0.00     0.042 C 
ENDROOT
BRANCH   1   2
ATOM      2  C   UNL A   1      34.005  29.936  27.014  1.00  0.00     0.118 C 
BRANCH   2   3
ATOM      3  N   UNL A   1      32.747  29.376  27.482  1.00  0.00    -0.352 N 
ATOM      4  C   UNL A   1      32.244  28.120  27.350  1.00  0.00     0.244 C 
ATOM      5  O   UNL A   1      31.207  27.809  27.930  1.00  0.00    -0.270 OA
ATOM      6  H   UNL A   1      32.169  30.005  27.971  1.00  0.00     0.163 HD
BRANCH   4   7
ATOM      7  C   UNL A   1      32.986  27.090  26.593  1.00  0.00     0.072 C 
ATOM      8  C   UNL A   1      32.446  25.936  26.175  1.00  0.00     0.018 C 
BRANCH   8   9
ATOM      9  C   UNL A   1      33.185  24.904  25.423  1.00  0.00     0.022 A 
ATOM     10  C   UNL A   1      33.234  22.940  23.992  1.00  0.00     0.162 A 
ATOM     11  C   UNL A   1      34.632  22.921  24.075  1.00  0.00     0.071 A 
ATOM     12  C   UNL A   1      32.493  23.946  24.637  1.00  0.00     0.168 A 
ATOM     13  C   UNL A   1      35.297  23.864  24.848  1.00  0.00     0.045 A 
ATOM     14  Cl  UNL A   1      37.013  23.818  24.966  1.00  0.00    -0.084 Cl
ATOM     15  C   UNL A   1      34.585  24.841  25.532  1.00  0.00     0.032 A 
BRANCH  10  16
ATOM     16  O   UNL A   1      32.632  21.988  23.209  1.00  0.00    -0.493 OA
ATOM     17  C   UNL A   1      32.527  20.739  23.897  1.00  0.00     0.278 C 
ENDBRANCH  10  16
BRANCH  12  18
ATOM     18  O   UNL A   1      31.130  24.120  24.602  1.00  0.00    -0.492 OA
ATOM     19  C   UNL A   1      30.483  24.349  23.360  1.00  0.00     0.278 C 
ENDBRANCH  12  18
ENDBRANCH   8   9
ENDBRANCH   4   7
ENDBRANCH   2   3
ENDBRANCH   1   2
BRANCH   1  20
ATOM     20  C   UNL A   1      35.642  31.397  28.319  1.00  0.00     0.118 C 
BRANCH  20  21
ATOM     21  N   UNL A   1      35.558  31.134  29.747  1.00  0.00    -0.352 N 
ATOM     22  C   UNL A   1      36.380  30.393  30.559  1.00  0.00     0.251 C 
ATOM     23  H   UNL A   1      34.793  31.553  30.203  1.00  0.00     0.163 HD
ATOM     24  O   UNL A   1      36.004  30.114  31.694  1.00  0.00    -0.269 OA
BRANCH  22  25
ATOM     25  C   UNL A   1      37.703  29.927  30.082  1.00  0.00     0.039 A 
ATOM     26  C   UNL A   1      38.627  29.457  31.019  1.00  0.00     0.014 A 
ATOM     27  C   UNL A   1      38.062  30.015  28.734  1.00  0.00     0.014 A 
ATOM     28  C   UNL A   1      39.898  29.050  30.604  1.00  0.00     0.010 A 
ATOM     29  C   UNL A   1      39.300  29.539  28.310  1.00  0.00     0.010 A 
ATOM     30  C   UNL A   1      40.240  29.075  29.243  1.00  0.00    -0.014 A 
BRANCH  30  31
ATOM     31  C   UNL A   1      41.595  28.679  28.781  1.00  0.00     0.031 A 
ATOM     32  C   UNL A   1      42.700  29.700  28.737  1.00  0.00     0.074 A 
ATOM     33  C   UNL A   1      41.821  27.419  28.363  1.00  0.00     0.049 A 
ATOM     34  N   UNL A   1      43.932  29.573  28.315  1.00  0.00    -0.248 NA
ATOM     35  C   UNL A   1      42.366  31.055  29.206  1.00  0.00     0.031 C 
ATOM     36  C   UNL A   1      40.824  26.347  28.330  1.00  0.00     0.029 A 
ATOM     37  N   UNL A   1      42.962  26.826  27.885  1.00  0.00    -0.354 N 
ATOM     38  C   UNL A   1      44.512  30.829  28.451  1.00  0.00     0.074 A 
ATOM     39  C   UNL A   1      43.479  31.718  28.937  1.00  0.00     0.031 C 
ATOM     40  C   UNL A   1      41.406  25.219  27.890  1.00  0.00     0.029 A 
ATOM     41  C   UNL A   1      42.805  25.496  27.577  1.00  0.00     0.049 A 
ATOM     42  H   UNL A   1      43.813  27.309  27.772  1.00  0.00     0.167 HD
ATOM     43  C   UNL A   1      45.793  31.205  28.222  1.00  0.00     0.037 A 
ATOM     44  C   UNL A   1      43.692  24.601  27.101  1.00  0.00     0.037 A 
ATOM     45  C   UNL A   1      46.821  30.309  27.758  1.00  0.00     0.049 A 
ATOM     46  C   UNL A   1      45.110  25.038  26.845  1.00  0.00     0.074 A 
ATOM     47  C   UNL A   1      48.157  30.576  27.519  1.00  0.00     0.029 A 
ATOM     48  N   UNL A   1      46.624  28.966  27.468  1.00  0.00    -0.354 N 
ATOM     49  N   UNL A   1      45.650  26.222  27.011  1.00  0.00    -0.248 NA
ATOM     50  C   UNL A   1      46.038  24.016  26.346  1.00  0.00     0.031 C 
ATOM     51  C   UNL A   1      48.762  29.401  27.054  1.00  0.00     0.029 A 
ATOM     52  C   UNL A   1      47.812  28.392  27.046  1.00  0.00     0.049 A 
ATOM     53  H   UNL A   1      45.766  28.491  27.549  1.00  0.00     0.167 HD
ATOM     54  C   UNL A   1      46.991  26.077  26.674  1.00  0.00     0.074 A 
ATOM     55  C   UNL A   1      47.178  24.691  26.295  1.00  0.00     0.031 C 
ATOM     56  C   UNL A   1      47.981  27.005  26.685  1.00  0.00     0.037 A 
BRANCH  43  57
ATOM     57  C   UNL A   1      46.140  32.648  28.468  1.00  0.00     0.058 A 
ATOM     58  C   UNL A   1      46.580  33.096  29.725  1.00  0.00     0.135 A 
ATOM     59  C   UNL A   1      46.010  33.603  27.446  1.00  0.00     0.135 A 
ATOM     60  F   UNL A   1      46.709  32.229  30.743  1.00  0.00    -0.206 F 
ATOM     61  C   UNL A   1      46.821  34.442  29.978  1.00  0.00     0.059 A 
ATOM     62  C   UNL A   1      46.277  34.952  27.668  1.00  0.00     0.059 A 
ATOM     63  F   UNL A   1      45.601  33.233  26.223  1.00  0.00    -0.206 F 
ATOM     64  C   UNL A   1      46.656  35.365  28.945  1.00  0.00     0.060 A 
BRANCH  64  65
ATOM     65  S   UNL A   1      46.925  37.114  29.296  1.00  0.00     0.124 S 
ATOM     66  O   UNL A   1      47.313  37.070  30.703  1.00  0.00    -0.237 OA
ATOM     67  O   UNL A   1      47.988  37.465  28.359  1.00  0.00    -0.237 OA
ATOM     68  O   UNL A   1      45.627  37.720  29.021  1.00  0.00    -0.744 OA
ENDBRANCH  64  65
ENDBRANCH  43  57
BRANCH  44  69
ATOM     69  C   UNL A   1      43.279  23.188  26.898  1.00  0.00     0.058 A 
ATOM     70  C   UNL A   1      43.148  22.662  25.605  1.00  0.00     0.135 A 
ATOM     71  C   UNL A   1      43.042  22.328  27.981  1.00  0.00     0.135 A 
ATOM     72  F   UNL A   1      43.359  23.449  24.538  1.00  0.00    -0.206 F 
ATOM     73  C   UNL A   1      42.789  21.336  25.390  1.00  0.00     0.059 A 
ATOM     74  C   UNL A   1      42.703  20.991  27.791  1.00  0.00     0.059 A 
ATOM     75  F   UNL A   1      43.170  22.778  29.240  1.00  0.00    -0.206 F 
ATOM     76  C   UNL A   1      42.573  20.506  26.491  1.00  0.00     0.060 A 
BRANCH  76  77
ATOM     77  S   UNL A   1      42.175  18.768  26.198  1.00  0.00     0.124 S 
ATOM     78  O   UNL A   1      40.777  18.852  25.792  1.00  0.00    -0.237 OA
ATOM     79  O   UNL A   1      43.125  18.409  25.149  1.00  0.00    -0.237 OA
ATOM     80  O   UNL A   1      42.421  18.145  27.495  1.00  0.00    -0.744 OA
ENDBRANCH  76  77
ENDBRANCH  44  69
BRANCH  56  81
ATOM     81  C   UNL A   1      49.364  26.542  26.325  1.00  0.00     0.058 A 
ATOM     82  C   UNL A   1      49.911  26.754  25.051  1.00  0.00     0.135 A 
ATOM     83  C   UNL A   1      50.169  25.911  27.289  1.00  0.00     0.135 A 
ATOM     84  F   UNL A   1      49.181  27.348  24.093  1.00  0.00    -0.206 F 
ATOM     85  C   UNL A   1      51.200  26.335  24.735  1.00  0.00     0.059 A 
ATOM     86  C   UNL A   1      51.469  25.507  27.003  1.00  0.00     0.059 A 
ATOM     87  F   UNL A   1      49.698  25.692  28.527  1.00  0.00    -0.206 F 
ATOM     88  C   UNL A   1      51.971  25.712  25.719  1.00  0.00     0.060 A 
BRANCH  88  89
ATOM     89  S   UNL A   1      53.652  25.197  25.305  1.00  0.00     0.124 S 
ATOM     90  O   UNL A   1      53.851  25.851  24.017  1.00  0.00    -0.237 OA
ATOM     91  O   UNL A   1      54.428  25.735  26.418  1.00  0.00    -0.237 OA
ATOM     92  O   UNL A   1      53.558  23.740  25.263  1.00  0.00    -0.744 OA
ENDBRANCH  88  89
ENDBRANCH  56  81
ENDBRANCH  30  31
ENDBRANCH  22  25
ENDBRANCH  20  21
ENDBRANCH   1  20
TORSDOF 16
ENDMDL
