MODEL 1
REMARK VINA RESULT:     -11.4      0.000      0.000
REMARK SMILES [NH3+]C1(C(=O)N2[C@@H](C(=O)NCCCNC(=O)c3ccc(-c4c5nc(c(-c6c(F)cc(S(=O)(=O)[O-])cc6F)c6ccc([nH]6)c(-c6c(F)cc(S(=O)(=O)[O-])cc6F)c6nc(c(-c7c(F)cc(S(=O)(=O)[O-])cc7F)c7ccc4[nH]7)C=C6)C=C5)cc3)CC[C@@H]3CCCC[C@@H]32)CC1
REMARK SMILES IDX 11 1 10 2 9 3 7 4 8 5 6 7 5 8 89 9 82 10 84 11 88 12 83 13
REMARK SMILES IDX 85 14 87 15 86 16 3 17 4 18 2 19 90 20 91 21 1 22 12 26
REMARK SMILES IDX 13 27 14 28 15 30 16 31 17 32 81 33 18 34 80 35 19 36 20 37
REMARK SMILES IDX 21 38 74 39 22 40 79 41 73 42 75 43 23 44 78 45 72 46 71 47
REMARK SMILES IDX 24 49 58 50 37 51 57 52 38 53 41 54 56 55 76 56 39 57 40 58
REMARK SMILES IDX 55 60 77 61 42 62 25 63 26 64 35 65 27 66 28 67 34 68 36 69
REMARK SMILES IDX 29 70 30 71 31 72 32 73 33 74 59 75 60 76 69 77 61 78 62 79
REMARK SMILES IDX 68 80 70 81 63 82 64 83 65 84 66 85 67 86 43 87 44 88 53 89
REMARK SMILES IDX 45 90 46 91 52 92 54 93 47 94 48 95 49 96 50 97 51 98
REMARK H PARENT 9 6 1 23 1 24 1 25 13 29 75 48 41 59
REMARK Flexibility Score: inf
ROOT
ATOM      1  C   UNL A   1      33.864  27.978  25.867  1.00  0.00     0.042 C 
ENDROOT
BRANCH   1   2
ATOM      2  C   UNL A   1      32.719  27.295  25.136  1.00  0.00     0.117 C 
BRANCH   2   3
ATOM      3  N   UNL A   1      32.003  26.399  26.024  1.00  0.00    -0.354 N 
ATOM      4  C   UNL A   1      32.148  25.059  26.194  1.00  0.00     0.242 C 
ATOM      5  O   UNL A   1      31.214  24.448  26.723  1.00  0.00    -0.273 OA
ATOM      6  H   UNL A   1      31.314  26.822  26.584  1.00  0.00     0.163 HD
BRANCH   4   7
ATOM      7  C   UNL A   1      33.358  24.293  25.632  1.00  0.00     0.175 C 
ATOM      8  N   UNL A   1      33.137  23.366  24.487  1.00  0.00    -0.322 N 
ATOM      9  C   UNL A   1      34.258  22.448  24.176  1.00  0.00     0.089 C 
ATOM     10  C   UNL A   1      33.979  23.570  26.857  1.00  0.00     0.036 C 
ATOM     11  C   UNL A   1      34.727  21.676  25.405  1.00  0.00     0.012 C 
ATOM     12  C   UNL A   1      35.399  23.214  23.470  1.00  0.00     0.025 C 
ATOM     13  C   UNL A   1      35.131  22.636  26.523  1.00  0.00     0.008 C 
ATOM     14  C   UNL A   1      35.856  20.731  24.988  1.00  0.00     0.006 C 
ATOM     15  C   UNL A   1      36.804  22.605  23.510  1.00  0.00     0.002 C 
ATOM     16  C   UNL A   1      37.085  21.484  24.508  1.00  0.00     0.000 C 
BRANCH   8  17
ATOM     17  C   UNL A   1      32.242  23.547  23.414  1.00  0.00     0.284 C 
ATOM     18  O   UNL A   1      31.436  22.668  23.105  1.00  0.00    -0.268 OA
BRANCH  17  19
ATOM     19  C   UNL A   1      32.173  24.819  22.588  1.00  0.00     0.174 C 
ATOM     20  C   UNL A   1      32.852  24.711  21.226  1.00  0.00     0.086 C 
ATOM     21  C   UNL A   1      33.339  25.701  22.228  1.00  0.00     0.086 C 
BRANCH  19  22
ATOM     22  N   UNL A   1      30.802  25.395  22.527  1.00  0.00    -0.345 N 
ATOM     23  H   UNL A   1      30.195  24.900  23.180  1.00  0.00     0.345 HD
ATOM     24  H   UNL A   1      30.435  25.298  21.580  1.00  0.00     0.345 HD
ATOM     25  H   UNL A   1      30.836  26.384  22.778  1.00  0.00     0.345 HD
ENDBRANCH  19  22
ENDBRANCH  17  19
ENDBRANCH   8  17
ENDBRANCH   4   7
ENDBRANCH   2   3
ENDBRANCH   1   2
BRANCH   1  26
ATOM     26  C   UNL A   1      33.542  28.305  27.320  1.00  0.00     0.118 C 
BRANCH  26  27
ATOM     27  N   UNL A   1      33.467  29.739  27.564  1.00  0.00    -0.352 N 
ATOM     28  C   UNL A   1      34.396  30.572  28.130  1.00  0.00     0.251 C 
ATOM     29  H   UNL A   1      32.628  30.171  27.282  1.00  0.00     0.163 HD
ATOM     30  O   UNL A   1      34.070  31.709  28.469  1.00  0.00    -0.269 OA
BRANCH  28  31
ATOM     31  C   UNL A   1      35.775  30.093  28.342  1.00  0.00     0.039 A 
ATOM     32  C   UNL A   1      36.682  30.138  27.282  1.00  0.00     0.014 A 
ATOM     33  C   UNL A   1      36.174  29.606  29.591  1.00  0.00     0.014 A 
ATOM     34  C   UNL A   1      38.004  29.749  27.494  1.00  0.00     0.010 A 
ATOM     35  C   UNL A   1      37.512  29.312  29.824  1.00  0.00     0.010 A 
ATOM     36  C   UNL A   1      38.439  29.369  28.774  1.00  0.00    -0.014 A 
BRANCH  36  37
ATOM     37  C   UNL A   1      39.858  29.017  29.032  1.00  0.00     0.031 A 
ATOM     38  C   UNL A   1      40.794  30.042  29.615  1.00  0.00     0.074 A 
ATOM     39  C   UNL A   1      40.311  27.794  28.691  1.00  0.00     0.049 A 
ATOM     40  N   UNL A   1      42.074  29.941  29.864  1.00  0.00    -0.248 NA
ATOM     41  C   UNL A   1      40.223  31.360  29.940  1.00  0.00     0.031 C 
ATOM     42  C   UNL A   1      39.509  26.736  28.071  1.00  0.00     0.029 A 
ATOM     43  N   UNL A   1      41.556  27.233  28.813  1.00  0.00    -0.354 N 
ATOM     44  C   UNL A   1      42.461  31.179  30.364  1.00  0.00     0.074 A 
ATOM     45  C   UNL A   1      41.296  32.035  30.325  1.00  0.00     0.031 C 
ATOM     46  C   UNL A   1      40.275  25.647  27.896  1.00  0.00     0.029 A 
ATOM     47  C   UNL A   1      41.630  25.942  28.348  1.00  0.00     0.049 A 
ATOM     48  H   UNL A   1      42.327  27.712  29.197  1.00  0.00     0.167 HD
ATOM     49  C   UNL A   1      43.670  31.558  30.841  1.00  0.00     0.037 A 
ATOM     50  C   UNL A   1      42.674  25.093  28.286  1.00  0.00     0.037 A 
ATOM     51  C   UNL A   1      44.819  30.691  30.896  1.00  0.00     0.049 A 
ATOM     52  C   UNL A   1      44.012  25.545  28.809  1.00  0.00     0.074 A 
ATOM     53  C   UNL A   1      46.076  30.963  31.404  1.00  0.00     0.029 A 
ATOM     54  N   UNL A   1      44.850  29.385  30.428  1.00  0.00    -0.354 N 
ATOM     55  N   UNL A   1      44.343  26.699  29.338  1.00  0.00    -0.248 NA
ATOM     56  C   UNL A   1      45.115  24.579  28.734  1.00  0.00     0.031 C 
ATOM     57  C   UNL A   1      46.883  29.840  31.198  1.00  0.00     0.029 A 
ATOM     58  C   UNL A   1      46.112  28.846  30.616  1.00  0.00     0.049 A 
ATOM     59  H   UNL A   1      44.087  28.913  30.022  1.00  0.00     0.167 HD
ATOM     60  C   UNL A   1      45.685  26.585  29.688  1.00  0.00     0.074 A 
ATOM     61  C   UNL A   1      46.097  25.245  29.325  1.00  0.00     0.031 C 
ATOM     62  C   UNL A   1      46.502  27.505  30.258  1.00  0.00     0.037 A 
BRANCH  49  63
ATOM     63  C   UNL A   1      43.814  32.965  31.353  1.00  0.00     0.058 A 
ATOM     64  C   UNL A   1      44.223  34.016  30.515  1.00  0.00     0.135 A 
ATOM     65  C   UNL A   1      43.486  33.282  32.682  1.00  0.00     0.135 A 
ATOM     66  F   UNL A   1      44.566  33.770  29.240  1.00  0.00    -0.206 F 
ATOM     67  C   UNL A   1      44.321  35.323  30.979  1.00  0.00     0.059 A 
ATOM     68  C   UNL A   1      43.547  34.587  33.160  1.00  0.00     0.059 A 
ATOM     69  F   UNL A   1      43.093  32.317  33.528  1.00  0.00    -0.206 F 
ATOM     70  C   UNL A   1      43.976  35.600  32.303  1.00  0.00     0.060 A 
BRANCH  70  71
ATOM     71  S   UNL A   1      44.082  37.307  32.879  1.00  0.00     0.124 S 
ATOM     72  O   UNL A   1      43.916  38.047  31.631  1.00  0.00    -0.237 OA
ATOM     73  O   UNL A   1      42.968  37.388  33.817  1.00  0.00    -0.237 OA
ATOM     74  O   UNL A   1      45.411  37.382  33.478  1.00  0.00    -0.744 OA
ENDBRANCH  70  71
ENDBRANCH  49  63
BRANCH  50  75
ATOM     75  C   UNL A   1      42.499  23.726  27.722  1.00  0.00     0.058 A 
ATOM     76  C   UNL A   1      42.325  22.614  28.560  1.00  0.00     0.135 A 
ATOM     77  C   UNL A   1      42.514  23.502  26.337  1.00  0.00     0.135 A 
ATOM     78  F   UNL A   1      42.307  22.775  29.892  1.00  0.00    -0.206 F 
ATOM     79  C   UNL A   1      42.206  21.326  28.048  1.00  0.00     0.059 A 
ATOM     80  C   UNL A   1      42.365  22.226  25.800  1.00  0.00     0.059 A 
ATOM     81  F   UNL A   1      42.656  24.532  25.489  1.00  0.00    -0.206 F 
ATOM     82  C   UNL A   1      42.228  21.142  26.665  1.00  0.00     0.060 A 
BRANCH  82  83
ATOM     83  S   UNL A   1      42.053  19.469  26.009  1.00  0.00     0.124 S 
ATOM     84  O   UNL A   1      42.569  18.667  27.112  1.00  0.00    -0.237 OA
ATOM     85  O   UNL A   1      40.615  19.382  25.775  1.00  0.00    -0.237 OA
ATOM     86  O   UNL A   1      42.877  19.493  24.805  1.00  0.00    -0.744 OA
ENDBRANCH  82  83
ENDBRANCH  50  75
BRANCH  62  87
ATOM     87  C   UNL A   1      47.912  27.082  30.566  1.00  0.00     0.058 A 
ATOM     88  C   UNL A   1      48.980  27.380  29.706  1.00  0.00     0.135 A 
ATOM     89  C   UNL A   1      48.203  26.408  31.764  1.00  0.00     0.135 A 
ATOM     90  F   UNL A   1      48.756  28.017  28.545  1.00  0.00    -0.206 F 
ATOM     91  C   UNL A   1      50.283  26.999  30.008  1.00  0.00     0.059 A 
ATOM     92  C   UNL A   1      49.504  26.047  32.102  1.00  0.00     0.059 A 
ATOM     93  F   UNL A   1      47.221  26.109  32.629  1.00  0.00    -0.206 F 
ATOM     94  C   UNL A   1      50.535  26.335  31.209  1.00  0.00     0.060 A 
BRANCH  94  95
ATOM     95  S   UNL A   1      52.235  25.871  31.600  1.00  0.00     0.124 S 
ATOM     96  O   UNL A   1      52.878  25.981  30.295  1.00  0.00    -0.237 OA
ATOM     97  O   UNL A   1      52.616  26.883  32.582  1.00  0.00    -0.237 OA
ATOM     98  O   UNL A   1      52.107  24.515  32.126  1.00  0.00    -0.744 OA
ENDBRANCH  94  95
ENDBRANCH  62  87
ENDBRANCH  36  37
ENDBRANCH  28  31
ENDBRANCH  26  27
ENDBRANCH   1  26
TORSDOF 16
ENDMDL
MODEL 2
REMARK VINA RESULT:     -11.3      4.872     10.385
REMARK SMILES [NH3+]C1(C(=O)N2[C@@H](C(=O)NCCCNC(=O)c3ccc(-c4c5nc(c(-c6c(F)cc(S(=O)(=O)[O-])cc6F)c6ccc([nH]6)c(-c6c(F)cc(S(=O)(=O)[O-])cc6F)c6nc(c(-c7c(F)cc(S(=O)(=O)[O-])cc7F)c7ccc4[nH]7)C=C6)C=C5)cc3)CC[C@@H]3CCCC[C@@H]32)CC1
REMARK SMILES IDX 11 1 10 2 9 3 7 4 8 5 6 7 5 8 89 9 82 10 84 11 88 12 83 13
REMARK SMILES IDX 85 14 87 15 86 16 3 17 4 18 2 19 90 20 91 21 1 22 12 26
REMARK SMILES IDX 13 27 14 28 15 30 16 31 17 32 81 33 18 34 80 35 19 36 20 37
REMARK SMILES IDX 21 38 74 39 22 40 79 41 73 42 75 43 23 44 78 45 72 46 71 47
REMARK SMILES IDX 24 49 58 50 37 51 57 52 38 53 41 54 56 55 76 56 39 57 40 58
REMARK SMILES IDX 55 60 77 61 42 62 25 63 26 64 35 65 27 66 28 67 34 68 36 69
REMARK SMILES IDX 29 70 30 71 31 72 32 73 33 74 59 75 60 76 69 77 61 78 62 79
REMARK SMILES IDX 68 80 70 81 63 82 64 83 65 84 66 85 67 86 43 87 44 88 53 89
REMARK SMILES IDX 45 90 46 91 52 92 54 93 47 94 48 95 49 96 50 97 51 98
REMARK H PARENT 9 6 1 23 1 24 1 25 13 29 75 48 41 59
REMARK Flexibility Score: inf
ROOT
ATOM      1  C   UNL A   1      38.721  22.730  26.419  1.00  0.00     0.042 C 
ENDROOT
BRANCH   1   2
ATOM      2  C   UNL A   1      37.648  23.639  25.841  1.00  0.00     0.117 C 
BRANCH   2   3
ATOM      3  N   UNL A   1      37.457  23.374  24.428  1.00  0.00    -0.354 N 
ATOM      4  C   UNL A   1      36.304  23.307  23.713  1.00  0.00     0.242 C 
ATOM      5  O   UNL A   1      36.342  22.724  22.624  1.00  0.00    -0.273 OA
ATOM      6  H   UNL A   1      38.281  23.222  23.912  1.00  0.00     0.163 HD
BRANCH   4   7
ATOM      7  C   UNL A   1      34.963  23.804  24.281  1.00  0.00     0.175 C 
ATOM      8  N   UNL A   1      33.999  22.796  24.804  1.00  0.00    -0.322 N 
ATOM      9  C   UNL A   1      32.628  23.292  25.066  1.00  0.00     0.089 C 
ATOM     10  C   UNL A   1      34.347  24.672  23.152  1.00  0.00     0.036 C 
ATOM     11  C   UNL A   1      32.039  24.020  23.862  1.00  0.00     0.012 C 
ATOM     12  C   UNL A   1      32.602  24.138  26.358  1.00  0.00     0.025 C 
ATOM     13  C   UNL A   1      32.943  25.177  23.438  1.00  0.00     0.008 C 
ATOM     14  C   UNL A   1      30.616  24.464  24.207  1.00  0.00     0.006 C 
ATOM     15  C   UNL A   1      31.449  25.130  26.543  1.00  0.00     0.002 C 
ATOM     16  C   UNL A   1      30.591  25.486  25.331  1.00  0.00     0.000 C 
BRANCH   8  17
ATOM     17  C   UNL A   1      34.310  21.606  25.491  1.00  0.00     0.284 C 
ATOM     18  O   UNL A   1      35.282  21.545  26.247  1.00  0.00    -0.268 OA
BRANCH  17  19
ATOM     19  C   UNL A   1      33.480  20.339  25.388  1.00  0.00     0.174 C 
ATOM     20  C   UNL A   1      34.008  19.333  24.371  1.00  0.00     0.086 C 
ATOM     21  C   UNL A   1      32.650  19.923  24.203  1.00  0.00     0.086 C 
BRANCH  19  22
ATOM     22  N   UNL A   1      33.173  19.740  26.716  1.00  0.00    -0.345 N 
ATOM     23  H   UNL A   1      33.174  18.723  26.639  1.00  0.00     0.345 HD
ATOM     24  H   UNL A   1      32.254  20.057  27.028  1.00  0.00     0.345 HD
ATOM     25  H   UNL A   1      33.879  20.031  27.392  1.00  0.00     0.345 HD
ENDBRANCH  19  22
ENDBRANCH  17  19
ENDBRANCH   8  17
ENDBRANCH   4   7
ENDBRANCH   2   3
ENDBRANCH   1   2
BRANCH   1  26
ATOM     26  C   UNL A   1      39.872  23.490  27.067  1.00  0.00     0.118 C 
BRANCH  26  27
ATOM     27  N   UNL A   1      40.749  24.112  26.086  1.00  0.00    -0.352 N 
ATOM     28  C   UNL A   1      41.271  25.380  26.070  1.00  0.00     0.251 C 
ATOM     29  H   UNL A   1      41.005  23.542  25.325  1.00  0.00     0.163 HD
ATOM     30  O   UNL A   1      41.802  25.808  25.046  1.00  0.00    -0.269 OA
BRANCH  28  31
ATOM     31  C   UNL A   1      41.177  26.225  27.275  1.00  0.00     0.039 A 
ATOM     32  C   UNL A   1      42.095  27.262  27.453  1.00  0.00     0.014 A 
ATOM     33  C   UNL A   1      40.178  25.998  28.227  1.00  0.00     0.014 A 
ATOM     34  C   UNL A   1      41.972  28.106  28.556  1.00  0.00     0.010 A 
ATOM     35  C   UNL A   1      39.999  26.897  29.271  1.00  0.00     0.010 A 
ATOM     36  C   UNL A   1      40.901  27.954  29.453  1.00  0.00    -0.014 A 
BRANCH  36  37
ATOM     37  C   UNL A   1      40.717  28.885  30.594  1.00  0.00     0.031 A 
ATOM     38  C   UNL A   1      41.569  28.744  31.827  1.00  0.00     0.074 A 
ATOM     39  C   UNL A   1      39.749  29.821  30.537  1.00  0.00     0.049 A 
ATOM     40  N   UNL A   1      41.524  29.426  32.942  1.00  0.00    -0.248 NA
ATOM     41  C   UNL A   1      42.590  27.682  31.816  1.00  0.00     0.031 C 
ATOM     42  C   UNL A   1      38.827  30.019  29.415  1.00  0.00     0.029 A 
ATOM     43  N   UNL A   1      39.374  30.779  31.443  1.00  0.00    -0.354 N 
ATOM     44  C   UNL A   1      42.499  28.872  33.764  1.00  0.00     0.074 A 
ATOM     45  C   UNL A   1      43.078  27.759  33.045  1.00  0.00     0.031 C 
ATOM     46  C   UNL A   1      38.016  31.053  29.688  1.00  0.00     0.029 A 
ATOM     47  C   UNL A   1      38.327  31.563  31.019  1.00  0.00     0.049 A 
ATOM     48  H   UNL A   1      39.813  30.895  32.317  1.00  0.00     0.167 HD
ATOM     49  C   UNL A   1      42.897  29.276  34.994  1.00  0.00     0.037 A 
ATOM     50  C   UNL A   1      37.685  32.574  31.636  1.00  0.00     0.037 A 
ATOM     51  C   UNL A   1      42.330  30.400  35.693  1.00  0.00     0.049 A 
ATOM     52  C   UNL A   1      38.137  32.993  33.010  1.00  0.00     0.074 A 
ATOM     53  C   UNL A   1      42.694  30.920  36.922  1.00  0.00     0.029 A 
ATOM     54  N   UNL A   1      41.280  31.177  35.224  1.00  0.00    -0.354 N 
ATOM     55  N   UNL A   1      39.106  32.498  33.745  1.00  0.00    -0.248 NA
ATOM     56  C   UNL A   1      37.417  34.109  33.635  1.00  0.00     0.031 C 
ATOM     57  C   UNL A   1      41.832  31.980  37.220  1.00  0.00     0.029 A 
ATOM     58  C   UNL A   1      40.969  32.159  36.150  1.00  0.00     0.049 A 
ATOM     59  H   UNL A   1      40.824  31.049  34.361  1.00  0.00     0.167 HD
ATOM     60  C   UNL A   1      39.131  33.266  34.906  1.00  0.00     0.074 A 
ATOM     61  C   UNL A   1      38.091  34.265  34.765  1.00  0.00     0.031 C 
ATOM     62  C   UNL A   1      39.939  33.154  35.989  1.00  0.00     0.037 A 
BRANCH  49  63
ATOM     63  C   UNL A   1      44.006  28.508  35.660  1.00  0.00     0.058 A 
ATOM     64  C   UNL A   1      45.357  28.836  35.454  1.00  0.00     0.135 A 
ATOM     65  C   UNL A   1      43.718  27.467  36.559  1.00  0.00     0.135 A 
ATOM     66  F   UNL A   1      45.692  29.810  34.593  1.00  0.00    -0.206 F 
ATOM     67  C   UNL A   1      46.380  28.150  36.099  1.00  0.00     0.059 A 
ATOM     68  C   UNL A   1      44.724  26.787  37.238  1.00  0.00     0.059 A 
ATOM     69  F   UNL A   1      42.446  27.108  36.790  1.00  0.00    -0.206 F 
ATOM     70  C   UNL A   1      46.053  27.129  36.993  1.00  0.00     0.060 A 
BRANCH  70  71
ATOM     71  S   UNL A   1      47.395  26.269  37.841  1.00  0.00     0.124 S 
ATOM     72  O   UNL A   1      46.688  25.136  38.430  1.00  0.00    -0.237 OA
ATOM     73  O   UNL A   1      48.302  25.950  36.744  1.00  0.00    -0.237 OA
ATOM     74  O   UNL A   1      47.888  27.261  38.791  1.00  0.00    -0.744 OA
ENDBRANCH  70  71
ENDBRANCH  49  63
BRANCH  50  75
ATOM     75  C   UNL A   1      36.558  33.272  30.960  1.00  0.00     0.058 A 
ATOM     76  C   UNL A   1      36.787  34.152  29.891  1.00  0.00     0.135 A 
ATOM     77  C   UNL A   1      35.230  33.085  31.376  1.00  0.00     0.135 A 
ATOM     78  F   UNL A   1      38.038  34.368  29.457  1.00  0.00    -0.206 F 
ATOM     79  C   UNL A   1      35.747  34.845  29.280  1.00  0.00     0.059 A 
ATOM     80  C   UNL A   1      34.170  33.743  30.760  1.00  0.00     0.059 A 
ATOM     81  F   UNL A   1      34.951  32.239  32.380  1.00  0.00    -0.206 F 
ATOM     82  C   UNL A   1      34.440  34.635  29.723  1.00  0.00     0.060 A 
BRANCH  82  83
ATOM     83  S   UNL A   1      33.095  35.524  28.911  1.00  0.00     0.124 S 
ATOM     84  O   UNL A   1      32.440  34.451  28.172  1.00  0.00    -0.237 OA
ATOM     85  O   UNL A   1      32.355  36.063  30.047  1.00  0.00    -0.237 OA
ATOM     86  O   UNL A   1      33.793  36.516  28.099  1.00  0.00    -0.744 OA
ENDBRANCH  82  83
ENDBRANCH  50  75
BRANCH  62  87
ATOM     87  C   UNL A   1      39.764  34.163  37.090  1.00  0.00     0.058 A 
ATOM     88  C   UNL A   1      38.994  33.889  38.231  1.00  0.00     0.135 A 
ATOM     89  C   UNL A   1      40.415  35.407  37.021  1.00  0.00     0.135 A 
ATOM     90  F   UNL A   1      38.346  32.719  38.345  1.00  0.00    -0.206 F 
ATOM     91  C   UNL A   1      38.852  34.824  39.252  1.00  0.00     0.059 A 
ATOM     92  C   UNL A   1      40.314  36.342  38.046  1.00  0.00     0.059 A 
ATOM     93  F   UNL A   1      41.173  35.716  35.957  1.00  0.00    -0.206 F 
ATOM     94  C   UNL A   1      39.518  36.046  39.151  1.00  0.00     0.060 A 
BRANCH  94  95
ATOM     95  S   UNL A   1      39.347  37.237  40.496  1.00  0.00     0.124 S 
ATOM     96  O   UNL A   1      40.740  37.576  40.768  1.00  0.00    -0.237 OA
ATOM     97  O   UNL A   1      38.547  38.292  39.879  1.00  0.00    -0.237 OA
ATOM     98  O   UNL A   1      38.669  36.476  41.542  1.00  0.00    -0.744 OA
ENDBRANCH  94  95
ENDBRANCH  62  87
ENDBRANCH  36  37
ENDBRANCH  28  31
ENDBRANCH  26  27
ENDBRANCH   1  26
TORSDOF 16
ENDMDL
MODEL 3
REMARK VINA RESULT:     -11.1      4.715     10.318
REMARK SMILES [NH3+]C1(C(=O)N2[C@@H](C(=O)NCCCNC(=O)c3ccc(-c4c5nc(c(-c6c(F)cc(S(=O)(=O)[O-])cc6F)c6ccc([nH]6)c(-c6c(F)cc(S(=O)(=O)[O-])cc6F)c6nc(c(-c7c(F)cc(S(=O)(=O)[O-])cc7F)c7ccc4[nH]7)C=C6)C=C5)cc3)CC[C@@H]3CCCC[C@@H]32)CC1
REMARK SMILES IDX 11 1 10 2 9 3 7 4 8 5 6 7 5 8 89 9 82 10 84 11 88 12 83 13
REMARK SMILES IDX 85 14 87 15 86 16 3 17 4 18 2 19 90 20 91 21 1 22 12 26
REMARK SMILES IDX 13 27 14 28 15 30 16 31 17 32 81 33 18 34 80 35 19 36 20 37
REMARK SMILES IDX 21 38 74 39 22 40 79 41 73 42 75 43 23 44 78 45 72 46 71 47
REMARK SMILES IDX 24 49 58 50 37 51 57 52 38 53 41 54 56 55 76 56 39 57 40 58
REMARK SMILES IDX 55 60 77 61 42 62 25 63 26 64 35 65 27 66 28 67 34 68 36 69
REMARK SMILES IDX 29 70 30 71 31 72 32 73 33 74 59 75 60 76 69 77 61 78 62 79
REMARK SMILES IDX 68 80 70 81 63 82 64 83 65 84 66 85 67 86 43 87 44 88 53 89
REMARK SMILES IDX 45 90 46 91 52 92 54 93 47 94 48 95 49 96 50 97 51 98
REMARK H PARENT 9 6 1 23 1 24 1 25 13 29 75 48 41 59
REMARK Flexibility Score: inf
ROOT
ATOM      1  C   UNL A   1      40.198  21.807  26.945  1.00  0.00     0.042 C 
ENDROOT
BRANCH   1   2
ATOM      2  C   UNL A   1      38.976  22.200  26.129  1.00  0.00     0.117 C 
BRANCH   2   3
ATOM      3  N   UNL A   1      38.350  21.030  25.544  1.00  0.00    -0.354 N 
ATOM      4  C   UNL A   1      37.080  20.869  25.090  1.00  0.00     0.242 C 
ATOM      5  O   UNL A   1      36.660  19.713  24.971  1.00  0.00    -0.273 OA
ATOM      6  H   UNL A   1      38.929  20.238  25.465  1.00  0.00     0.163 HD
BRANCH   4   7
ATOM      7  C   UNL A   1      36.139  22.065  24.863  1.00  0.00     0.175 C 
ATOM      8  N   UNL A   1      34.672  21.848  25.010  1.00  0.00    -0.322 N 
ATOM      9  C   UNL A   1      33.806  22.939  24.504  1.00  0.00     0.089 C 
ATOM     10  C   UNL A   1      36.512  22.606  23.457  1.00  0.00     0.036 C 
ATOM     11  C   UNL A   1      34.148  23.326  23.069  1.00  0.00     0.012 C 
ATOM     12  C   UNL A   1      33.831  24.138  25.478  1.00  0.00     0.025 C 
ATOM     13  C   UNL A   1      35.618  23.728  22.955  1.00  0.00     0.008 C 
ATOM     14  C   UNL A   1      33.187  24.428  22.619  1.00  0.00     0.006 C 
ATOM     15  C   UNL A   1      33.431  25.513  24.933  1.00  0.00     0.002 C 
ATOM     16  C   UNL A   1      33.364  25.707  23.420  1.00  0.00     0.000 C 
BRANCH   8  17
ATOM     17  C   UNL A   1      34.032  21.003  25.938  1.00  0.00     0.284 C 
ATOM     18  O   UNL A   1      34.131  21.201  27.150  1.00  0.00    -0.268 OA
BRANCH  17  19
ATOM     19  C   UNL A   1      33.163  19.826  25.535  1.00  0.00     0.174 C 
ATOM     20  C   UNL A   1      33.605  19.142  24.245  1.00  0.00     0.086 C 
ATOM     21  C   UNL A   1      32.256  19.769  24.335  1.00  0.00     0.086 C 
BRANCH  19  22
ATOM     22  N   UNL A   1      32.915  18.879  26.657  1.00  0.00    -0.345 N 
ATOM     23  H   UNL A   1      33.008  19.372  27.545  1.00  0.00     0.345 HD
ATOM     24  H   UNL A   1      33.594  18.119  26.616  1.00  0.00     0.345 HD
ATOM     25  H   UNL A   1      31.973  18.496  26.578  1.00  0.00     0.345 HD
ENDBRANCH  19  22
ENDBRANCH  17  19
ENDBRANCH   8  17
ENDBRANCH   4   7
ENDBRANCH   2   3
ENDBRANCH   1   2
BRANCH   1  26
ATOM     26  C   UNL A   1      41.053  22.997  27.362  1.00  0.00     0.118 C 
BRANCH  26  27
ATOM     27  N   UNL A   1      41.488  23.795  26.223  1.00  0.00    -0.352 N 
ATOM     28  C   UNL A   1      41.574  25.158  26.103  1.00  0.00     0.251 C 
ATOM     29  H   UNL A   1      41.758  23.283  25.427  1.00  0.00     0.163 HD
ATOM     30  O   UNL A   1      41.738  25.662  24.993  1.00  0.00    -0.269 OA
BRANCH  28  31
ATOM     31  C   UNL A   1      41.454  26.008  27.302  1.00  0.00     0.039 A 
ATOM     32  C   UNL A   1      42.458  26.937  27.581  1.00  0.00     0.014 A 
ATOM     33  C   UNL A   1      40.346  25.892  28.147  1.00  0.00     0.014 A 
ATOM     34  C   UNL A   1      42.318  27.789  28.676  1.00  0.00     0.010 A 
ATOM     35  C   UNL A   1      40.164  26.805  29.178  1.00  0.00     0.010 A 
ATOM     36  C   UNL A   1      41.153  27.756  29.461  1.00  0.00    -0.014 A 
BRANCH  36  37
ATOM     37  C   UNL A   1      40.959  28.701  30.589  1.00  0.00     0.031 A 
ATOM     38  C   UNL A   1      41.802  28.577  31.829  1.00  0.00     0.074 A 
ATOM     39  C   UNL A   1      39.990  29.635  30.513  1.00  0.00     0.049 A 
ATOM     40  N   UNL A   1      41.747  29.273  32.936  1.00  0.00    -0.248 NA
ATOM     41  C   UNL A   1      42.825  27.517  31.840  1.00  0.00     0.031 C 
ATOM     42  C   UNL A   1      39.077  29.818  29.381  1.00  0.00     0.029 A 
ATOM     43  N   UNL A   1      39.607  30.605  31.403  1.00  0.00    -0.354 N 
ATOM     44  C   UNL A   1      42.718  28.732  33.772  1.00  0.00     0.074 A 
ATOM     45  C   UNL A   1      43.303  27.610  33.072  1.00  0.00     0.031 C 
ATOM     46  C   UNL A   1      38.262  30.854  29.635  1.00  0.00     0.029 A 
ATOM     47  C   UNL A   1      38.562  31.381  30.961  1.00  0.00     0.049 A 
ATOM     48  H   UNL A   1      40.040  30.732  32.279  1.00  0.00     0.167 HD
ATOM     49  C   UNL A   1      43.106  29.151  34.999  1.00  0.00     0.037 A 
ATOM     50  C   UNL A   1      37.915  32.399  31.560  1.00  0.00     0.037 A 
ATOM     51  C   UNL A   1      42.532  30.284  35.679  1.00  0.00     0.049 A 
ATOM     52  C   UNL A   1      38.356  32.836  32.932  1.00  0.00     0.074 A 
ATOM     53  C   UNL A   1      42.886  30.820  36.904  1.00  0.00     0.029 A 
ATOM     54  N   UNL A   1      41.485  31.054  35.193  1.00  0.00    -0.354 N 
ATOM     55  N   UNL A   1      39.320  32.353  33.681  1.00  0.00    -0.248 NA
ATOM     56  C   UNL A   1      37.630  33.959  33.538  1.00  0.00     0.031 C 
ATOM     57  C   UNL A   1      42.020  31.883  37.182  1.00  0.00     0.029 A 
ATOM     58  C   UNL A   1      41.166  32.047  36.104  1.00  0.00     0.049 A 
ATOM     59  H   UNL A   1      41.035  30.914  34.328  1.00  0.00     0.167 HD
ATOM     60  C   UNL A   1      39.335  33.135  34.832  1.00  0.00     0.074 A 
ATOM     61  C   UNL A   1      38.295  34.131  34.671  1.00  0.00     0.031 C 
ATOM     62  C   UNL A   1      40.135  33.038  35.922  1.00  0.00     0.037 A 
BRANCH  49  63
ATOM     63  C   UNL A   1      44.211  28.394  35.684  1.00  0.00     0.058 A 
ATOM     64  C   UNL A   1      43.941  27.325  36.556  1.00  0.00     0.135 A 
ATOM     65  C   UNL A   1      45.557  28.700  35.425  1.00  0.00     0.135 A 
ATOM     66  F   UNL A   1      42.673  27.000  36.854  1.00  0.00    -0.206 F 
ATOM     67  C   UNL A   1      44.963  26.602  37.160  1.00  0.00     0.059 A 
ATOM     68  C   UNL A   1      46.596  27.970  35.995  1.00  0.00     0.059 A 
ATOM     69  F   UNL A   1      45.874  29.713  34.604  1.00  0.00    -0.206 F 
ATOM     70  C   UNL A   1      46.288  26.929  36.869  1.00  0.00     0.060 A 
BRANCH  70  71
ATOM     71  S   UNL A   1      47.601  25.959  37.642  1.00  0.00     0.124 S 
ATOM     72  O   UNL A   1      48.071  26.877  38.675  1.00  0.00    -0.237 OA
ATOM     73  O   UNL A   1      46.880  24.784  38.118  1.00  0.00    -0.237 OA
ATOM     74  O   UNL A   1      48.535  25.719  36.547  1.00  0.00    -0.744 OA
ENDBRANCH  70  71
ENDBRANCH  49  63
BRANCH  50  75
ATOM     75  C   UNL A   1      36.791  33.087  30.867  1.00  0.00     0.058 A 
ATOM     76  C   UNL A   1      35.458  32.723  31.111  1.00  0.00     0.135 A 
ATOM     77  C   UNL A   1      37.027  34.112  29.938  1.00  0.00     0.135 A 
ATOM     78  F   UNL A   1      35.180  31.746  31.988  1.00  0.00    -0.206 F 
ATOM     79  C   UNL A   1      34.402  33.327  30.436  1.00  0.00     0.059 A 
ATOM     80  C   UNL A   1      35.985  34.753  29.274  1.00  0.00     0.059 A 
ATOM     81  F   UNL A   1      38.282  34.515  29.682  1.00  0.00    -0.206 F 
ATOM     82  C   UNL A   1      34.676  34.341  29.518  1.00  0.00     0.060 A 
BRANCH  82  83
ATOM     83  S   UNL A   1      33.297  35.132  28.662  1.00  0.00     0.124 S 
ATOM     84  O   UNL A   1      33.994  36.039  27.759  1.00  0.00    -0.237 OA
ATOM     85  O   UNL A   1      32.632  33.993  28.036  1.00  0.00    -0.237 OA
ATOM     86  O   UNL A   1      32.552  35.767  29.745  1.00  0.00    -0.744 OA
ENDBRANCH  82  83
ENDBRANCH  50  75
BRANCH  62  87
ATOM     87  C   UNL A   1      39.951  34.061  37.009  1.00  0.00     0.058 A 
ATOM     88  C   UNL A   1      40.587  35.312  36.966  1.00  0.00     0.135 A 
ATOM     89  C   UNL A   1      39.088  33.802  38.087  1.00  0.00     0.135 A 
ATOM     90  F   UNL A   1      41.426  35.609  35.961  1.00  0.00    -0.206 F 
ATOM     91  C   UNL A   1      40.397  36.258  37.967  1.00  0.00     0.059 A 
ATOM     92  C   UNL A   1      38.858  34.746  39.083  1.00  0.00     0.059 A 
ATOM     93  F   UNL A   1      38.445  32.626  38.172  1.00  0.00    -0.206 F 
ATOM     94  C   UNL A   1      39.529  35.966  39.021  1.00  0.00     0.060 A 
BRANCH  94  95
ATOM     95  S   UNL A   1      39.271  37.214  40.299  1.00  0.00     0.124 S 
ATOM     96  O   UNL A   1      38.474  38.206  39.585  1.00  0.00    -0.237 OA
ATOM     97  O   UNL A   1      38.568  36.461  41.333  1.00  0.00    -0.237 OA
ATOM     98  O   UNL A   1      40.626  37.630  40.648  1.00  0.00    -0.744 OA
ENDBRANCH  94  95
ENDBRANCH  62  87
ENDBRANCH  36  37
ENDBRANCH  28  31
ENDBRANCH  26  27
ENDBRANCH   1  26
TORSDOF 16
ENDMDL
