MODEL 1
REMARK VINA RESULT:     -13.2      0.000      0.000
REMARK SMILES Cc1c(C(=O)NCCCNC(=O)c2ccc(-c3c4nc(c(-c5c(F)cc(S(=O)(=O)[O-])cc5F)c5ccc([nH]5)c(-c5c(F)cc(S(=O)(=O)[O-])cc5F)c5nc(c(-c6c(F)cc(S(=O)(=O)[O-])cc6F)c6ccc3[nH]6)C=C5)C=C4)cc2)sc2c1=C(CSc1nncn1-c1ccccc1)CC(=O)N=2
REMARK SMILES IDX 7 1 6 2 4 3 5 4 3 6 1 7 2 8 81 9 79 10 80 11 82 12 99 13
REMARK SMILES IDX 96 14 97 15 98 16 83 17 84 18 85 19 86 20 89 21 87 22 88 23
REMARK SMILES IDX 90 24 91 25 95 26 92 27 94 28 93 29 8 30 9 31 10 32 11 33
REMARK SMILES IDX 12 35 13 36 14 37 78 38 15 39 77 40 16 41 17 42 18 43 71 44
REMARK SMILES IDX 19 45 76 46 70 47 72 48 20 49 75 50 69 51 68 52 21 54 55 55
REMARK SMILES IDX 34 56 54 57 35 58 38 59 53 60 73 61 36 62 37 63 52 65 74 66
REMARK SMILES IDX 39 67 22 68 23 69 32 70 24 71 25 72 31 73 33 74 26 75 27 76
REMARK SMILES IDX 28 77 29 78 30 79 56 80 57 81 66 82 58 83 59 84 65 85 67 86
REMARK SMILES IDX 60 87 61 88 62 89 63 90 64 91 40 92 41 93 50 94 42 95 43 96
REMARK SMILES IDX 49 97 51 98 44 99 45 100 46 101 47 102 48 103
REMARK H PARENT 6 5 10 34 72 53 38 64
REMARK Flexibility Score: inf
ROOT
ATOM      1  C   UNL A   1      31.829  29.919  25.544  1.00  0.00     0.118 C 
ENDROOT
BRANCH   1   2
ATOM      2  N   UNL A   1      32.747  29.740  24.437  1.00  0.00    -0.351 N 
ATOM      3  C   UNL A   1      33.135  28.682  23.683  1.00  0.00     0.261 C 
ATOM      4  O   UNL A   1      33.863  28.965  22.727  1.00  0.00    -0.268 OA
ATOM      5  H   UNL A   1      33.190  30.578  24.172  1.00  0.00     0.163 HD
BRANCH   3   6
ATOM      6  C   UNL A   1      32.722  27.251  23.911  1.00  0.00     0.098 A 
ATOM      7  C   UNL A   1      30.176  27.104  23.587  1.00  0.00     0.047 C 
ATOM      8  C   UNL A   1      31.544  26.580  23.855  1.00  0.00    -0.018 A 
ATOM      9  C   UNL A   1      31.677  25.203  24.342  1.00  0.00     0.016 A 
ATOM     10  S   UNL A   1      33.994  26.264  24.699  1.00  0.00    -0.110 S 
ATOM     11  C   UNL A   1      32.816  25.128  25.291  1.00  0.00     0.128 A 
ATOM     12  C   UNL A   1      30.721  24.287  24.603  1.00  0.00    -0.040 C 
ATOM     13  N   UNL A   1      32.921  24.464  26.386  1.00  0.00    -0.202 NA
ATOM     14  C   UNL A   1      30.476  24.072  26.091  1.00  0.00     0.135 C 
ATOM     15  C   UNL A   1      31.809  23.742  26.773  1.00  0.00     0.251 C 
ATOM     16  O   UNL A   1      31.845  22.895  27.661  1.00  0.00    -0.272 OA
BRANCH  12  17
ATOM     17  C   UNL A   1      30.795  22.925  23.907  1.00  0.00     0.110 C 
BRANCH  17  18
ATOM     18  S   UNL A   1      32.351  22.639  23.037  1.00  0.00    -0.081 SA
BRANCH  18  19
ATOM     19  C   UNL A   1      32.908  21.215  23.846  1.00  0.00     0.195 A 
ATOM     20  N   UNL A   1      32.242  20.082  23.807  1.00  0.00    -0.123 NA
ATOM     21  N   UNL A   1      34.120  21.047  24.499  1.00  0.00    -0.277 N 
ATOM     22  N   UNL A   1      32.997  19.125  24.417  1.00  0.00    -0.138 NA
ATOM     23  C   UNL A   1      34.105  19.703  24.818  1.00  0.00     0.231 A 
BRANCH  21  24
ATOM     24  C   UNL A   1      35.193  21.952  24.782  1.00  0.00     0.049 A 
ATOM     25  C   UNL A   1      35.473  22.400  26.080  1.00  0.00     0.027 A 
ATOM     26  C   UNL A   1      36.004  22.414  23.732  1.00  0.00     0.027 A 
ATOM     27  C   UNL A   1      36.495  23.326  26.315  1.00  0.00     0.002 A 
ATOM     28  C   UNL A   1      37.053  23.304  23.981  1.00  0.00     0.002 A 
ATOM     29  C   UNL A   1      37.282  23.781  25.265  1.00  0.00     0.000 A 
ENDBRANCH  21  24
ENDBRANCH  18  19
ENDBRANCH  17  18
ENDBRANCH  12  17
ENDBRANCH   3   6
ENDBRANCH   1   2
BRANCH   1  30
ATOM     30  C   UNL A   1      32.213  29.039  26.743  1.00  0.00     0.042 C 
BRANCH  30  31
ATOM     31  C   UNL A   1      33.551  29.416  27.363  1.00  0.00     0.118 C 
BRANCH  31  32
ATOM     32  N   UNL A   1      33.794  30.857  27.274  1.00  0.00    -0.352 N 
ATOM     33  C   UNL A   1      34.797  31.620  27.850  1.00  0.00     0.251 C 
ATOM     34  H   UNL A   1      33.150  31.357  26.725  1.00  0.00     0.163 HD
ATOM     35  O   UNL A   1      34.701  32.829  27.913  1.00  0.00    -0.269 OA
BRANCH  33  36
ATOM     36  C   UNL A   1      35.972  30.912  28.380  1.00  0.00     0.039 A 
ATOM     37  C   UNL A   1      36.458  29.748  27.776  1.00  0.00     0.014 A 
ATOM     38  C   UNL A   1      36.656  31.534  29.414  1.00  0.00     0.014 A 
ATOM     39  C   UNL A   1      37.717  29.276  28.148  1.00  0.00     0.010 A 
ATOM     40  C   UNL A   1      37.952  31.166  29.652  1.00  0.00     0.010 A 
ATOM     41  C   UNL A   1      38.476  30.012  29.065  1.00  0.00    -0.014 A 
BRANCH  41  42
ATOM     42  C   UNL A   1      39.875  29.683  29.345  1.00  0.00     0.031 A 
ATOM     43  C   UNL A   1      40.215  29.404  30.778  1.00  0.00     0.074 A 
ATOM     44  C   UNL A   1      40.702  29.298  28.347  1.00  0.00     0.049 A 
ATOM     45  N   UNL A   1      41.112  29.963  31.526  1.00  0.00    -0.248 NA
ATOM     46  C   UNL A   1      39.386  28.422  31.499  1.00  0.00     0.031 C 
ATOM     47  C   UNL A   1      40.381  29.148  26.918  1.00  0.00     0.029 A 
ATOM     48  N   UNL A   1      41.953  28.776  28.422  1.00  0.00    -0.354 N 
ATOM     49  C   UNL A   1      41.100  29.271  32.741  1.00  0.00     0.074 A 
ATOM     50  C   UNL A   1      39.909  28.464  32.725  1.00  0.00     0.031 C 
ATOM     51  C   UNL A   1      41.278  28.323  26.341  1.00  0.00     0.029 A 
ATOM     52  C   UNL A   1      42.339  28.064  27.294  1.00  0.00     0.049 A 
ATOM     53  H   UNL A   1      42.535  28.892  29.207  1.00  0.00     0.167 HD
ATOM     54  C   UNL A   1      42.176  29.250  33.579  1.00  0.00     0.037 A 
ATOM     55  C   UNL A   1      43.432  27.276  27.164  1.00  0.00     0.037 A 
ATOM     56  C   UNL A   1      43.133  30.264  33.219  1.00  0.00     0.049 A 
ATOM     57  C   UNL A   1      44.373  27.660  28.247  1.00  0.00     0.074 A 
ATOM     58  C   UNL A   1      43.105  31.642  33.127  1.00  0.00     0.029 A 
ATOM     59  N   UNL A   1      44.254  29.865  32.532  1.00  0.00    -0.354 N 
ATOM     60  N   UNL A   1      44.932  28.837  28.349  1.00  0.00    -0.248 NA
ATOM     61  C   UNL A   1      44.361  26.871  29.469  1.00  0.00     0.031 C 
ATOM     62  C   UNL A   1      43.912  31.948  31.992  1.00  0.00     0.029 A 
ATOM     63  C   UNL A   1      44.431  30.748  31.499  1.00  0.00     0.049 A 
ATOM     64  H   UNL A   1      44.823  29.090  32.743  1.00  0.00     0.167 HD
ATOM     65  C   UNL A   1      44.969  29.100  29.711  1.00  0.00     0.074 A 
ATOM     66  C   UNL A   1      44.708  27.814  30.350  1.00  0.00     0.031 C 
ATOM     67  C   UNL A   1      44.927  30.380  30.188  1.00  0.00     0.037 A 
BRANCH  54  68
ATOM     68  C   UNL A   1      42.550  28.112  34.511  1.00  0.00     0.058 A 
ATOM     69  C   UNL A   1      42.607  28.344  35.904  1.00  0.00     0.135 A 
ATOM     70  C   UNL A   1      43.128  26.897  34.082  1.00  0.00     0.135 A 
ATOM     71  F   UNL A   1      42.089  29.465  36.434  1.00  0.00    -0.206 F 
ATOM     72  C   UNL A   1      43.262  27.482  36.787  1.00  0.00     0.059 A 
ATOM     73  C   UNL A   1      43.736  25.995  34.952  1.00  0.00     0.059 A 
ATOM     74  F   UNL A   1      43.222  26.567  32.789  1.00  0.00    -0.206 F 
ATOM     75  C   UNL A   1      43.844  26.320  36.294  1.00  0.00     0.060 A 
BRANCH  75  76
ATOM     76  S   UNL A   1      44.808  25.271  37.398  1.00  0.00     0.124 S 
ATOM     77  O   UNL A   1      44.208  25.584  38.689  1.00  0.00    -0.237 OA
ATOM     78  O   UNL A   1      44.535  23.938  36.869  1.00  0.00    -0.237 OA
ATOM     79  O   UNL A   1      46.174  25.747  37.202  1.00  0.00    -0.744 OA
ENDBRANCH  75  76
ENDBRANCH  54  68
BRANCH  55  80
ATOM     80  C   UNL A   1      43.556  26.032  26.366  1.00  0.00     0.058 A 
ATOM     81  C   UNL A   1      44.650  25.819  25.514  1.00  0.00     0.135 A 
ATOM     82  C   UNL A   1      42.727  24.916  26.610  1.00  0.00     0.135 A 
ATOM     83  F   UNL A   1      45.500  26.821  25.248  1.00  0.00    -0.206 F 
ATOM     84  C   UNL A   1      44.929  24.564  24.961  1.00  0.00     0.059 A 
ATOM     85  C   UNL A   1      42.977  23.658  26.063  1.00  0.00     0.059 A 
ATOM     86  F   UNL A   1      41.692  24.998  27.461  1.00  0.00    -0.206 F 
ATOM     87  C   UNL A   1      44.095  23.484  25.256  1.00  0.00     0.060 A 
BRANCH  87  88
ATOM     88  S   UNL A   1      44.548  21.833  24.675  1.00  0.00     0.124 S 
ATOM     89  O   UNL A   1      44.500  22.000  23.226  1.00  0.00    -0.237 OA
ATOM     90  O   UNL A   1      45.877  21.658  25.254  1.00  0.00    -0.237 OA
ATOM     91  O   UNL A   1      43.508  20.978  25.240  1.00  0.00    -0.744 OA
ENDBRANCH  87  88
ENDBRANCH  55  80
BRANCH  67  92
ATOM     92  C   UNL A   1      45.159  31.522  29.233  1.00  0.00     0.058 A 
ATOM     93  C   UNL A   1      46.426  31.953  28.806  1.00  0.00     0.135 A 
ATOM     94  C   UNL A   1      44.046  32.049  28.560  1.00  0.00     0.135 A 
ATOM     95  F   UNL A   1      47.543  31.430  29.327  1.00  0.00    -0.206 F 
ATOM     96  C   UNL A   1      46.583  32.869  27.765  1.00  0.00     0.059 A 
ATOM     97  C   UNL A   1      44.178  32.942  27.499  1.00  0.00     0.059 A 
ATOM     98  F   UNL A   1      42.809  31.633  28.879  1.00  0.00    -0.206 F 
ATOM     99  C   UNL A   1      45.451  33.349  27.108  1.00  0.00     0.060 A 
BRANCH  99 100
ATOM    100  S   UNL A   1      45.661  34.423  25.671  1.00  0.00     0.124 S 
ATOM    101  O   UNL A   1      47.089  34.297  25.400  1.00  0.00    -0.237 OA
ATOM    102  O   UNL A   1      44.773  33.814  24.685  1.00  0.00    -0.237 OA
ATOM    103  O   UNL A   1      45.230  35.732  26.158  1.00  0.00    -0.744 OA
ENDBRANCH  99 100
ENDBRANCH  67  92
ENDBRANCH  41  42
ENDBRANCH  33  36
ENDBRANCH  31  32
ENDBRANCH  30  31
ENDBRANCH   1  30
TORSDOF 17
ENDMDL
MODEL 2
REMARK VINA RESULT:     -12.7      1.593      2.596
REMARK SMILES Cc1c(C(=O)NCCCNC(=O)c2ccc(-c3c4nc(c(-c5c(F)cc(S(=O)(=O)[O-])cc5F)c5ccc([nH]5)c(-c5c(F)cc(S(=O)(=O)[O-])cc5F)c5nc(c(-c6c(F)cc(S(=O)(=O)[O-])cc6F)c6ccc3[nH]6)C=C5)C=C4)cc2)sc2c1=C(CSc1nncn1-c1ccccc1)CC(=O)N=2
REMARK SMILES IDX 7 1 6 2 4 3 5 4 3 6 1 7 2 8 81 9 79 10 80 11 82 12 99 13
REMARK SMILES IDX 96 14 97 15 98 16 83 17 84 18 85 19 86 20 89 21 87 22 88 23
REMARK SMILES IDX 90 24 91 25 95 26 92 27 94 28 93 29 8 30 9 31 10 32 11 33
REMARK SMILES IDX 12 35 13 36 14 37 78 38 15 39 77 40 16 41 17 42 18 43 71 44
REMARK SMILES IDX 19 45 76 46 70 47 72 48 20 49 75 50 69 51 68 52 21 54 55 55
REMARK SMILES IDX 34 56 54 57 35 58 38 59 53 60 73 61 36 62 37 63 52 65 74 66
REMARK SMILES IDX 39 67 22 68 23 69 32 70 24 71 25 72 31 73 33 74 26 75 27 76
REMARK SMILES IDX 28 77 29 78 30 79 56 80 57 81 66 82 58 83 59 84 65 85 67 86
REMARK SMILES IDX 60 87 61 88 62 89 63 90 64 91 40 92 41 93 50 94 42 95 43 96
REMARK SMILES IDX 49 97 51 98 44 99 45 100 46 101 47 102 48 103
REMARK H PARENT 6 5 10 34 72 53 38 64
REMARK Flexibility Score: inf
ROOT
ATOM      1  C   UNL A   1      33.702  29.507  26.597  1.00  0.00     0.118 C 
ENDROOT
BRANCH   1   2
ATOM      2  N   UNL A   1      33.714  29.573  25.150  1.00  0.00    -0.351 N 
ATOM      3  C   UNL A   1      33.436  28.697  24.154  1.00  0.00     0.261 C 
ATOM      4  O   UNL A   1      33.444  29.181  23.018  1.00  0.00    -0.268 OA
ATOM      5  H   UNL A   1      33.987  30.457  24.813  1.00  0.00     0.163 HD
BRANCH   3   6
ATOM      6  C   UNL A   1      33.100  27.240  24.343  1.00  0.00     0.098 A 
ATOM      7  C   UNL A   1      31.408  26.580  22.523  1.00  0.00     0.047 C 
ATOM      8  C   UNL A   1      32.308  26.354  23.688  1.00  0.00    -0.018 A 
ATOM      9  C   UNL A   1      32.208  25.078  24.405  1.00  0.00     0.016 A 
ATOM     10  S   UNL A   1      33.627  26.591  25.928  1.00  0.00    -0.110 S 
ATOM     11  C   UNL A   1      32.452  25.310  25.851  1.00  0.00     0.128 A 
ATOM     12  C   UNL A   1      31.397  24.024  24.177  1.00  0.00    -0.040 C 
ATOM     13  N   UNL A   1      31.874  24.781  26.869  1.00  0.00    -0.202 NA
ATOM     14  C   UNL A   1      30.260  23.904  25.183  1.00  0.00     0.135 C 
ATOM     15  C   UNL A   1      30.846  23.899  26.600  1.00  0.00     0.251 C 
ATOM     16  O   UNL A   1      30.366  23.159  27.454  1.00  0.00    -0.272 OA
BRANCH  12  17
ATOM     17  C   UNL A   1      32.025  22.644  23.964  1.00  0.00     0.110 C 
BRANCH  17  18
ATOM     18  S   UNL A   1      33.624  22.695  23.129  1.00  0.00    -0.081 SA
BRANCH  18  19
ATOM     19  C   UNL A   1      34.688  22.417  24.464  1.00  0.00     0.195 A 
ATOM     20  N   UNL A   1      35.364  23.390  25.035  1.00  0.00    -0.123 NA
ATOM     21  N   UNL A   1      34.867  21.227  25.154  1.00  0.00    -0.277 N 
ATOM     22  N   UNL A   1      35.997  22.880  26.129  1.00  0.00    -0.138 NA
ATOM     23  C   UNL A   1      35.695  21.605  26.194  1.00  0.00     0.231 A 
BRANCH  21  24
ATOM     24  C   UNL A   1      34.343  19.911  24.951  1.00  0.00     0.049 A 
ATOM     25  C   UNL A   1      35.138  18.849  24.499  1.00  0.00     0.027 A 
ATOM     26  C   UNL A   1      32.986  19.657  25.214  1.00  0.00     0.027 A 
ATOM     27  C   UNL A   1      34.582  17.587  24.260  1.00  0.00     0.002 A 
ATOM     28  C   UNL A   1      32.448  18.382  25.016  1.00  0.00     0.002 A 
ATOM     29  C   UNL A   1      33.237  17.355  24.514  1.00  0.00     0.000 A 
ENDBRANCH  21  24
ENDBRANCH  18  19
ENDBRANCH  17  18
ENDBRANCH  12  17
ENDBRANCH   3   6
ENDBRANCH   1   2
BRANCH   1  30
ATOM     30  C   UNL A   1      33.334  30.862  27.220  1.00  0.00     0.042 C 
BRANCH  30  31
ATOM     31  C   UNL A   1      34.543  31.650  27.704  1.00  0.00     0.118 C 
BRANCH  31  32
ATOM     32  N   UNL A   1      34.144  32.767  28.562  1.00  0.00    -0.352 N 
ATOM     33  C   UNL A   1      34.578  33.102  29.834  1.00  0.00     0.251 C 
ATOM     34  H   UNL A   1      33.467  33.369  28.179  1.00  0.00     0.163 HD
ATOM     35  O   UNL A   1      33.953  33.886  30.520  1.00  0.00    -0.269 OA
BRANCH  33  36
ATOM     36  C   UNL A   1      35.816  32.471  30.319  1.00  0.00     0.039 A 
ATOM     37  C   UNL A   1      35.835  31.145  30.762  1.00  0.00     0.014 A 
ATOM     38  C   UNL A   1      36.983  33.207  30.178  1.00  0.00     0.014 A 
ATOM     39  C   UNL A   1      37.067  30.520  30.951  1.00  0.00     0.010 A 
ATOM     40  C   UNL A   1      38.179  32.543  30.201  1.00  0.00     0.010 A 
ATOM     41  C   UNL A   1      38.239  31.216  30.634  1.00  0.00    -0.014 A 
BRANCH  41  42
ATOM     42  C   UNL A   1      39.546  30.556  30.618  1.00  0.00     0.031 A 
ATOM     43  C   UNL A   1      40.200  30.350  31.951  1.00  0.00     0.074 A 
ATOM     44  C   UNL A   1      39.949  29.859  29.532  1.00  0.00     0.049 A 
ATOM     45  N   UNL A   1      41.373  30.725  32.349  1.00  0.00    -0.248 NA
ATOM     46  C   UNL A   1      39.403  29.708  33.011  1.00  0.00     0.031 C 
ATOM     47  C   UNL A   1      39.215  29.649  28.272  1.00  0.00     0.029 A 
ATOM     48  N   UNL A   1      41.017  29.032  29.390  1.00  0.00    -0.354 N 
ATOM     49  C   UNL A   1      41.543  30.195  33.632  1.00  0.00     0.074 A 
ATOM     50  C   UNL A   1      40.242  29.740  34.047  1.00  0.00     0.031 C 
ATOM     51  C   UNL A   1      39.701  28.557  27.647  1.00  0.00     0.029 A 
ATOM     52  C   UNL A   1      40.896  28.126  28.344  1.00  0.00     0.049 A 
ATOM     53  H   UNL A   1      41.805  29.071  29.977  1.00  0.00     0.167 HD
ATOM     54  C   UNL A   1      42.776  29.975  34.173  1.00  0.00     0.037 A 
ATOM     55  C   UNL A   1      41.698  27.065  28.091  1.00  0.00     0.037 A 
ATOM     56  C   UNL A   1      43.800  30.652  33.420  1.00  0.00     0.049 A 
ATOM     57  C   UNL A   1      42.966  27.296  28.828  1.00  0.00     0.074 A 
ATOM     58  C   UNL A   1      44.065  31.968  33.099  1.00  0.00     0.029 A 
ATOM     59  N   UNL A   1      44.561  29.896  32.562  1.00  0.00    -0.354 N 
ATOM     60  N   UNL A   1      43.787  28.284  28.584  1.00  0.00    -0.248 NA
ATOM     61  C   UNL A   1      43.116  26.674  30.135  1.00  0.00     0.031 C 
ATOM     62  C   UNL A   1      44.570  31.924  31.767  1.00  0.00     0.029 A 
ATOM     63  C   UNL A   1      44.640  30.583  31.379  1.00  0.00     0.049 A 
ATOM     64  H   UNL A   1      44.972  29.023  32.759  1.00  0.00     0.167 HD
ATOM     65  C   UNL A   1      44.263  28.671  29.829  1.00  0.00     0.074 A 
ATOM     66  C   UNL A   1      43.902  27.578  30.727  1.00  0.00     0.031 C 
ATOM     67  C   UNL A   1      44.652  29.959  30.072  1.00  0.00     0.037 A 
BRANCH  54  68
ATOM     68  C   UNL A   1      43.124  28.885  35.170  1.00  0.00     0.058 A 
ATOM     69  C   UNL A   1      43.805  29.223  36.362  1.00  0.00     0.135 A 
ATOM     70  C   UNL A   1      43.075  27.504  34.879  1.00  0.00     0.135 A 
ATOM     71  F   UNL A   1      43.916  30.505  36.747  1.00  0.00    -0.206 F 
ATOM     72  C   UNL A   1      44.460  28.275  37.151  1.00  0.00     0.059 A 
ATOM     73  C   UNL A   1      43.672  26.536  35.683  1.00  0.00     0.059 A 
ATOM     74  F   UNL A   1      42.533  27.029  33.751  1.00  0.00    -0.206 F 
ATOM     75  C   UNL A   1      44.405  26.934  36.788  1.00  0.00     0.060 A 
BRANCH  75  76
ATOM     76  S   UNL A   1      45.358  25.721  37.719  1.00  0.00     0.124 S 
ATOM     77  O   UNL A   1      46.720  26.188  37.491  1.00  0.00    -0.237 OA
ATOM     78  O   UNL A   1      44.837  25.895  39.071  1.00  0.00    -0.237 OA
ATOM     79  O   UNL A   1      45.006  24.457  37.078  1.00  0.00    -0.744 OA
ENDBRANCH  75  76
ENDBRANCH  54  68
BRANCH  55  80
ATOM     80  C   UNL A   1      41.304  25.756  27.516  1.00  0.00     0.058 A 
ATOM     81  C   UNL A   1      42.130  25.083  26.604  1.00  0.00     0.135 A 
ATOM     82  C   UNL A   1      40.220  25.019  28.040  1.00  0.00     0.135 A 
ATOM     83  F   UNL A   1      43.196  25.704  26.076  1.00  0.00    -0.206 F 
ATOM     84  C   UNL A   1      41.918  23.744  26.254  1.00  0.00     0.059 A 
ATOM     85  C   UNL A   1      39.981  23.688  27.699  1.00  0.00     0.059 A 
ATOM     86  F   UNL A   1      39.409  25.549  28.968  1.00  0.00    -0.206 F 
ATOM     87  C   UNL A   1      40.849  23.050  26.822  1.00  0.00     0.060 A 
BRANCH  87  88
ATOM     88  S   UNL A   1      40.672  21.280  26.496  1.00  0.00     0.124 S 
ATOM     89  O   UNL A   1      41.823  21.015  25.638  1.00  0.00    -0.237 OA
ATOM     90  O   UNL A   1      40.735  20.713  27.840  1.00  0.00    -0.237 OA
ATOM     91  O   UNL A   1      39.370  21.184  25.842  1.00  0.00    -0.744 OA
ENDBRANCH  87  88
ENDBRANCH  55  80
BRANCH  67  92
ATOM     92  C   UNL A   1      44.862  30.888  28.905  1.00  0.00     0.058 A 
ATOM     93  C   UNL A   1      43.891  31.780  28.418  1.00  0.00     0.135 A 
ATOM     94  C   UNL A   1      46.167  31.034  28.410  1.00  0.00     0.135 A 
ATOM     95  F   UNL A   1      42.645  31.776  28.906  1.00  0.00    -0.206 F 
ATOM     96  C   UNL A   1      44.199  32.765  27.478  1.00  0.00     0.059 A 
ATOM     97  C   UNL A   1      46.504  32.028  27.494  1.00  0.00     0.059 A 
ATOM     98  F   UNL A   1      47.154  30.252  28.880  1.00  0.00    -0.206 F 
ATOM     99  C   UNL A   1      45.513  32.890  27.031  1.00  0.00     0.060 A 
BRANCH  99 100
ATOM    100  S   UNL A   1      45.938  34.253  25.925  1.00  0.00     0.124 S 
ATOM    101  O   UNL A   1      45.071  33.999  24.779  1.00  0.00    -0.237 OA
ATOM    102  O   UNL A   1      45.604  35.429  26.724  1.00  0.00    -0.237 OA
ATOM    103  O   UNL A   1      47.367  34.062  25.683  1.00  0.00    -0.744 OA
ENDBRANCH  99 100
ENDBRANCH  67  92
ENDBRANCH  41  42
ENDBRANCH  33  36
ENDBRANCH  31  32
ENDBRANCH  30  31
ENDBRANCH   1  30
TORSDOF 17
ENDMDL
MODEL 3
REMARK VINA RESULT:     -12.4      1.782      2.520
REMARK SMILES Cc1c(C(=O)NCCCNC(=O)c2ccc(-c3c4nc(c(-c5c(F)cc(S(=O)(=O)[O-])cc5F)c5ccc([nH]5)c(-c5c(F)cc(S(=O)(=O)[O-])cc5F)c5nc(c(-c6c(F)cc(S(=O)(=O)[O-])cc6F)c6ccc3[nH]6)C=C5)C=C4)cc2)sc2c1=C(CSc1nncn1-c1ccccc1)CC(=O)N=2
REMARK SMILES IDX 7 1 6 2 4 3 5 4 3 6 1 7 2 8 81 9 79 10 80 11 82 12 99 13
REMARK SMILES IDX 96 14 97 15 98 16 83 17 84 18 85 19 86 20 89 21 87 22 88 23
REMARK SMILES IDX 90 24 91 25 95 26 92 27 94 28 93 29 8 30 9 31 10 32 11 33
REMARK SMILES IDX 12 35 13 36 14 37 78 38 15 39 77 40 16 41 17 42 18 43 71 44
REMARK SMILES IDX 19 45 76 46 70 47 72 48 20 49 75 50 69 51 68 52 21 54 55 55
REMARK SMILES IDX 34 56 54 57 35 58 38 59 53 60 73 61 36 62 37 63 52 65 74 66
REMARK SMILES IDX 39 67 22 68 23 69 32 70 24 71 25 72 31 73 33 74 26 75 27 76
REMARK SMILES IDX 28 77 29 78 30 79 56 80 57 81 66 82 58 83 59 84 65 85 67 86
REMARK SMILES IDX 60 87 61 88 62 89 63 90 64 91 40 92 41 93 50 94 42 95 43 96
REMARK SMILES IDX 49 97 51 98 44 99 45 100 46 101 47 102 48 103
REMARK H PARENT 6 5 10 34 72 53 38 64
REMARK Flexibility Score: inf
ROOT
ATOM      1  C   UNL A   1      32.277  28.305  26.669  1.00  0.00     0.118 C 
ENDROOT
BRANCH   1   2
ATOM      2  N   UNL A   1      31.267  27.863  25.730  1.00  0.00    -0.351 N 
ATOM      3  C   UNL A   1      30.995  26.691  25.105  1.00  0.00     0.261 C 
ATOM      4  O   UNL A   1      29.944  26.679  24.458  1.00  0.00    -0.268 OA
ATOM      5  H   UNL A   1      30.632  28.576  25.492  1.00  0.00     0.163 HD
BRANCH   3   6
ATOM      6  C   UNL A   1      31.843  25.448  25.177  1.00  0.00     0.098 A 
ATOM      7  C   UNL A   1      33.220  25.308  23.010  1.00  0.00     0.047 C 
ATOM      8  C   UNL A   1      32.767  24.878  24.362  1.00  0.00    -0.018 A 
ATOM      9  C   UNL A   1      33.175  23.554  24.842  1.00  0.00     0.016 A 
ATOM     10  S   UNL A   1      31.339  24.319  26.474  1.00  0.00    -0.110 S 
ATOM     11  C   UNL A   1      32.082  22.972  25.661  1.00  0.00     0.128 A 
ATOM     12  C   UNL A   1      33.927  22.612  24.235  1.00  0.00    -0.040 C 
ATOM     13  N   UNL A   1      31.663  21.758  25.716  1.00  0.00    -0.202 NA
ATOM     14  C   UNL A   1      33.119  21.430  23.719  1.00  0.00     0.135 C 
ATOM     15  C   UNL A   1      32.279  20.859  24.867  1.00  0.00     0.251 C 
ATOM     16  O   UNL A   1      32.140  19.644  24.975  1.00  0.00    -0.272 OA
BRANCH  12  17
ATOM     17  C   UNL A   1      35.176  22.090  24.952  1.00  0.00     0.110 C 
BRANCH  17  18
ATOM     18  S   UNL A   1      36.698  22.301  24.005  1.00  0.00    -0.081 SA
BRANCH  18  19
ATOM     19  C   UNL A   1      37.743  21.203  24.837  1.00  0.00     0.195 A 
ATOM     20  N   UNL A   1      37.827  19.931  24.509  1.00  0.00    -0.123 NA
ATOM     21  N   UNL A   1      38.672  21.515  25.818  1.00  0.00    -0.277 N 
ATOM     22  N   UNL A   1      38.823  19.368  25.249  1.00  0.00    -0.138 NA
ATOM     23  C   UNL A   1      39.319  20.310  26.015  1.00  0.00     0.231 A 
BRANCH  21  24
ATOM     24  C   UNL A   1      38.987  22.741  26.487  1.00  0.00     0.049 A 
ATOM     25  C   UNL A   1      38.220  23.903  26.324  1.00  0.00     0.027 A 
ATOM     26  C   UNL A   1      40.101  22.797  27.342  1.00  0.00     0.027 A 
ATOM     27  C   UNL A   1      38.587  25.099  26.950  1.00  0.00     0.002 A 
ATOM     28  C   UNL A   1      40.435  23.985  28.000  1.00  0.00     0.002 A 
ATOM     29  C   UNL A   1      39.697  25.141  27.784  1.00  0.00     0.000 A 
ENDBRANCH  21  24
ENDBRANCH  18  19
ENDBRANCH  17  18
ENDBRANCH  12  17
ENDBRANCH   3   6
ENDBRANCH   1   2
BRANCH   1  30
ATOM     30  C   UNL A   1      33.634  28.515  25.980  1.00  0.00     0.042 C 
BRANCH  30  31
ATOM     31  C   UNL A   1      34.728  28.978  26.931  1.00  0.00     0.118 C 
BRANCH  31  32
ATOM     32  N   UNL A   1      34.837  30.438  26.950  1.00  0.00    -0.352 N 
ATOM     33  C   UNL A   1      35.660  31.252  27.711  1.00  0.00     0.251 C 
ATOM     34  H   UNL A   1      34.237  30.911  26.330  1.00  0.00     0.163 HD
ATOM     35  O   UNL A   1      35.435  32.441  27.815  1.00  0.00    -0.269 OA
BRANCH  33  36
ATOM     36  C   UNL A   1      36.805  30.622  28.386  1.00  0.00     0.039 A 
ATOM     37  C   UNL A   1      37.069  29.255  28.256  1.00  0.00     0.014 A 
ATOM     38  C   UNL A   1      37.687  31.474  29.034  1.00  0.00     0.014 A 
ATOM     39  C   UNL A   1      38.302  28.767  28.686  1.00  0.00     0.010 A 
ATOM     40  C   UNL A   1      38.953  31.024  29.296  1.00  0.00     0.010 A 
ATOM     41  C   UNL A   1      39.257  29.666  29.175  1.00  0.00    -0.014 A 
BRANCH  41  42
ATOM     42  C   UNL A   1      40.633  29.251  29.454  1.00  0.00     0.031 A 
ATOM     43  C   UNL A   1      40.985  29.052  30.897  1.00  0.00     0.074 A 
ATOM     44  C   UNL A   1      41.404  28.730  28.473  1.00  0.00     0.049 A 
ATOM     45  N   UNL A   1      41.939  29.594  31.584  1.00  0.00    -0.248 NA
ATOM     46  C   UNL A   1      40.101  28.193  31.705  1.00  0.00     0.031 C 
ATOM     47  C   UNL A   1      41.038  28.500  27.065  1.00  0.00     0.029 A 
ATOM     48  N   UNL A   1      42.613  28.120  28.564  1.00  0.00    -0.354 N 
ATOM     49  C   UNL A   1      41.904  28.996  32.848  1.00  0.00     0.074 A 
ATOM     50  C   UNL A   1      40.655  28.286  32.915  1.00  0.00     0.031 C 
ATOM     51  C   UNL A   1      41.856  27.568  26.535  1.00  0.00     0.029 A 
ATOM     52  C   UNL A   1      42.916  27.298  27.486  1.00  0.00     0.049 A 
ATOM     53  H   UNL A   1      43.221  28.248  29.327  1.00  0.00     0.167 HD
ATOM     54  C   UNL A   1      42.995  28.954  33.666  1.00  0.00     0.037 A 
ATOM     55  C   UNL A   1      43.943  26.421  27.396  1.00  0.00     0.037 A 
ATOM     56  C   UNL A   1      44.018  29.862  33.213  1.00  0.00     0.049 A 
ATOM     57  C   UNL A   1      44.936  26.810  28.429  1.00  0.00     0.074 A 
ATOM     58  C   UNL A   1      44.092  31.226  33.018  1.00  0.00     0.029 A 
ATOM     59  N   UNL A   1      45.088  29.327  32.538  1.00  0.00    -0.354 N 
ATOM     60  N   UNL A   1      45.586  27.944  28.432  1.00  0.00    -0.248 NA
ATOM     61  C   UNL A   1      44.894  26.116  29.708  1.00  0.00     0.031 C 
ATOM     62  C   UNL A   1      44.892  31.384  31.849  1.00  0.00     0.029 A 
ATOM     63  C   UNL A   1      45.307  30.115  31.438  1.00  0.00     0.049 A 
ATOM     64  H   UNL A   1      45.601  28.528  32.796  1.00  0.00     0.167 HD
ATOM     65  C   UNL A   1      45.675  28.303  29.769  1.00  0.00     0.074 A 
ATOM     66  C   UNL A   1      45.332  27.091  30.509  1.00  0.00     0.031 C 
ATOM     67  C   UNL A   1      45.742  29.614  30.150  1.00  0.00     0.037 A 
BRANCH  54  68
ATOM     68  C   UNL A   1      43.304  27.862  34.674  1.00  0.00     0.058 A 
ATOM     69  C   UNL A   1      43.548  28.209  36.022  1.00  0.00     0.135 A 
ATOM     70  C   UNL A   1      43.649  26.538  34.324  1.00  0.00     0.135 A 
ATOM     71  F   UNL A   1      43.258  29.440  36.476  1.00  0.00    -0.206 F 
ATOM     72  C   UNL A   1      44.168  27.341  36.924  1.00  0.00     0.059 A 
ATOM     73  C   UNL A   1      44.215  25.638  35.223  1.00  0.00     0.059 A 
ATOM     74  F   UNL A   1      43.550  26.081  33.070  1.00  0.00    -0.206 F 
ATOM     75  C   UNL A   1      44.518  26.063  36.506  1.00  0.00     0.060 A 
BRANCH  75  76
ATOM     76  S   UNL A   1      45.438  24.984  37.616  1.00  0.00     0.124 S 
ATOM     77  O   UNL A   1      44.794  25.268  38.893  1.00  0.00    -0.237 OA
ATOM     78  O   UNL A   1      45.180  23.666  37.046  1.00  0.00    -0.237 OA
ATOM     79  O   UNL A   1      46.812  25.459  37.481  1.00  0.00    -0.744 OA
ENDBRANCH  75  76
ENDBRANCH  54  68
BRANCH  55  80
ATOM     80  C   UNL A   1      43.953  25.116  26.691  1.00  0.00     0.058 A 
ATOM     81  C   UNL A   1      44.469  24.992  25.393  1.00  0.00     0.135 A 
ATOM     82  C   UNL A   1      43.682  23.910  27.374  1.00  0.00     0.135 A 
ATOM     83  F   UNL A   1      44.776  26.089  24.684  1.00  0.00    -0.206 F 
ATOM     84  C   UNL A   1      44.735  23.747  24.813  1.00  0.00     0.059 A 
ATOM     85  C   UNL A   1      43.927  22.657  26.814  1.00  0.00     0.059 A 
ATOM     86  F   UNL A   1      43.246  23.918  28.643  1.00  0.00    -0.206 F 
ATOM     87  C   UNL A   1      44.476  22.584  25.540  1.00  0.00     0.060 A 
BRANCH  87  88
ATOM     88  S   UNL A   1      44.971  20.985  24.854  1.00  0.00     0.124 S 
ATOM     89  O   UNL A   1      44.610  21.135  23.448  1.00  0.00    -0.237 OA
ATOM     90  O   UNL A   1      46.401  20.956  25.146  1.00  0.00    -0.237 OA
ATOM     91  O   UNL A   1      44.164  20.029  25.607  1.00  0.00    -0.744 OA
ENDBRANCH  87  88
ENDBRANCH  55  80
BRANCH  67  92
ATOM     92  C   UNL A   1      46.037  30.661  29.107  1.00  0.00     0.058 A 
ATOM     93  C   UNL A   1      45.053  31.349  28.377  1.00  0.00     0.135 A 
ATOM     94  C   UNL A   1      47.353  31.137  29.010  1.00  0.00     0.135 A 
ATOM     95  F   UNL A   1      43.759  31.024  28.486  1.00  0.00    -0.206 F 
ATOM     96  C   UNL A   1      45.361  32.453  27.580  1.00  0.00     0.059 A 
ATOM     97  C   UNL A   1      47.680  32.254  28.245  1.00  0.00     0.059 A 
ATOM     98  F   UNL A   1      48.330  30.562  29.730  1.00  0.00    -0.206 F 
ATOM     99  C   UNL A   1      46.679  32.907  27.531  1.00  0.00     0.060 A 
BRANCH  99 100
ATOM    100  S   UNL A   1      47.052  34.418  26.614  1.00  0.00     0.124 S 
ATOM    101  O   UNL A   1      46.654  35.456  27.559  1.00  0.00    -0.237 OA
ATOM    102  O   UNL A   1      48.487  34.298  26.371  1.00  0.00    -0.237 OA
ATOM    103  O   UNL A   1      46.217  34.306  25.420  1.00  0.00    -0.744 OA
ENDBRANCH  99 100
ENDBRANCH  67  92
ENDBRANCH  41  42
ENDBRANCH  33  36
ENDBRANCH  31  32
ENDBRANCH  30  31
ENDBRANCH   1  30
TORSDOF 17
ENDMDL
