MODEL 1
REMARK VINA RESULT:     -12.6      0.000      0.000
REMARK SMILES COc1ccc2c(c1)OC[C@@]1(C(=O)NCCCNC(=O)c3ccc(-c4c5nc(c(-c6c(F)cc(S(=O)(=O)[O-])cc6F)c6ccc([nH]6)c(-c6c(F)cc(S(=O)(=O)[O-])cc6F)c6nc(c(-c7c(F)cc(S(=O)(=O)[O-])cc7F)c7ccc4[nH]7)C=C6)C=C5)cc3)C[N@@H+](Cc3cc(C(C)(C)C)n[nH]3)C[C@H]21
REMARK SMILES IDX 16 1 15 2 14 3 12 4 13 5 11 7 3 8 4 9 8 10 5 11 7 12 6 13
REMARK SMILES IDX 9 14 100 15 10 16 99 17 87 18 88 19 2 21 1 22 89 23 90 24
REMARK SMILES IDX 91 25 98 26 92 27 97 28 93 30 94 31 95 32 96 33 17 34 18 35
REMARK SMILES IDX 19 36 20 38 21 39 22 40 86 41 23 42 85 43 24 44 25 45 26 46
REMARK SMILES IDX 79 47 27 48 84 49 78 50 80 51 28 52 83 53 77 54 76 55 29 57
REMARK SMILES IDX 63 58 42 59 62 60 43 61 46 62 61 63 81 64 44 65 45 66 60 68
REMARK SMILES IDX 82 69 47 70 30 71 31 72 40 73 32 74 33 75 39 76 41 77 34 78
REMARK SMILES IDX 35 79 36 80 37 81 38 82 64 83 65 84 74 85 66 86 67 87 73 88
REMARK SMILES IDX 75 89 68 90 69 91 70 92 71 93 72 94 48 95 49 96 58 97 50 98
REMARK SMILES IDX 51 99 57 100 59 101 52 102 53 103 54 104 55 105 56 106
REMARK H PARENT 14 6 88 20 98 29 18 37 80 56 46 67
REMARK Flexibility Score: inf
ROOT
ATOM      1  C   UNL A   1      32.430  28.018  26.557  1.00  0.00     0.042 C 
ENDROOT
BRANCH   1   2
ATOM      2  C   UNL A   1      32.497  26.559  26.162  1.00  0.00     0.117 C 
BRANCH   2   3
ATOM      3  N   UNL A   1      33.833  25.978  26.229  1.00  0.00    -0.355 N 
ATOM      4  C   UNL A   1      34.347  25.010  25.394  1.00  0.00     0.236 C 
ATOM      5  O   UNL A   1      35.562  25.027  25.177  1.00  0.00    -0.274 OA
ATOM      6  H   UNL A   1      34.428  26.310  26.941  1.00  0.00     0.163 HD
BRANCH   4   7
ATOM      7  C   UNL A   1      33.344  23.970  24.798  1.00  0.00     0.144 C 
ATOM      8  C   UNL A   1      32.445  18.752  24.405  1.00  0.00     0.122 A 
ATOM      9  C   UNL A   1      32.171  19.255  23.134  1.00  0.00     0.047 A 
ATOM     10  C   UNL A   1      32.873  19.621  25.411  1.00  0.00     0.093 A 
ATOM     11  C   UNL A   1      32.287  20.621  22.875  1.00  0.00     0.012 A 
ATOM     12  C   UNL A   1      33.021  20.980  25.128  1.00  0.00     0.126 A 
ATOM     13  C   UNL A   1      32.699  21.499  23.886  1.00  0.00     0.005 A 
ATOM     14  O   UNL A   1      33.518  21.805  26.090  1.00  0.00    -0.492 OA
ATOM     15  C   UNL A   1      32.923  22.968  23.621  1.00  0.00     0.103 C 
ATOM     16  C   UNL A   1      34.289  22.883  25.500  1.00  0.00     0.253 C 
ATOM     17  C   UNL A   1      31.638  23.593  23.058  1.00  0.00     0.272 C 
ATOM     18  C   UNL A   1      33.297  25.101  23.622  1.00  0.00     0.284 C 
ATOM     19  N   UNL A   1      31.903  25.012  23.159  1.00  0.00    -0.328 N 
ATOM     20  H   UNL A   1      31.270  25.453  23.827  1.00  0.00     0.348 HD
BRANCH   8  21
ATOM     21  O   UNL A   1      32.321  17.395  24.525  1.00  0.00    -0.497 OA
ATOM     22  C   UNL A   1      32.852  16.840  25.723  1.00  0.00     0.278 C 
ENDBRANCH   8  21
BRANCH  19  23
ATOM     23  C   UNL A   1      31.545  25.825  22.001  1.00  0.00     0.319 C 
BRANCH  23  24
ATOM     24  C   UNL A   1      30.996  27.144  22.388  1.00  0.00     0.090 A 
ATOM     25  C   UNL A   1      29.738  27.529  22.788  1.00  0.00     0.055 A 
ATOM     26  N   UNL A   1      31.709  28.301  22.255  1.00  0.00    -0.277 N 
ATOM     27  C   UNL A   1      29.724  28.933  22.630  1.00  0.00     0.068 A 
ATOM     28  N   UNL A   1      30.955  29.404  22.380  1.00  0.00    -0.180 NA
ATOM     29  H   UNL A   1      32.678  28.324  22.084  1.00  0.00     0.190 HD
BRANCH  27  30
ATOM     30  C   UNL A   1      28.528  29.863  22.652  1.00  0.00     0.006 C 
ATOM     31  C   UNL A   1      27.283  29.097  23.125  1.00  0.00     0.017 C 
ATOM     32  C   UNL A   1      28.797  31.051  23.600  1.00  0.00     0.017 C 
ATOM     33  C   UNL A   1      28.246  30.451  21.251  1.00  0.00     0.017 C 
ENDBRANCH  27  30
ENDBRANCH  23  24
ENDBRANCH  19  23
ENDBRANCH   4   7
ENDBRANCH   2   3
ENDBRANCH   1   2
BRANCH   1  34
ATOM     34  C   UNL A   1      33.784  28.699  26.651  1.00  0.00     0.118 C 
BRANCH  34  35
ATOM     35  N   UNL A   1      33.772  29.938  27.426  1.00  0.00    -0.352 N 
ATOM     36  C   UNL A   1      34.731  30.523  28.220  1.00  0.00     0.251 C 
ATOM     37  H   UNL A   1      32.929  30.443  27.369  1.00  0.00     0.163 HD
ATOM     38  O   UNL A   1      34.446  31.525  28.873  1.00  0.00    -0.269 OA
BRANCH  36  39
ATOM     39  C   UNL A   1      36.076  29.921  28.337  1.00  0.00     0.039 A 
ATOM     40  C   UNL A   1      36.487  29.328  29.527  1.00  0.00     0.014 A 
ATOM     41  C   UNL A   1      36.957  29.986  27.254  1.00  0.00     0.014 A 
ATOM     42  C   UNL A   1      37.832  29.056  29.728  1.00  0.00     0.010 A 
ATOM     43  C   UNL A   1      38.285  29.573  27.413  1.00  0.00     0.010 A 
ATOM     44  C   UNL A   1      38.752  29.173  28.675  1.00  0.00    -0.014 A 
BRANCH  44  45
ATOM     45  C   UNL A   1      40.191  28.889  28.929  1.00  0.00     0.031 A 
ATOM     46  C   UNL A   1      40.795  27.563  28.541  1.00  0.00     0.074 A 
ATOM     47  C   UNL A   1      40.974  29.861  29.439  1.00  0.00     0.049 A 
ATOM     48  N   UNL A   1      42.017  27.130  28.722  1.00  0.00    -0.248 NA
ATOM     49  C   UNL A   1      39.916  26.592  27.869  1.00  0.00     0.031 C 
ATOM     50  C   UNL A   1      40.515  31.199  29.827  1.00  0.00     0.029 A 
ATOM     51  N   UNL A   1      42.322  29.896  29.683  1.00  0.00    -0.354 N 
ATOM     52  C   UNL A   1      42.044  25.832  28.223  1.00  0.00     0.074 A 
ATOM     53  C   UNL A   1      40.712  25.538  27.745  1.00  0.00     0.031 C 
ATOM     54  C   UNL A   1      41.571  31.943  30.181  1.00  0.00     0.029 A 
ATOM     55  C   UNL A   1      42.768  31.114  30.138  1.00  0.00     0.049 A 
ATOM     56  H   UNL A   1      42.916  29.122  29.544  1.00  0.00     0.167 HD
ATOM     57  C   UNL A   1      43.088  24.970  28.161  1.00  0.00     0.037 A 
ATOM     58  C   UNL A   1      43.998  31.517  30.507  1.00  0.00     0.037 A 
ATOM     59  C   UNL A   1      44.422  25.284  28.602  1.00  0.00     0.049 A 
ATOM     60  C   UNL A   1      45.129  30.533  30.458  1.00  0.00     0.074 A 
ATOM     61  C   UNL A   1      45.547  24.478  28.589  1.00  0.00     0.029 A 
ATOM     62  N   UNL A   1      44.817  26.510  29.120  1.00  0.00    -0.354 N 
ATOM     63  N   UNL A   1      45.118  29.289  30.043  1.00  0.00    -0.248 NA
ATOM     64  C   UNL A   1      46.431  30.998  30.951  1.00  0.00     0.031 C 
ATOM     65  C   UNL A   1      46.615  25.206  29.125  1.00  0.00     0.029 A 
ATOM     66  C   UNL A   1      46.166  26.479  29.437  1.00  0.00     0.049 A 
ATOM     67  H   UNL A   1      44.226  27.287  29.245  1.00  0.00     0.167 HD
ATOM     68  C   UNL A   1      46.411  28.819  30.228  1.00  0.00     0.074 A 
ATOM     69  C   UNL A   1      47.184  29.922  30.765  1.00  0.00     0.031 C 
ATOM     70  C   UNL A   1      46.913  27.583  29.984  1.00  0.00     0.037 A 
BRANCH  57  71
ATOM     71  C   UNL A   1      42.829  23.593  27.613  1.00  0.00     0.058 A 
ATOM     72  C   UNL A   1      42.996  23.296  26.251  1.00  0.00     0.135 A 
ATOM     73  C   UNL A   1      42.455  22.544  28.470  1.00  0.00     0.135 A 
ATOM     74  F   UNL A   1      43.333  24.264  25.385  1.00  0.00    -0.206 F 
ATOM     75  C   UNL A   1      42.785  22.012  25.755  1.00  0.00     0.059 A 
ATOM     76  C   UNL A   1      42.261  21.249  28.000  1.00  0.00     0.059 A 
ATOM     77  F   UNL A   1      42.279  22.774  29.780  1.00  0.00    -0.206 F 
ATOM     78  C   UNL A   1      42.419  20.995  26.638  1.00  0.00     0.060 A 
BRANCH  78  79
ATOM     79  S   UNL A   1      42.158  19.333  25.979  1.00  0.00     0.124 S 
ATOM     80  O   UNL A   1      42.985  19.365  24.776  1.00  0.00    -0.237 OA
ATOM     81  O   UNL A   1      42.650  18.487  27.063  1.00  0.00    -0.237 OA
ATOM     82  O   UNL A   1      40.718  19.280  25.750  1.00  0.00    -0.744 OA
ENDBRANCH  78  79
ENDBRANCH  57  71
BRANCH  58  83
ATOM     83  C   UNL A   1      44.205  32.912  30.975  1.00  0.00     0.058 A 
ATOM     84  C   UNL A   1      44.430  33.952  30.063  1.00  0.00     0.135 A 
ATOM     85  C   UNL A   1      44.132  33.239  32.338  1.00  0.00     0.135 A 
ATOM     86  F   UNL A   1      44.517  33.687  28.750  1.00  0.00    -0.206 F 
ATOM     87  C   UNL A   1      44.572  35.270  30.484  1.00  0.00     0.059 A 
ATOM     88  C   UNL A   1      44.244  34.551  32.781  1.00  0.00     0.059 A 
ATOM     89  F   UNL A   1      43.902  32.280  33.249  1.00  0.00    -0.206 F 
ATOM     90  C   UNL A   1      44.470  35.560  31.846  1.00  0.00     0.060 A 
BRANCH  90  91
ATOM     91  S   UNL A   1      44.576  37.283  32.377  1.00  0.00     0.124 S 
ATOM     92  O   UNL A   1      43.433  37.383  33.277  1.00  0.00    -0.237 OA
ATOM     93  O   UNL A   1      45.893  37.330  33.005  1.00  0.00    -0.237 OA
ATOM     94  O   UNL A   1      44.462  38.026  31.125  1.00  0.00    -0.744 OA
ENDBRANCH  90  91
ENDBRANCH  58  83
BRANCH  70  95
ATOM     95  C   UNL A   1      48.364  27.367  30.296  1.00  0.00     0.058 A 
ATOM     96  C   UNL A   1      48.777  26.885  31.548  1.00  0.00     0.135 A 
ATOM     97  C   UNL A   1      49.349  27.621  29.329  1.00  0.00     0.135 A 
ATOM     98  F   UNL A   1      47.872  26.637  32.508  1.00  0.00    -0.206 F 
ATOM     99  C   UNL A   1      50.122  26.689  31.840  1.00  0.00     0.059 A 
ATOM    100  C   UNL A   1      50.697  27.409  29.592  1.00  0.00     0.059 A 
ATOM    101  F   UNL A   1      49.001  28.073  28.114  1.00  0.00    -0.206 F 
ATOM    102  C   UNL A   1      51.076  26.957  30.855  1.00  0.00     0.060 A 
BRANCH 102 103
ATOM    103  S   UNL A   1      52.818  26.687  31.243  1.00  0.00     0.124 S 
ATOM    104  O   UNL A   1      53.428  26.774  29.921  1.00  0.00    -0.237 OA
ATOM    105  O   UNL A   1      53.111  27.793  32.150  1.00  0.00    -0.237 OA
ATOM    106  O   UNL A   1      52.827  25.363  31.855  1.00  0.00    -0.744 OA
ENDBRANCH 102 103
ENDBRANCH  70  95
ENDBRANCH  44  45
ENDBRANCH  36  39
ENDBRANCH  34  35
ENDBRANCH   1  34
TORSDOF 17
ENDMDL
MODEL 2
REMARK VINA RESULT:     -12.5      2.578      9.434
REMARK SMILES COc1ccc2c(c1)OC[C@@]1(C(=O)NCCCNC(=O)c3ccc(-c4c5nc(c(-c6c(F)cc(S(=O)(=O)[O-])cc6F)c6ccc([nH]6)c(-c6c(F)cc(S(=O)(=O)[O-])cc6F)c6nc(c(-c7c(F)cc(S(=O)(=O)[O-])cc7F)c7ccc4[nH]7)C=C6)C=C5)cc3)C[N@@H+](Cc3cc(C(C)(C)C)n[nH]3)C[C@H]21
REMARK SMILES IDX 16 1 15 2 14 3 12 4 13 5 11 7 3 8 4 9 8 10 5 11 7 12 6 13
REMARK SMILES IDX 9 14 100 15 10 16 99 17 87 18 88 19 2 21 1 22 89 23 90 24
REMARK SMILES IDX 91 25 98 26 92 27 97 28 93 30 94 31 95 32 96 33 17 34 18 35
REMARK SMILES IDX 19 36 20 38 21 39 22 40 86 41 23 42 85 43 24 44 25 45 26 46
REMARK SMILES IDX 79 47 27 48 84 49 78 50 80 51 28 52 83 53 77 54 76 55 29 57
REMARK SMILES IDX 63 58 42 59 62 60 43 61 46 62 61 63 81 64 44 65 45 66 60 68
REMARK SMILES IDX 82 69 47 70 30 71 31 72 40 73 32 74 33 75 39 76 41 77 34 78
REMARK SMILES IDX 35 79 36 80 37 81 38 82 64 83 65 84 74 85 66 86 67 87 73 88
REMARK SMILES IDX 75 89 68 90 69 91 70 92 71 93 72 94 48 95 49 96 58 97 50 98
REMARK SMILES IDX 51 99 57 100 59 101 52 102 53 103 54 104 55 105 56 106
REMARK H PARENT 14 6 88 20 98 29 18 37 80 56 46 67
REMARK Flexibility Score: inf
ROOT
ATOM      1  C   UNL A   1      33.865  29.842  27.313  1.00  0.00     0.042 C 
ENDROOT
BRANCH   1   2
ATOM      2  C   UNL A   1      34.076  28.557  26.542  1.00  0.00     0.117 C 
BRANCH   2   3
ATOM      3  N   UNL A   1      33.139  27.492  26.881  1.00  0.00    -0.355 N 
ATOM      4  C   UNL A   1      32.392  26.748  25.994  1.00  0.00     0.236 C 
ATOM      5  O   UNL A   1      32.121  25.585  26.308  1.00  0.00    -0.274 OA
ATOM      6  H   UNL A   1      33.029  27.283  27.837  1.00  0.00     0.163 HD
BRANCH   4   7
ATOM      7  C   UNL A   1      31.948  27.445  24.667  1.00  0.00     0.144 C 
ATOM      8  C   UNL A   1      28.710  31.206  22.780  1.00  0.00     0.122 A 
ATOM      9  C   UNL A   1      28.584  30.147  21.881  1.00  0.00     0.047 A 
ATOM     10  C   UNL A   1      29.553  31.074  23.885  1.00  0.00     0.093 A 
ATOM     11  C   UNL A   1      29.322  28.977  22.062  1.00  0.00     0.012 A 
ATOM     12  C   UNL A   1      30.258  29.883  24.074  1.00  0.00     0.126 A 
ATOM     13  C   UNL A   1      30.182  28.846  23.160  1.00  0.00     0.005 A 
ATOM     14  O   UNL A   1      31.011  29.732  25.197  1.00  0.00    -0.492 OA
ATOM     15  C   UNL A   1      30.928  27.563  23.438  1.00  0.00     0.103 C 
ATOM     16  C   UNL A   1      31.031  28.346  25.625  1.00  0.00     0.253 C 
ATOM     17  C   UNL A   1      31.785  27.189  22.220  1.00  0.00     0.272 C 
ATOM     18  C   UNL A   1      32.170  25.925  24.117  1.00  0.00     0.284 C 
ATOM     19  N   UNL A   1      32.651  26.156  22.746  1.00  0.00    -0.328 N 
ATOM     20  H   UNL A   1      33.623  26.465  22.750  1.00  0.00     0.348 HD
BRANCH   8  21
ATOM     21  O   UNL A   1      27.915  32.286  22.509  1.00  0.00    -0.497 OA
ATOM     22  C   UNL A   1      27.915  32.714  21.153  1.00  0.00     0.278 C 
ENDBRANCH   8  21
BRANCH  19  23
ATOM     23  C   UNL A   1      32.837  24.974  21.909  1.00  0.00     0.319 C 
BRANCH  23  24
ATOM     24  C   UNL A   1      33.511  23.873  22.634  1.00  0.00     0.090 A 
ATOM     25  C   UNL A   1      33.109  22.592  22.930  1.00  0.00     0.055 A 
ATOM     26  N   UNL A   1      34.695  24.048  23.292  1.00  0.00    -0.277 N 
ATOM     27  C   UNL A   1      33.982  22.169  23.958  1.00  0.00     0.068 A 
ATOM     28  N   UNL A   1      34.995  23.034  24.118  1.00  0.00    -0.180 NA
ATOM     29  H   UNL A   1      35.269  24.839  23.175  1.00  0.00     0.190 HD
BRANCH  27  30
ATOM     30  C   UNL A   1      33.843  20.960  24.860  1.00  0.00     0.006 C 
ATOM     31  C   UNL A   1      33.444  21.409  26.274  1.00  0.00     0.017 C 
ATOM     32  C   UNL A   1      32.774  19.999  24.299  1.00  0.00     0.017 C 
ATOM     33  C   UNL A   1      35.168  20.169  24.947  1.00  0.00     0.017 C 
ENDBRANCH  27  30
ENDBRANCH  23  24
ENDBRANCH  19  23
ENDBRANCH   4   7
ENDBRANCH   2   3
ENDBRANCH   1   2
BRANCH   1  34
ATOM     34  C   UNL A   1      35.146  30.593  27.632  1.00  0.00     0.118 C 
BRANCH  34  35
ATOM     35  N   UNL A   1      35.294  30.943  29.042  1.00  0.00    -0.352 N 
ATOM     36  C   UNL A   1      36.305  30.692  29.940  1.00  0.00     0.251 C 
ATOM     37  H   UNL A   1      34.536  31.449  29.416  1.00  0.00     0.163 HD
ATOM     38  O   UNL A   1      36.152  30.991  31.123  1.00  0.00    -0.269 OA
BRANCH  36  39
ATOM     39  C   UNL A   1      37.543  30.012  29.503  1.00  0.00     0.039 A 
ATOM     40  C   UNL A   1      38.364  29.370  30.426  1.00  0.00     0.014 A 
ATOM     41  C   UNL A   1      37.911  30.050  28.156  1.00  0.00     0.014 A 
ATOM     42  C   UNL A   1      39.656  29.018  30.064  1.00  0.00     0.010 A 
ATOM     43  C   UNL A   1      39.162  29.559  27.764  1.00  0.00     0.010 A 
ATOM     44  C   UNL A   1      40.075  29.106  28.728  1.00  0.00    -0.014 A 
BRANCH  44  45
ATOM     45  C   UNL A   1      41.473  28.735  28.377  1.00  0.00     0.031 A 
ATOM     46  C   UNL A   1      42.594  29.733  28.517  1.00  0.00     0.074 A 
ATOM     47  C   UNL A   1      41.745  27.466  28.008  1.00  0.00     0.049 A 
ATOM     48  N   UNL A   1      43.862  29.595  28.222  1.00  0.00    -0.248 NA
ATOM     49  C   UNL A   1      42.251  31.062  29.049  1.00  0.00     0.031 C 
ATOM     50  C   UNL A   1      40.751  26.397  27.865  1.00  0.00     0.029 A 
ATOM     51  N   UNL A   1      42.934  26.846  27.724  1.00  0.00    -0.354 N 
ATOM     52  C   UNL A   1      44.458  30.821  28.497  1.00  0.00     0.074 A 
ATOM     53  C   UNL A   1      43.411  31.700  28.967  1.00  0.00     0.031 C 
ATOM     54  C   UNL A   1      41.378  25.243  27.601  1.00  0.00     0.029 A 
ATOM     55  C   UNL A   1      42.805  25.503  27.462  1.00  0.00     0.049 A 
ATOM     56  H   UNL A   1      43.798  27.318  27.710  1.00  0.00     0.167 HD
ATOM     57  C   UNL A   1      45.760  31.177  28.375  1.00  0.00     0.037 A 
ATOM     58  C   UNL A   1      43.726  24.582  27.120  1.00  0.00     0.037 A 
ATOM     59  C   UNL A   1      46.804  30.283  27.945  1.00  0.00     0.049 A 
ATOM     60  C   UNL A   1      45.155  25.010  26.964  1.00  0.00     0.074 A 
ATOM     61  C   UNL A   1      48.153  30.548  27.782  1.00  0.00     0.029 A 
ATOM     62  N   UNL A   1      46.619  28.945  27.624  1.00  0.00    -0.354 N 
ATOM     63  N   UNL A   1      45.686  26.192  27.166  1.00  0.00    -0.248 NA
ATOM     64  C   UNL A   1      46.104  23.988  26.507  1.00  0.00     0.031 C 
ATOM     65  C   UNL A   1      48.779  29.379  27.336  1.00  0.00     0.029 A 
ATOM     66  C   UNL A   1      47.828  28.375  27.257  1.00  0.00     0.049 A 
ATOM     67  H   UNL A   1      45.757  28.472  27.652  1.00  0.00     0.167 HD
ATOM     68  C   UNL A   1      47.032  26.057  26.858  1.00  0.00     0.074 A 
ATOM     69  C   UNL A   1      47.239  24.672  26.484  1.00  0.00     0.031 C 
ATOM     70  C   UNL A   1      48.009  26.998  26.874  1.00  0.00     0.037 A 
BRANCH  57  71
ATOM     71  C   UNL A   1      46.132  32.599  28.696  1.00  0.00     0.058 A 
ATOM     72  C   UNL A   1      46.187  33.591  27.705  1.00  0.00     0.135 A 
ATOM     73  C   UNL A   1      46.391  32.985  30.023  1.00  0.00     0.135 A 
ATOM     74  F   UNL A   1      45.968  33.274  26.419  1.00  0.00    -0.206 F 
ATOM     75  C   UNL A   1      46.501  34.911  28.014  1.00  0.00     0.059 A 
ATOM     76  C   UNL A   1      46.685  34.303  30.357  1.00  0.00     0.059 A 
ATOM     77  F   UNL A   1      46.354  32.076  31.009  1.00  0.00    -0.206 F 
ATOM     78  C   UNL A   1      46.748  35.258  29.344  1.00  0.00     0.060 A 
BRANCH  78  79
ATOM     79  S   UNL A   1      47.145  36.978  29.728  1.00  0.00     0.124 S 
ATOM     80  O   UNL A   1      47.304  37.544  28.392  1.00  0.00    -0.237 OA
ATOM     81  O   UNL A   1      45.963  37.414  30.464  1.00  0.00    -0.237 OA
ATOM     82  O   UNL A   1      48.369  36.877  30.516  1.00  0.00    -0.744 OA
ENDBRANCH  78  79
ENDBRANCH  57  71
BRANCH  58  83
ATOM     83  C   UNL A   1      43.308  23.177  26.884  1.00  0.00     0.058 A 
ATOM     84  C   UNL A   1      43.232  22.657  25.584  1.00  0.00     0.135 A 
ATOM     85  C   UNL A   1      43.024  22.313  27.953  1.00  0.00     0.135 A 
ATOM     86  F   UNL A   1      43.485  23.446  24.529  1.00  0.00    -0.206 F 
ATOM     87  C   UNL A   1      42.892  21.328  25.352  1.00  0.00     0.059 A 
ATOM     88  C   UNL A   1      42.709  20.975  27.749  1.00  0.00     0.059 A 
ATOM     89  F   UNL A   1      43.099  22.760  29.217  1.00  0.00    -0.206 F 
ATOM     90  C   UNL A   1      42.640  20.493  26.443  1.00  0.00     0.060 A 
BRANCH  90  91
ATOM     91  S   UNL A   1      42.279  18.750  26.135  1.00  0.00     0.124 S 
ATOM     92  O   UNL A   1      42.549  18.161  27.441  1.00  0.00    -0.237 OA
ATOM     93  O   UNL A   1      40.877  18.794  25.730  1.00  0.00    -0.237 OA
ATOM     94  O   UNL A   1      43.218  18.396  25.075  1.00  0.00    -0.744 OA
ENDBRANCH  90  91
ENDBRANCH  58  83
BRANCH  70  95
ATOM     95  C   UNL A   1      49.386  26.552  26.477  1.00  0.00     0.058 A 
ATOM     96  C   UNL A   1      49.857  26.719  25.166  1.00  0.00     0.135 A 
ATOM     97  C   UNL A   1      50.250  25.975  27.421  1.00  0.00     0.135 A 
ATOM     98  F   UNL A   1      49.064  27.258  24.227  1.00  0.00    -0.206 F 
ATOM     99  C   UNL A   1      51.131  26.302  24.796  1.00  0.00     0.059 A 
ATOM    100  C   UNL A   1      51.536  25.572  27.078  1.00  0.00     0.059 A 
ATOM    101  F   UNL A   1      49.847  25.804  28.690  1.00  0.00    -0.206 F 
ATOM    102  C   UNL A   1      51.962  25.726  25.760  1.00  0.00     0.060 A 
BRANCH 102 103
ATOM    103  S   UNL A   1      53.618  25.200  25.270  1.00  0.00     0.124 S 
ATOM    104  O   UNL A   1      54.448  25.903  26.242  1.00  0.00    -0.237 OA
ATOM    105  O   UNL A   1      53.545  23.750  25.428  1.00  0.00    -0.237 OA
ATOM    106  O   UNL A   1      53.728  25.668  23.892  1.00  0.00    -0.744 OA
ENDBRANCH 102 103
ENDBRANCH  70  95
ENDBRANCH  44  45
ENDBRANCH  36  39
ENDBRANCH  34  35
ENDBRANCH   1  34
TORSDOF 17
ENDMDL
MODEL 3
REMARK VINA RESULT:     -12.5      2.759      3.393
REMARK SMILES COc1ccc2c(c1)OC[C@@]1(C(=O)NCCCNC(=O)c3ccc(-c4c5nc(c(-c6c(F)cc(S(=O)(=O)[O-])cc6F)c6ccc([nH]6)c(-c6c(F)cc(S(=O)(=O)[O-])cc6F)c6nc(c(-c7c(F)cc(S(=O)(=O)[O-])cc7F)c7ccc4[nH]7)C=C6)C=C5)cc3)C[N@@H+](Cc3cc(C(C)(C)C)n[nH]3)C[C@H]21
REMARK SMILES IDX 16 1 15 2 14 3 12 4 13 5 11 7 3 8 4 9 8 10 5 11 7 12 6 13
REMARK SMILES IDX 9 14 100 15 10 16 99 17 87 18 88 19 2 21 1 22 89 23 90 24
REMARK SMILES IDX 91 25 98 26 92 27 97 28 93 30 94 31 95 32 96 33 17 34 18 35
REMARK SMILES IDX 19 36 20 38 21 39 22 40 86 41 23 42 85 43 24 44 25 45 26 46
REMARK SMILES IDX 79 47 27 48 84 49 78 50 80 51 28 52 83 53 77 54 76 55 29 57
REMARK SMILES IDX 63 58 42 59 62 60 43 61 46 62 61 63 81 64 44 65 45 66 60 68
REMARK SMILES IDX 82 69 47 70 30 71 31 72 40 73 32 74 33 75 39 76 41 77 34 78
REMARK SMILES IDX 35 79 36 80 37 81 38 82 64 83 65 84 74 85 66 86 67 87 73 88
REMARK SMILES IDX 75 89 68 90 69 91 70 92 71 93 72 94 48 95 49 96 58 97 50 98
REMARK SMILES IDX 51 99 57 100 59 101 52 102 53 103 54 104 55 105 56 106
REMARK H PARENT 14 6 88 20 98 29 18 37 80 56 46 67
REMARK Flexibility Score: inf
ROOT
ATOM      1  C   UNL A   1      32.353  27.975  25.889  1.00  0.00     0.042 C 
ENDROOT
BRANCH   1   2
ATOM      2  C   UNL A   1      32.389  26.488  26.168  1.00  0.00     0.117 C 
BRANCH   2   3
ATOM      3  N   UNL A   1      33.731  25.925  26.259  1.00  0.00    -0.355 N 
ATOM      4  C   UNL A   1      34.274  24.970  25.428  1.00  0.00     0.236 C 
ATOM      5  O   UNL A   1      35.494  25.005  25.236  1.00  0.00    -0.274 OA
ATOM      6  H   UNL A   1      34.306  26.261  26.985  1.00  0.00     0.163 HD
BRANCH   4   7
ATOM      7  C   UNL A   1      33.298  23.920  24.806  1.00  0.00     0.144 C 
ATOM      8  C   UNL A   1      32.481  18.693  24.361  1.00  0.00     0.122 A 
ATOM      9  C   UNL A   1      32.224  19.201  23.088  1.00  0.00     0.047 A 
ATOM     10  C   UNL A   1      32.877  19.560  25.381  1.00  0.00     0.093 A 
ATOM     11  C   UNL A   1      32.326  20.570  22.840  1.00  0.00     0.012 A 
ATOM     12  C   UNL A   1      33.010  20.924  25.110  1.00  0.00     0.126 A 
ATOM     13  C   UNL A   1      32.707  21.446  23.865  1.00  0.00     0.005 A 
ATOM     14  O   UNL A   1      33.477  21.749  26.087  1.00  0.00    -0.492 OA
ATOM     15  C   UNL A   1      32.914  22.921  23.614  1.00  0.00     0.103 C 
ATOM     16  C   UNL A   1      34.245  22.841  25.519  1.00  0.00     0.253 C 
ATOM     17  C   UNL A   1      31.633  23.531  23.030  1.00  0.00     0.272 C 
ATOM     18  C   UNL A   1      33.259  25.058  23.637  1.00  0.00     0.284 C 
ATOM     19  N   UNL A   1      31.875  24.953  23.146  1.00  0.00    -0.328 N 
ATOM     20  H   UNL A   1      31.224  25.381  23.804  1.00  0.00     0.348 HD
BRANCH   8  21
ATOM     21  O   UNL A   1      32.373  17.333  24.469  1.00  0.00    -0.497 OA
ATOM     22  C   UNL A   1      33.514  16.599  24.040  1.00  0.00     0.278 C 
ENDBRANCH   8  21
BRANCH  19  23
ATOM     23  C   UNL A   1      31.529  25.769  21.986  1.00  0.00     0.319 C 
BRANCH  23  24
ATOM     24  C   UNL A   1      31.051  27.117  22.370  1.00  0.00     0.090 A 
ATOM     25  C   UNL A   1      29.833  27.558  22.829  1.00  0.00     0.055 A 
ATOM     26  N   UNL A   1      31.797  28.243  22.167  1.00  0.00    -0.277 N 
ATOM     27  C   UNL A   1      29.860  28.958  22.636  1.00  0.00     0.068 A 
ATOM     28  N   UNL A   1      31.091  29.375  22.305  1.00  0.00    -0.180 NA
ATOM     29  H   UNL A   1      32.754  28.226  21.941  1.00  0.00     0.190 HD
BRANCH  27  30
ATOM     30  C   UNL A   1      28.701  29.932  22.701  1.00  0.00     0.006 C 
ATOM     31  C   UNL A   1      29.025  31.059  23.693  1.00  0.00     0.017 C 
ATOM     32  C   UNL A   1      28.432  30.531  21.305  1.00  0.00     0.017 C 
ATOM     33  C   UNL A   1      27.401  29.229  23.156  1.00  0.00     0.017 C 
ENDBRANCH  27  30
ENDBRANCH  23  24
ENDBRANCH  19  23
ENDBRANCH   4   7
ENDBRANCH   2   3
ENDBRANCH   1   2
BRANCH   1  34
ATOM     34  C   UNL A   1      33.706  28.658  25.981  1.00  0.00     0.118 C 
BRANCH  34  35
ATOM     35  N   UNL A   1      33.640  30.049  26.420  1.00  0.00    -0.352 N 
ATOM     36  C   UNL A   1      34.441  30.773  27.273  1.00  0.00     0.251 C 
ATOM     37  H   UNL A   1      32.891  30.560  26.037  1.00  0.00     0.163 HD
ATOM     38  O   UNL A   1      34.116  31.917  27.584  1.00  0.00    -0.269 OA
BRANCH  36  39
ATOM     39  C   UNL A   1      35.651  30.162  27.863  1.00  0.00     0.039 A 
ATOM     40  C   UNL A   1      35.615  29.601  29.136  1.00  0.00     0.014 A 
ATOM     41  C   UNL A   1      36.853  30.186  27.149  1.00  0.00     0.014 A 
ATOM     42  C   UNL A   1      36.804  29.323  29.795  1.00  0.00     0.010 A 
ATOM     43  C   UNL A   1      38.036  29.766  27.767  1.00  0.00     0.010 A 
ATOM     44  C   UNL A   1      38.033  29.400  29.122  1.00  0.00    -0.014 A 
BRANCH  44  45
ATOM     45  C   UNL A   1      39.290  29.110  29.864  1.00  0.00     0.031 A 
ATOM     46  C   UNL A   1      40.259  28.070  29.362  1.00  0.00     0.074 A 
ATOM     47  C   UNL A   1      39.597  29.846  30.951  1.00  0.00     0.049 A 
ATOM     48  N   UNL A   1      41.380  27.661  29.900  1.00  0.00    -0.248 NA
ATOM     49  C   UNL A   1      39.927  27.392  28.098  1.00  0.00     0.031 C 
ATOM     50  C   UNL A   1      38.756  30.905  31.520  1.00  0.00     0.029 A 
ATOM     51  N   UNL A   1      40.710  29.850  31.751  1.00  0.00    -0.354 N 
ATOM     52  C   UNL A   1      41.866  26.661  29.065  1.00  0.00     0.074 A 
ATOM     53  C   UNL A   1      40.911  26.510  27.991  1.00  0.00     0.031 C 
ATOM     54  C   UNL A   1      39.416  31.505  32.519  1.00  0.00     0.029 A 
ATOM     55  C   UNL A   1      40.683  30.817  32.727  1.00  0.00     0.049 A 
ATOM     56  H   UNL A   1      41.459  29.221  31.636  1.00  0.00     0.167 HD
ATOM     57  C   UNL A   1      43.009  25.942  29.180  1.00  0.00     0.037 A 
ATOM     58  C   UNL A   1      41.565  31.105  33.702  1.00  0.00     0.037 A 
ATOM     59  C   UNL A   1      43.976  26.126  30.231  1.00  0.00     0.049 A 
ATOM     60  C   UNL A   1      42.807  30.274  33.826  1.00  0.00     0.074 A 
ATOM     61  C   UNL A   1      45.162  25.444  30.441  1.00  0.00     0.029 A 
ATOM     62  N   UNL A   1      43.878  27.073  31.241  1.00  0.00    -0.354 N 
ATOM     63  N   UNL A   1      43.216  29.289  33.063  1.00  0.00    -0.248 NA
ATOM     64  C   UNL A   1      43.693  30.574  34.956  1.00  0.00     0.031 C 
ATOM     65  C   UNL A   1      45.767  25.959  31.594  1.00  0.00     0.029 A 
ATOM     66  C   UNL A   1      44.977  26.988  32.081  1.00  0.00     0.049 A 
ATOM     67  H   UNL A   1      43.136  27.712  31.346  1.00  0.00     0.167 HD
ATOM     68  C   UNL A   1      44.407  28.848  33.622  1.00  0.00     0.074 A 
ATOM     69  C   UNL A   1      44.667  29.693  34.771  1.00  0.00     0.031 C 
ATOM     70  C   UNL A   1      45.210  27.829  33.227  1.00  0.00     0.037 A 
BRANCH  57  71
ATOM     71  C   UNL A   1      43.273  24.874  28.154  1.00  0.00     0.058 A 
ATOM     72  C   UNL A   1      43.932  25.155  26.946  1.00  0.00     0.135 A 
ATOM     73  C   UNL A   1      42.904  23.541  28.402  1.00  0.00     0.135 A 
ATOM     74  F   UNL A   1      44.289  26.414  26.649  1.00  0.00    -0.206 F 
ATOM     75  C   UNL A   1      44.202  24.157  26.015  1.00  0.00     0.059 A 
ATOM     76  C   UNL A   1      43.183  22.523  27.495  1.00  0.00     0.059 A 
ATOM     77  F   UNL A   1      42.269  23.217  29.539  1.00  0.00    -0.206 F 
ATOM     78  C   UNL A   1      43.824  22.843  26.299  1.00  0.00     0.060 A 
BRANCH  78  79
ATOM     79  S   UNL A   1      44.189  21.558  25.083  1.00  0.00     0.124 S 
ATOM     80  O   UNL A   1      44.021  22.288  23.830  1.00  0.00    -0.237 OA
ATOM     81  O   UNL A   1      45.560  21.189  25.421  1.00  0.00    -0.237 OA
ATOM     82  O   UNL A   1      43.183  20.537  25.353  1.00  0.00    -0.744 OA
ENDBRANCH  78  79
ENDBRANCH  57  71
BRANCH  58  83
ATOM     83  C   UNL A   1      41.281  32.218  34.644  1.00  0.00     0.058 A 
ATOM     84  C   UNL A   1      41.611  33.541  34.318  1.00  0.00     0.135 A 
ATOM     85  C   UNL A   1      40.630  31.988  35.866  1.00  0.00     0.135 A 
ATOM     86  F   UNL A   1      42.243  33.810  33.165  1.00  0.00    -0.206 F 
ATOM     87  C   UNL A   1      41.303  34.597  35.168  1.00  0.00     0.059 A 
ATOM     88  C   UNL A   1      40.287  33.029  36.720  1.00  0.00     0.059 A 
ATOM     89  F   UNL A   1      40.279  30.739  36.216  1.00  0.00    -0.206 F 
ATOM     90  C   UNL A   1      40.634  34.331  36.364  1.00  0.00     0.060 A 
BRANCH  90  91
ATOM     91  S   UNL A   1      40.166  35.718  37.424  1.00  0.00     0.124 S 
ATOM     92  O   UNL A   1      41.401  35.949  38.164  1.00  0.00    -0.237 OA
ATOM     93  O   UNL A   1      39.802  36.740  36.448  1.00  0.00    -0.237 OA
ATOM     94  O   UNL A   1      39.053  35.182  38.203  1.00  0.00    -0.744 OA
ENDBRANCH  90  91
ENDBRANCH  58  83
BRANCH  70  95
ATOM     95  C   UNL A   1      46.442  27.580  34.046  1.00  0.00     0.058 A 
ATOM     96  C   UNL A   1      47.649  28.240  33.766  1.00  0.00     0.135 A 
ATOM     97  C   UNL A   1      46.411  26.694  35.133  1.00  0.00     0.135 A 
ATOM     98  F   UNL A   1      47.730  29.090  32.731  1.00  0.00    -0.206 F 
ATOM     99  C   UNL A   1      48.793  28.007  34.521  1.00  0.00     0.059 A 
ATOM    100  C   UNL A   1      47.537  26.464  35.916  1.00  0.00     0.059 A 
ATOM    101  F   UNL A   1      45.277  26.047  35.445  1.00  0.00    -0.206 F 
ATOM    102  C   UNL A   1      48.727  27.113  35.592  1.00  0.00     0.060 A 
BRANCH 102 103
ATOM    103  S   UNL A   1      50.216  26.828  36.572  1.00  0.00     0.124 S 
ATOM    104  O   UNL A   1      49.749  25.831  37.529  1.00  0.00    -0.237 OA
ATOM    105  O   UNL A   1      51.164  26.349  35.569  1.00  0.00    -0.237 OA
ATOM    106  O   UNL A   1      50.514  28.144  37.128  1.00  0.00    -0.744 OA
ENDBRANCH 102 103
ENDBRANCH  70  95
ENDBRANCH  44  45
ENDBRANCH  36  39
ENDBRANCH  34  35
ENDBRANCH   1  34
TORSDOF 17
ENDMDL
