MODEL 1
REMARK VINA RESULT:     -13.0      0.000      0.000
REMARK SMILES CC1(C)[C@@](C)(C(=O)NCCCNC(=O)c2ccc(-c3c4nc(c(-c5c(F)cc(S(=O)(=O)[O-])cc5F)c5ccc([nH]5)c(-c5c(F)cc(S(=O)(=O)[O-])cc5F)c5nc(c(-c6c(F)cc(S(=O)(=O)[O-])cc6F)c6ccc3[nH]6)C=C5)C=C4)cc2)CC[C@]1(C)C(=O)Nc1ccc(Cl)cc1Cl
REMARK SMILES IDX 10 1 9 2 8 3 6 4 7 5 4 7 1 8 2 9 3 10 83 11 5 12 81 13 82 14
REMARK SMILES IDX 84 15 85 16 86 17 87 18 88 20 89 21 94 22 90 23 93 24 95 25
REMARK SMILES IDX 91 26 92 27 11 28 12 29 13 30 14 32 15 33 16 34 80 35 17 36
REMARK SMILES IDX 79 37 18 38 19 39 20 40 73 41 21 42 78 43 72 44 74 45 22 46
REMARK SMILES IDX 77 47 71 48 70 49 23 51 57 52 36 53 56 54 37 55 40 56 55 57
REMARK SMILES IDX 75 58 38 59 39 60 54 62 76 63 41 64 24 65 25 66 34 67 26 68
REMARK SMILES IDX 27 69 33 70 35 71 28 72 29 73 30 74 31 75 32 76 58 77 59 78
REMARK SMILES IDX 68 79 60 80 61 81 67 82 69 83 62 84 63 85 64 86 65 87 66 88
REMARK SMILES IDX 42 89 43 90 52 91 44 92 45 93 51 94 53 95 46 96 47 97 48 98
REMARK SMILES IDX 49 99 50 100
REMARK H PARENT 8 6 87 19 12 31 74 50 40 61
REMARK Flexibility Score: inf
ROOT
ATOM      1  C   UNL A   1      34.191  30.720  27.638  1.00  0.00     0.042 C 
ENDROOT
BRANCH   1   2
ATOM      2  C   UNL A   1      34.410  29.368  26.942  1.00  0.00     0.117 C 
BRANCH   2   3
ATOM      3  N   UNL A   1      34.116  29.369  25.507  1.00  0.00    -0.356 N 
ATOM      4  C   UNL A   1      33.191  28.787  24.690  1.00  0.00     0.226 C 
ATOM      5  O   UNL A   1      33.271  29.138  23.505  1.00  0.00    -0.274 OA
ATOM      6  H   UNL A   1      34.747  29.932  25.003  1.00  0.00     0.163 HD
BRANCH   4   7
ATOM      7  C   UNL A   1      32.086  27.774  25.147  1.00  0.00     0.052 C 
ATOM      8  C   UNL A   1      33.909  26.102  25.725  1.00  0.00     0.013 C 
ATOM      9  C   UNL A   1      32.501  26.243  25.198  1.00  0.00    -0.007 C 
ATOM     10  C   UNL A   1      31.537  25.484  26.150  1.00  0.00     0.013 C 
ATOM     11  C   UNL A   1      32.377  25.679  23.717  1.00  0.00     0.053 C 
ATOM     12  C   UNL A   1      31.468  28.341  26.449  1.00  0.00     0.022 C 
ATOM     13  C   UNL A   1      30.947  27.730  24.088  1.00  0.00     0.018 C 
ATOM     14  C   UNL A   1      31.164  26.510  23.183  1.00  0.00     0.018 C 
ATOM     15  C   UNL A   1      33.555  25.997  22.776  1.00  0.00     0.022 C 
BRANCH  11  16
ATOM     16  C   UNL A   1      32.048  24.129  23.607  1.00  0.00     0.230 C 
ATOM     17  O   UNL A   1      30.978  23.762  23.099  1.00  0.00    -0.274 OA
ATOM     18  N   UNL A   1      32.819  23.104  24.103  1.00  0.00    -0.324 N 
ATOM     19  H   UNL A   1      32.342  22.245  24.152  1.00  0.00     0.170 HD
BRANCH  18  20
ATOM     20  C   UNL A   1      34.146  23.034  24.554  1.00  0.00     0.060 A 
ATOM     21  C   UNL A   1      35.193  23.155  23.638  1.00  0.00     0.029 A 
ATOM     22  C   UNL A   1      34.455  22.796  25.911  1.00  0.00     0.066 A 
ATOM     23  C   UNL A   1      36.517  23.216  24.086  1.00  0.00     0.023 A 
ATOM     24  C   UNL A   1      35.771  22.933  26.367  1.00  0.00     0.043 A 
ATOM     25  Cl  UNL A   1      33.229  22.504  27.093  1.00  0.00    -0.082 Cl
ATOM     26  C   UNL A   1      36.792  23.169  25.451  1.00  0.00     0.042 A 
ATOM     27  Cl  UNL A   1      38.395  23.442  26.009  1.00  0.00    -0.084 Cl
ENDBRANCH  18  20
ENDBRANCH  11  16
ENDBRANCH   4   7
ENDBRANCH   2   3
ENDBRANCH   1   2
BRANCH   1  28
ATOM     28  C   UNL A   1      35.446  31.357  28.217  1.00  0.00     0.118 C 
BRANCH  28  29
ATOM     29  N   UNL A   1      35.471  31.243  29.663  1.00  0.00    -0.352 N 
ATOM     30  C   UNL A   1      36.317  30.529  30.477  1.00  0.00     0.251 C 
ATOM     31  H   UNL A   1      34.774  31.757  30.132  1.00  0.00     0.163 HD
ATOM     32  O   UNL A   1      35.963  30.309  31.634  1.00  0.00    -0.269 OA
BRANCH  30  33
ATOM     33  C   UNL A   1      37.632  30.022  30.000  1.00  0.00     0.039 A 
ATOM     34  C   UNL A   1      38.561  29.581  30.950  1.00  0.00     0.014 A 
ATOM     35  C   UNL A   1      38.007  30.069  28.654  1.00  0.00     0.014 A 
ATOM     36  C   UNL A   1      39.843  29.179  30.553  1.00  0.00     0.010 A 
ATOM     37  C   UNL A   1      39.254  29.587  28.250  1.00  0.00     0.010 A 
ATOM     38  C   UNL A   1      40.200  29.166  29.196  1.00  0.00    -0.014 A 
BRANCH  38  39
ATOM     39  C   UNL A   1      41.569  28.775  28.758  1.00  0.00     0.031 A 
ATOM     40  C   UNL A   1      42.672  29.805  28.704  1.00  0.00     0.074 A 
ATOM     41  C   UNL A   1      41.823  27.507  28.377  1.00  0.00     0.049 A 
ATOM     42  N   UNL A   1      43.911  29.673  28.299  1.00  0.00    -0.248 NA
ATOM     43  C   UNL A   1      42.329  31.168  29.137  1.00  0.00     0.031 C 
ATOM     44  C   UNL A   1      40.843  26.422  28.347  1.00  0.00     0.029 A 
ATOM     45  N   UNL A   1      42.982  26.919  27.934  1.00  0.00    -0.354 N 
ATOM     46  C   UNL A   1      44.485  30.936  28.409  1.00  0.00     0.074 A 
ATOM     47  C   UNL A   1      43.445  31.831  28.869  1.00  0.00     0.031 C 
ATOM     48  C   UNL A   1      41.445  25.296  27.931  1.00  0.00     0.029 A 
ATOM     49  C   UNL A   1      42.845  25.584  27.633  1.00  0.00     0.049 A 
ATOM     50  H   UNL A   1      43.832  27.407  27.840  1.00  0.00     0.167 HD
ATOM     51  C   UNL A   1      45.766  31.313  28.175  1.00  0.00     0.037 A 
ATOM     52  C   UNL A   1      43.741  24.693  27.167  1.00  0.00     0.037 A 
ATOM     53  C   UNL A   1      46.810  30.416  27.754  1.00  0.00     0.049 A 
ATOM     54  C   UNL A   1      45.160  25.130  26.925  1.00  0.00     0.074 A 
ATOM     55  C   UNL A   1      48.151  30.690  27.545  1.00  0.00     0.029 A 
ATOM     56  N   UNL A   1      46.633  29.067  27.482  1.00  0.00    -0.354 N 
ATOM     57  N   UNL A   1      45.695  26.317  27.081  1.00  0.00    -0.248 NA
ATOM     58  C   UNL A   1      46.100  24.104  26.451  1.00  0.00     0.031 C 
ATOM     59  C   UNL A   1      48.776  29.517  27.111  1.00  0.00     0.029 A 
ATOM     60  C   UNL A   1      47.834  28.500  27.092  1.00  0.00     0.049 A 
ATOM     61  H   UNL A   1      45.778  28.585  27.554  1.00  0.00     0.167 HD
ATOM     62  C   UNL A   1      47.039  26.175  26.750  1.00  0.00     0.074 A 
ATOM     63  C   UNL A   1      47.236  24.785  26.395  1.00  0.00     0.031 C 
ATOM     64  C   UNL A   1      48.020  27.113  26.746  1.00  0.00     0.037 A 
BRANCH  51  65
ATOM     65  C   UNL A   1      46.108  32.766  28.377  1.00  0.00     0.058 A 
ATOM     66  C   UNL A   1      45.978  33.706  27.341  1.00  0.00     0.135 A 
ATOM     67  C   UNL A   1      46.558  33.228  29.625  1.00  0.00     0.135 A 
ATOM     68  F   UNL A   1      45.564  33.317  26.124  1.00  0.00    -0.206 F 
ATOM     69  C   UNL A   1      46.320  35.042  27.523  1.00  0.00     0.059 A 
ATOM     70  C   UNL A   1      46.878  34.567  29.837  1.00  0.00     0.059 A 
ATOM     71  F   UNL A   1      46.697  32.376  30.652  1.00  0.00    -0.206 F 
ATOM     72  C   UNL A   1      46.775  35.462  28.773  1.00  0.00     0.060 A 
BRANCH  72  73
ATOM     73  S   UNL A   1      47.233  37.194  28.993  1.00  0.00     0.124 S 
ATOM     74  O   UNL A   1      48.547  37.229  28.352  1.00  0.00    -0.237 OA
ATOM     75  O   UNL A   1      46.167  37.894  28.276  1.00  0.00    -0.237 OA
ATOM     76  O   UNL A   1      47.233  37.368  30.435  1.00  0.00    -0.744 OA
ENDBRANCH  72  73
ENDBRANCH  51  65
BRANCH  52  77
ATOM     77  C   UNL A   1      43.328  23.284  26.937  1.00  0.00     0.058 A 
ATOM     78  C   UNL A   1      43.181  22.780  25.635  1.00  0.00     0.135 A 
ATOM     79  C   UNL A   1      43.097  22.406  28.007  1.00  0.00     0.135 A 
ATOM     80  F   UNL A   1      43.383  23.584  24.580  1.00  0.00    -0.206 F 
ATOM     81  C   UNL A   1      42.815  21.459  25.402  1.00  0.00     0.059 A 
ATOM     82  C   UNL A   1      42.752  21.074  27.799  1.00  0.00     0.059 A 
ATOM     83  F   UNL A   1      43.237  22.835  29.271  1.00  0.00    -0.206 F 
ATOM     84  C   UNL A   1      42.607  20.612  26.491  1.00  0.00     0.060 A 
BRANCH  84  85
ATOM     85  S   UNL A   1      42.197  18.881  26.177  1.00  0.00     0.124 S 
ATOM     86  O   UNL A   1      42.427  18.283  27.486  1.00  0.00    -0.237 OA
ATOM     87  O   UNL A   1      40.805  18.968  25.747  1.00  0.00    -0.237 OA
ATOM     88  O   UNL A   1      43.144  18.498  25.132  1.00  0.00    -0.744 OA
ENDBRANCH  84  85
ENDBRANCH  52  77
BRANCH  64  89
ATOM     89  C   UNL A   1      49.405  26.661  26.375  1.00  0.00     0.058 A 
ATOM     90  C   UNL A   1      50.256  26.047  27.307  1.00  0.00     0.135 A 
ATOM     91  C   UNL A   1      49.867  26.800  25.056  1.00  0.00     0.135 A 
ATOM     92  F   UNL A   1      49.863  25.895  28.582  1.00  0.00    -0.206 F 
ATOM     93  C   UNL A   1      51.528  25.611  26.951  1.00  0.00     0.059 A 
ATOM     94  C   UNL A   1      51.125  26.348  24.672  1.00  0.00     0.059 A 
ATOM     95  F   UNL A   1      49.088  27.370  24.123  1.00  0.00    -0.206 F 
ATOM     96  C   UNL A   1      51.954  25.766  25.630  1.00  0.00     0.060 A 
BRANCH  96  97
ATOM     97  S   UNL A   1      53.596  25.169  25.174  1.00  0.00     0.124 S 
ATOM     98  O   UNL A   1      53.430  23.726  25.299  1.00  0.00    -0.237 OA
ATOM     99  O   UNL A   1      53.748  25.675  23.813  1.00  0.00    -0.237 OA
ATOM    100  O   UNL A   1      54.469  25.790  26.167  1.00  0.00    -0.744 OA
ENDBRANCH  96  97
ENDBRANCH  64  89
ENDBRANCH  38  39
ENDBRANCH  30  33
ENDBRANCH  28  29
ENDBRANCH   1  28
TORSDOF 15
ENDMDL
MODEL 2
REMARK VINA RESULT:     -12.9      6.399     11.897
REMARK SMILES CC1(C)[C@@](C)(C(=O)NCCCNC(=O)c2ccc(-c3c4nc(c(-c5c(F)cc(S(=O)(=O)[O-])cc5F)c5ccc([nH]5)c(-c5c(F)cc(S(=O)(=O)[O-])cc5F)c5nc(c(-c6c(F)cc(S(=O)(=O)[O-])cc6F)c6ccc3[nH]6)C=C5)C=C4)cc2)CC[C@]1(C)C(=O)Nc1ccc(Cl)cc1Cl
REMARK SMILES IDX 10 1 9 2 8 3 6 4 7 5 4 7 1 8 2 9 3 10 83 11 5 12 81 13 82 14
REMARK SMILES IDX 84 15 85 16 86 17 87 18 88 20 89 21 94 22 90 23 93 24 95 25
REMARK SMILES IDX 91 26 92 27 11 28 12 29 13 30 14 32 15 33 16 34 80 35 17 36
REMARK SMILES IDX 79 37 18 38 19 39 20 40 73 41 21 42 78 43 72 44 74 45 22 46
REMARK SMILES IDX 77 47 71 48 70 49 23 51 57 52 36 53 56 54 37 55 40 56 55 57
REMARK SMILES IDX 75 58 38 59 39 60 54 62 76 63 41 64 24 65 25 66 34 67 26 68
REMARK SMILES IDX 27 69 33 70 35 71 28 72 29 73 30 74 31 75 32 76 58 77 59 78
REMARK SMILES IDX 68 79 60 80 61 81 67 82 69 83 62 84 63 85 64 86 65 87 66 88
REMARK SMILES IDX 42 89 43 90 52 91 44 92 45 93 51 94 53 95 46 96 47 97 48 98
REMARK SMILES IDX 49 99 50 100
REMARK H PARENT 8 6 87 19 12 31 74 50 40 61
REMARK Flexibility Score: inf
ROOT
ATOM      1  C   UNL A   1      38.818  22.565  26.115  1.00  0.00     0.042 C 
ENDROOT
BRANCH   1   2
ATOM      2  C   UNL A   1      37.528  23.397  26.037  1.00  0.00     0.117 C 
BRANCH   2   3
ATOM      3  N   UNL A   1      36.325  22.697  26.491  1.00  0.00    -0.356 N 
ATOM      4  C   UNL A   1      35.109  22.378  25.957  1.00  0.00     0.226 C 
ATOM      5  O   UNL A   1      34.399  21.686  26.698  1.00  0.00    -0.274 OA
ATOM      6  H   UNL A   1      36.414  22.374  27.416  1.00  0.00     0.163 HD
BRANCH   4   7
ATOM      7  C   UNL A   1      34.605  22.800  24.535  1.00  0.00     0.052 C 
ATOM      8  C   UNL A   1      34.554  25.219  25.310  1.00  0.00     0.013 C 
ATOM      9  C   UNL A   1      33.869  24.202  24.427  1.00  0.00    -0.007 C 
ATOM     10  C   UNL A   1      33.932  24.699  22.957  1.00  0.00     0.013 C 
ATOM     11  C   UNL A   1      32.361  23.971  24.872  1.00  0.00     0.053 C 
ATOM     12  C   UNL A   1      35.788  22.590  23.558  1.00  0.00     0.022 C 
ATOM     13  C   UNL A   1      33.467  21.841  24.079  1.00  0.00     0.018 C 
ATOM     14  C   UNL A   1      32.117  22.517  24.349  1.00  0.00     0.018 C 
ATOM     15  C   UNL A   1      32.109  23.922  26.391  1.00  0.00     0.022 C 
BRANCH  11  16
ATOM     16  C   UNL A   1      31.302  24.955  24.216  1.00  0.00     0.230 C 
ATOM     17  O   UNL A   1      30.391  24.498  23.510  1.00  0.00    -0.274 OA
ATOM     18  N   UNL A   1      31.327  26.329  24.285  1.00  0.00    -0.324 N 
ATOM     19  H   UNL A   1      30.739  26.764  23.627  1.00  0.00     0.170 HD
BRANCH  18  20
ATOM     20  C   UNL A   1      32.022  27.235  25.101  1.00  0.00     0.060 A 
ATOM     21  C   UNL A   1      31.714  27.315  26.461  1.00  0.00     0.029 A 
ATOM     22  C   UNL A   1      32.996  28.109  24.573  1.00  0.00     0.066 A 
ATOM     23  C   UNL A   1      32.482  28.117  27.311  1.00  0.00     0.023 A 
ATOM     24  C   UNL A   1      33.812  28.854  25.432  1.00  0.00     0.043 A 
ATOM     25  Cl  UNL A   1      33.350  28.176  22.883  1.00  0.00    -0.082 Cl
ATOM     26  C   UNL A   1      33.565  28.832  26.802  1.00  0.00     0.042 A 
ATOM     27  Cl  UNL A   1      34.623  29.658  27.876  1.00  0.00    -0.084 Cl
ENDBRANCH  18  20
ENDBRANCH  11  16
ENDBRANCH   4   7
ENDBRANCH   2   3
ENDBRANCH   1   2
BRANCH   1  28
ATOM     28  C   UNL A   1      39.922  23.167  26.971  1.00  0.00     0.118 C 
BRANCH  28  29
ATOM     29  N   UNL A   1      40.953  23.768  26.147  1.00  0.00    -0.352 N 
ATOM     30  C   UNL A   1      41.388  25.071  26.088  1.00  0.00     0.251 C 
ATOM     31  H   UNL A   1      41.411  23.147  25.535  1.00  0.00     0.163 HD
ATOM     32  O   UNL A   1      42.030  25.426  25.102  1.00  0.00    -0.269 OA
BRANCH  30  33
ATOM     33  C   UNL A   1      41.105  26.047  27.174  1.00  0.00     0.039 A 
ATOM     34  C   UNL A   1      41.882  27.210  27.245  1.00  0.00     0.014 A 
ATOM     35  C   UNL A   1      40.167  25.795  28.180  1.00  0.00     0.014 A 
ATOM     36  C   UNL A   1      41.710  28.114  28.301  1.00  0.00     0.010 A 
ATOM     37  C   UNL A   1      39.936  26.738  29.185  1.00  0.00     0.010 A 
ATOM     38  C   UNL A   1      40.725  27.893  29.277  1.00  0.00    -0.014 A 
BRANCH  38  39
ATOM     39  C   UNL A   1      40.552  28.825  30.427  1.00  0.00     0.031 A 
ATOM     40  C   UNL A   1      41.420  28.687  31.654  1.00  0.00     0.074 A 
ATOM     41  C   UNL A   1      39.596  29.775  30.391  1.00  0.00     0.049 A 
ATOM     42  N   UNL A   1      41.384  29.363  32.776  1.00  0.00    -0.248 NA
ATOM     43  C   UNL A   1      42.445  27.632  31.628  1.00  0.00     0.031 C 
ATOM     44  C   UNL A   1      38.666  29.997  29.283  1.00  0.00     0.029 A 
ATOM     45  N   UNL A   1      39.245  30.729  31.314  1.00  0.00    -0.354 N 
ATOM     46  C   UNL A   1      42.363  28.803  33.590  1.00  0.00     0.074 A 
ATOM     47  C   UNL A   1      42.940  27.698  32.855  1.00  0.00     0.031 C 
ATOM     48  C   UNL A   1      37.866  31.032  29.581  1.00  0.00     0.029 A 
ATOM     49  C   UNL A   1      38.201  31.530  30.913  1.00  0.00     0.049 A 
ATOM     50  H   UNL A   1      39.696  30.830  32.184  1.00  0.00     0.167 HD
ATOM     51  C   UNL A   1      42.766  29.187  34.827  1.00  0.00     0.037 A 
ATOM     52  C   UNL A   1      37.581  32.546  31.543  1.00  0.00     0.037 A 
ATOM     53  C   UNL A   1      42.218  30.309  35.544  1.00  0.00     0.049 A 
ATOM     54  C   UNL A   1      38.051  32.964  32.910  1.00  0.00     0.074 A 
ATOM     55  C   UNL A   1      42.597  30.812  36.777  1.00  0.00     0.029 A 
ATOM     56  N   UNL A   1      41.178  31.107  35.091  1.00  0.00    -0.354 N 
ATOM     57  N   UNL A   1      39.010  32.452  33.644  1.00  0.00    -0.248 NA
ATOM     58  C   UNL A   1      37.359  34.101  33.533  1.00  0.00     0.031 C 
ATOM     59  C   UNL A   1      41.762  31.891  37.086  1.00  0.00     0.029 A 
ATOM     60  C   UNL A   1      40.891  32.088  36.025  1.00  0.00     0.049 A 
ATOM     61  H   UNL A   1      40.711  30.991  34.232  1.00  0.00     0.167 HD
ATOM     62  C   UNL A   1      39.055  33.222  34.802  1.00  0.00     0.074 A 
ATOM     63  C   UNL A   1      38.033  34.239  34.666  1.00  0.00     0.031 C 
ATOM     64  C   UNL A   1      39.873  33.099  35.877  1.00  0.00     0.037 A 
BRANCH  51  65
ATOM     65  C   UNL A   1      43.860  28.384  35.480  1.00  0.00     0.058 A 
ATOM     66  C   UNL A   1      43.574  27.317  36.347  1.00  0.00     0.135 A 
ATOM     67  C   UNL A   1      45.210  28.675  35.225  1.00  0.00     0.135 A 
ATOM     68  F   UNL A   1      42.302  27.002  36.636  1.00  0.00    -0.206 F 
ATOM     69  C   UNL A   1      44.587  26.594  36.970  1.00  0.00     0.059 A 
ATOM     70  C   UNL A   1      46.239  27.946  35.815  1.00  0.00     0.059 A 
ATOM     71  F   UNL A   1      45.542  29.681  34.401  1.00  0.00    -0.206 F 
ATOM     72  C   UNL A   1      45.917  26.919  36.703  1.00  0.00     0.060 A 
BRANCH  72  73
ATOM     73  S   UNL A   1      47.222  25.986  37.529  1.00  0.00     0.124 S 
ATOM     74  O   UNL A   1      48.365  26.254  36.655  1.00  0.00    -0.237 OA
ATOM     75  O   UNL A   1      47.276  26.622  38.845  1.00  0.00    -0.237 OA
ATOM     76  O   UNL A   1      46.729  24.620  37.516  1.00  0.00    -0.744 OA
ENDBRANCH  72  73
ENDBRANCH  51  65
BRANCH  52  77
ATOM     77  C   UNL A   1      36.470  33.266  30.866  1.00  0.00     0.058 A 
ATOM     78  C   UNL A   1      35.140  33.076  31.268  1.00  0.00     0.135 A 
ATOM     79  C   UNL A   1      36.716  34.175  29.826  1.00  0.00     0.135 A 
ATOM     80  F   UNL A   1      34.854  32.211  32.253  1.00  0.00    -0.206 F 
ATOM     81  C   UNL A   1      34.090  33.756  30.659  1.00  0.00     0.059 A 
ATOM     82  C   UNL A   1      35.686  34.884  29.216  1.00  0.00     0.059 A 
ATOM     83  F   UNL A   1      37.973  34.401  29.413  1.00  0.00    -0.206 F 
ATOM     84  C   UNL A   1      34.374  34.663  29.637  1.00  0.00     0.060 A 
BRANCH  84  85
ATOM     85  S   UNL A   1      33.012  35.590  28.898  1.00  0.00     0.124 S 
ATOM     86  O   UNL A   1      32.341  34.557  28.119  1.00  0.00    -0.237 OA
ATOM     87  O   UNL A   1      32.296  36.073  30.074  1.00  0.00    -0.237 OA
ATOM     88  O   UNL A   1      33.694  36.624  28.123  1.00  0.00    -0.744 OA
ENDBRANCH  84  85
ENDBRANCH  52  77
BRANCH  64  89
ATOM     89  C   UNL A   1      39.719  34.108  36.981  1.00  0.00     0.058 A 
ATOM     90  C   UNL A   1      38.953  33.839  38.125  1.00  0.00     0.135 A 
ATOM     91  C   UNL A   1      40.388  35.341  36.913  1.00  0.00     0.135 A 
ATOM     92  F   UNL A   1      38.289  32.677  38.236  1.00  0.00    -0.206 F 
ATOM     93  C   UNL A   1      38.832  34.768  39.153  1.00  0.00     0.059 A 
ATOM     94  C   UNL A   1      40.302  36.274  37.941  1.00  0.00     0.059 A 
ATOM     95  F   UNL A   1      41.143  35.643  35.845  1.00  0.00    -0.206 F 
ATOM     96  C   UNL A   1      39.512  35.984  39.052  1.00  0.00     0.060 A 
BRANCH  96  97
ATOM     97  S   UNL A   1      39.372  37.170  40.406  1.00  0.00     0.124 S 
ATOM     98  O   UNL A   1      40.773  37.443  40.705  1.00  0.00    -0.237 OA
ATOM     99  O   UNL A   1      38.629  38.265  39.790  1.00  0.00    -0.237 OA
ATOM    100  O   UNL A   1      38.643  36.428  41.432  1.00  0.00    -0.744 OA
ENDBRANCH  96  97
ENDBRANCH  64  89
ENDBRANCH  38  39
ENDBRANCH  30  33
ENDBRANCH  28  29
ENDBRANCH   1  28
TORSDOF 15
ENDMDL
MODEL 3
REMARK VINA RESULT:     -12.6      1.051      1.739
REMARK SMILES CC1(C)[C@@](C)(C(=O)NCCCNC(=O)c2ccc(-c3c4nc(c(-c5c(F)cc(S(=O)(=O)[O-])cc5F)c5ccc([nH]5)c(-c5c(F)cc(S(=O)(=O)[O-])cc5F)c5nc(c(-c6c(F)cc(S(=O)(=O)[O-])cc6F)c6ccc3[nH]6)C=C5)C=C4)cc2)CC[C@]1(C)C(=O)Nc1ccc(Cl)cc1Cl
REMARK SMILES IDX 10 1 9 2 8 3 6 4 7 5 4 7 1 8 2 9 3 10 83 11 5 12 81 13 82 14
REMARK SMILES IDX 84 15 85 16 86 17 87 18 88 20 89 21 94 22 90 23 93 24 95 25
REMARK SMILES IDX 91 26 92 27 11 28 12 29 13 30 14 32 15 33 16 34 80 35 17 36
REMARK SMILES IDX 79 37 18 38 19 39 20 40 73 41 21 42 78 43 72 44 74 45 22 46
REMARK SMILES IDX 77 47 71 48 70 49 23 51 57 52 36 53 56 54 37 55 40 56 55 57
REMARK SMILES IDX 75 58 38 59 39 60 54 62 76 63 41 64 24 65 25 66 34 67 26 68
REMARK SMILES IDX 27 69 33 70 35 71 28 72 29 73 30 74 31 75 32 76 58 77 59 78
REMARK SMILES IDX 68 79 60 80 61 81 67 82 69 83 62 84 63 85 64 86 65 87 66 88
REMARK SMILES IDX 42 89 43 90 52 91 44 92 45 93 51 94 53 95 46 96 47 97 48 98
REMARK SMILES IDX 49 99 50 100
REMARK H PARENT 8 6 87 19 12 31 74 50 40 61
REMARK Flexibility Score: inf
ROOT
ATOM      1  C   UNL A   1      34.243  30.875  27.574  1.00  0.00     0.042 C 
ENDROOT
BRANCH   1   2
ATOM      2  C   UNL A   1      34.370  29.370  27.286  1.00  0.00     0.117 C 
BRANCH   2   3
ATOM      3  N   UNL A   1      33.134  28.608  27.476  1.00  0.00    -0.356 N 
ATOM      4  C   UNL A   1      32.131  28.140  26.677  1.00  0.00     0.226 C 
ATOM      5  O   UNL A   1      31.290  27.455  27.272  1.00  0.00    -0.274 OA
ATOM      6  H   UNL A   1      32.988  28.374  28.421  1.00  0.00     0.163 HD
BRANCH   4   7
ATOM      7  C   UNL A   1      32.008  28.394  25.135  1.00  0.00     0.052 C 
ATOM      8  C   UNL A   1      30.960  26.094  24.877  1.00  0.00     0.013 C 
ATOM      9  C   UNL A   1      31.857  27.112  24.212  1.00  0.00    -0.007 C 
ATOM     10  C   UNL A   1      31.216  27.529  22.860  1.00  0.00     0.013 C 
ATOM     11  C   UNL A   1      33.318  26.532  23.980  1.00  0.00     0.053 C 
ATOM     12  C   UNL A   1      30.925  29.485  24.945  1.00  0.00     0.022 C 
ATOM     13  C   UNL A   1      33.343  28.983  24.595  1.00  0.00     0.018 C 
ATOM     14  C   UNL A   1      34.162  27.849  23.965  1.00  0.00     0.018 C 
ATOM     15  C   UNL A   1      33.891  25.676  25.125  1.00  0.00     0.022 C 
BRANCH  11  16
ATOM     16  C   UNL A   1      33.528  25.751  22.613  1.00  0.00     0.230 C 
ATOM     17  O   UNL A   1      33.798  26.382  21.579  1.00  0.00    -0.274 OA
ATOM     18  N   UNL A   1      33.363  24.400  22.423  1.00  0.00    -0.324 N 
ATOM     19  H   UNL A   1      33.302  24.143  21.475  1.00  0.00     0.170 HD
BRANCH  18  20
ATOM     20  C   UNL A   1      33.264  23.312  23.305  1.00  0.00     0.060 A 
ATOM     21  C   UNL A   1      32.009  22.917  23.774  1.00  0.00     0.029 A 
ATOM     22  C   UNL A   1      34.409  22.631  23.770  1.00  0.00     0.066 A 
ATOM     23  C   UNL A   1      31.880  21.760  24.549  1.00  0.00     0.023 A 
ATOM     24  C   UNL A   1      34.274  21.432  24.481  1.00  0.00     0.043 A 
ATOM     25  Cl  UNL A   1      36.008  23.130  23.349  1.00  0.00    -0.082 Cl
ATOM     26  C   UNL A   1      33.005  20.991  24.843  1.00  0.00     0.042 A 
ATOM     27  Cl  UNL A   1      32.818  19.470  25.623  1.00  0.00    -0.084 Cl
ENDBRANCH  18  20
ENDBRANCH  11  16
ENDBRANCH   4   7
ENDBRANCH   2   3
ENDBRANCH   1   2
BRANCH   1  28
ATOM     28  C   UNL A   1      35.478  31.521  28.183  1.00  0.00     0.118 C 
BRANCH  28  29
ATOM     29  N   UNL A   1      35.481  31.382  29.627  1.00  0.00    -0.352 N 
ATOM     30  C   UNL A   1      36.308  30.646  30.441  1.00  0.00     0.251 C 
ATOM     31  H   UNL A   1      34.783  31.895  30.096  1.00  0.00     0.163 HD
ATOM     32  O   UNL A   1      35.936  30.410  31.589  1.00  0.00    -0.269 OA
BRANCH  30  33
ATOM     33  C   UNL A   1      37.624  30.133  29.973  1.00  0.00     0.039 A 
ATOM     34  C   UNL A   1      38.562  29.730  30.932  1.00  0.00     0.014 A 
ATOM     35  C   UNL A   1      37.993  30.141  28.625  1.00  0.00     0.014 A 
ATOM     36  C   UNL A   1      39.845  29.324  30.542  1.00  0.00     0.010 A 
ATOM     37  C   UNL A   1      39.242  29.655  28.230  1.00  0.00     0.010 A 
ATOM     38  C   UNL A   1      40.195  29.271  29.183  1.00  0.00    -0.014 A 
BRANCH  38  39
ATOM     39  C   UNL A   1      41.566  28.876  28.752  1.00  0.00     0.031 A 
ATOM     40  C   UNL A   1      42.674  29.900  28.715  1.00  0.00     0.074 A 
ATOM     41  C   UNL A   1      41.815  27.611  28.360  1.00  0.00     0.049 A 
ATOM     42  N   UNL A   1      43.915  29.766  28.317  1.00  0.00    -0.248 NA
ATOM     43  C   UNL A   1      42.336  31.262  29.158  1.00  0.00     0.031 C 
ATOM     44  C   UNL A   1      40.829  26.531  28.314  1.00  0.00     0.029 A 
ATOM     45  N   UNL A   1      42.973  27.020  27.920  1.00  0.00    -0.354 N 
ATOM     46  C   UNL A   1      44.495  31.024  28.443  1.00  0.00     0.074 A 
ATOM     47  C   UNL A   1      43.457  31.920  28.904  1.00  0.00     0.031 C 
ATOM     48  C   UNL A   1      41.427  25.406  27.891  1.00  0.00     0.029 A 
ATOM     49  C   UNL A   1      42.831  25.689  27.605  1.00  0.00     0.049 A 
ATOM     50  H   UNL A   1      43.827  27.504  27.836  1.00  0.00     0.167 HD
ATOM     51  C   UNL A   1      45.780  31.396  28.221  1.00  0.00     0.037 A 
ATOM     52  C   UNL A   1      43.725  24.797  27.137  1.00  0.00     0.037 A 
ATOM     53  C   UNL A   1      46.822  30.497  27.798  1.00  0.00     0.049 A 
ATOM     54  C   UNL A   1      45.148  25.228  26.909  1.00  0.00     0.074 A 
ATOM     55  C   UNL A   1      48.165  30.766  27.601  1.00  0.00     0.029 A 
ATOM     56  N   UNL A   1      46.639  29.152  27.513  1.00  0.00    -0.354 N 
ATOM     57  N   UNL A   1      45.689  26.411  27.079  1.00  0.00    -0.248 NA
ATOM     58  C   UNL A   1      46.086  24.202  26.431  1.00  0.00     0.031 C 
ATOM     59  C   UNL A   1      48.787  29.593  27.161  1.00  0.00     0.029 A 
ATOM     60  C   UNL A   1      47.840  28.582  27.126  1.00  0.00     0.049 A 
ATOM     61  H   UNL A   1      45.781  28.674  27.574  1.00  0.00     0.167 HD
ATOM     62  C   UNL A   1      47.034  26.265  26.756  1.00  0.00     0.074 A 
ATOM     63  C   UNL A   1      47.226  24.877  26.389  1.00  0.00     0.031 C 
ATOM     64  C   UNL A   1      48.020  27.197  26.768  1.00  0.00     0.037 A 
BRANCH  51  65
ATOM     65  C   UNL A   1      46.129  32.845  28.439  1.00  0.00     0.058 A 
ATOM     66  C   UNL A   1      46.060  33.785  27.398  1.00  0.00     0.135 A 
ATOM     67  C   UNL A   1      46.522  33.303  29.707  1.00  0.00     0.135 A 
ATOM     68  F   UNL A   1      45.702  33.401  26.162  1.00  0.00    -0.206 F 
ATOM     69  C   UNL A   1      46.409  35.118  27.595  1.00  0.00     0.059 A 
ATOM     70  C   UNL A   1      46.847  34.638  29.934  1.00  0.00     0.059 A 
ATOM     71  F   UNL A   1      46.602  32.450  30.740  1.00  0.00    -0.206 F 
ATOM     72  C   UNL A   1      46.807  35.534  28.865  1.00  0.00     0.060 A 
BRANCH  72  73
ATOM     73  S   UNL A   1      47.274  37.261  29.107  1.00  0.00     0.124 S 
ATOM     74  O   UNL A   1      47.875  37.213  30.440  1.00  0.00    -0.237 OA
ATOM     75  O   UNL A   1      48.207  37.490  28.005  1.00  0.00    -0.237 OA
ATOM     76  O   UNL A   1      46.011  37.973  29.014  1.00  0.00    -0.744 OA
ENDBRANCH  72  73
ENDBRANCH  51  65
BRANCH  52  77
ATOM     77  C   UNL A   1      43.305  23.393  26.890  1.00  0.00     0.058 A 
ATOM     78  C   UNL A   1      43.119  22.916  25.584  1.00  0.00     0.135 A 
ATOM     79  C   UNL A   1      43.109  22.492  27.949  1.00  0.00     0.135 A 
ATOM     80  F   UNL A   1      43.286  23.742  24.540  1.00  0.00    -0.206 F 
ATOM     81  C   UNL A   1      42.746  21.600  25.335  1.00  0.00     0.059 A 
ATOM     82  C   UNL A   1      42.759  21.165  27.724  1.00  0.00     0.059 A 
ATOM     83  F   UNL A   1      43.289  22.896  29.217  1.00  0.00    -0.206 F 
ATOM     84  C   UNL A   1      42.573  20.729  26.412  1.00  0.00     0.060 A 
BRANCH  84  85
ATOM     85  S   UNL A   1      42.154  19.006  26.075  1.00  0.00     0.124 S 
ATOM     86  O   UNL A   1      42.531  18.362  27.328  1.00  0.00    -0.237 OA
ATOM     87  O   UNL A   1      40.723  19.085  25.800  1.00  0.00    -0.237 OA
ATOM     88  O   UNL A   1      42.988  18.679  24.921  1.00  0.00    -0.744 OA
ENDBRANCH  84  85
ENDBRANCH  52  77
BRANCH  64  89
ATOM     89  C   UNL A   1      49.405  26.740  26.402  1.00  0.00     0.058 A 
ATOM     90  C   UNL A   1      50.246  26.112  27.333  1.00  0.00     0.135 A 
ATOM     91  C   UNL A   1      49.878  26.891  25.088  1.00  0.00     0.135 A 
ATOM     92  F   UNL A   1      49.843  25.949  28.604  1.00  0.00    -0.206 F 
ATOM     93  C   UNL A   1      51.518  25.672  26.982  1.00  0.00     0.059 A 
ATOM     94  C   UNL A   1      51.136  26.436  24.708  1.00  0.00     0.059 A 
ATOM     95  F   UNL A   1      49.109  27.476  24.155  1.00  0.00    -0.206 F 
ATOM     96  C   UNL A   1      51.955  25.838  25.666  1.00  0.00     0.060 A 
BRANCH  96  97
ATOM     97  S   UNL A   1      53.596  25.236  25.215  1.00  0.00     0.124 S 
ATOM     98  O   UNL A   1      54.435  25.902  26.205  1.00  0.00    -0.237 OA
ATOM     99  O   UNL A   1      53.455  23.792  25.370  1.00  0.00    -0.237 OA
ATOM    100  O   UNL A   1      53.760  25.699  23.839  1.00  0.00    -0.744 OA
ENDBRANCH  96  97
ENDBRANCH  64  89
ENDBRANCH  38  39
ENDBRANCH  30  33
ENDBRANCH  28  29
ENDBRANCH   1  28
TORSDOF 15
ENDMDL
