MODEL 1
REMARK VINA RESULT:     -13.3      0.000      0.000
REMARK SMILES COC(=O)c1ccc2c(c1)=N[C@H](c1cn(CCC(=O)NCCCNC(=O)c3ccc(-c4c5nc(c(-c6c(F)cc(S(=O)(=O)[O-])cc6F)c6ccc([nH]6)c(-c6c(F)cc(S(=O)(=O)[O-])cc6F)c6nc(c(-c7c(F)cc(S(=O)(=O)[O-])cc7F)c7ccc4[nH]7)C=C6)C=C5)cc3)c3ccccc13)N=2
REMARK SMILES IDX 21 1 20 2 18 3 19 4 17 6 16 7 15 8 13 9 14 10 98 11 93 12
REMARK SMILES IDX 97 13 94 14 96 15 95 16 12 17 5 18 6 19 10 20 7 21 9 22 8 23
REMARK SMILES IDX 11 24 99 25 3 26 4 27 2 28 1 29 22 30 23 31 24 32 25 33
REMARK SMILES IDX 26 35 27 36 28 37 92 38 29 39 91 40 30 41 31 42 32 43 85 44
REMARK SMILES IDX 33 45 90 46 84 47 86 48 34 49 89 50 83 51 82 52 35 54 69 55
REMARK SMILES IDX 48 56 68 57 49 58 52 59 67 60 87 61 50 62 51 63 66 65 88 66
REMARK SMILES IDX 53 67 36 68 37 69 46 70 38 71 39 72 45 73 47 74 40 75 41 76
REMARK SMILES IDX 42 77 43 78 44 79 70 80 71 81 80 82 72 83 73 84 79 85 81 86
REMARK SMILES IDX 74 87 75 88 76 89 77 90 78 91 54 92 55 93 64 94 56 95 57 96
REMARK SMILES IDX 63 97 65 98 58 99 59 100 60 101 61 102 62 103
REMARK H PARENT 20 5 24 34 86 53 52 64
REMARK Flexibility Score: inf
ROOT
ATOM      1  C   UNL A   1      36.729  19.812  24.704  1.00  0.00     0.117 C 
ENDROOT
BRANCH   1   2
ATOM      2  N   UNL A   1      35.535  19.013  24.993  1.00  0.00    -0.356 N 
ATOM      3  C   UNL A   1      34.200  19.166  24.724  1.00  0.00     0.221 C 
ATOM      4  O   UNL A   1      33.480  18.178  24.914  1.00  0.00    -0.275 OA
ATOM      5  H   UNL A   1      35.736  18.185  25.488  1.00  0.00     0.163 HD
BRANCH   3   6
ATOM      6  C   UNL A   1      33.593  20.437  24.153  1.00  0.00     0.122 C 
BRANCH   6   7
ATOM      7  C   UNL A   1      32.181  20.744  24.741  1.00  0.00     0.132 C 
BRANCH   7   8
ATOM      8  N   UNL A   1      32.136  21.874  25.688  1.00  0.00    -0.347 N 
ATOM      9  C   UNL A   1      31.387  23.893  25.199  1.00  0.00     0.024 A 
ATOM     10  C   UNL A   1      31.005  22.647  25.708  1.00  0.00     0.094 A 
ATOM     11  C   UNL A   1      32.791  23.742  24.873  1.00  0.00     0.007 A 
ATOM     12  C   UNL A   1      33.157  22.795  25.823  1.00  0.00     0.048 A 
ATOM     13  C   UNL A   1      33.864  24.496  24.389  1.00  0.00     0.011 A 
ATOM     14  C   UNL A   1      34.121  23.139  26.785  1.00  0.00     0.027 A 
ATOM     15  C   UNL A   1      34.975  24.734  25.187  1.00  0.00     0.001 A 
ATOM     16  C   UNL A   1      35.000  24.187  26.456  1.00  0.00     0.002 A 
BRANCH   9  17
ATOM     17  C   UNL A   1      30.438  25.053  25.285  1.00  0.00     0.255 C 
ATOM     18  C   UNL A   1      32.077  29.079  26.355  1.00  0.00     0.062 A 
ATOM     19  C   UNL A   1      31.405  29.408  25.105  1.00  0.00     0.018 A 
ATOM     20  C   UNL A   1      31.852  27.907  26.973  1.00  0.00     0.046 A 
ATOM     21  C   UNL A   1      30.750  28.508  24.359  1.00  0.00     0.031 A 
ATOM     22  C   UNL A   1      31.121  26.886  26.220  1.00  0.00     0.087 A 
ATOM     23  C   UNL A   1      30.770  27.124  24.811  1.00  0.00     0.086 A 
ATOM     24  N   UNL A   1      30.789  25.706  26.587  1.00  0.00    -0.252 NA
ATOM     25  N   UNL A   1      30.505  26.036  24.174  1.00  0.00    -0.252 NA
BRANCH  18  26
ATOM     26  C   UNL A   1      32.982  30.039  27.047  1.00  0.00     0.337 C 
ATOM     27  O   UNL A   1      32.755  31.251  27.146  1.00  0.00    -0.246 OA
BRANCH  26  28
ATOM     28  O   UNL A   1      34.047  29.403  27.586  1.00  0.00    -0.465 OA
ATOM     29  C   UNL A   1      35.267  30.152  27.617  1.00  0.00     0.282 C 
ENDBRANCH  26  28
ENDBRANCH  18  26
ENDBRANCH   9  17
ENDBRANCH   7   8
ENDBRANCH   6   7
ENDBRANCH   3   6
ENDBRANCH   1   2
BRANCH   1  30
ATOM     30  C   UNL A   1      36.606  21.360  24.678  1.00  0.00     0.042 C 
BRANCH  30  31
ATOM     31  C   UNL A   1      37.708  22.258  25.262  1.00  0.00     0.118 C 
BRANCH  31  32
ATOM     32  N   UNL A   1      38.963  21.656  25.657  1.00  0.00    -0.352 N 
ATOM     33  C   UNL A   1      39.750  21.972  26.745  1.00  0.00     0.251 C 
ATOM     34  H   UNL A   1      39.297  20.932  25.078  1.00  0.00     0.163 HD
ATOM     35  O   UNL A   1      40.301  21.057  27.359  1.00  0.00    -0.269 OA
BRANCH  33  36
ATOM     36  C   UNL A   1      40.145  23.365  27.064  1.00  0.00     0.039 A 
ATOM     37  C   UNL A   1      41.446  23.831  27.222  1.00  0.00     0.014 A 
ATOM     38  C   UNL A   1      39.089  24.287  27.105  1.00  0.00     0.014 A 
ATOM     39  C   UNL A   1      41.651  25.173  27.578  1.00  0.00     0.010 A 
ATOM     40  C   UNL A   1      39.304  25.616  27.471  1.00  0.00     0.010 A 
ATOM     41  C   UNL A   1      40.576  26.046  27.837  1.00  0.00    -0.014 A 
BRANCH  41  42
ATOM     42  C   UNL A   1      40.806  27.360  28.503  1.00  0.00     0.031 A 
ATOM     43  C   UNL A   1      41.945  28.180  27.992  1.00  0.00     0.074 A 
ATOM     44  C   UNL A   1      40.057  27.852  29.529  1.00  0.00     0.049 A 
ATOM     45  N   UNL A   1      42.958  28.603  28.680  1.00  0.00    -0.248 NA
ATOM     46  C   UNL A   1      42.039  28.491  26.558  1.00  0.00     0.031 C 
ATOM     47  C   UNL A   1      38.829  27.270  30.087  1.00  0.00     0.029 A 
ATOM     48  N   UNL A   1      40.164  29.022  30.253  1.00  0.00    -0.354 N 
ATOM     49  C   UNL A   1      43.720  29.395  27.823  1.00  0.00     0.074 A 
ATOM     50  C   UNL A   1      43.182  29.182  26.505  1.00  0.00     0.031 C 
ATOM     51  C   UNL A   1      38.170  28.193  30.819  1.00  0.00     0.029 A 
ATOM     52  C   UNL A   1      38.998  29.376  30.937  1.00  0.00     0.049 A 
ATOM     53  H   UNL A   1      40.988  29.560  30.284  1.00  0.00     0.167 HD
ATOM     54  C   UNL A   1      44.592  30.323  28.314  1.00  0.00     0.037 A 
ATOM     55  C   UNL A   1      38.699  30.539  31.574  1.00  0.00     0.037 A 
ATOM     56  C   UNL A   1      44.872  30.128  29.714  1.00  0.00     0.049 A 
ATOM     57  C   UNL A   1      39.962  31.149  32.029  1.00  0.00     0.074 A 
ATOM     58  C   UNL A   1      45.863  29.604  30.512  1.00  0.00     0.029 A 
ATOM     59  N   UNL A   1      43.833  30.437  30.540  1.00  0.00    -0.354 N 
ATOM     60  N   UNL A   1      40.699  30.641  32.977  1.00  0.00    -0.248 NA
ATOM     61  C   UNL A   1      40.577  32.209  31.236  1.00  0.00     0.031 C 
ATOM     62  C   UNL A   1      45.331  29.481  31.821  1.00  0.00     0.029 A 
ATOM     63  C   UNL A   1      44.080  30.072  31.832  1.00  0.00     0.049 A 
ATOM     64  H   UNL A   1      43.001  30.871  30.240  1.00  0.00     0.167 HD
ATOM     65  C   UNL A   1      41.973  31.001  32.616  1.00  0.00     0.074 A 
ATOM     66  C   UNL A   1      41.836  32.095  31.662  1.00  0.00     0.031 C 
ATOM     67  C   UNL A   1      43.017  30.150  32.795  1.00  0.00     0.037 A 
BRANCH  54  68
ATOM     68  C   UNL A   1      44.867  31.674  27.680  1.00  0.00     0.058 A 
ATOM     69  C   UNL A   1      46.084  31.884  26.994  1.00  0.00     0.135 A 
ATOM     70  C   UNL A   1      44.149  32.843  28.010  1.00  0.00     0.135 A 
ATOM     71  F   UNL A   1      46.839  30.844  26.602  1.00  0.00    -0.206 F 
ATOM     72  C   UNL A   1      46.595  33.158  26.745  1.00  0.00     0.059 A 
ATOM     73  C   UNL A   1      44.616  34.123  27.724  1.00  0.00     0.059 A 
ATOM     74  F   UNL A   1      43.011  32.805  28.714  1.00  0.00    -0.206 F 
ATOM     75  C   UNL A   1      45.860  34.273  27.133  1.00  0.00     0.060 A 
BRANCH  75  76
ATOM     76  S   UNL A   1      46.569  35.916  26.919  1.00  0.00     0.124 S 
ATOM     77  O   UNL A   1      47.637  35.910  27.913  1.00  0.00    -0.237 OA
ATOM     78  O   UNL A   1      46.993  35.877  25.523  1.00  0.00    -0.237 OA
ATOM     79  O   UNL A   1      45.447  36.805  27.203  1.00  0.00    -0.744 OA
ENDBRANCH  75  76
ENDBRANCH  54  68
BRANCH  55  80
ATOM     80  C   UNL A   1      37.415  31.296  31.630  1.00  0.00     0.058 A 
ATOM     81  C   UNL A   1      36.771  31.544  32.861  1.00  0.00     0.135 A 
ATOM     82  C   UNL A   1      36.977  32.067  30.539  1.00  0.00     0.135 A 
ATOM     83  F   UNL A   1      37.116  30.855  33.960  1.00  0.00    -0.206 F 
ATOM     84  C   UNL A   1      35.825  32.562  33.021  1.00  0.00     0.059 A 
ATOM     85  C   UNL A   1      36.026  33.079  30.671  1.00  0.00     0.059 A 
ATOM     86  F   UNL A   1      37.533  31.928  29.327  1.00  0.00    -0.206 F 
ATOM     87  C   UNL A   1      35.484  33.348  31.924  1.00  0.00     0.060 A 
BRANCH  87  88
ATOM     88  S   UNL A   1      34.432  34.799  32.167  1.00  0.00     0.124 S 
ATOM     89  O   UNL A   1      33.324  34.244  32.936  1.00  0.00    -0.237 OA
ATOM     90  O   UNL A   1      35.321  35.703  32.888  1.00  0.00    -0.237 OA
ATOM     91  O   UNL A   1      34.103  35.210  30.804  1.00  0.00    -0.744 OA
ENDBRANCH  87  88
ENDBRANCH  55  80
BRANCH  67  92
ATOM     92  C   UNL A   1      43.008  29.179  33.925  1.00  0.00     0.058 A 
ATOM     93  C   UNL A   1      43.374  29.472  35.247  1.00  0.00     0.135 A 
ATOM     94  C   UNL A   1      42.452  27.916  33.666  1.00  0.00     0.135 A 
ATOM     95  F   UNL A   1      43.852  30.680  35.581  1.00  0.00    -0.206 F 
ATOM     96  C   UNL A   1      43.187  28.539  36.270  1.00  0.00     0.059 A 
ATOM     97  C   UNL A   1      42.224  26.989  34.672  1.00  0.00     0.059 A 
ATOM     98  F   UNL A   1      42.054  27.599  32.422  1.00  0.00    -0.206 F 
ATOM     99  C   UNL A   1      42.598  27.307  35.973  1.00  0.00     0.060 A 
BRANCH  99 100
ATOM    100  S   UNL A   1      42.249  26.146  37.310  1.00  0.00     0.124 S 
ATOM    101  O   UNL A   1      40.842  26.410  37.584  1.00  0.00    -0.237 OA
ATOM    102  O   UNL A   1      42.545  24.857  36.691  1.00  0.00    -0.237 OA
ATOM    103  O   UNL A   1      43.178  26.550  38.363  1.00  0.00    -0.744 OA
ENDBRANCH  99 100
ENDBRANCH  67  92
ENDBRANCH  41  42
ENDBRANCH  33  36
ENDBRANCH  31  32
ENDBRANCH  30  31
ENDBRANCH   1  30
TORSDOF 18
ENDMDL
MODEL 2
REMARK VINA RESULT:     -13.1      2.044      3.233
REMARK SMILES COC(=O)c1ccc2c(c1)=N[C@H](c1cn(CCC(=O)NCCCNC(=O)c3ccc(-c4c5nc(c(-c6c(F)cc(S(=O)(=O)[O-])cc6F)c6ccc([nH]6)c(-c6c(F)cc(S(=O)(=O)[O-])cc6F)c6nc(c(-c7c(F)cc(S(=O)(=O)[O-])cc7F)c7ccc4[nH]7)C=C6)C=C5)cc3)c3ccccc13)N=2
REMARK SMILES IDX 21 1 20 2 18 3 19 4 17 6 16 7 15 8 13 9 14 10 98 11 93 12
REMARK SMILES IDX 97 13 94 14 96 15 95 16 12 17 5 18 6 19 10 20 7 21 9 22 8 23
REMARK SMILES IDX 11 24 99 25 3 26 4 27 2 28 1 29 22 30 23 31 24 32 25 33
REMARK SMILES IDX 26 35 27 36 28 37 92 38 29 39 91 40 30 41 31 42 32 43 85 44
REMARK SMILES IDX 33 45 90 46 84 47 86 48 34 49 89 50 83 51 82 52 35 54 69 55
REMARK SMILES IDX 48 56 68 57 49 58 52 59 67 60 87 61 50 62 51 63 66 65 88 66
REMARK SMILES IDX 53 67 36 68 37 69 46 70 38 71 39 72 45 73 47 74 40 75 41 76
REMARK SMILES IDX 42 77 43 78 44 79 70 80 71 81 80 82 72 83 73 84 79 85 81 86
REMARK SMILES IDX 74 87 75 88 76 89 77 90 78 91 54 92 55 93 64 94 56 95 57 96
REMARK SMILES IDX 63 97 65 98 58 99 59 100 60 101 61 102 62 103
REMARK H PARENT 20 5 24 34 86 53 52 64
REMARK Flexibility Score: inf
ROOT
ATOM      1  C   UNL A   1      39.318  22.602  26.527  1.00  0.00     0.117 C 
ENDROOT
BRANCH   1   2
ATOM      2  N   UNL A   1      38.608  22.112  25.341  1.00  0.00    -0.356 N 
ATOM      3  C   UNL A   1      37.299  22.135  24.939  1.00  0.00     0.221 C 
ATOM      4  O   UNL A   1      37.075  21.829  23.762  1.00  0.00    -0.275 OA
ATOM      5  H   UNL A   1      39.203  21.668  24.693  1.00  0.00     0.163 HD
BRANCH   3   6
ATOM      6  C   UNL A   1      36.149  22.577  25.829  1.00  0.00     0.122 C 
BRANCH   6   7
ATOM      7  C   UNL A   1      35.971  24.127  25.853  1.00  0.00     0.132 C 
BRANCH   7   8
ATOM      8  N   UNL A   1      34.864  24.638  25.022  1.00  0.00    -0.347 N 
ATOM      9  C   UNL A   1      32.748  24.697  25.648  1.00  0.00     0.024 A 
ATOM     10  C   UNL A   1      33.931  25.442  25.623  1.00  0.00     0.094 A 
ATOM     11  C   UNL A   1      33.101  23.425  25.049  1.00  0.00     0.007 A 
ATOM     12  C   UNL A   1      34.109  23.839  24.186  1.00  0.00     0.048 A 
ATOM     13  C   UNL A   1      32.507  22.215  24.680  1.00  0.00     0.011 A 
ATOM     14  C   UNL A   1      33.931  23.664  22.804  1.00  0.00     0.027 A 
ATOM     15  C   UNL A   1      32.452  21.835  23.346  1.00  0.00     0.001 A 
ATOM     16  C   UNL A   1      33.020  22.669  22.402  1.00  0.00     0.002 A 
BRANCH   9  17
ATOM     17  C   UNL A   1      31.460  25.361  26.043  1.00  0.00     0.255 C 
ATOM     18  C   UNL A   1      29.704  28.424  23.292  1.00  0.00     0.062 A 
ATOM     19  C   UNL A   1      28.567  27.520  23.417  1.00  0.00     0.018 A 
ATOM     20  C   UNL A   1      30.757  28.328  24.121  1.00  0.00     0.046 A 
ATOM     21  C   UNL A   1      28.592  26.399  24.149  1.00  0.00     0.031 A 
ATOM     22  C   UNL A   1      30.834  27.135  24.966  1.00  0.00     0.087 A 
ATOM     23  C   UNL A   1      29.848  26.055  24.802  1.00  0.00     0.086 A 
ATOM     24  N   UNL A   1      31.728  26.818  25.825  1.00  0.00    -0.252 NA
ATOM     25  N   UNL A   1      30.250  24.935  25.296  1.00  0.00    -0.252 NA
BRANCH  18  26
ATOM     26  C   UNL A   1      29.729  29.537  22.303  1.00  0.00     0.337 C 
ATOM     27  O   UNL A   1      30.648  29.723  21.496  1.00  0.00    -0.246 OA
BRANCH  26  28
ATOM     28  O   UNL A   1      28.600  30.280  22.376  1.00  0.00    -0.465 OA
ATOM     29  C   UNL A   1      28.047  30.694  21.122  1.00  0.00     0.282 C 
ENDBRANCH  26  28
ENDBRANCH  18  26
ENDBRANCH   9  17
ENDBRANCH   7   8
ENDBRANCH   6   7
ENDBRANCH   3   6
ENDBRANCH   1   2
BRANCH   1  30
ATOM     30  C   UNL A   1      40.361  21.677  27.210  1.00  0.00     0.042 C 
BRANCH  30  31
ATOM     31  C   UNL A   1      41.811  21.602  26.706  1.00  0.00     0.118 C 
BRANCH  31  32
ATOM     32  N   UNL A   1      42.131  22.162  25.410  1.00  0.00    -0.352 N 
ATOM     33  C   UNL A   1      43.026  23.170  25.119  1.00  0.00     0.251 C 
ATOM     34  H   UNL A   1      41.649  21.777  24.642  1.00  0.00     0.163 HD
ATOM     35  O   UNL A   1      43.711  23.073  24.100  1.00  0.00    -0.269 OA
BRANCH  33  36
ATOM     36  C   UNL A   1      43.035  24.462  25.847  1.00  0.00     0.039 A 
ATOM     37  C   UNL A   1      43.803  24.765  26.965  1.00  0.00     0.014 A 
ATOM     38  C   UNL A   1      42.261  25.477  25.265  1.00  0.00     0.014 A 
ATOM     39  C   UNL A   1      43.656  26.022  27.573  1.00  0.00     0.010 A 
ATOM     40  C   UNL A   1      42.114  26.717  25.885  1.00  0.00     0.010 A 
ATOM     41  C   UNL A   1      42.711  26.962  27.118  1.00  0.00    -0.014 A 
BRANCH  41  42
ATOM     42  C   UNL A   1      42.357  28.148  27.947  1.00  0.00     0.031 A 
ATOM     43  C   UNL A   1      43.383  29.229  28.046  1.00  0.00     0.074 A 
ATOM     44  C   UNL A   1      41.177  28.308  28.610  1.00  0.00     0.049 A 
ATOM     45  N   UNL A   1      43.924  29.680  29.133  1.00  0.00    -0.248 NA
ATOM     46  C   UNL A   1      43.952  29.812  26.822  1.00  0.00     0.031 C 
ATOM     47  C   UNL A   1      39.998  27.434  28.542  1.00  0.00     0.029 A 
ATOM     48  N   UNL A   1      40.724  29.325  29.426  1.00  0.00    -0.354 N 
ATOM     49  C   UNL A   1      44.754  30.735  28.758  1.00  0.00     0.074 A 
ATOM     50  C   UNL A   1      44.835  30.683  27.321  1.00  0.00     0.031 C 
ATOM     51  C   UNL A   1      38.914  28.082  29.020  1.00  0.00     0.029 A 
ATOM     52  C   UNL A   1      39.336  29.345  29.591  1.00  0.00     0.049 A 
ATOM     53  H   UNL A   1      41.324  29.978  29.853  1.00  0.00     0.167 HD
ATOM     54  C   UNL A   1      45.130  31.688  29.660  1.00  0.00     0.037 A 
ATOM     55  C   UNL A   1      38.555  30.301  30.159  1.00  0.00     0.037 A 
ATOM     56  C   UNL A   1      44.881  31.286  31.021  1.00  0.00     0.049 A 
ATOM     57  C   UNL A   1      39.365  31.019  31.160  1.00  0.00     0.074 A 
ATOM     58  C   UNL A   1      45.577  30.796  32.103  1.00  0.00     0.029 A 
ATOM     59  N   UNL A   1      43.562  31.257  31.363  1.00  0.00    -0.354 N 
ATOM     60  N   UNL A   1      39.772  30.475  32.272  1.00  0.00    -0.248 NA
ATOM     61  C   UNL A   1      39.980  32.296  30.808  1.00  0.00     0.031 C 
ATOM     62  C   UNL A   1      44.622  30.345  33.049  1.00  0.00     0.029 A 
ATOM     63  C   UNL A   1      43.366  30.705  32.596  1.00  0.00     0.049 A 
ATOM     64  H   UNL A   1      42.837  31.594  30.788  1.00  0.00     0.167 HD
ATOM     65  C   UNL A   1      40.968  31.104  32.516  1.00  0.00     0.074 A 
ATOM     66  C   UNL A   1      40.964  32.317  31.707  1.00  0.00     0.031 C 
ATOM     67  C   UNL A   1      42.025  30.423  33.028  1.00  0.00     0.037 A 
BRANCH  54  68
ATOM     68  C   UNL A   1      45.311  33.159  29.338  1.00  0.00     0.058 A 
ATOM     69  C   UNL A   1      44.254  33.873  28.730  1.00  0.00     0.135 A 
ATOM     70  C   UNL A   1      46.573  33.791  29.290  1.00  0.00     0.135 A 
ATOM     71  F   UNL A   1      43.002  33.385  28.739  1.00  0.00    -0.206 F 
ATOM     72  C   UNL A   1      44.454  35.070  28.042  1.00  0.00     0.059 A 
ATOM     73  C   UNL A   1      46.785  35.011  28.654  1.00  0.00     0.059 A 
ATOM     74  F   UNL A   1      47.678  33.208  29.769  1.00  0.00    -0.206 F 
ATOM     75  C   UNL A   1      45.730  35.621  27.994  1.00  0.00     0.060 A 
BRANCH  75  76
ATOM     76  S   UNL A   1      46.015  37.104  27.009  1.00  0.00     0.124 S 
ATOM     77  O   UNL A   1      44.666  37.647  26.895  1.00  0.00    -0.237 OA
ATOM     78  O   UNL A   1      46.937  37.852  27.858  1.00  0.00    -0.237 OA
ATOM     79  O   UNL A   1      46.592  36.581  25.775  1.00  0.00    -0.744 OA
ENDBRANCH  75  76
ENDBRANCH  54  68
BRANCH  55  80
ATOM     80  C   UNL A   1      37.213  30.808  29.749  1.00  0.00     0.058 A 
ATOM     81  C   UNL A   1      36.337  31.389  30.690  1.00  0.00     0.135 A 
ATOM     82  C   UNL A   1      36.905  31.037  28.396  1.00  0.00     0.135 A 
ATOM     83  F   UNL A   1      36.545  31.223  32.005  1.00  0.00    -0.206 F 
ATOM     84  C   UNL A   1      35.283  32.227  30.315  1.00  0.00     0.059 A 
ATOM     85  C   UNL A   1      35.851  31.859  27.997  1.00  0.00     0.059 A 
ATOM     86  F   UNL A   1      37.681  30.549  27.418  1.00  0.00    -0.206 F 
ATOM     87  C   UNL A   1      35.068  32.483  28.963  1.00  0.00     0.060 A 
BRANCH  87  88
ATOM     88  S   UNL A   1      33.852  33.732  28.481  1.00  0.00     0.124 S 
ATOM     89  O   UNL A   1      32.903  32.946  27.700  1.00  0.00    -0.237 OA
ATOM     90  O   UNL A   1      33.375  34.209  29.774  1.00  0.00    -0.237 OA
ATOM     91  O   UNL A   1      34.642  34.696  27.717  1.00  0.00    -0.744 OA
ENDBRANCH  87  88
ENDBRANCH  55  80
BRANCH  67  92
ATOM     92  C   UNL A   1      41.801  29.271  33.947  1.00  0.00     0.058 A 
ATOM     93  C   UNL A   1      41.783  27.922  33.566  1.00  0.00     0.135 A 
ATOM     94  C   UNL A   1      41.749  29.563  35.320  1.00  0.00     0.135 A 
ATOM     95  F   UNL A   1      41.893  27.565  32.278  1.00  0.00    -0.206 F 
ATOM     96  C   UNL A   1      41.719  26.904  34.521  1.00  0.00     0.059 A 
ATOM     97  C   UNL A   1      41.723  28.568  36.286  1.00  0.00     0.059 A 
ATOM     98  F   UNL A   1      41.798  30.839  35.739  1.00  0.00    -0.206 F 
ATOM     99  C   UNL A   1      41.704  27.239  35.878  1.00  0.00     0.060 A 
BRANCH  99 100
ATOM    100  S   UNL A   1      41.738  25.925  37.115  1.00  0.00     0.124 S 
ATOM    101  O   UNL A   1      40.387  25.985  37.660  1.00  0.00    -0.237 OA
ATOM    102  O   UNL A   1      42.048  24.746  36.312  1.00  0.00    -0.237 OA
ATOM    103  O   UNL A   1      42.800  26.344  38.028  1.00  0.00    -0.744 OA
ENDBRANCH  99 100
ENDBRANCH  67  92
ENDBRANCH  41  42
ENDBRANCH  33  36
ENDBRANCH  31  32
ENDBRANCH  30  31
ENDBRANCH   1  30
TORSDOF 18
ENDMDL
MODEL 3
REMARK VINA RESULT:     -13.1      2.206      3.538
REMARK SMILES COC(=O)c1ccc2c(c1)=N[C@H](c1cn(CCC(=O)NCCCNC(=O)c3ccc(-c4c5nc(c(-c6c(F)cc(S(=O)(=O)[O-])cc6F)c6ccc([nH]6)c(-c6c(F)cc(S(=O)(=O)[O-])cc6F)c6nc(c(-c7c(F)cc(S(=O)(=O)[O-])cc7F)c7ccc4[nH]7)C=C6)C=C5)cc3)c3ccccc13)N=2
REMARK SMILES IDX 21 1 20 2 18 3 19 4 17 6 16 7 15 8 13 9 14 10 98 11 93 12
REMARK SMILES IDX 97 13 94 14 96 15 95 16 12 17 5 18 6 19 10 20 7 21 9 22 8 23
REMARK SMILES IDX 11 24 99 25 3 26 4 27 2 28 1 29 22 30 23 31 24 32 25 33
REMARK SMILES IDX 26 35 27 36 28 37 92 38 29 39 91 40 30 41 31 42 32 43 85 44
REMARK SMILES IDX 33 45 90 46 84 47 86 48 34 49 89 50 83 51 82 52 35 54 69 55
REMARK SMILES IDX 48 56 68 57 49 58 52 59 67 60 87 61 50 62 51 63 66 65 88 66
REMARK SMILES IDX 53 67 36 68 37 69 46 70 38 71 39 72 45 73 47 74 40 75 41 76
REMARK SMILES IDX 42 77 43 78 44 79 70 80 71 81 80 82 72 83 73 84 79 85 81 86
REMARK SMILES IDX 74 87 75 88 76 89 77 90 78 91 54 92 55 93 64 94 56 95 57 96
REMARK SMILES IDX 63 97 65 98 58 99 59 100 60 101 61 102 62 103
REMARK H PARENT 20 5 24 34 86 53 52 64
REMARK Flexibility Score: inf
ROOT
ATOM      1  C   UNL A   1      40.976  20.079  27.214  1.00  0.00     0.117 C 
ENDROOT
BRANCH   1   2
ATOM      2  N   UNL A   1      40.481  21.453  27.093  1.00  0.00    -0.356 N 
ATOM      3  C   UNL A   1      39.422  22.029  26.443  1.00  0.00     0.221 C 
ATOM      4  O   UNL A   1      39.159  23.201  26.740  1.00  0.00    -0.275 OA
ATOM      5  H   UNL A   1      41.030  22.105  27.587  1.00  0.00     0.163 HD
BRANCH   3   6
ATOM      6  C   UNL A   1      38.535  21.292  25.453  1.00  0.00     0.122 C 
BRANCH   6   7
ATOM      7  C   UNL A   1      37.017  21.445  25.778  1.00  0.00     0.132 C 
BRANCH   7   8
ATOM      8  N   UNL A   1      36.107  21.088  24.673  1.00  0.00    -0.347 N 
ATOM      9  C   UNL A   1      34.189  22.098  24.251  1.00  0.00     0.024 A 
ATOM     10  C   UNL A   1      35.554  22.109  23.945  1.00  0.00     0.094 A 
ATOM     11  C   UNL A   1      34.037  21.026  25.215  1.00  0.00     0.007 A 
ATOM     12  C   UNL A   1      35.068  20.187  24.805  1.00  0.00     0.048 A 
ATOM     13  C   UNL A   1      33.035  20.373  25.939  1.00  0.00     0.011 A 
ATOM     14  C   UNL A   1      34.749  18.899  24.346  1.00  0.00     0.027 A 
ATOM     15  C   UNL A   1      32.764  19.030  25.713  1.00  0.00     0.001 A 
ATOM     16  C   UNL A   1      33.525  18.356  24.777  1.00  0.00     0.002 A 
BRANCH   9  17
ATOM     17  C   UNL A   1      33.242  22.950  23.456  1.00  0.00     0.255 C 
ATOM     18  C   UNL A   1      33.235  27.370  24.163  1.00  0.00     0.062 A 
ATOM     19  C   UNL A   1      33.461  27.348  22.724  1.00  0.00     0.018 A 
ATOM     20  C   UNL A   1      32.844  26.262  24.818  1.00  0.00     0.046 A 
ATOM     21  C   UNL A   1      33.561  26.220  22.009  1.00  0.00     0.031 A 
ATOM     22  C   UNL A   1      32.908  24.997  24.085  1.00  0.00     0.087 A 
ATOM     23  C   UNL A   1      33.493  24.960  22.736  1.00  0.00     0.086 A 
ATOM     24  N   UNL A   1      32.596  23.823  24.486  1.00  0.00    -0.252 NA
ATOM     25  N   UNL A   1      33.850  23.774  22.381  1.00  0.00    -0.252 NA
BRANCH  18  26
ATOM     26  C   UNL A   1      33.349  28.619  24.967  1.00  0.00     0.337 C 
ATOM     27  O   UNL A   1      34.152  28.770  25.895  1.00  0.00    -0.246 OA
BRANCH  26  28
ATOM     28  O   UNL A   1      32.497  29.567  24.517  1.00  0.00    -0.465 OA
ATOM     29  C   UNL A   1      31.547  30.053  25.472  1.00  0.00     0.282 C 
ENDBRANCH  26  28
ENDBRANCH  18  26
ENDBRANCH   9  17
ENDBRANCH   7   8
ENDBRANCH   6   7
ENDBRANCH   3   6
ENDBRANCH   1   2
BRANCH   1  30
ATOM     30  C   UNL A   1      41.571  19.384  25.958  1.00  0.00     0.042 C 
BRANCH  30  31
ATOM     31  C   UNL A   1      43.072  19.074  25.855  1.00  0.00     0.118 C 
BRANCH  31  32
ATOM     32  N   UNL A   1      43.861  19.760  24.855  1.00  0.00    -0.352 N 
ATOM     33  C   UNL A   1      44.598  20.918  25.002  1.00  0.00     0.251 C 
ATOM     34  H   UNL A   1      43.873  19.352  23.958  1.00  0.00     0.163 HD
ATOM     35  O   UNL A   1      45.687  20.998  24.433  1.00  0.00    -0.269 OA
BRANCH  33  36
ATOM     36  C   UNL A   1      44.039  22.144  25.620  1.00  0.00     0.039 A 
ATOM     37  C   UNL A   1      43.045  22.951  25.079  1.00  0.00     0.014 A 
ATOM     38  C   UNL A   1      44.510  22.427  26.910  1.00  0.00     0.014 A 
ATOM     39  C   UNL A   1      42.661  24.114  25.766  1.00  0.00     0.010 A 
ATOM     40  C   UNL A   1      44.130  23.591  27.577  1.00  0.00     0.010 A 
ATOM     41  C   UNL A   1      43.296  24.516  26.957  1.00  0.00    -0.014 A 
BRANCH  41  42
ATOM     42  C   UNL A   1      43.093  25.889  27.502  1.00  0.00     0.031 A 
ATOM     43  C   UNL A   1      44.157  26.893  27.202  1.00  0.00     0.074 A 
ATOM     44  C   UNL A   1      42.018  26.280  28.243  1.00  0.00     0.049 A 
ATOM     45  N   UNL A   1      44.852  27.560  28.068  1.00  0.00    -0.248 NA
ATOM     46  C   UNL A   1      44.576  27.124  25.812  1.00  0.00     0.031 C 
ATOM     47  C   UNL A   1      40.814  25.493  28.538  1.00  0.00     0.029 A 
ATOM     48  N   UNL A   1      41.711  27.491  28.829  1.00  0.00    -0.354 N 
ATOM     49  C   UNL A   1      45.658  28.437  27.344  1.00  0.00     0.074 A 
ATOM     50  C   UNL A   1      45.544  28.033  25.967  1.00  0.00     0.031 C 
ATOM     51  C   UNL A   1      39.824  26.304  28.969  1.00  0.00     0.029 A 
ATOM     52  C   UNL A   1      40.359  27.639  29.152  1.00  0.00     0.049 A 
ATOM     53  H   UNL A   1      42.383  28.188  29.003  1.00  0.00     0.167 HD
ATOM     54  C   UNL A   1      46.181  29.554  27.927  1.00  0.00     0.037 A 
ATOM     55  C   UNL A   1      39.691  28.753  29.554  1.00  0.00     0.037 A 
ATOM     56  C   UNL A   1      46.104  29.512  29.365  1.00  0.00     0.049 A 
ATOM     57  C   UNL A   1      40.651  29.639  30.237  1.00  0.00     0.074 A 
ATOM     58  C   UNL A   1      46.923  29.256  30.442  1.00  0.00     0.029 A 
ATOM     59  N   UNL A   1      44.843  29.651  29.862  1.00  0.00    -0.354 N 
ATOM     60  N   UNL A   1      41.186  29.356  31.393  1.00  0.00    -0.248 NA
ATOM     61  C   UNL A   1      41.253  30.750  29.506  1.00  0.00     0.031 C 
ATOM     62  C   UNL A   1      46.089  29.110  31.580  1.00  0.00     0.029 A 
ATOM     63  C   UNL A   1      44.796  29.428  31.208  1.00  0.00     0.049 A 
ATOM     64  H   UNL A   1      44.058  29.883  29.314  1.00  0.00     0.167 HD
ATOM     65  C   UNL A   1      42.422  29.948  31.324  1.00  0.00     0.074 A 
ATOM     66  C   UNL A   1      42.349  30.927  30.245  1.00  0.00     0.031 C 
ATOM     67  C   UNL A   1      43.517  29.346  31.857  1.00  0.00     0.037 A 
BRANCH  54  68
ATOM     68  C   UNL A   1      46.364  30.889  27.230  1.00  0.00     0.058 A 
ATOM     69  C   UNL A   1      47.640  31.496  27.217  1.00  0.00     0.135 A 
ATOM     70  C   UNL A   1      45.288  31.735  26.884  1.00  0.00     0.135 A 
ATOM     71  F   UNL A   1      48.742  30.783  27.500  1.00  0.00    -0.206 F 
ATOM     72  C   UNL A   1      47.820  32.859  26.977  1.00  0.00     0.059 A 
ATOM     73  C   UNL A   1      45.452  33.086  26.590  1.00  0.00     0.059 A 
ATOM     74  F   UNL A   1      44.017  31.317  26.912  1.00  0.00    -0.206 F 
ATOM     75  C   UNL A   1      46.715  33.650  26.682  1.00  0.00     0.060 A 
BRANCH  75  76
ATOM     76  S   UNL A   1      46.929  35.429  26.487  1.00  0.00     0.124 S 
ATOM     77  O   UNL A   1      45.552  35.873  26.297  1.00  0.00    -0.237 OA
ATOM     78  O   UNL A   1      47.549  35.795  27.756  1.00  0.00    -0.237 OA
ATOM     79  O   UNL A   1      47.794  35.536  25.318  1.00  0.00    -0.744 OA
ENDBRANCH  75  76
ENDBRANCH  54  68
BRANCH  55  80
ATOM     80  C   UNL A   1      38.324  29.228  29.197  1.00  0.00     0.058 A 
ATOM     81  C   UNL A   1      37.365  29.501  30.197  1.00  0.00     0.135 A 
ATOM     82  C   UNL A   1      38.042  29.739  27.917  1.00  0.00     0.135 A 
ATOM     83  F   UNL A   1      37.543  29.052  31.449  1.00  0.00    -0.206 F 
ATOM     84  C   UNL A   1      36.251  30.314  29.966  1.00  0.00     0.059 A 
ATOM     85  C   UNL A   1      36.931  30.542  27.660  1.00  0.00     0.059 A 
ATOM     86  F   UNL A   1      38.894  29.557  26.898  1.00  0.00    -0.206 F 
ATOM     87  C   UNL A   1      36.061  30.859  28.699  1.00  0.00     0.060 A 
BRANCH  87  88
ATOM     88  S   UNL A   1      34.752  32.081  28.448  1.00  0.00     0.124 S 
ATOM     89  O   UNL A   1      33.725  31.292  27.776  1.00  0.00    -0.237 OA
ATOM     90  O   UNL A   1      34.450  32.490  29.815  1.00  0.00    -0.237 OA
ATOM     91  O   UNL A   1      35.395  33.101  27.623  1.00  0.00    -0.744 OA
ENDBRANCH  87  88
ENDBRANCH  55  80
BRANCH  67  92
ATOM     92  C   UNL A   1      43.381  28.469  33.054  1.00  0.00     0.058 A 
ATOM     93  C   UNL A   1      43.150  28.915  34.363  1.00  0.00     0.135 A 
ATOM     94  C   UNL A   1      43.340  27.084  32.819  1.00  0.00     0.135 A 
ATOM     95  F   UNL A   1      43.111  30.224  34.651  1.00  0.00    -0.206 F 
ATOM     96  C   UNL A   1      42.884  28.012  35.396  1.00  0.00     0.059 A 
ATOM     97  C   UNL A   1      43.043  26.174  33.821  1.00  0.00     0.059 A 
ATOM     98  F   UNL A   1      43.523  26.608  31.575  1.00  0.00    -0.206 F 
ATOM     99  C   UNL A   1      42.819  26.645  35.110  1.00  0.00     0.060 A 
BRANCH  99 100
ATOM    100  S   UNL A   1      42.362  25.487  36.417  1.00  0.00     0.124 S 
ATOM    101  O   UNL A   1      41.080  26.020  36.862  1.00  0.00    -0.237 OA
ATOM    102  O   UNL A   1      42.308  24.215  35.703  1.00  0.00    -0.237 OA
ATOM    103  O   UNL A   1      43.457  25.608  37.377  1.00  0.00    -0.744 OA
ENDBRANCH  99 100
ENDBRANCH  67  92
ENDBRANCH  41  42
ENDBRANCH  33  36
ENDBRANCH  31  32
ENDBRANCH  30  31
ENDBRANCH   1  30
TORSDOF 18
ENDMDL
