MODEL 1
REMARK VINA RESULT:     -13.2      0.000      0.000
REMARK SMILES COC(=O)c1ccc(C)c(NC(=O)[C@H]2CC=CC[C@H]2C(=O)NCCCNC(=O)c2ccc(-c3c4nc(c(-c5c(F)cc(S(=O)(=O)[O-])cc5F)c5ccc([nH]5)c(-c5c(F)cc(S(=O)(=O)[O-])cc5F)c5nc(c(-c6c(F)cc(S(=O)(=O)[O-])cc6F)c6ccc3[nH]6)C=C5)C=C4)cc2)c1
REMARK SMILES IDX 23 1 22 2 20 3 21 4 19 6 14 7 15 8 16 9 18 10 17 11 12 12
REMARK SMILES IDX 11 13 13 15 10 16 5 17 6 18 95 19 7 20 8 21 9 22 3 23 4 24
REMARK SMILES IDX 2 25 1 26 24 27 25 28 26 29 27 30 28 32 29 33 30 34 94 35
REMARK SMILES IDX 31 36 93 37 32 38 33 39 34 40 87 41 35 42 92 43 86 44 88 45
REMARK SMILES IDX 36 46 91 47 85 48 84 49 37 51 71 52 50 53 70 54 51 55 54 56
REMARK SMILES IDX 69 57 89 58 52 59 53 60 68 62 90 63 55 64 38 65 39 66 48 67
REMARK SMILES IDX 40 68 41 69 47 70 49 71 42 72 43 73 44 74 45 75 46 76 72 77
REMARK SMILES IDX 73 78 82 79 74 80 75 81 81 82 83 83 76 84 77 85 78 86 79 87
REMARK SMILES IDX 80 88 56 89 57 90 66 91 58 92 59 93 65 94 67 95 60 96 61 97
REMARK SMILES IDX 62 98 63 99 64 100
REMARK H PARENT 22 5 11 14 26 31 88 50 54 61
REMARK Flexibility Score: inf
ROOT
ATOM      1  C   UNL A   1      35.785  20.974  25.143  1.00  0.00     0.117 C 
ENDROOT
BRANCH   1   2
ATOM      2  N   UNL A   1      35.248  21.616  26.338  1.00  0.00    -0.356 N 
ATOM      3  C   UNL A   1      34.173  22.399  26.583  1.00  0.00     0.224 C 
ATOM      4  O   UNL A   1      34.113  22.896  27.717  1.00  0.00    -0.275 OA
ATOM      5  H   UNL A   1      35.787  21.439  27.142  1.00  0.00     0.163 HD
BRANCH   3   6
ATOM      6  C   UNL A   1      33.066  22.749  25.588  1.00  0.00     0.095 C 
ATOM      7  C   UNL A   1      32.817  24.266  25.439  1.00  0.00     0.095 C 
ATOM      8  C   UNL A   1      31.526  24.523  24.638  1.00  0.00     0.041 C 
ATOM      9  C   UNL A   1      31.338  23.609  23.458  1.00  0.00    -0.030 C 
ATOM     10  C   UNL A   1      32.973  21.911  24.313  1.00  0.00     0.041 C 
ATOM     11  C   UNL A   1      31.991  22.448  23.312  1.00  0.00    -0.030 C 
BRANCH   7  12
ATOM     12  C   UNL A   1      33.910  25.022  24.749  1.00  0.00     0.228 C 
ATOM     13  N   UNL A   1      33.995  26.368  24.642  1.00  0.00    -0.326 N 
ATOM     14  H   UNL A   1      34.886  26.592  24.287  1.00  0.00     0.169 HD
ATOM     15  O   UNL A   1      34.795  24.399  24.150  1.00  0.00    -0.274 OA
BRANCH  13  16
ATOM     16  C   UNL A   1      33.285  27.577  24.847  1.00  0.00     0.044 A 
ATOM     17  C   UNL A   1      31.363  28.792  23.845  1.00  0.00     0.062 A 
ATOM     18  C   UNL A   1      31.347  29.680  24.904  1.00  0.00     0.016 A 
ATOM     19  C   UNL A   1      32.332  27.776  23.822  1.00  0.00     0.042 A 
ATOM     20  C   UNL A   1      32.317  29.555  25.896  1.00  0.00     0.006 A 
ATOM     21  C   UNL A   1      33.298  28.521  25.888  1.00  0.00    -0.027 A 
ATOM     22  C   UNL A   1      34.265  28.597  27.026  1.00  0.00     0.046 C 
BRANCH  17  23
ATOM     23  C   UNL A   1      30.262  28.815  22.848  1.00  0.00     0.337 C 
ATOM     24  O   UNL A   1      30.158  28.032  21.919  1.00  0.00    -0.246 OA
BRANCH  23  25
ATOM     25  O   UNL A   1      29.518  29.926  23.056  1.00  0.00    -0.465 OA
ATOM     26  C   UNL A   1      29.107  30.614  21.878  1.00  0.00     0.282 C 
ENDBRANCH  23  25
ENDBRANCH  17  23
ENDBRANCH  13  16
ENDBRANCH   7  12
ENDBRANCH   3   6
ENDBRANCH   1   2
BRANCH   1  27
ATOM     27  C   UNL A   1      37.046  21.671  24.652  1.00  0.00     0.042 C 
BRANCH  27  28
ATOM     28  C   UNL A   1      37.607  22.700  25.619  1.00  0.00     0.118 C 
BRANCH  28  29
ATOM     29  N   UNL A   1      38.811  22.183  26.273  1.00  0.00    -0.352 N 
ATOM     30  C   UNL A   1      39.851  22.878  26.863  1.00  0.00     0.251 C 
ATOM     31  H   UNL A   1      38.891  21.201  26.297  1.00  0.00     0.163 HD
ATOM     32  O   UNL A   1      40.877  22.352  27.236  1.00  0.00    -0.269 OA
BRANCH  30  33
ATOM     33  C   UNL A   1      39.599  24.311  27.093  1.00  0.00     0.039 A 
ATOM     34  C   UNL A   1      40.238  25.191  26.214  1.00  0.00     0.014 A 
ATOM     35  C   UNL A   1      39.160  24.707  28.352  1.00  0.00     0.014 A 
ATOM     36  C   UNL A   1      40.643  26.432  26.681  1.00  0.00     0.010 A 
ATOM     37  C   UNL A   1      39.632  25.911  28.836  1.00  0.00     0.010 A 
ATOM     38  C   UNL A   1      40.431  26.737  28.021  1.00  0.00    -0.014 A 
BRANCH  38  39
ATOM     39  C   UNL A   1      41.066  27.859  28.698  1.00  0.00     0.031 A 
ATOM     40  C   UNL A   1      40.263  29.067  28.982  1.00  0.00     0.074 A 
ATOM     41  C   UNL A   1      42.338  27.762  29.151  1.00  0.00     0.049 A 
ATOM     42  N   UNL A   1      40.750  30.171  29.430  1.00  0.00    -0.248 NA
ATOM     43  C   UNL A   1      38.831  29.153  28.691  1.00  0.00     0.031 C 
ATOM     44  C   UNL A   1      42.971  28.588  30.176  1.00  0.00     0.029 A 
ATOM     45  N   UNL A   1      43.394  27.027  28.600  1.00  0.00    -0.354 N 
ATOM     46  C   UNL A   1      39.696  30.981  29.770  1.00  0.00     0.074 A 
ATOM     47  C   UNL A   1      38.543  30.367  29.169  1.00  0.00     0.031 C 
ATOM     48  C   UNL A   1      44.302  28.517  30.039  1.00  0.00     0.029 A 
ATOM     49  C   UNL A   1      44.571  27.774  28.822  1.00  0.00     0.049 A 
ATOM     50  H   UNL A   1      43.330  26.157  28.145  1.00  0.00     0.167 HD
ATOM     51  C   UNL A   1      39.918  31.998  30.646  1.00  0.00     0.037 A 
ATOM     52  C   UNL A   1      45.324  28.251  27.786  1.00  0.00     0.037 A 
ATOM     53  C   UNL A   1      41.350  32.294  30.727  1.00  0.00     0.049 A 
ATOM     54  C   UNL A   1      45.438  29.758  27.743  1.00  0.00     0.074 A 
ATOM     55  C   UNL A   1      42.329  32.064  31.675  1.00  0.00     0.029 A 
ATOM     56  N   UNL A   1      42.011  32.691  29.566  1.00  0.00    -0.354 N 
ATOM     57  N   UNL A   1      44.663  30.571  28.408  1.00  0.00    -0.248 NA
ATOM     58  C   UNL A   1      46.428  30.473  26.942  1.00  0.00     0.031 C 
ATOM     59  C   UNL A   1      43.594  32.219  31.038  1.00  0.00     0.029 A 
ATOM     60  C   UNL A   1      43.380  32.594  29.722  1.00  0.00     0.049 A 
ATOM     61  H   UNL A   1      41.564  33.000  28.746  1.00  0.00     0.167 HD
ATOM     62  C   UNL A   1      44.985  31.870  28.113  1.00  0.00     0.074 A 
ATOM     63  C   UNL A   1      46.122  31.755  27.217  1.00  0.00     0.031 C 
ATOM     64  C   UNL A   1      44.275  32.926  28.617  1.00  0.00     0.037 A 
BRANCH  51  65
ATOM     65  C   UNL A   1      38.871  32.587  31.575  1.00  0.00     0.058 A 
ATOM     66  C   UNL A   1      38.274  31.783  32.573  1.00  0.00     0.135 A 
ATOM     67  C   UNL A   1      38.297  33.873  31.447  1.00  0.00     0.135 A 
ATOM     68  F   UNL A   1      38.699  30.532  32.800  1.00  0.00    -0.206 F 
ATOM     69  C   UNL A   1      37.189  32.211  33.352  1.00  0.00     0.059 A 
ATOM     70  C   UNL A   1      37.248  34.337  32.244  1.00  0.00     0.059 A 
ATOM     71  F   UNL A   1      38.664  34.737  30.495  1.00  0.00    -0.206 F 
ATOM     72  C   UNL A   1      36.678  33.490  33.176  1.00  0.00     0.060 A 
BRANCH  72  73
ATOM     73  S   UNL A   1      35.250  34.030  34.132  1.00  0.00     0.124 S 
ATOM     74  O   UNL A   1      34.189  33.188  33.589  1.00  0.00    -0.237 OA
ATOM     75  O   UNL A   1      35.660  33.738  35.502  1.00  0.00    -0.237 OA
ATOM     76  O   UNL A   1      35.142  35.451  33.808  1.00  0.00    -0.744 OA
ENDBRANCH  72  73
ENDBRANCH  51  65
BRANCH  52  77
ATOM     77  C   UNL A   1      45.350  27.332  26.617  1.00  0.00     0.058 A 
ATOM     78  C   UNL A   1      46.283  26.278  26.650  1.00  0.00     0.135 A 
ATOM     79  C   UNL A   1      44.231  27.185  25.784  1.00  0.00     0.135 A 
ATOM     80  F   UNL A   1      47.383  26.380  27.415  1.00  0.00    -0.206 F 
ATOM     81  C   UNL A   1      46.024  25.056  26.042  1.00  0.00     0.059 A 
ATOM     82  C   UNL A   1      43.957  25.967  25.156  1.00  0.00     0.059 A 
ATOM     83  F   UNL A   1      43.315  28.160  25.705  1.00  0.00    -0.206 F 
ATOM     84  C   UNL A   1      44.820  24.890  25.361  1.00  0.00     0.060 A 
BRANCH  84  85
ATOM     85  S   UNL A   1      44.318  23.200  24.955  1.00  0.00     0.124 S 
ATOM     86  O   UNL A   1      44.880  22.440  26.065  1.00  0.00    -0.237 OA
ATOM     87  O   UNL A   1      42.861  23.323  24.945  1.00  0.00    -0.237 OA
ATOM     88  O   UNL A   1      44.935  22.969  23.653  1.00  0.00    -0.744 OA
ENDBRANCH  84  85
ENDBRANCH  52  77
BRANCH  64  89
ATOM     89  C   UNL A   1      44.387  34.375  28.178  1.00  0.00     0.058 A 
ATOM     90  C   UNL A   1      43.962  34.869  26.932  1.00  0.00     0.135 A 
ATOM     91  C   UNL A   1      44.820  35.366  29.097  1.00  0.00     0.135 A 
ATOM     92  F   UNL A   1      43.408  34.067  26.011  1.00  0.00    -0.206 F 
ATOM     93  C   UNL A   1      44.032  36.225  26.592  1.00  0.00     0.059 A 
ATOM     94  C   UNL A   1      44.842  36.728  28.801  1.00  0.00     0.059 A 
ATOM     95  F   UNL A   1      45.227  35.044  30.334  1.00  0.00    -0.206 F 
ATOM     96  C   UNL A   1      44.475  37.148  27.532  1.00  0.00     0.060 A 
BRANCH  96  97
ATOM     97  S   UNL A   1      44.511  38.904  27.128  1.00  0.00     0.124 S 
ATOM     98  O   UNL A   1      43.169  39.108  26.593  1.00  0.00    -0.237 OA
ATOM     99  O   UNL A   1      44.774  39.531  28.421  1.00  0.00    -0.237 OA
ATOM    100  O   UNL A   1      45.601  39.001  26.163  1.00  0.00    -0.744 OA
ENDBRANCH  96  97
ENDBRANCH  64  89
ENDBRANCH  38  39
ENDBRANCH  30  33
ENDBRANCH  28  29
ENDBRANCH  27  28
ENDBRANCH   1  27
TORSDOF 17
ENDMDL
MODEL 2
REMARK VINA RESULT:     -13.2      2.257      3.027
REMARK SMILES COC(=O)c1ccc(C)c(NC(=O)[C@H]2CC=CC[C@H]2C(=O)NCCCNC(=O)c2ccc(-c3c4nc(c(-c5c(F)cc(S(=O)(=O)[O-])cc5F)c5ccc([nH]5)c(-c5c(F)cc(S(=O)(=O)[O-])cc5F)c5nc(c(-c6c(F)cc(S(=O)(=O)[O-])cc6F)c6ccc3[nH]6)C=C5)C=C4)cc2)c1
REMARK SMILES IDX 23 1 22 2 20 3 21 4 19 6 14 7 15 8 16 9 18 10 17 11 12 12
REMARK SMILES IDX 11 13 13 15 10 16 5 17 6 18 95 19 7 20 8 21 9 22 3 23 4 24
REMARK SMILES IDX 2 25 1 26 24 27 25 28 26 29 27 30 28 32 29 33 30 34 94 35
REMARK SMILES IDX 31 36 93 37 32 38 33 39 34 40 87 41 35 42 92 43 86 44 88 45
REMARK SMILES IDX 36 46 91 47 85 48 84 49 37 51 71 52 50 53 70 54 51 55 54 56
REMARK SMILES IDX 69 57 89 58 52 59 53 60 68 62 90 63 55 64 38 65 39 66 48 67
REMARK SMILES IDX 40 68 41 69 47 70 49 71 42 72 43 73 44 74 45 75 46 76 72 77
REMARK SMILES IDX 73 78 82 79 74 80 75 81 81 82 83 83 76 84 77 85 78 86 79 87
REMARK SMILES IDX 80 88 56 89 57 90 66 91 58 92 59 93 65 94 67 95 60 96 61 97
REMARK SMILES IDX 62 98 63 99 64 100
REMARK H PARENT 22 5 11 14 26 31 88 50 54 61
REMARK Flexibility Score: inf
ROOT
ATOM      1  C   UNL A   1      36.755  21.692  24.944  1.00  0.00     0.117 C 
ENDROOT
BRANCH   1   2
ATOM      2  N   UNL A   1      36.214  22.649  23.985  1.00  0.00    -0.356 N 
ATOM      3  C   UNL A   1      34.982  23.159  23.756  1.00  0.00     0.224 C 
ATOM      4  O   UNL A   1      34.863  23.851  22.735  1.00  0.00    -0.275 OA
ATOM      5  H   UNL A   1      36.896  23.001  23.368  1.00  0.00     0.163 HD
BRANCH   3   6
ATOM      6  C   UNL A   1      33.737  22.926  24.612  1.00  0.00     0.095 C 
ATOM      7  C   UNL A   1      32.824  24.165  24.739  1.00  0.00     0.095 C 
ATOM      8  C   UNL A   1      31.751  23.934  25.821  1.00  0.00     0.041 C 
ATOM      9  C   UNL A   1      31.151  22.555  25.813  1.00  0.00    -0.030 C 
ATOM     10  C   UNL A   1      33.040  21.570  24.488  1.00  0.00     0.041 C 
ATOM     11  C   UNL A   1      31.725  21.504  25.211  1.00  0.00    -0.030 C 
BRANCH   7  12
ATOM     12  C   UNL A   1      32.098  24.547  23.487  1.00  0.00     0.228 C 
ATOM     13  N   UNL A   1      31.728  25.800  23.137  1.00  0.00    -0.326 N 
ATOM     14  H   UNL A   1      31.418  25.780  22.203  1.00  0.00     0.169 HD
ATOM     15  O   UNL A   1      31.722  23.661  22.708  1.00  0.00    -0.274 OA
BRANCH  13  16
ATOM     16  C   UNL A   1      31.617  27.131  23.610  1.00  0.00     0.044 A 
ATOM     17  C   UNL A   1      30.078  29.066  23.358  1.00  0.00     0.062 A 
ATOM     18  C   UNL A   1      30.716  29.733  24.388  1.00  0.00     0.016 A 
ATOM     19  C   UNL A   1      30.543  27.798  22.975  1.00  0.00     0.042 A 
ATOM     20  C   UNL A   1      31.821  29.134  24.987  1.00  0.00     0.006 A 
ATOM     21  C   UNL A   1      32.295  27.843  24.614  1.00  0.00    -0.027 A 
ATOM     22  C   UNL A   1      33.517  27.409  25.359  1.00  0.00     0.046 C 
BRANCH  17  23
ATOM     23  C   UNL A   1      28.818  29.615  22.795  1.00  0.00     0.337 C 
ATOM     24  O   UNL A   1      27.739  29.587  23.363  1.00  0.00    -0.246 OA
BRANCH  23  25
ATOM     25  O   UNL A   1      29.047  29.987  21.513  1.00  0.00    -0.465 OA
ATOM     26  C   UNL A   1      28.037  30.802  20.925  1.00  0.00     0.282 C 
ENDBRANCH  23  25
ENDBRANCH  17  23
ENDBRANCH  13  16
ENDBRANCH   7  12
ENDBRANCH   3   6
ENDBRANCH   1   2
BRANCH   1  27
ATOM     27  C   UNL A   1      38.186  22.037  25.333  1.00  0.00     0.042 C 
BRANCH  27  28
ATOM     28  C   UNL A   1      38.303  23.174  26.334  1.00  0.00     0.118 C 
BRANCH  28  29
ATOM     29  N   UNL A   1      39.490  22.994  27.174  1.00  0.00    -0.352 N 
ATOM     30  C   UNL A   1      40.233  23.944  27.851  1.00  0.00     0.251 C 
ATOM     31  H   UNL A   1      39.803  22.065  27.270  1.00  0.00     0.163 HD
ATOM     32  O   UNL A   1      41.292  23.704  28.389  1.00  0.00    -0.269 OA
BRANCH  30  33
ATOM     33  C   UNL A   1      39.608  25.275  27.953  1.00  0.00     0.039 A 
ATOM     34  C   UNL A   1      40.068  26.236  27.048  1.00  0.00     0.014 A 
ATOM     35  C   UNL A   1      38.987  25.618  29.150  1.00  0.00     0.014 A 
ATOM     36  C   UNL A   1      40.107  27.566  27.440  1.00  0.00     0.010 A 
ATOM     37  C   UNL A   1      39.099  26.930  29.566  1.00  0.00     0.010 A 
ATOM     38  C   UNL A   1      39.722  27.884  28.738  1.00  0.00    -0.014 A 
BRANCH  38  39
ATOM     39  C   UNL A   1      39.998  29.170  29.362  1.00  0.00     0.031 A 
ATOM     40  C   UNL A   1      39.021  30.268  29.192  1.00  0.00     0.074 A 
ATOM     41  C   UNL A   1      41.073  29.331  30.167  1.00  0.00     0.049 A 
ATOM     42  N   UNL A   1      39.228  31.484  29.562  1.00  0.00    -0.248 NA
ATOM     43  C   UNL A   1      37.746  30.094  28.496  1.00  0.00     0.031 C 
ATOM     44  C   UNL A   1      41.272  30.375  31.170  1.00  0.00     0.029 A 
ATOM     45  N   UNL A   1      42.319  28.700  30.075  1.00  0.00    -0.354 N 
ATOM     46  C   UNL A   1      38.041  32.161  29.442  1.00  0.00     0.074 A 
ATOM     47  C   UNL A   1      37.198  31.302  28.655  1.00  0.00     0.031 C 
ATOM     48  C   UNL A   1      42.581  30.491  31.432  1.00  0.00     0.029 A 
ATOM     49  C   UNL A   1      43.286  29.642  30.489  1.00  0.00     0.049 A 
ATOM     50  H   UNL A   1      42.490  27.778  29.779  1.00  0.00     0.167 HD
ATOM     51  C   UNL A   1      37.876  33.308  30.156  1.00  0.00     0.037 A 
ATOM     52  C   UNL A   1      44.263  30.086  29.644  1.00  0.00     0.037 A 
ATOM     53  C   UNL A   1      39.175  33.828  30.587  1.00  0.00     0.049 A 
ATOM     54  C   UNL A   1      44.224  31.573  29.374  1.00  0.00     0.074 A 
ATOM     55  C   UNL A   1      39.838  33.880  31.799  1.00  0.00     0.029 A 
ATOM     56  N   UNL A   1      40.112  34.163  29.611  1.00  0.00    -0.354 N 
ATOM     57  N   UNL A   1      43.200  32.339  29.640  1.00  0.00    -0.248 NA
ATOM     58  C   UNL A   1      45.328  32.317  28.776  1.00  0.00     0.031 C 
ATOM     59  C   UNL A   1      41.212  34.141  31.531  1.00  0.00     0.029 A 
ATOM     60  C   UNL A   1      41.370  34.299  30.163  1.00  0.00     0.049 A 
ATOM     61  H   UNL A   1      39.906  34.286  28.657  1.00  0.00     0.167 HD
ATOM     62  C   UNL A   1      43.457  33.621  29.227  1.00  0.00     0.074 A 
ATOM     63  C   UNL A   1      44.819  33.562  28.726  1.00  0.00     0.031 C 
ATOM     64  C   UNL A   1      42.519  34.613  29.318  1.00  0.00     0.037 A 
BRANCH  51  65
ATOM     65  C   UNL A   1      36.539  33.848  30.632  1.00  0.00     0.058 A 
ATOM     66  C   UNL A   1      35.600  34.345  29.699  1.00  0.00     0.135 A 
ATOM     67  C   UNL A   1      36.176  34.052  31.984  1.00  0.00     0.135 A 
ATOM     68  F   UNL A   1      35.815  34.242  28.379  1.00  0.00    -0.206 F 
ATOM     69  C   UNL A   1      34.423  35.007  30.076  1.00  0.00     0.059 A 
ATOM     70  C   UNL A   1      34.987  34.665  32.383  1.00  0.00     0.059 A 
ATOM     71  F   UNL A   1      36.980  33.737  33.004  1.00  0.00    -0.206 F 
ATOM     72  C   UNL A   1      34.127  35.168  31.423  1.00  0.00     0.060 A 
BRANCH  72  73
ATOM     73  S   UNL A   1      32.645  36.064  31.920  1.00  0.00     0.124 S 
ATOM     74  O   UNL A   1      32.209  36.648  30.655  1.00  0.00    -0.237 OA
ATOM     75  O   UNL A   1      31.801  35.002  32.458  1.00  0.00    -0.237 OA
ATOM     76  O   UNL A   1      33.142  37.021  32.908  1.00  0.00    -0.744 OA
ENDBRANCH  72  73
ENDBRANCH  51  65
BRANCH  52  77
ATOM     77  C   UNL A   1      44.742  29.033  28.708  1.00  0.00     0.058 A 
ATOM     78  C   UNL A   1      44.247  29.076  27.389  1.00  0.00     0.135 A 
ATOM     79  C   UNL A   1      45.952  28.361  28.928  1.00  0.00     0.135 A 
ATOM     80  F   UNL A   1      43.081  29.688  27.130  1.00  0.00    -0.206 F 
ATOM     81  C   UNL A   1      45.011  28.645  26.311  1.00  0.00     0.059 A 
ATOM     82  C   UNL A   1      46.731  27.911  27.858  1.00  0.00     0.059 A 
ATOM     83  F   UNL A   1      46.465  28.280  30.164  1.00  0.00    -0.206 F 
ATOM     84  C   UNL A   1      46.283  28.134  26.555  1.00  0.00     0.060 A 
BRANCH  84  85
ATOM     85  S   UNL A   1      47.407  27.984  25.144  1.00  0.00     0.124 S 
ATOM     86  O   UNL A   1      46.661  28.659  24.088  1.00  0.00    -0.237 OA
ATOM     87  O   UNL A   1      48.589  28.690  25.635  1.00  0.00    -0.237 OA
ATOM     88  O   UNL A   1      47.559  26.542  24.987  1.00  0.00    -0.744 OA
ENDBRANCH  84  85
ENDBRANCH  52  77
BRANCH  64  89
ATOM     89  C   UNL A   1      42.604  35.990  28.685  1.00  0.00     0.058 A 
ATOM     90  C   UNL A   1      42.075  36.326  27.425  1.00  0.00     0.135 A 
ATOM     91  C   UNL A   1      43.124  37.084  29.424  1.00  0.00     0.135 A 
ATOM     92  F   UNL A   1      41.437  35.422  26.669  1.00  0.00    -0.206 F 
ATOM     93  C   UNL A   1      42.127  37.624  26.906  1.00  0.00     0.059 A 
ATOM     94  C   UNL A   1      43.131  38.395  28.952  1.00  0.00     0.059 A 
ATOM     95  F   UNL A   1      43.635  36.918  30.654  1.00  0.00    -0.206 F 
ATOM     96  C   UNL A   1      42.658  38.653  27.675  1.00  0.00     0.060 A 
BRANCH  96  97
ATOM     97  S   UNL A   1      42.673  40.341  27.042  1.00  0.00     0.124 S 
ATOM     98  O   UNL A   1      41.254  40.570  26.789  1.00  0.00    -0.237 OA
ATOM     99  O   UNL A   1      43.245  41.100  28.150  1.00  0.00    -0.237 OA
ATOM    100  O   UNL A   1      43.521  40.244  25.858  1.00  0.00    -0.744 OA
ENDBRANCH  96  97
ENDBRANCH  64  89
ENDBRANCH  38  39
ENDBRANCH  30  33
ENDBRANCH  28  29
ENDBRANCH  27  28
ENDBRANCH   1  27
TORSDOF 17
ENDMDL
MODEL 3
REMARK VINA RESULT:     -13.2      1.914      4.463
REMARK SMILES COC(=O)c1ccc(C)c(NC(=O)[C@H]2CC=CC[C@H]2C(=O)NCCCNC(=O)c2ccc(-c3c4nc(c(-c5c(F)cc(S(=O)(=O)[O-])cc5F)c5ccc([nH]5)c(-c5c(F)cc(S(=O)(=O)[O-])cc5F)c5nc(c(-c6c(F)cc(S(=O)(=O)[O-])cc6F)c6ccc3[nH]6)C=C5)C=C4)cc2)c1
REMARK SMILES IDX 23 1 22 2 20 3 21 4 19 6 14 7 15 8 16 9 18 10 17 11 12 12
REMARK SMILES IDX 11 13 13 15 10 16 5 17 6 18 95 19 7 20 8 21 9 22 3 23 4 24
REMARK SMILES IDX 2 25 1 26 24 27 25 28 26 29 27 30 28 32 29 33 30 34 94 35
REMARK SMILES IDX 31 36 93 37 32 38 33 39 34 40 87 41 35 42 92 43 86 44 88 45
REMARK SMILES IDX 36 46 91 47 85 48 84 49 37 51 71 52 50 53 70 54 51 55 54 56
REMARK SMILES IDX 69 57 89 58 52 59 53 60 68 62 90 63 55 64 38 65 39 66 48 67
REMARK SMILES IDX 40 68 41 69 47 70 49 71 42 72 43 73 44 74 45 75 46 76 72 77
REMARK SMILES IDX 73 78 82 79 74 80 75 81 81 82 83 83 76 84 77 85 78 86 79 87
REMARK SMILES IDX 80 88 56 89 57 90 66 91 58 92 59 93 65 94 67 95 60 96 61 97
REMARK SMILES IDX 62 98 63 99 64 100
REMARK H PARENT 22 5 11 14 26 31 88 50 54 61
REMARK Flexibility Score: inf
ROOT
ATOM      1  C   UNL A   1      35.607  21.859  25.610  1.00  0.00     0.117 C 
ENDROOT
BRANCH   1   2
ATOM      2  N   UNL A   1      35.377  22.243  24.222  1.00  0.00    -0.356 N 
ATOM      3  C   UNL A   1      34.499  23.066  23.606  1.00  0.00     0.224 C 
ATOM      4  O   UNL A   1      34.500  23.030  22.367  1.00  0.00    -0.275 OA
ATOM      5  H   UNL A   1      35.999  21.806  23.596  1.00  0.00     0.163 HD
BRANCH   3   6
ATOM      6  C   UNL A   1      33.496  23.993  24.294  1.00  0.00     0.095 C 
ATOM      7  C   UNL A   1      32.115  23.346  24.539  1.00  0.00     0.095 C 
ATOM      8  C   UNL A   1      31.093  24.412  24.981  1.00  0.00     0.041 C 
ATOM      9  C   UNL A   1      31.635  25.423  25.954  1.00  0.00    -0.030 C 
ATOM     10  C   UNL A   1      34.026  24.915  25.392  1.00  0.00     0.041 C 
ATOM     11  C   UNL A   1      32.945  25.640  26.140  1.00  0.00    -0.030 C 
BRANCH   7  12
ATOM     12  C   UNL A   1      32.095  22.272  25.582  1.00  0.00     0.228 C 
ATOM     13  N   UNL A   1      32.327  20.957  25.368  1.00  0.00    -0.326 N 
ATOM     14  H   UNL A   1      32.411  20.513  26.244  1.00  0.00     0.169 HD
ATOM     15  O   UNL A   1      31.773  22.558  26.742  1.00  0.00    -0.274 OA
BRANCH  13  16
ATOM     16  C   UNL A   1      32.495  19.976  24.359  1.00  0.00     0.044 A 
ATOM     17  C   UNL A   1      33.062  17.563  24.196  1.00  0.00     0.062 A 
ATOM     18  C   UNL A   1      32.718  17.552  22.857  1.00  0.00     0.016 A 
ATOM     19  C   UNL A   1      32.966  18.764  24.915  1.00  0.00     0.042 A 
ATOM     20  C   UNL A   1      32.317  18.746  22.261  1.00  0.00     0.006 A 
ATOM     21  C   UNL A   1      32.205  19.968  22.985  1.00  0.00    -0.027 A 
ATOM     22  C   UNL A   1      31.797  21.134  22.142  1.00  0.00     0.046 C 
BRANCH  17  23
ATOM     23  C   UNL A   1      33.359  16.283  24.890  1.00  0.00     0.337 C 
ATOM     24  O   UNL A   1      32.694  15.824  25.802  1.00  0.00    -0.246 OA
BRANCH  23  25
ATOM     25  O   UNL A   1      34.554  15.824  24.450  1.00  0.00    -0.465 OA
ATOM     26  C   UNL A   1      35.606  15.844  25.411  1.00  0.00     0.282 C 
ENDBRANCH  23  25
ENDBRANCH  17  23
ENDBRANCH  13  16
ENDBRANCH   7  12
ENDBRANCH   3   6
ENDBRANCH   1   2
BRANCH   1  27
ATOM     27  C   UNL A   1      36.847  22.533  26.181  1.00  0.00     0.042 C 
BRANCH  27  28
ATOM     28  C   UNL A   1      38.078  22.426  25.295  1.00  0.00     0.118 C 
BRANCH  28  29
ATOM     29  N   UNL A   1      39.224  21.945  26.069  1.00  0.00    -0.352 N 
ATOM     30  C   UNL A   1      40.220  22.670  26.698  1.00  0.00     0.251 C 
ATOM     31  H   UNL A   1      39.296  20.966  26.155  1.00  0.00     0.163 HD
ATOM     32  O   UNL A   1      41.211  22.165  27.179  1.00  0.00    -0.269 OA
BRANCH  30  33
ATOM     33  C   UNL A   1      39.960  24.115  26.824  1.00  0.00     0.039 A 
ATOM     34  C   UNL A   1      40.806  24.953  26.091  1.00  0.00     0.014 A 
ATOM     35  C   UNL A   1      39.256  24.560  27.938  1.00  0.00     0.014 A 
ATOM     36  C   UNL A   1      41.126  26.201  26.605  1.00  0.00     0.010 A 
ATOM     37  C   UNL A   1      39.637  25.770  28.485  1.00  0.00     0.010 A 
ATOM     38  C   UNL A   1      40.621  26.553  27.852  1.00  0.00    -0.014 A 
BRANCH  38  39
ATOM     39  C   UNL A   1      41.115  27.684  28.625  1.00  0.00     0.031 A 
ATOM     40  C   UNL A   1      40.230  28.851  28.825  1.00  0.00     0.074 A 
ATOM     41  C   UNL A   1      42.321  27.628  29.237  1.00  0.00     0.049 A 
ATOM     42  N   UNL A   1      40.607  29.963  29.353  1.00  0.00    -0.248 NA
ATOM     43  C   UNL A   1      38.845  28.885  28.353  1.00  0.00     0.031 C 
ATOM     44  C   UNL A   1      42.781  28.456  30.350  1.00  0.00     0.029 A 
ATOM     45  N   UNL A   1      43.471  26.950  28.814  1.00  0.00    -0.354 N 
ATOM     46  C   UNL A   1      39.483  30.721  29.568  1.00  0.00     0.074 A 
ATOM     47  C   UNL A   1      38.445  30.074  28.812  1.00  0.00     0.031 C 
ATOM     48  C   UNL A   1      44.121  28.442  30.385  1.00  0.00     0.029 A 
ATOM     49  C   UNL A   1      44.576  27.740  29.200  1.00  0.00     0.049 A 
ATOM     50  H   UNL A   1      43.503  26.090  28.339  1.00  0.00     0.167 HD
ATOM     51  C   UNL A   1      39.547  31.725  30.484  1.00  0.00     0.037 A 
ATOM     52  C   UNL A   1      45.434  28.272  28.279  1.00  0.00     0.037 A 
ATOM     53  C   UNL A   1      40.942  32.078  30.755  1.00  0.00     0.049 A 
ATOM     54  C   UNL A   1      45.486  29.783  28.278  1.00  0.00     0.074 A 
ATOM     55  C   UNL A   1      41.801  31.866  31.817  1.00  0.00     0.029 A 
ATOM     56  N   UNL A   1      41.729  32.529  29.696  1.00  0.00    -0.354 N 
ATOM     57  N   UNL A   1      44.597  30.547  28.852  1.00  0.00    -0.248 NA
ATOM     58  C   UNL A   1      46.538  30.556  27.624  1.00  0.00     0.031 C 
ATOM     59  C   UNL A   1      43.129  32.088  31.351  1.00  0.00     0.029 A 
ATOM     60  C   UNL A   1      43.069  32.484  30.025  1.00  0.00     0.049 A 
ATOM     61  H   UNL A   1      41.378  32.838  28.831  1.00  0.00     0.167 HD
ATOM     62  C   UNL A   1      44.898  31.865  28.624  1.00  0.00     0.074 A 
ATOM     63  C   UNL A   1      46.145  31.818  27.881  1.00  0.00     0.031 C 
ATOM     64  C   UNL A   1      44.083  32.878  29.052  1.00  0.00     0.037 A 
BRANCH  51  65
ATOM     65  C   UNL A   1      38.365  32.249  31.281  1.00  0.00     0.058 A 
ATOM     66  C   UNL A   1      37.956  33.595  31.144  1.00  0.00     0.135 A 
ATOM     67  C   UNL A   1      37.690  31.539  32.301  1.00  0.00     0.135 A 
ATOM     68  F   UNL A   1      38.518  34.400  30.230  1.00  0.00    -0.206 F 
ATOM     69  C   UNL A   1      36.985  34.187  31.964  1.00  0.00     0.059 A 
ATOM     70  C   UNL A   1      36.686  32.094  33.098  1.00  0.00     0.059 A 
ATOM     71  F   UNL A   1      38.007  30.286  32.642  1.00  0.00    -0.206 F 
ATOM     72  C   UNL A   1      36.358  33.429  32.944  1.00  0.00     0.060 A 
BRANCH  72  73
ATOM     73  S   UNL A   1      35.149  34.193  34.040  1.00  0.00     0.124 S 
ATOM     74  O   UNL A   1      35.646  33.800  35.355  1.00  0.00    -0.237 OA
ATOM     75  O   UNL A   1      35.274  35.608  33.707  1.00  0.00    -0.237 OA
ATOM     76  O   UNL A   1      33.888  33.571  33.641  1.00  0.00    -0.744 OA
ENDBRANCH  72  73
ENDBRANCH  51  65
BRANCH  52  77
ATOM     77  C   UNL A   1      45.649  27.383  27.106  1.00  0.00     0.058 A 
ATOM     78  C   UNL A   1      46.618  26.369  27.240  1.00  0.00     0.135 A 
ATOM     79  C   UNL A   1      44.654  27.207  26.135  1.00  0.00     0.135 A 
ATOM     80  F   UNL A   1      47.607  26.500  28.139  1.00  0.00    -0.206 F 
ATOM     81  C   UNL A   1      46.494  25.151  26.582  1.00  0.00     0.059 A 
ATOM     82  C   UNL A   1      44.517  25.993  25.455  1.00  0.00     0.059 A 
ATOM     83  F   UNL A   1      43.710  28.143  25.957  1.00  0.00    -0.206 F 
ATOM     84  C   UNL A   1      45.396  24.950  25.749  1.00  0.00     0.060 A 
BRANCH  84  85
ATOM     85  S   UNL A   1      45.026  23.250  25.252  1.00  0.00     0.124 S 
ATOM     86  O   UNL A   1      46.067  22.498  25.943  1.00  0.00    -0.237 OA
ATOM     87  O   UNL A   1      43.671  23.081  25.774  1.00  0.00    -0.237 OA
ATOM     88  O   UNL A   1      45.137  23.293  23.798  1.00  0.00    -0.744 OA
ENDBRANCH  84  85
ENDBRANCH  52  77
BRANCH  64  89
ATOM     89  C   UNL A   1      44.187  34.341  28.657  1.00  0.00     0.058 A 
ATOM     90  C   UNL A   1      44.666  35.364  29.496  1.00  0.00     0.135 A 
ATOM     91  C   UNL A   1      43.920  34.740  27.322  1.00  0.00     0.135 A 
ATOM     92  F   UNL A   1      45.079  35.111  30.746  1.00  0.00    -0.206 F 
ATOM     93  C   UNL A   1      44.797  36.690  29.070  1.00  0.00     0.059 A 
ATOM     94  C   UNL A   1      44.101  36.043  26.860  1.00  0.00     0.059 A 
ATOM     95  F   UNL A   1      43.485  33.864  26.403  1.00  0.00    -0.206 F 
ATOM     96  C   UNL A   1      44.512  37.022  27.751  1.00  0.00     0.060 A 
BRANCH  96  97
ATOM     97  S   UNL A   1      44.737  38.715  27.175  1.00  0.00     0.124 S 
ATOM     98  O   UNL A   1      43.453  38.978  26.534  1.00  0.00    -0.237 OA
ATOM     99  O   UNL A   1      44.986  39.450  28.412  1.00  0.00    -0.237 OA
ATOM    100  O   UNL A   1      45.884  38.610  26.279  1.00  0.00    -0.744 OA
ENDBRANCH  96  97
ENDBRANCH  64  89
ENDBRANCH  38  39
ENDBRANCH  30  33
ENDBRANCH  28  29
ENDBRANCH  27  28
ENDBRANCH   1  27
TORSDOF 17
ENDMDL
