MODEL 1
REMARK VINA RESULT:     -12.2      0.000      0.000
REMARK SMILES COc1cc(NC(=O)[C@@H]2CC=CC[C@H]2C(=O)NCCCNC(=O)c2ccc(-c3c4nc(c(-c5c(F)cc(S(=O)(=O)[O-])cc5F)c5ccc([nH]5)c(-c5c(F)cc(S(=O)(=O)[O-])cc5F)c5nc(c(-c6c(F)cc(S(=O)(=O)[O-])cc6F)c6ccc3[nH]6)C=C5)C=C4)cc2)c(OC)cc1Cl
REMARK SMILES IDX 19 1 18 2 17 3 15 4 16 5 14 7 9 8 10 9 11 10 13 11 12 12
REMARK SMILES IDX 7 13 6 14 8 16 5 17 3 18 4 19 94 20 93 21 95 22 90 23 2 24
REMARK SMILES IDX 1 25 91 26 92 27 20 28 21 29 22 30 23 32 24 33 25 34 89 35
REMARK SMILES IDX 26 36 88 37 27 38 28 39 29 40 82 41 30 42 87 43 81 44 83 45
REMARK SMILES IDX 31 46 86 47 80 48 79 49 32 51 66 52 45 53 65 54 46 55 49 56
REMARK SMILES IDX 64 57 84 58 47 59 48 60 63 62 85 63 50 64 33 65 34 66 43 67
REMARK SMILES IDX 35 68 36 69 42 70 44 71 37 72 38 73 39 74 40 75 41 76 67 77
REMARK SMILES IDX 68 78 77 79 69 80 70 81 76 82 78 83 71 84 72 85 73 86 74 87
REMARK SMILES IDX 75 88 51 89 52 90 61 91 53 92 54 93 60 94 62 95 55 96 56 97
REMARK SMILES IDX 57 98 58 99 59 100
REMARK H PARENT 17 6 6 15 21 31 83 50 49 61
REMARK Flexibility Score: inf
ROOT
ATOM      1  C   UNL A   1      37.490  23.184  25.767  1.00  0.00     0.042 C 
ENDROOT
BRANCH   1   2
ATOM      2  C   UNL A   1      36.260  23.784  25.094  1.00  0.00     0.117 C 
BRANCH   2   3
ATOM      3  N   UNL A   1      35.387  22.774  24.514  1.00  0.00    -0.356 N 
ATOM      4  C   UNL A   1      34.031  22.667  24.479  1.00  0.00     0.224 C 
ATOM      5  O   UNL A   1      33.550  21.701  23.879  1.00  0.00    -0.275 OA
ATOM      6  H   UNL A   1      35.863  22.036  24.068  1.00  0.00     0.163 HD
BRANCH   4   7
ATOM      7  C   UNL A   1      33.112  23.713  25.107  1.00  0.00     0.095 C 
ATOM      8  C   UNL A   1      32.194  24.369  24.060  1.00  0.00     0.095 C 
ATOM      9  C   UNL A   1      30.908  25.046  24.547  1.00  0.00     0.041 C 
ATOM     10  C   UNL A   1      30.432  24.586  25.891  1.00  0.00    -0.030 C 
ATOM     11  C   UNL A   1      32.413  23.114  26.336  1.00  0.00     0.041 C 
ATOM     12  C   UNL A   1      31.094  23.729  26.677  1.00  0.00    -0.030 C 
BRANCH   8  13
ATOM     13  C   UNL A   1      33.019  25.184  23.072  1.00  0.00     0.228 C 
ATOM     14  N   UNL A   1      33.385  26.481  23.208  1.00  0.00    -0.323 N 
ATOM     15  H   UNL A   1      33.956  26.770  22.460  1.00  0.00     0.170 HD
ATOM     16  O   UNL A   1      33.416  24.612  22.047  1.00  0.00    -0.274 OA
BRANCH  14  17
ATOM     17  C   UNL A   1      33.175  27.530  24.122  1.00  0.00     0.087 A 
ATOM     18  C   UNL A   1      33.434  28.659  26.247  1.00  0.00     0.139 A 
ATOM     19  C   UNL A   1      33.846  27.692  25.328  1.00  0.00     0.078 A 
ATOM     20  C   UNL A   1      32.412  29.549  25.926  1.00  0.00     0.086 A 
ATOM     21  C   UNL A   1      31.785  29.460  24.684  1.00  0.00     0.073 A 
ATOM     22  Cl  UNL A   1      31.895  30.768  27.032  1.00  0.00    -0.080 Cl
ATOM     23  C   UNL A   1      32.166  28.462  23.779  1.00  0.00     0.144 A 
BRANCH  18  24
ATOM     24  O   UNL A   1      34.089  28.697  27.450  1.00  0.00    -0.495 OA
ATOM     25  C   UNL A   1      35.307  29.439  27.328  1.00  0.00     0.278 C 
ENDBRANCH  18  24
BRANCH  23  26
ATOM     26  O   UNL A   1      31.591  28.279  22.541  1.00  0.00    -0.495 OA
ATOM     27  C   UNL A   1      30.341  28.919  22.303  1.00  0.00     0.278 C 
ENDBRANCH  23  26
ENDBRANCH  14  17
ENDBRANCH   8  13
ENDBRANCH   4   7
ENDBRANCH   2   3
ENDBRANCH   1   2
BRANCH   1  28
ATOM     28  C   UNL A   1      38.367  24.213  26.459  1.00  0.00     0.118 C 
BRANCH  28  29
ATOM     29  N   UNL A   1      39.783  23.959  26.235  1.00  0.00    -0.352 N 
ATOM     30  C   UNL A   1      40.875  24.701  26.613  1.00  0.00     0.251 C 
ATOM     31  H   UNL A   1      39.988  23.133  25.740  1.00  0.00     0.163 HD
ATOM     32  O   UNL A   1      41.970  24.472  26.112  1.00  0.00    -0.269 OA
BRANCH  30  33
ATOM     33  C   UNL A   1      40.720  25.778  27.615  1.00  0.00     0.039 A 
ATOM     34  C   UNL A   1      39.728  25.668  28.592  1.00  0.00     0.014 A 
ATOM     35  C   UNL A   1      41.551  26.901  27.581  1.00  0.00     0.014 A 
ATOM     36  C   UNL A   1      39.612  26.657  29.572  1.00  0.00     0.010 A 
ATOM     37  C   UNL A   1      41.498  27.832  28.611  1.00  0.00     0.010 A 
ATOM     38  C   UNL A   1      40.519  27.728  29.610  1.00  0.00    -0.014 A 
BRANCH  38  39
ATOM     39  C   UNL A   1      40.460  28.767  30.668  1.00  0.00     0.031 A 
ATOM     40  C   UNL A   1      41.350  28.653  31.876  1.00  0.00     0.074 A 
ATOM     41  C   UNL A   1      39.548  29.755  30.586  1.00  0.00     0.049 A 
ATOM     42  N   UNL A   1      41.371  29.385  32.960  1.00  0.00    -0.248 NA
ATOM     43  C   UNL A   1      42.322  27.548  31.881  1.00  0.00     0.031 C 
ATOM     44  C   UNL A   1      38.598  29.941  29.487  1.00  0.00     0.029 A 
ATOM     45  N   UNL A   1      39.256  30.778  31.453  1.00  0.00    -0.354 N 
ATOM     46  C   UNL A   1      42.337  28.815  33.781  1.00  0.00     0.074 A 
ATOM     47  C   UNL A   1      42.840  27.645  33.095  1.00  0.00     0.031 C 
ATOM     48  C   UNL A   1      37.839  31.019  29.739  1.00  0.00     0.029 A 
ATOM     49  C   UNL A   1      38.214  31.574  31.036  1.00  0.00     0.049 A 
ATOM     50  H   UNL A   1      39.745  30.929  32.294  1.00  0.00     0.167 HD
ATOM     51  C   UNL A   1      42.778  29.240  34.989  1.00  0.00     0.037 A 
ATOM     52  C   UNL A   1      37.615  32.620  31.639  1.00  0.00     0.037 A 
ATOM     53  C   UNL A   1      42.285  30.419  35.651  1.00  0.00     0.049 A 
ATOM     54  C   UNL A   1      38.119  33.076  32.982  1.00  0.00     0.074 A 
ATOM     55  C   UNL A   1      42.710  30.977  36.843  1.00  0.00     0.029 A 
ATOM     56  N   UNL A   1      41.251  31.217  35.181  1.00  0.00    -0.354 N 
ATOM     57  N   UNL A   1      39.082  32.569  33.716  1.00  0.00    -0.248 NA
ATOM     58  C   UNL A   1      37.463  34.248  33.577  1.00  0.00     0.031 C 
ATOM     59  C   UNL A   1      41.896  32.080  37.123  1.00  0.00     0.029 A 
ATOM     60  C   UNL A   1      41.006  32.248  36.074  1.00  0.00     0.049 A 
ATOM     61  H   UNL A   1      40.764  31.073  34.338  1.00  0.00     0.167 HD
ATOM     62  C   UNL A   1      39.167  33.376  34.845  1.00  0.00     0.074 A 
ATOM     63  C   UNL A   1      38.161  34.408  34.694  1.00  0.00     0.031 C 
ATOM     64  C   UNL A   1      40.006  33.275  35.904  1.00  0.00     0.037 A 
BRANCH  51  65
ATOM     65  C   UNL A   1      43.839  28.418  35.674  1.00  0.00     0.058 A 
ATOM     66  C   UNL A   1      45.207  28.624  35.434  1.00  0.00     0.135 A 
ATOM     67  C   UNL A   1      43.481  27.421  36.596  1.00  0.00     0.135 A 
ATOM     68  F   UNL A   1      45.608  29.555  34.553  1.00  0.00    -0.206 F 
ATOM     69  C   UNL A   1      46.180  27.842  36.049  1.00  0.00     0.059 A 
ATOM     70  C   UNL A   1      44.438  26.650  37.249  1.00  0.00     0.059 A 
ATOM     71  F   UNL A   1      42.188  27.181  36.867  1.00  0.00    -0.206 F 
ATOM     72  C   UNL A   1      45.785  26.855  36.953  1.00  0.00     0.060 A 
BRANCH  72  73
ATOM     73  S   UNL A   1      47.059  25.841  37.732  1.00  0.00     0.124 S 
ATOM     74  O   UNL A   1      48.229  26.173  36.923  1.00  0.00    -0.237 OA
ATOM     75  O   UNL A   1      47.070  26.351  39.100  1.00  0.00    -0.237 OA
ATOM     76  O   UNL A   1      46.555  24.481  37.577  1.00  0.00    -0.744 OA
ENDBRANCH  72  73
ENDBRANCH  51  65
BRANCH  52  77
ATOM     77  C   UNL A   1      36.487  33.312  30.960  1.00  0.00     0.058 A 
ATOM     78  C   UNL A   1      35.183  33.236  31.467  1.00  0.00     0.135 A 
ATOM     79  C   UNL A   1      36.699  34.101  29.817  1.00  0.00     0.135 A 
ATOM     80  F   UNL A   1      34.928  32.490  32.554  1.00  0.00    -0.206 F 
ATOM     81  C   UNL A   1      34.126  33.914  30.867  1.00  0.00     0.059 A 
ATOM     82  C   UNL A   1      35.664  34.809  29.214  1.00  0.00     0.059 A 
ATOM     83  F   UNL A   1      37.932  34.219  29.301  1.00  0.00    -0.206 F 
ATOM     84  C   UNL A   1      34.379  34.705  29.745  1.00  0.00     0.060 A 
BRANCH  84  85
ATOM     85  S   UNL A   1      33.013  35.639  29.021  1.00  0.00     0.124 S 
ATOM     86  O   UNL A   1      32.380  34.631  28.178  1.00  0.00    -0.237 OA
ATOM     87  O   UNL A   1      32.262  36.049  30.202  1.00  0.00    -0.237 OA
ATOM     88  O   UNL A   1      33.687  36.723  28.310  1.00  0.00    -0.744 OA
ENDBRANCH  84  85
ENDBRANCH  52  77
BRANCH  64  89
ATOM     89  C   UNL A   1      39.913  34.327  36.975  1.00  0.00     0.058 A 
ATOM     90  C   UNL A   1      40.591  35.552  36.872  1.00  0.00     0.135 A 
ATOM     91  C   UNL A   1      39.062  34.138  38.077  1.00  0.00     0.135 A 
ATOM     92  F   UNL A   1      41.423  35.782  35.845  1.00  0.00    -0.206 F 
ATOM     93  C   UNL A   1      40.435  36.550  37.830  1.00  0.00     0.059 A 
ATOM     94  C   UNL A   1      38.869  35.133  39.030  1.00  0.00     0.059 A 
ATOM     95  F   UNL A   1      38.385  32.988  38.218  1.00  0.00    -0.206 F 
ATOM     96  C   UNL A   1      39.565  36.333  38.900  1.00  0.00     0.060 A 
BRANCH  96  97
ATOM     97  S   UNL A   1      39.325  37.660  40.101  1.00  0.00     0.124 S 
ATOM     98  O   UNL A   1      40.610  38.347  40.042  1.00  0.00    -0.237 OA
ATOM     99  O   UNL A   1      38.190  38.387  39.540  1.00  0.00    -0.237 OA
ATOM    100  O   UNL A   1      39.051  36.948  41.346  1.00  0.00    -0.744 OA
ENDBRANCH  96  97
ENDBRANCH  64  89
ENDBRANCH  38  39
ENDBRANCH  30  33
ENDBRANCH  28  29
ENDBRANCH   1  28
TORSDOF 17
ENDMDL
MODEL 2
REMARK VINA RESULT:     -12.2      4.909     10.427
REMARK SMILES COc1cc(NC(=O)[C@@H]2CC=CC[C@H]2C(=O)NCCCNC(=O)c2ccc(-c3c4nc(c(-c5c(F)cc(S(=O)(=O)[O-])cc5F)c5ccc([nH]5)c(-c5c(F)cc(S(=O)(=O)[O-])cc5F)c5nc(c(-c6c(F)cc(S(=O)(=O)[O-])cc6F)c6ccc3[nH]6)C=C5)C=C4)cc2)c(OC)cc1Cl
REMARK SMILES IDX 19 1 18 2 17 3 15 4 16 5 14 7 9 8 10 9 11 10 13 11 12 12
REMARK SMILES IDX 7 13 6 14 8 16 5 17 3 18 4 19 94 20 93 21 95 22 90 23 2 24
REMARK SMILES IDX 1 25 91 26 92 27 20 28 21 29 22 30 23 32 24 33 25 34 89 35
REMARK SMILES IDX 26 36 88 37 27 38 28 39 29 40 82 41 30 42 87 43 81 44 83 45
REMARK SMILES IDX 31 46 86 47 80 48 79 49 32 51 66 52 45 53 65 54 46 55 49 56
REMARK SMILES IDX 64 57 84 58 47 59 48 60 63 62 85 63 50 64 33 65 34 66 43 67
REMARK SMILES IDX 35 68 36 69 42 70 44 71 37 72 38 73 39 74 40 75 41 76 67 77
REMARK SMILES IDX 68 78 77 79 69 80 70 81 76 82 78 83 71 84 72 85 73 86 74 87
REMARK SMILES IDX 75 88 51 89 52 90 61 91 53 92 54 93 60 94 62 95 55 96 56 97
REMARK SMILES IDX 57 98 58 99 59 100
REMARK H PARENT 17 6 6 15 21 31 83 50 49 61
REMARK Flexibility Score: inf
ROOT
ATOM      1  C   UNL A   1      33.305  27.958  25.945  1.00  0.00     0.042 C 
ENDROOT
BRANCH   1   2
ATOM      2  C   UNL A   1      33.348  29.151  24.997  1.00  0.00     0.117 C 
BRANCH   2   3
ATOM      3  N   UNL A   1      33.996  28.842  23.731  1.00  0.00    -0.356 N 
ATOM      4  C   UNL A   1      33.493  28.404  22.545  1.00  0.00     0.224 C 
ATOM      5  O   UNL A   1      34.286  28.252  21.610  1.00  0.00    -0.275 OA
ATOM      6  H   UNL A   1      34.972  28.972  23.734  1.00  0.00     0.163 HD
BRANCH   4   7
ATOM      7  C   UNL A   1      32.002  28.149  22.333  1.00  0.00     0.095 C 
ATOM      8  C   UNL A   1      31.569  26.785  22.899  1.00  0.00     0.095 C 
ATOM      9  C   UNL A   1      30.087  26.573  23.225  1.00  0.00     0.041 C 
ATOM     10  C   UNL A   1      29.306  27.835  23.423  1.00  0.00    -0.030 C 
ATOM     11  C   UNL A   1      31.198  29.365  22.814  1.00  0.00     0.041 C 
ATOM     12  C   UNL A   1      29.799  29.067  23.248  1.00  0.00    -0.030 C 
BRANCH   8  13
ATOM     13  C   UNL A   1      32.227  25.656  22.116  1.00  0.00     0.228 C 
ATOM     14  N   UNL A   1      32.728  24.506  22.629  1.00  0.00    -0.323 N 
ATOM     15  H   UNL A   1      33.058  23.913  21.916  1.00  0.00     0.170 HD
ATOM     16  O   UNL A   1      32.303  25.780  20.885  1.00  0.00    -0.274 OA
BRANCH  14  17
ATOM     17  C   UNL A   1      32.906  23.926  23.898  1.00  0.00     0.087 A 
ATOM     18  C   UNL A   1      32.359  23.556  26.226  1.00  0.00     0.139 A 
ATOM     19  C   UNL A   1      32.005  24.007  24.953  1.00  0.00     0.078 A 
ATOM     20  C   UNL A   1      33.581  22.921  26.437  1.00  0.00     0.086 A 
ATOM     21  C   UNL A   1      34.463  22.751  25.371  1.00  0.00     0.073 A 
ATOM     22  Cl  UNL A   1      34.038  22.335  27.994  1.00  0.00    -0.080 Cl
ATOM     23  C   UNL A   1      34.129  23.242  24.103  1.00  0.00     0.144 A 
BRANCH  18  24
ATOM     24  O   UNL A   1      31.450  23.751  27.233  1.00  0.00    -0.495 OA
ATOM     25  C   UNL A   1      30.204  23.129  26.902  1.00  0.00     0.278 C 
ENDBRANCH  18  24
BRANCH  23  26
ATOM     26  O   UNL A   1      34.943  23.145  22.996  1.00  0.00    -0.495 OA
ATOM     27  C   UNL A   1      36.346  23.067  23.225  1.00  0.00     0.278 C 
ENDBRANCH  23  26
ENDBRANCH  14  17
ENDBRANCH   8  13
ENDBRANCH   4   7
ENDBRANCH   2   3
ENDBRANCH   1   2
BRANCH   1  28
ATOM     28  C   UNL A   1      33.628  28.313  27.386  1.00  0.00     0.118 C 
BRANCH  28  29
ATOM     29  N   UNL A   1      33.569  29.749  27.618  1.00  0.00    -0.352 N 
ATOM     30  C   UNL A   1      34.496  30.580  28.197  1.00  0.00     0.251 C 
ATOM     31  H   UNL A   1      32.742  30.190  27.314  1.00  0.00     0.163 HD
ATOM     32  O   UNL A   1      34.168  31.709  28.547  1.00  0.00    -0.269 OA
BRANCH  30  33
ATOM     33  C   UNL A   1      35.881  30.105  28.406  1.00  0.00     0.039 A 
ATOM     34  C   UNL A   1      36.773  30.103  27.331  1.00  0.00     0.014 A 
ATOM     35  C   UNL A   1      36.292  29.652  29.662  1.00  0.00     0.014 A 
ATOM     36  C   UNL A   1      38.097  29.706  27.535  1.00  0.00     0.010 A 
ATOM     37  C   UNL A   1      37.630  29.351  29.884  1.00  0.00     0.010 A 
ATOM     38  C   UNL A   1      38.544  29.360  28.821  1.00  0.00    -0.014 A 
BRANCH  38  39
ATOM     39  C   UNL A   1      39.956  28.985  29.084  1.00  0.00     0.031 A 
ATOM     40  C   UNL A   1      40.917  30.018  29.608  1.00  0.00     0.074 A 
ATOM     41  C   UNL A   1      40.391  27.750  28.768  1.00  0.00     0.049 A 
ATOM     42  N   UNL A   1      42.208  29.927  29.793  1.00  0.00    -0.248 NA
ATOM     43  C   UNL A   1      40.356  31.339  29.934  1.00  0.00     0.031 C 
ATOM     44  C   UNL A   1      39.564  26.679  28.208  1.00  0.00     0.029 A 
ATOM     45  N   UNL A   1      41.643  27.192  28.852  1.00  0.00    -0.354 N 
ATOM     46  C   UNL A   1      42.616  31.182  30.232  1.00  0.00     0.074 A 
ATOM     47  C   UNL A   1      41.445  32.031  30.232  1.00  0.00     0.031 C 
ATOM     48  C   UNL A   1      40.325  25.591  28.013  1.00  0.00     0.029 A 
ATOM     49  C   UNL A   1      41.702  25.899  28.388  1.00  0.00     0.049 A 
ATOM     50  H   UNL A   1      42.423  27.672  29.211  1.00  0.00     0.167 HD
ATOM     51  C   UNL A   1      43.850  31.584  30.618  1.00  0.00     0.037 A 
ATOM     52  C   UNL A   1      42.751  25.062  28.259  1.00  0.00     0.037 A 
ATOM     53  C   UNL A   1      45.003  30.722  30.635  1.00  0.00     0.049 A 
ATOM     54  C   UNL A   1      44.115  25.528  28.692  1.00  0.00     0.074 A 
ATOM     55  C   UNL A   1      46.284  31.007  31.071  1.00  0.00     0.029 A 
ATOM     56  N   UNL A   1      45.016  29.408  30.186  1.00  0.00    -0.354 N 
ATOM     57  N   UNL A   1      44.472  26.696  29.172  1.00  0.00    -0.248 NA
ATOM     58  C   UNL A   1      45.217  24.563  28.575  1.00  0.00     0.031 C 
ATOM     59  C   UNL A   1      47.085  29.886  30.835  1.00  0.00     0.029 A 
ATOM     60  C   UNL A   1      46.290  28.879  30.310  1.00  0.00     0.049 A 
ATOM     61  H   UNL A   1      44.235  28.924  29.832  1.00  0.00     0.167 HD
ATOM     62  C   UNL A   1      45.833  26.598  29.441  1.00  0.00     0.074 A 
ATOM     63  C   UNL A   1      46.233  25.255  29.074  1.00  0.00     0.031 C 
ATOM     64  C   UNL A   1      46.671  27.534  29.951  1.00  0.00     0.037 A 
BRANCH  51  65
ATOM     65  C   UNL A   1      44.016  33.019  31.043  1.00  0.00     0.058 A 
ATOM     66  C   UNL A   1      43.761  33.437  32.360  1.00  0.00     0.135 A 
ATOM     67  C   UNL A   1      44.451  33.988  30.124  1.00  0.00     0.135 A 
ATOM     68  F   UNL A   1      43.331  32.558  33.278  1.00  0.00    -0.206 F 
ATOM     69  C   UNL A   1      43.890  34.770  32.739  1.00  0.00     0.059 A 
ATOM     70  C   UNL A   1      44.620  35.320  30.489  1.00  0.00     0.059 A 
ATOM     71  F   UNL A   1      44.712  33.646  28.852  1.00  0.00    -0.206 F 
ATOM     72  C   UNL A   1      44.317  35.705  31.794  1.00  0.00     0.060 A 
BRANCH  72  73
ATOM     73  S   UNL A   1      44.466  37.431  32.299  1.00  0.00     0.124 S 
ATOM     74  O   UNL A   1      43.832  38.118  31.177  1.00  0.00    -0.237 OA
ATOM     75  O   UNL A   1      43.723  37.455  33.556  1.00  0.00    -0.237 OA
ATOM     76  O   UNL A   1      45.907  37.628  32.422  1.00  0.00    -0.744 OA
ENDBRANCH  72  73
ENDBRANCH  51  65
BRANCH  52  77
ATOM     77  C   UNL A   1      42.537  23.695  27.713  1.00  0.00     0.058 A 
ATOM     78  C   UNL A   1      42.521  23.463  26.331  1.00  0.00     0.135 A 
ATOM     79  C   UNL A   1      42.391  22.586  28.563  1.00  0.00     0.135 A 
ATOM     80  F   UNL A   1      42.650  24.491  25.477  1.00  0.00    -0.206 F 
ATOM     81  C   UNL A   1      42.366  22.184  25.807  1.00  0.00     0.059 A 
ATOM     82  C   UNL A   1      42.261  21.294  28.065  1.00  0.00     0.059 A 
ATOM     83  F   UNL A   1      42.415  22.752  29.895  1.00  0.00    -0.206 F 
ATOM     84  C   UNL A   1      42.245  21.104  26.684  1.00  0.00     0.060 A 
BRANCH  84  85
ATOM     85  S   UNL A   1      42.120  19.440  25.993  1.00  0.00     0.124 S 
ATOM     86  O   UNL A   1      42.982  19.540  24.821  1.00  0.00    -0.237 OA
ATOM     87  O   UNL A   1      42.622  18.616  27.087  1.00  0.00    -0.237 OA
ATOM     88  O   UNL A   1      40.693  19.297  25.716  1.00  0.00    -0.744 OA
ENDBRANCH  84  85
ENDBRANCH  52  77
BRANCH  64  89
ATOM     89  C   UNL A   1      48.102  27.137  30.189  1.00  0.00     0.058 A 
ATOM     90  C   UNL A   1      49.114  27.419  29.258  1.00  0.00     0.135 A 
ATOM     91  C   UNL A   1      48.476  26.544  31.407  1.00  0.00     0.135 A 
ATOM     92  F   UNL A   1      48.811  27.977  28.076  1.00  0.00    -0.206 F 
ATOM     93  C   UNL A   1      50.447  27.119  29.524  1.00  0.00     0.059 A 
ATOM     94  C   UNL A   1      49.806  26.262  31.704  1.00  0.00     0.059 A 
ATOM     95  F   UNL A   1      47.548  26.261  32.334  1.00  0.00    -0.206 F 
ATOM     96  C   UNL A   1      50.783  26.549  30.753  1.00  0.00     0.060 A 
BRANCH  96  97
ATOM     97  S   UNL A   1      52.523  26.222  31.108  1.00  0.00     0.124 S 
ATOM     98  O   UNL A   1      52.444  24.959  31.833  1.00  0.00    -0.237 OA
ATOM     99  O   UNL A   1      53.106  26.152  29.772  1.00  0.00    -0.237 OA
ATOM    100  O   UNL A   1      52.931  27.377  31.904  1.00  0.00    -0.744 OA
ENDBRANCH  96  97
ENDBRANCH  64  89
ENDBRANCH  38  39
ENDBRANCH  30  33
ENDBRANCH  28  29
ENDBRANCH   1  28
TORSDOF 17
ENDMDL
MODEL 3
REMARK VINA RESULT:     -12.0      2.592      8.554
REMARK SMILES COc1cc(NC(=O)[C@@H]2CC=CC[C@H]2C(=O)NCCCNC(=O)c2ccc(-c3c4nc(c(-c5c(F)cc(S(=O)(=O)[O-])cc5F)c5ccc([nH]5)c(-c5c(F)cc(S(=O)(=O)[O-])cc5F)c5nc(c(-c6c(F)cc(S(=O)(=O)[O-])cc6F)c6ccc3[nH]6)C=C5)C=C4)cc2)c(OC)cc1Cl
REMARK SMILES IDX 19 1 18 2 17 3 15 4 16 5 14 7 9 8 10 9 11 10 13 11 12 12
REMARK SMILES IDX 7 13 6 14 8 16 5 17 3 18 4 19 94 20 93 21 95 22 90 23 2 24
REMARK SMILES IDX 1 25 91 26 92 27 20 28 21 29 22 30 23 32 24 33 25 34 89 35
REMARK SMILES IDX 26 36 88 37 27 38 28 39 29 40 82 41 30 42 87 43 81 44 83 45
REMARK SMILES IDX 31 46 86 47 80 48 79 49 32 51 66 52 45 53 65 54 46 55 49 56
REMARK SMILES IDX 64 57 84 58 47 59 48 60 63 62 85 63 50 64 33 65 34 66 43 67
REMARK SMILES IDX 35 68 36 69 42 70 44 71 37 72 38 73 39 74 40 75 41 76 67 77
REMARK SMILES IDX 68 78 77 79 69 80 70 81 76 82 78 83 71 84 72 85 73 86 74 87
REMARK SMILES IDX 75 88 51 89 52 90 61 91 53 92 54 93 60 94 62 95 55 96 56 97
REMARK SMILES IDX 57 98 58 99 59 100
REMARK H PARENT 17 6 6 15 21 31 83 50 49 61
REMARK Flexibility Score: inf
ROOT
ATOM      1  C   UNL A   1      31.560  32.348  26.672  1.00  0.00     0.042 C 
ENDROOT
BRANCH   1   2
ATOM      2  C   UNL A   1      31.623  30.835  26.498  1.00  0.00     0.117 C 
BRANCH   2   3
ATOM      3  N   UNL A   1      32.931  30.285  26.820  1.00  0.00    -0.356 N 
ATOM      4  C   UNL A   1      33.599  29.203  26.335  1.00  0.00     0.224 C 
ATOM      5  O   UNL A   1      34.731  28.986  26.775  1.00  0.00    -0.275 OA
ATOM      6  H   UNL A   1      33.420  30.786  27.512  1.00  0.00     0.163 HD
BRANCH   4   7
ATOM      7  C   UNL A   1      33.014  28.301  25.249  1.00  0.00     0.095 C 
ATOM      8  C   UNL A   1      31.531  27.982  25.510  1.00  0.00     0.095 C 
ATOM      9  C   UNL A   1      30.668  27.531  24.326  1.00  0.00     0.041 C 
ATOM     10  C   UNL A   1      31.208  27.911  22.981  1.00  0.00    -0.030 C 
ATOM     11  C   UNL A   1      33.347  28.876  23.866  1.00  0.00     0.041 C 
ATOM     12  C   UNL A   1      32.388  28.510  22.780  1.00  0.00    -0.030 C 
BRANCH   8  13
ATOM     13  C   UNL A   1      31.386  27.141  26.772  1.00  0.00     0.228 C 
ATOM     14  N   UNL A   1      31.584  25.805  26.876  1.00  0.00    -0.323 N 
ATOM     15  H   UNL A   1      31.476  25.500  27.806  1.00  0.00     0.170 HD
ATOM     16  O   UNL A   1      31.073  27.726  27.819  1.00  0.00    -0.274 OA
BRANCH  14  17
ATOM     17  C   UNL A   1      31.903  24.732  26.022  1.00  0.00     0.087 A 
ATOM     18  C   UNL A   1      32.972  23.708  24.108  1.00  0.00     0.139 A 
ATOM     19  C   UNL A   1      32.863  24.761  25.019  1.00  0.00     0.078 A 
ATOM     20  C   UNL A   1      32.191  22.564  24.254  1.00  0.00     0.086 A 
ATOM     21  C   UNL A   1      31.283  22.478  25.308  1.00  0.00     0.073 A 
ATOM     22  Cl  UNL A   1      32.317  21.238  23.158  1.00  0.00    -0.080 Cl
ATOM     23  C   UNL A   1      31.140  23.552  26.196  1.00  0.00     0.144 A 
BRANCH  18  24
ATOM     24  O   UNL A   1      33.883  23.850  23.095  1.00  0.00    -0.495 OA
ATOM     25  C   UNL A   1      33.640  25.064  22.377  1.00  0.00     0.278 C 
ENDBRANCH  18  24
BRANCH  23  26
ATOM     26  O   UNL A   1      30.254  23.572  27.250  1.00  0.00    -0.495 OA
ATOM     27  C   UNL A   1      29.230  22.583  27.258  1.00  0.00     0.278 C 
ENDBRANCH  23  26
ENDBRANCH  14  17
ENDBRANCH   8  13
ENDBRANCH   4   7
ENDBRANCH   2   3
ENDBRANCH   1   2
BRANCH   1  28
ATOM     28  C   UNL A   1      32.713  32.916  27.481  1.00  0.00     0.118 C 
BRANCH  28  29
ATOM     29  N   UNL A   1      32.528  34.330  27.773  1.00  0.00    -0.352 N 
ATOM     30  C   UNL A   1      33.076  35.096  28.773  1.00  0.00     0.251 C 
ATOM     31  H   UNL A   1      31.921  34.809  27.164  1.00  0.00     0.163 HD
ATOM     32  O   UNL A   1      32.604  36.199  29.024  1.00  0.00    -0.269 OA
BRANCH  30  33
ATOM     33  C   UNL A   1      34.225  34.579  29.548  1.00  0.00     0.039 A 
ATOM     34  C   UNL A   1      34.015  34.084  30.837  1.00  0.00     0.014 A 
ATOM     35  C   UNL A   1      35.511  34.593  29.003  1.00  0.00     0.014 A 
ATOM     36  C   UNL A   1      35.087  33.545  31.553  1.00  0.00     0.010 A 
ATOM     37  C   UNL A   1      36.555  33.970  29.676  1.00  0.00     0.010 A 
ATOM     38  C   UNL A   1      36.358  33.452  30.964  1.00  0.00    -0.014 A 
BRANCH  38  39
ATOM     39  C   UNL A   1      37.507  32.838  31.674  1.00  0.00     0.031 A 
ATOM     40  C   UNL A   1      38.180  31.623  31.093  1.00  0.00     0.074 A 
ATOM     41  C   UNL A   1      37.882  33.313  32.877  1.00  0.00     0.049 A 
ATOM     42  N   UNL A   1      39.118  30.871  31.609  1.00  0.00    -0.248 NA
ATOM     43  C   UNL A   1      37.712  31.175  29.772  1.00  0.00     0.031 C 
ATOM     44  C   UNL A   1      37.273  34.454  33.565  1.00  0.00     0.029 A 
ATOM     45  N   UNL A   1      38.853  32.883  33.747  1.00  0.00    -0.354 N 
ATOM     46  C   UNL A   1      39.333  29.852  30.689  1.00  0.00     0.074 A 
ATOM     47  C   UNL A   1      38.390  30.050  29.610  1.00  0.00     0.031 C 
ATOM     48  C   UNL A   1      37.893  34.642  34.740  1.00  0.00     0.029 A 
ATOM     49  C   UNL A   1      38.910  33.609  34.914  1.00  0.00     0.049 A 
ATOM     50  H   UNL A   1      39.453  32.127  33.554  1.00  0.00     0.167 HD
ATOM     51  C   UNL A   1      40.246  28.853  30.731  1.00  0.00     0.037 A 
ATOM     52  C   UNL A   1      39.680  33.450  36.009  1.00  0.00     0.037 A 
ATOM     53  C   UNL A   1      41.194  28.681  31.800  1.00  0.00     0.049 A 
ATOM     54  C   UNL A   1      40.688  32.332  36.037  1.00  0.00     0.074 A 
ATOM     55  C   UNL A   1      42.206  27.745  31.909  1.00  0.00     0.029 A 
ATOM     56  N   UNL A   1      41.240  29.456  32.951  1.00  0.00    -0.354 N 
ATOM     57  N   UNL A   1      40.928  31.418  35.127  1.00  0.00    -0.248 NA
ATOM     58  C   UNL A   1      41.534  32.228  37.233  1.00  0.00     0.031 C 
ATOM     59  C   UNL A   1      42.829  27.918  33.150  1.00  0.00     0.029 A 
ATOM     60  C   UNL A   1      42.247  29.003  33.787  1.00  0.00     0.049 A 
ATOM     61  H   UNL A   1      40.646  30.217  33.143  1.00  0.00     0.167 HD
ATOM     62  C   UNL A   1      41.972  30.647  35.627  1.00  0.00     0.074 A 
ATOM     63  C   UNL A   1      42.319  31.207  36.918  1.00  0.00     0.031 C 
ATOM     64  C   UNL A   1      42.589  29.579  35.066  1.00  0.00     0.037 A 
BRANCH  51  65
ATOM     65  C   UNL A   1      40.255  27.866  29.593  1.00  0.00     0.058 A 
ATOM     66  C   UNL A   1      39.388  26.762  29.561  1.00  0.00     0.135 A 
ATOM     67  C   UNL A   1      41.135  28.036  28.512  1.00  0.00     0.135 A 
ATOM     68  F   UNL A   1      38.534  26.541  30.573  1.00  0.00    -0.206 F 
ATOM     69  C   UNL A   1      39.422  25.839  28.520  1.00  0.00     0.059 A 
ATOM     70  C   UNL A   1      41.163  27.145  27.443  1.00  0.00     0.059 A 
ATOM     71  F   UNL A   1      41.985  29.075  28.487  1.00  0.00    -0.206 F 
ATOM     72  C   UNL A   1      40.316  26.038  27.467  1.00  0.00     0.060 A 
BRANCH  72  73
ATOM     73  S   UNL A   1      40.356  24.824  26.131  1.00  0.00     0.124 S 
ATOM     74  O   UNL A   1      41.248  23.810  26.687  1.00  0.00    -0.237 OA
ATOM     75  O   UNL A   1      38.953  24.439  26.017  1.00  0.00    -0.237 OA
ATOM     76  O   UNL A   1      40.890  25.578  25.001  1.00  0.00    -0.744 OA
ENDBRANCH  72  73
ENDBRANCH  51  65
BRANCH  52  77
ATOM     77  C   UNL A   1      39.533  34.388  37.153  1.00  0.00     0.058 A 
ATOM     78  C   UNL A   1      38.849  34.007  38.316  1.00  0.00     0.135 A 
ATOM     79  C   UNL A   1      40.112  35.667  37.125  1.00  0.00     0.135 A 
ATOM     80  F   UNL A   1      38.273  32.797  38.390  1.00  0.00    -0.206 F 
ATOM     81  C   UNL A   1      38.742  34.859  39.411  1.00  0.00     0.059 A 
ATOM     82  C   UNL A   1      40.041  36.528  38.217  1.00  0.00     0.059 A 
ATOM     83  F   UNL A   1      40.791  36.075  36.041  1.00  0.00    -0.206 F 
ATOM     84  C   UNL A   1      39.349  36.115  39.354  1.00  0.00     0.060 A 
BRANCH  84  85
ATOM     85  S   UNL A   1      39.267  37.181  40.810  1.00  0.00     0.124 S 
ATOM     86  O   UNL A   1      38.557  38.343  40.285  1.00  0.00    -0.237 OA
ATOM     87  O   UNL A   1      38.526  36.353  41.755  1.00  0.00    -0.237 OA
ATOM     88  O   UNL A   1      40.671  37.399  41.147  1.00  0.00    -0.744 OA
ENDBRANCH  84  85
ENDBRANCH  52  77
BRANCH  64  89
ATOM     89  C   UNL A   1      43.736  28.959  35.814  1.00  0.00     0.058 A 
ATOM     90  C   UNL A   1      45.032  29.495  35.761  1.00  0.00     0.135 A 
ATOM     91  C   UNL A   1      43.513  27.863  36.665  1.00  0.00     0.135 A 
ATOM     92  F   UNL A   1      45.303  30.535  34.958  1.00  0.00    -0.206 F 
ATOM     93  C   UNL A   1      46.069  28.960  36.520  1.00  0.00     0.059 A 
ATOM     94  C   UNL A   1      44.529  27.332  37.454  1.00  0.00     0.059 A 
ATOM     95  F   UNL A   1      42.290  27.318  36.758  1.00  0.00    -0.206 F 
ATOM     96  C   UNL A   1      45.805  27.884  37.370  1.00  0.00     0.060 A 
BRANCH  96  97
ATOM     97  S   UNL A   1      47.146  27.242  38.395  1.00  0.00     0.124 S 
ATOM     98  O   UNL A   1      48.307  27.905  37.811  1.00  0.00    -0.237 OA
ATOM     99  O   UNL A   1      46.762  27.692  39.729  1.00  0.00    -0.237 OA
ATOM    100  O   UNL A   1      47.076  25.799  38.182  1.00  0.00    -0.744 OA
ENDBRANCH  96  97
ENDBRANCH  64  89
ENDBRANCH  38  39
ENDBRANCH  30  33
ENDBRANCH  28  29
ENDBRANCH   1  28
TORSDOF 17
ENDMDL
