MODEL 1
REMARK VINA RESULT:     -10.6      0.000      0.000
REMARK SMILES NC(=O)C[N@H+]1CCCC[C@H]1C(=O)NCCCNC(=O)c1ccc(-c2c3nc(c(-c4c(F)cc(S(=O)(=O)[O-])cc4F)c4ccc([nH]4)c(-c4c(F)cc(S(=O)(=O)[O-])cc4F)c4nc(c(-c5c(F)cc(S(=O)(=O)[O-])cc5F)c5ccc2[nH]5)C=C4)C=C3)cc1
REMARK SMILES IDX 15 1 14 2 13 3 11 4 12 5 10 7 5 8 6 9 7 11 9 12 8 13 4 14
REMARK SMILES IDX 2 15 1 16 3 19 16 20 17 21 18 22 19 24 20 25 21 26 85 27
REMARK SMILES IDX 22 28 84 29 23 30 24 31 25 32 78 33 26 34 83 35 77 36 79 37
REMARK SMILES IDX 27 38 82 39 76 40 75 41 28 43 62 44 41 45 61 46 42 47 45 48
REMARK SMILES IDX 60 49 80 50 43 51 44 52 59 54 81 55 46 56 29 57 30 58 39 59
REMARK SMILES IDX 31 60 32 61 38 62 40 63 33 64 34 65 35 66 36 67 37 68 63 69
REMARK SMILES IDX 64 70 73 71 65 72 66 73 72 74 74 75 67 76 68 77 69 78 70 79
REMARK SMILES IDX 71 80 47 81 48 82 57 83 49 84 50 85 56 86 58 87 51 88 52 89
REMARK SMILES IDX 53 90 54 91 55 92
REMARK H PARENT 13 6 5 10 1 17 1 18 17 23 79 42 45 53
REMARK Flexibility Score: inf
ROOT
ATOM      1  C   UNL A   1      33.339  28.044  25.545  1.00  0.00     0.042 C 
ENDROOT
BRANCH   1   2
ATOM      2  C   UNL A   1      32.480  26.793  25.386  1.00  0.00     0.118 C 
BRANCH   2   3
ATOM      3  N   UNL A   1      32.858  26.057  24.195  1.00  0.00    -0.351 N 
ATOM      4  C   UNL A   1      33.711  25.002  24.058  1.00  0.00     0.278 C 
ATOM      5  O   UNL A   1      34.055  24.706  22.913  1.00  0.00    -0.268 OA
ATOM      6  H   UNL A   1      32.436  26.367  23.361  1.00  0.00     0.163 HD
BRANCH   4   7
ATOM      7  C   UNL A   1      34.153  24.221  25.322  1.00  0.00     0.274 C 
ATOM      8  N   UNL A   1      33.556  22.857  25.433  1.00  0.00    -0.317 N 
ATOM      9  C   UNL A   1      34.161  21.915  24.460  1.00  0.00     0.263 C 
ATOM     10  H   UNL A   1      33.766  22.574  26.391  1.00  0.00     0.349 HD
ATOM     11  C   UNL A   1      35.691  21.868  24.499  1.00  0.00     0.062 C 
ATOM     12  C   UNL A   1      35.679  24.143  25.475  1.00  0.00     0.076 C 
ATOM     13  C   UNL A   1      36.307  23.254  24.416  1.00  0.00     0.012 C 
BRANCH   8  14
ATOM     14  C   UNL A   1      32.075  22.813  25.257  1.00  0.00     0.363 C 
BRANCH  14  15
ATOM     15  C   UNL A   1      31.264  22.960  26.546  1.00  0.00     0.272 C 
ATOM     16  N   UNL A   1      29.976  22.512  26.507  1.00  0.00    -0.365 N 
ATOM     17  H   UNL A   1      29.408  22.581  27.308  1.00  0.00     0.159 HD
ATOM     18  H   UNL A   1      29.616  22.121  25.679  1.00  0.00     0.159 HD
ATOM     19  O   UNL A   1      31.699  23.490  27.565  1.00  0.00    -0.269 OA
ENDBRANCH  14  15
ENDBRANCH   8  14
ENDBRANCH   4   7
ENDBRANCH   2   3
ENDBRANCH   1   2
BRANCH   1  20
ATOM     20  C   UNL A   1      33.814  28.275  26.972  1.00  0.00     0.118 C 
BRANCH  20  21
ATOM     21  N   UNL A   1      33.636  29.655  27.395  1.00  0.00    -0.352 N 
ATOM     22  C   UNL A   1      34.491  30.453  28.112  1.00  0.00     0.251 C 
ATOM     23  H   UNL A   1      32.785  30.073  27.131  1.00  0.00     0.163 HD
ATOM     24  O   UNL A   1      34.093  31.518  28.576  1.00  0.00    -0.269 OA
BRANCH  22  25
ATOM     25  C   UNL A   1      35.884  30.013  28.333  1.00  0.00     0.039 A 
ATOM     26  C   UNL A   1      36.798  30.076  27.278  1.00  0.00     0.014 A 
ATOM     27  C   UNL A   1      36.285  29.544  29.587  1.00  0.00     0.014 A 
ATOM     28  C   UNL A   1      38.130  29.719  27.498  1.00  0.00     0.010 A 
ATOM     29  C   UNL A   1      37.626  29.274  29.825  1.00  0.00     0.010 A 
ATOM     30  C   UNL A   1      38.559  29.342  28.780  1.00  0.00    -0.014 A 
BRANCH  30  31
ATOM     31  C   UNL A   1      39.970  28.973  29.060  1.00  0.00     0.031 A 
ATOM     32  C   UNL A   1      40.902  30.004  29.635  1.00  0.00     0.074 A 
ATOM     33  C   UNL A   1      40.432  27.756  28.715  1.00  0.00     0.049 A 
ATOM     34  N   UNL A   1      42.193  29.940  29.828  1.00  0.00    -0.248 NA
ATOM     35  C   UNL A   1      40.303  31.296  30.013  1.00  0.00     0.031 C 
ATOM     36  C   UNL A   1      39.631  26.681  28.127  1.00  0.00     0.029 A 
ATOM     37  N   UNL A   1      41.693  27.224  28.795  1.00  0.00    -0.354 N 
ATOM     38  C   UNL A   1      42.565  31.187  30.315  1.00  0.00     0.074 A 
ATOM     39  C   UNL A   1      41.372  32.004  30.341  1.00  0.00     0.031 C 
ATOM     40  C   UNL A   1      40.416  25.612  27.918  1.00  0.00     0.029 A 
ATOM     41  C   UNL A   1      41.784  25.941  28.310  1.00  0.00     0.049 A 
ATOM     42  H   UNL A   1      42.463  27.716  29.162  1.00  0.00     0.167 HD
ATOM     43  C   UNL A   1      43.786  31.606  30.723  1.00  0.00     0.037 A 
ATOM     44  C   UNL A   1      42.850  25.127  28.185  1.00  0.00     0.037 A 
ATOM     45  C   UNL A   1      44.960  30.774  30.717  1.00  0.00     0.049 A 
ATOM     46  C   UNL A   1      44.202  25.616  28.629  1.00  0.00     0.074 A 
ATOM     47  C   UNL A   1      46.234  31.080  31.163  1.00  0.00     0.029 A 
ATOM     48  N   UNL A   1      45.006  29.474  30.234  1.00  0.00    -0.354 N 
ATOM     49  N   UNL A   1      44.531  26.781  29.135  1.00  0.00    -0.248 NA
ATOM     50  C   UNL A   1      45.328  24.684  28.486  1.00  0.00     0.031 C 
ATOM     51  C   UNL A   1      47.062  29.984  30.900  1.00  0.00     0.029 A 
ATOM     52  C   UNL A   1      46.291  28.971  30.350  1.00  0.00     0.049 A 
ATOM     53  H   UNL A   1      44.238  28.981  29.865  1.00  0.00     0.167 HD
ATOM     54  C   UNL A   1      45.892  26.706  29.412  1.00  0.00     0.074 A 
ATOM     55  C   UNL A   1      46.326  25.383  29.010  1.00  0.00     0.031 C 
ATOM     56  C   UNL A   1      46.703  27.643  29.962  1.00  0.00     0.037 A 
BRANCH  43  57
ATOM     57  C   UNL A   1      43.910  33.034  31.189  1.00  0.00     0.058 A 
ATOM     58  C   UNL A   1      43.741  33.395  32.536  1.00  0.00     0.135 A 
ATOM     59  C   UNL A   1      44.200  34.057  30.272  1.00  0.00     0.135 A 
ATOM     60  F   UNL A   1      43.450  32.461  33.455  1.00  0.00    -0.206 F 
ATOM     61  C   UNL A   1      43.799  34.722  32.946  1.00  0.00     0.059 A 
ATOM     62  C   UNL A   1      44.300  35.388  30.666  1.00  0.00     0.059 A 
ATOM     63  F   UNL A   1      44.377  33.771  28.971  1.00  0.00    -0.206 F 
ATOM     64  C   UNL A   1      44.072  35.713  32.002  1.00  0.00     0.060 A 
BRANCH  64  65
ATOM     65  S   UNL A   1      44.113  37.433  32.545  1.00  0.00     0.124 S 
ATOM     66  O   UNL A   1      45.488  37.553  33.023  1.00  0.00    -0.237 OA
ATOM     67  O   UNL A   1      43.805  38.158  31.316  1.00  0.00    -0.237 OA
ATOM     68  O   UNL A   1      43.084  37.490  33.578  1.00  0.00    -0.744 OA
ENDBRANCH  64  65
ENDBRANCH  43  57
BRANCH  44  69
ATOM     69  C   UNL A   1      42.667  23.749  27.655  1.00  0.00     0.058 A 
ATOM     70  C   UNL A   1      42.514  22.662  28.527  1.00  0.00     0.135 A 
ATOM     71  C   UNL A   1      42.595  23.495  26.276  1.00  0.00     0.135 A 
ATOM     72  F   UNL A   1      42.584  22.852  29.854  1.00  0.00    -0.206 F 
ATOM     73  C   UNL A   1      42.301  21.371  28.055  1.00  0.00     0.059 A 
ATOM     74  C   UNL A   1      42.357  22.217  25.779  1.00  0.00     0.059 A 
ATOM     75  F   UNL A   1      42.719  24.504  25.399  1.00  0.00    -0.206 F 
ATOM     76  C   UNL A   1      42.214  21.160  26.677  1.00  0.00     0.060 A 
BRANCH  76  77
ATOM     77  S   UNL A   1      41.858  19.493  26.081  1.00  0.00     0.124 S 
ATOM     78  O   UNL A   1      40.430  19.580  25.800  1.00  0.00    -0.237 OA
ATOM     79  O   UNL A   1      42.734  19.393  24.917  1.00  0.00    -0.237 OA
ATOM     80  O   UNL A   1      42.230  18.645  27.210  1.00  0.00    -0.744 OA
ENDBRANCH  76  77
ENDBRANCH  44  69
BRANCH  56  81
ATOM     81  C   UNL A   1      48.135  27.264  30.226  1.00  0.00     0.058 A 
ATOM     82  C   UNL A   1      49.168  27.584  29.332  1.00  0.00     0.135 A 
ATOM     83  C   UNL A   1      48.485  26.649  31.440  1.00  0.00     0.135 A 
ATOM     84  F   UNL A   1      48.888  28.164  28.154  1.00  0.00    -0.206 F 
ATOM     85  C   UNL A   1      50.498  27.299  29.630  1.00  0.00     0.059 A 
ATOM     86  C   UNL A   1      49.809  26.383  31.770  1.00  0.00     0.059 A 
ATOM     87  F   UNL A   1      47.535  26.330  32.334  1.00  0.00    -0.206 F 
ATOM     88  C   UNL A   1      50.808  26.707  30.856  1.00  0.00     0.060 A 
BRANCH  88  89
ATOM     89  S   UNL A   1      52.543  26.405  31.256  1.00  0.00     0.124 S 
ATOM     90  O   UNL A   1      52.898  27.629  31.967  1.00  0.00    -0.237 OA
ATOM     91  O   UNL A   1      52.467  25.196  32.072  1.00  0.00    -0.237 OA
ATOM     92  O   UNL A   1      53.169  26.233  29.949  1.00  0.00    -0.744 OA
ENDBRANCH  88  89
ENDBRANCH  56  81
ENDBRANCH  30  31
ENDBRANCH  22  25
ENDBRANCH  20  21
ENDBRANCH   1  20
TORSDOF 15
ENDMDL
MODEL 2
REMARK VINA RESULT:     -10.6      5.848     11.572
REMARK SMILES NC(=O)C[N@H+]1CCCC[C@H]1C(=O)NCCCNC(=O)c1ccc(-c2c3nc(c(-c4c(F)cc(S(=O)(=O)[O-])cc4F)c4ccc([nH]4)c(-c4c(F)cc(S(=O)(=O)[O-])cc4F)c4nc(c(-c5c(F)cc(S(=O)(=O)[O-])cc5F)c5ccc2[nH]5)C=C4)C=C3)cc1
REMARK SMILES IDX 15 1 14 2 13 3 11 4 12 5 10 7 5 8 6 9 7 11 9 12 8 13 4 14
REMARK SMILES IDX 2 15 1 16 3 19 16 20 17 21 18 22 19 24 20 25 21 26 85 27
REMARK SMILES IDX 22 28 84 29 23 30 24 31 25 32 78 33 26 34 83 35 77 36 79 37
REMARK SMILES IDX 27 38 82 39 76 40 75 41 28 43 62 44 41 45 61 46 42 47 45 48
REMARK SMILES IDX 60 49 80 50 43 51 44 52 59 54 81 55 46 56 29 57 30 58 39 59
REMARK SMILES IDX 31 60 32 61 38 62 40 63 33 64 34 65 35 66 36 67 37 68 63 69
REMARK SMILES IDX 64 70 73 71 65 72 66 73 72 74 74 75 67 76 68 77 69 78 70 79
REMARK SMILES IDX 71 80 47 81 48 82 57 83 49 84 50 85 56 86 58 87 51 88 52 89
REMARK SMILES IDX 53 90 54 91 55 92
REMARK H PARENT 13 6 5 10 1 17 1 18 17 23 79 42 45 53
REMARK Flexibility Score: inf
ROOT
ATOM      1  C   UNL A   1      43.990  25.437  26.091  1.00  0.00     0.042 C 
ENDROOT
BRANCH   1   2
ATOM      2  C   UNL A   1      45.092  24.604  25.444  1.00  0.00     0.118 C 
BRANCH   2   3
ATOM      3  N   UNL A   1      44.552  23.763  24.393  1.00  0.00    -0.351 N 
ATOM      4  C   UNL A   1      44.540  22.404  24.286  1.00  0.00     0.278 C 
ATOM      5  O   UNL A   1      44.241  21.932  23.188  1.00  0.00    -0.268 OA
ATOM      6  H   UNL A   1      44.131  24.247  23.646  1.00  0.00     0.163 HD
BRANCH   4   7
ATOM      7  C   UNL A   1      44.851  21.545  25.538  1.00  0.00     0.274 C 
ATOM      8  N   UNL A   1      43.802  20.530  25.854  1.00  0.00    -0.317 N 
ATOM      9  C   UNL A   1      43.828  19.401  24.894  1.00  0.00     0.263 C 
ATOM     10  H   UNL A   1      44.043  20.213  26.794  1.00  0.00     0.349 HD
ATOM     11  C   UNL A   1      45.206  18.756  24.719  1.00  0.00     0.062 C 
ATOM     12  C   UNL A   1      46.231  20.877  25.480  1.00  0.00     0.076 C 
ATOM     13  C   UNL A   1      46.284  19.785  24.426  1.00  0.00     0.012 C 
BRANCH   8  14
ATOM     14  C   UNL A   1      42.411  21.068  25.895  1.00  0.00     0.363 C 
BRANCH  14  15
ATOM     15  C   UNL A   1      41.620  20.727  27.160  1.00  0.00     0.272 C 
ATOM     16  N   UNL A   1      42.194  19.826  28.008  1.00  0.00    -0.365 N 
ATOM     17  H   UNL A   1      41.731  19.569  28.838  1.00  0.00     0.159 HD
ATOM     18  H   UNL A   1      43.070  19.434  27.791  1.00  0.00     0.159 HD
ATOM     19  O   UNL A   1      40.506  21.181  27.408  1.00  0.00    -0.269 OA
ENDBRANCH  14  15
ENDBRANCH   8  14
ENDBRANCH   4   7
ENDBRANCH   2   3
ENDBRANCH   1   2
BRANCH   1  20
ATOM     20  C   UNL A   1      43.035  24.619  26.948  1.00  0.00     0.118 C 
BRANCH  20  21
ATOM     21  N   UNL A   1      41.768  24.373  26.278  1.00  0.00    -0.352 N 
ATOM     22  C   UNL A   1      40.516  24.827  26.611  1.00  0.00     0.251 C 
ATOM     23  H   UNL A   1      41.814  23.804  25.478  1.00  0.00     0.163 HD
ATOM     24  O   UNL A   1      39.524  24.344  26.071  1.00  0.00    -0.269 OA
BRANCH  22  25
ATOM     25  C   UNL A   1      40.373  25.884  27.632  1.00  0.00     0.039 A 
ATOM     26  C   UNL A   1      39.506  25.683  28.709  1.00  0.00     0.014 A 
ATOM     27  C   UNL A   1      41.101  27.073  27.525  1.00  0.00     0.014 A 
ATOM     28  C   UNL A   1      39.412  26.653  29.709  1.00  0.00     0.010 A 
ATOM     29  C   UNL A   1      41.072  27.994  28.563  1.00  0.00     0.010 A 
ATOM     30  C   UNL A   1      40.215  27.804  29.657  1.00  0.00    -0.014 A 
BRANCH  30  31
ATOM     31  C   UNL A   1      40.160  28.850  30.708  1.00  0.00     0.031 A 
ATOM     32  C   UNL A   1      41.052  28.734  31.914  1.00  0.00     0.074 A 
ATOM     33  C   UNL A   1      39.253  29.843  30.627  1.00  0.00     0.049 A 
ATOM     34  N   UNL A   1      41.070  29.452  33.005  1.00  0.00    -0.248 NA
ATOM     35  C   UNL A   1      42.034  27.637  31.902  1.00  0.00     0.031 C 
ATOM     36  C   UNL A   1      38.316  30.046  29.521  1.00  0.00     0.029 A 
ATOM     37  N   UNL A   1      38.959  30.858  31.502  1.00  0.00    -0.354 N 
ATOM     38  C   UNL A   1      42.037  28.877  33.821  1.00  0.00     0.074 A 
ATOM     39  C   UNL A   1      42.548  27.719  33.119  1.00  0.00     0.031 C 
ATOM     40  C   UNL A   1      37.567  31.132  29.773  1.00  0.00     0.029 A 
ATOM     41  C   UNL A   1      37.934  31.671  31.080  1.00  0.00     0.049 A 
ATOM     42  H   UNL A   1      39.437  30.991  32.352  1.00  0.00     0.167 HD
ATOM     43  C   UNL A   1      42.474  29.287  35.035  1.00  0.00     0.037 A 
ATOM     44  C   UNL A   1      37.349  32.724  31.684  1.00  0.00     0.037 A 
ATOM     45  C   UNL A   1      41.975  30.456  35.710  1.00  0.00     0.049 A 
ATOM     46  C   UNL A   1      37.837  33.156  33.041  1.00  0.00     0.074 A 
ATOM     47  C   UNL A   1      42.388  30.995  36.916  1.00  0.00     0.029 A 
ATOM     48  N   UNL A   1      40.948  31.263  35.241  1.00  0.00    -0.354 N 
ATOM     49  N   UNL A   1      38.787  32.633  33.778  1.00  0.00    -0.248 NA
ATOM     50  C   UNL A   1      37.177  34.319  33.647  1.00  0.00     0.031 C 
ATOM     51  C   UNL A   1      41.575  32.096  37.202  1.00  0.00     0.029 A 
ATOM     52  C   UNL A   1      40.698  32.283  36.145  1.00  0.00     0.049 A 
ATOM     53  H   UNL A   1      40.469  31.131  34.392  1.00  0.00     0.167 HD
ATOM     54  C   UNL A   1      38.869  33.429  34.916  1.00  0.00     0.074 A 
ATOM     55  C   UNL A   1      37.865  34.465  34.771  1.00  0.00     0.031 C 
ATOM     56  C   UNL A   1      39.707  33.319  35.976  1.00  0.00     0.037 A 
BRANCH  43  57
ATOM     57  C   UNL A   1      43.528  28.451  35.712  1.00  0.00     0.058 A 
ATOM     58  C   UNL A   1      44.900  28.679  35.515  1.00  0.00     0.135 A 
ATOM     59  C   UNL A   1      43.159  27.403  36.571  1.00  0.00     0.135 A 
ATOM     60  F   UNL A   1      45.312  29.659  34.695  1.00  0.00    -0.206 F 
ATOM     61  C   UNL A   1      45.865  27.865  36.098  1.00  0.00     0.059 A 
ATOM     62  C   UNL A   1      44.108  26.599  37.195  1.00  0.00     0.059 A 
ATOM     63  F   UNL A   1      41.862  27.141  36.802  1.00  0.00    -0.206 F 
ATOM     64  C   UNL A   1      45.458  26.822  36.932  1.00  0.00     0.060 A 
BRANCH  64  65
ATOM     65  S   UNL A   1      46.720  25.755  37.656  1.00  0.00     0.124 S 
ATOM     66  O   UNL A   1      45.991  25.160  38.772  1.00  0.00    -0.237 OA
ATOM     67  O   UNL A   1      47.039  24.853  36.554  1.00  0.00    -0.237 OA
ATOM     68  O   UNL A   1      47.781  26.686  38.028  1.00  0.00    -0.744 OA
ENDBRANCH  64  65
ENDBRANCH  43  57
BRANCH  44  69
ATOM     69  C   UNL A   1      36.266  33.467  30.984  1.00  0.00     0.058 A 
ATOM     70  C   UNL A   1      34.950  33.434  31.467  1.00  0.00     0.135 A 
ATOM     71  C   UNL A   1      36.528  34.257  29.853  1.00  0.00     0.135 A 
ATOM     72  F   UNL A   1      34.648  32.687  32.540  1.00  0.00    -0.206 F 
ATOM     73  C   UNL A   1      33.930  34.154  30.853  1.00  0.00     0.059 A 
ATOM     74  C   UNL A   1      35.530  35.005  29.237  1.00  0.00     0.059 A 
ATOM     75  F   UNL A   1      37.775  34.334  29.361  1.00  0.00    -0.206 F 
ATOM     76  C   UNL A   1      34.232  34.944  29.743  1.00  0.00     0.060 A 
BRANCH  76  77
ATOM     77  S   UNL A   1      32.914  35.934  29.005  1.00  0.00     0.124 S 
ATOM     78  O   UNL A   1      32.324  34.985  28.068  1.00  0.00    -0.237 OA
ATOM     79  O   UNL A   1      32.101  36.274  30.168  1.00  0.00    -0.237 OA
ATOM     80  O   UNL A   1      33.632  37.054  28.402  1.00  0.00    -0.744 OA
ENDBRANCH  76  77
ENDBRANCH  44  69
BRANCH  56  81
ATOM     81  C   UNL A   1      39.630  34.376  37.044  1.00  0.00     0.058 A 
ATOM     82  C   UNL A   1      38.894  34.192  38.223  1.00  0.00     0.135 A 
ATOM     83  C   UNL A   1      40.384  35.556  36.918  1.00  0.00     0.135 A 
ATOM     84  F   UNL A   1      38.149  33.087  38.391  1.00  0.00    -0.206 F 
ATOM     85  C   UNL A   1      38.900  35.145  39.238  1.00  0.00     0.059 A 
ATOM     86  C   UNL A   1      40.428  36.507  37.931  1.00  0.00     0.059 A 
ATOM     87  F   UNL A   1      41.114  35.776  35.813  1.00  0.00    -0.206 F 
ATOM     88  C   UNL A   1      39.678  36.295  39.086  1.00  0.00     0.060 A 
BRANCH  88  89
ATOM     89  S   UNL A   1      39.729  37.491  40.437  1.00  0.00     0.124 S 
ATOM     90  O   UNL A   1      41.163  37.733  40.561  1.00  0.00    -0.237 OA
ATOM     91  O   UNL A   1      38.943  38.599  39.902  1.00  0.00    -0.237 OA
ATOM     92  O   UNL A   1      39.115  36.774  41.550  1.00  0.00    -0.744 OA
ENDBRANCH  88  89
ENDBRANCH  56  81
ENDBRANCH  30  31
ENDBRANCH  22  25
ENDBRANCH  20  21
ENDBRANCH   1  20
TORSDOF 15
ENDMDL
MODEL 3
REMARK VINA RESULT:     -10.4      5.360      9.863
REMARK SMILES NC(=O)C[N@H+]1CCCC[C@H]1C(=O)NCCCNC(=O)c1ccc(-c2c3nc(c(-c4c(F)cc(S(=O)(=O)[O-])cc4F)c4ccc([nH]4)c(-c4c(F)cc(S(=O)(=O)[O-])cc4F)c4nc(c(-c5c(F)cc(S(=O)(=O)[O-])cc5F)c5ccc2[nH]5)C=C4)C=C3)cc1
REMARK SMILES IDX 15 1 14 2 13 3 11 4 12 5 10 7 5 8 6 9 7 11 9 12 8 13 4 14
REMARK SMILES IDX 2 15 1 16 3 19 16 20 17 21 18 22 19 24 20 25 21 26 85 27
REMARK SMILES IDX 22 28 84 29 23 30 24 31 25 32 78 33 26 34 83 35 77 36 79 37
REMARK SMILES IDX 27 38 82 39 76 40 75 41 28 43 62 44 41 45 61 46 42 47 45 48
REMARK SMILES IDX 60 49 80 50 43 51 44 52 59 54 81 55 46 56 29 57 30 58 39 59
REMARK SMILES IDX 31 60 32 61 38 62 40 63 33 64 34 65 35 66 36 67 37 68 63 69
REMARK SMILES IDX 64 70 73 71 65 72 66 73 72 74 74 75 67 76 68 77 69 78 70 79
REMARK SMILES IDX 71 80 47 81 48 82 57 83 49 84 50 85 56 86 58 87 51 88 52 89
REMARK SMILES IDX 53 90 54 91 55 92
REMARK H PARENT 13 6 5 10 1 17 1 18 17 23 79 42 45 53
REMARK Flexibility Score: inf
ROOT
ATOM      1  C   UNL A   1      37.473  23.796  26.015  1.00  0.00     0.042 C 
ENDROOT
BRANCH   1   2
ATOM      2  C   UNL A   1      37.239  22.326  25.686  1.00  0.00     0.118 C 
BRANCH   2   3
ATOM      3  N   UNL A   1      36.189  21.772  26.518  1.00  0.00    -0.351 N 
ATOM      4  C   UNL A   1      34.841  21.736  26.309  1.00  0.00     0.278 C 
ATOM      5  O   UNL A   1      34.135  21.430  27.271  1.00  0.00    -0.268 OA
ATOM      6  H   UNL A   1      36.495  21.362  27.359  1.00  0.00     0.163 HD
BRANCH   4   7
ATOM      7  C   UNL A   1      34.290  22.028  24.891  1.00  0.00     0.274 C 
ATOM      8  N   UNL A   1      33.301  21.021  24.404  1.00  0.00    -0.317 N 
ATOM      9  C   UNL A   1      31.997  21.155  25.098  1.00  0.00     0.263 C 
ATOM     10  H   UNL A   1      33.206  21.230  23.410  1.00  0.00     0.349 HD
ATOM     11  C   UNL A   1      31.418  22.572  25.078  1.00  0.00     0.062 C 
ATOM     12  C   UNL A   1      33.712  23.443  24.753  1.00  0.00     0.076 C 
ATOM     13  C   UNL A   1      32.427  23.608  25.545  1.00  0.00     0.012 C 
BRANCH   8  14
ATOM     14  C   UNL A   1      33.747  19.602  24.532  1.00  0.00     0.363 C 
BRANCH  14  15
ATOM     15  C   UNL A   1      32.763  18.675  25.250  1.00  0.00     0.272 C 
ATOM     16  N   UNL A   1      32.862  18.622  26.609  1.00  0.00    -0.365 N 
ATOM     17  H   UNL A   1      32.255  18.043  27.124  1.00  0.00     0.159 HD
ATOM     18  H   UNL A   1      33.540  19.162  27.075  1.00  0.00     0.159 HD
ATOM     19  O   UNL A   1      31.948  17.967  24.665  1.00  0.00    -0.269 OA
ENDBRANCH  14  15
ENDBRANCH   8  14
ENDBRANCH   4   7
ENDBRANCH   2   3
ENDBRANCH   1   2
BRANCH   1  20
ATOM     20  C   UNL A   1      38.728  24.041  26.839  1.00  0.00     0.118 C 
BRANCH  20  21
ATOM     21  N   UNL A   1      39.836  24.518  26.026  1.00  0.00    -0.352 N 
ATOM     22  C   UNL A   1      40.552  25.683  26.145  1.00  0.00     0.251 C 
ATOM     23  H   UNL A   1      40.109  23.925  25.291  1.00  0.00     0.163 HD
ATOM     24  O   UNL A   1      41.306  26.035  25.242  1.00  0.00    -0.269 OA
BRANCH  22  25
ATOM     25  C   UNL A   1      40.396  26.513  27.357  1.00  0.00     0.039 A 
ATOM     26  C   UNL A   1      39.695  26.002  28.452  1.00  0.00     0.014 A 
ATOM     27  C   UNL A   1      40.950  27.795  27.410  1.00  0.00     0.014 A 
ATOM     28  C   UNL A   1      39.596  26.758  29.622  1.00  0.00     0.010 A 
ATOM     29  C   UNL A   1      40.926  28.507  28.601  1.00  0.00     0.010 A 
ATOM     30  C   UNL A   1      40.235  28.005  29.714  1.00  0.00    -0.014 A 
BRANCH  30  31
ATOM     31  C   UNL A   1      40.171  28.832  30.945  1.00  0.00     0.031 A 
ATOM     32  C   UNL A   1      39.171  29.953  31.030  1.00  0.00     0.074 A 
ATOM     33  C   UNL A   1      41.063  28.639  31.936  1.00  0.00     0.049 A 
ATOM     34  N   UNL A   1      39.037  30.877  31.944  1.00  0.00    -0.248 NA
ATOM     35  C   UNL A   1      38.216  30.068  29.916  1.00  0.00     0.031 C 
ATOM     36  C   UNL A   1      42.095  27.603  31.957  1.00  0.00     0.029 A 
ATOM     37  N   UNL A   1      41.253  29.322  33.111  1.00  0.00    -0.354 N 
ATOM     38  C   UNL A   1      38.008  31.700  31.502  1.00  0.00     0.074 A 
ATOM     39  C   UNL A   1      37.588  31.195  30.212  1.00  0.00     0.031 C 
ATOM     40  C   UNL A   1      42.797  27.704  33.098  1.00  0.00     0.029 A 
ATOM     41  C   UNL A   1      42.298  28.842  33.865  1.00  0.00     0.049 A 
ATOM     42  H   UNL A   1      40.695  30.084  33.388  1.00  0.00     0.167 HD
ATOM     43  C   UNL A   1      37.451  32.767  32.122  1.00  0.00     0.037 A 
ATOM     44  C   UNL A   1      42.803  29.278  35.035  1.00  0.00     0.037 A 
ATOM     45  C   UNL A   1      37.862  33.242  33.417  1.00  0.00     0.049 A 
ATOM     46  C   UNL A   1      42.182  30.476  35.702  1.00  0.00     0.074 A 
ATOM     47  C   UNL A   1      37.327  34.278  34.162  1.00  0.00     0.029 A 
ATOM     48  N   UNL A   1      38.913  32.718  34.155  1.00  0.00    -0.354 N 
ATOM     49  N   UNL A   1      41.176  31.214  35.296  1.00  0.00    -0.248 NA
ATOM     50  C   UNL A   1      42.760  30.899  36.984  1.00  0.00     0.031 C 
ATOM     51  C   UNL A   1      38.088  34.415  35.327  1.00  0.00     0.029 A 
ATOM     52  C   UNL A   1      39.058  33.424  35.339  1.00  0.00     0.049 A 
ATOM     53  H   UNL A   1      39.473  31.957  33.880  1.00  0.00     0.167 HD
ATOM     54  C   UNL A   1      40.972  32.162  36.293  1.00  0.00     0.074 A 
ATOM     55  C   UNL A   1      41.965  31.908  37.318  1.00  0.00     0.031 C 
ATOM     56  C   UNL A   1      40.040  33.144  36.359  1.00  0.00     0.037 A 
BRANCH  43  57
ATOM     57  C   UNL A   1      36.354  33.498  31.394  1.00  0.00     0.058 A 
ATOM     58  C   UNL A   1      35.015  33.441  31.814  1.00  0.00     0.135 A 
ATOM     59  C   UNL A   1      36.647  34.266  30.255  1.00  0.00     0.135 A 
ATOM     60  F   UNL A   1      34.673  32.712  32.888  1.00  0.00    -0.206 F 
ATOM     61  C   UNL A   1      34.001  34.072  31.101  1.00  0.00     0.059 A 
ATOM     62  C   UNL A   1      35.653  34.936  29.548  1.00  0.00     0.059 A 
ATOM     63  F   UNL A   1      37.910  34.362  29.809  1.00  0.00    -0.206 F 
ATOM     64  C   UNL A   1      34.329  34.811  29.964  1.00  0.00     0.060 A 
BRANCH  64  65
ATOM     65  S   UNL A   1      32.999  35.598  29.033  1.00  0.00     0.124 S 
ATOM     66  O   UNL A   1      32.478  34.470  28.264  1.00  0.00    -0.237 OA
ATOM     67  O   UNL A   1      32.128  36.099  30.092  1.00  0.00    -0.237 OA
ATOM     68  O   UNL A   1      33.687  36.622  28.253  1.00  0.00    -0.744 OA
ENDBRANCH  64  65
ENDBRANCH  43  57
BRANCH  44  69
ATOM     69  C   UNL A   1      43.933  28.546  35.668  1.00  0.00     0.058 A 
ATOM     70  C   UNL A   1      43.691  27.491  36.559  1.00  0.00     0.135 A 
ATOM     71  C   UNL A   1      45.270  28.852  35.365  1.00  0.00     0.135 A 
ATOM     72  F   UNL A   1      42.431  27.166  36.887  1.00  0.00    -0.206 F 
ATOM     73  C   UNL A   1      44.731  26.765  37.131  1.00  0.00     0.059 A 
ATOM     74  C   UNL A   1      46.327  28.125  35.905  1.00  0.00     0.059 A 
ATOM     75  F   UNL A   1      45.554  29.843  34.506  1.00  0.00    -0.206 F 
ATOM     76  C   UNL A   1      46.047  27.084  36.790  1.00  0.00     0.060 A 
BRANCH  76  77
ATOM     77  S   UNL A   1      47.384  26.084  37.478  1.00  0.00     0.124 S 
ATOM     78  O   UNL A   1      47.866  26.940  38.556  1.00  0.00    -0.237 OA
ATOM     79  O   UNL A   1      46.677  24.875  37.890  1.00  0.00    -0.237 OA
ATOM     80  O   UNL A   1      48.294  25.916  36.349  1.00  0.00    -0.744 OA
ENDBRANCH  76  77
ENDBRANCH  44  69
BRANCH  56  81
ATOM     81  C   UNL A   1      39.996  33.989  37.604  1.00  0.00     0.058 A 
ATOM     82  C   UNL A   1      40.666  35.217  37.696  1.00  0.00     0.135 A 
ATOM     83  C   UNL A   1      39.191  33.596  38.687  1.00  0.00     0.135 A 
ATOM     84  F   UNL A   1      41.454  35.635  36.692  1.00  0.00    -0.206 F 
ATOM     85  C   UNL A   1      40.547  36.024  38.824  1.00  0.00     0.059 A 
ATOM     86  C   UNL A   1      39.036  34.401  39.811  1.00  0.00     0.059 A 
ATOM     87  F   UNL A   1      38.522  32.433  38.646  1.00  0.00    -0.206 F 
ATOM     88  C   UNL A   1      39.722  35.611  39.872  1.00  0.00     0.060 A 
BRANCH  88  89
ATOM     89  S   UNL A   1      39.526  36.698  41.300  1.00  0.00     0.124 S 
ATOM     90  O   UNL A   1      38.922  37.879  40.689  1.00  0.00    -0.237 OA
ATOM     91  O   UNL A   1      38.651  35.916  42.169  1.00  0.00    -0.237 OA
ATOM     92  O   UNL A   1      40.891  36.872  41.786  1.00  0.00    -0.744 OA
ENDBRANCH  88  89
ENDBRANCH  56  81
ENDBRANCH  30  31
ENDBRANCH  22  25
ENDBRANCH  20  21
ENDBRANCH   1  20
TORSDOF 15
ENDMDL
