MODEL 1
REMARK VINA RESULT:     -12.2      0.000      0.000
REMARK SMILES C[C@]12CCC(=O)N1[C@@H](C(=O)N1C[C@H](O)C[C@@H]1C(=O)NCCCNC(=O)c1ccc(-c3c4nc(c(-c5c(F)cc(S(=O)(=O)[O-])cc5F)c5ccc([nH]5)c(-c5c(F)cc(S(=O)(=O)[O-])cc5F)c5nc(c(-c6c(F)cc(S(=O)(=O)[O-])cc6F)c6ccc3[nH]6)C=C5)C=C4)cc1)CS2
REMARK SMILES IDX 21 1 20 2 19 3 17 4 18 5 16 7 11 8 12 9 13 10 15 11 9 12
REMARK SMILES IDX 10 13 8 14 1 15 2 16 3 17 7 18 93 19 4 20 5 21 92 22 6 23
REMARK SMILES IDX 14 24 22 26 23 27 24 28 25 30 26 31 27 32 91 33 28 34 90 35
REMARK SMILES IDX 29 36 30 37 31 38 84 39 32 40 89 41 83 42 85 43 33 44 88 45
REMARK SMILES IDX 82 46 81 47 34 49 68 50 47 51 67 52 48 53 51 54 66 55 86 56
REMARK SMILES IDX 49 57 50 58 65 60 87 61 52 62 35 63 36 64 45 65 37 66 38 67
REMARK SMILES IDX 44 68 46 69 39 70 40 71 41 72 42 73 43 74 69 75 70 76 79 77
REMARK SMILES IDX 71 78 72 79 78 80 80 81 73 82 74 83 75 84 76 85 77 86 53 87
REMARK SMILES IDX 54 88 63 89 55 90 56 91 62 92 64 93 57 94 58 95 59 96 60 97
REMARK SMILES IDX 61 98
REMARK H PARENT 19 6 14 25 23 29 85 48 51 59
REMARK Flexibility Score: inf
ROOT
ATOM      1  C   UNL A   1      31.960  28.182  27.305  1.00  0.00     0.042 C 
ENDROOT
BRANCH   1   2
ATOM      2  C   UNL A   1      31.765  27.357  26.051  1.00  0.00     0.117 C 
BRANCH   2   3
ATOM      3  N   UNL A   1      32.456  27.847  24.896  1.00  0.00    -0.354 N 
ATOM      4  C   UNL A   1      32.120  27.601  23.595  1.00  0.00     0.242 C 
ATOM      5  O   UNL A   1      32.254  28.560  22.826  1.00  0.00    -0.273 OA
ATOM      6  H   UNL A   1      33.246  28.412  25.055  1.00  0.00     0.163 HD
BRANCH   4   7
ATOM      7  C   UNL A   1      31.398  26.277  23.154  1.00  0.00     0.177 C 
ATOM      8  N   UNL A   1      32.088  25.006  23.461  1.00  0.00    -0.326 N 
ATOM      9  C   UNL A   1      32.955  24.647  22.334  1.00  0.00     0.152 C 
ATOM     10  C   UNL A   1      32.692  25.677  21.235  1.00  0.00     0.136 C 
ATOM     11  C   UNL A   1      31.340  26.270  21.617  1.00  0.00     0.069 C 
BRANCH   8  12
ATOM     12  C   UNL A   1      31.903  24.012  24.402  1.00  0.00     0.247 C 
ATOM     13  O   UNL A   1      30.765  23.523  24.516  1.00  0.00    -0.272 OA
BRANCH  12  14
ATOM     14  C   UNL A   1      32.947  23.581  25.477  1.00  0.00     0.186 C 
ATOM     15  C   UNL A   1      36.072  23.556  26.097  1.00  0.00     0.047 C 
ATOM     16  C   UNL A   1      35.035  22.438  25.998  1.00  0.00     0.087 C 
ATOM     17  C   UNL A   1      35.665  21.111  25.600  1.00  0.00     0.049 C 
ATOM     18  N   UNL A   1      34.002  22.672  25.018  1.00  0.00    -0.315 N 
ATOM     19  S   UNL A   1      34.109  22.347  27.577  1.00  0.00    -0.131 SA
ATOM     20  C   UNL A   1      34.591  20.400  24.797  1.00  0.00     0.103 C 
ATOM     21  C   UNL A   1      33.699  21.511  24.319  1.00  0.00     0.224 C 
ATOM     22  C   UNL A   1      32.602  23.134  26.892  1.00  0.00     0.107 C 
ATOM     23  O   UNL A   1      32.778  21.348  23.534  1.00  0.00    -0.275 OA
ENDBRANCH  12  14
ENDBRANCH   8  12
BRANCH  10  24
ATOM     24  O   UNL A   1      33.686  26.698  21.239  1.00  0.00    -0.391 OA
ATOM     25  H   UNL A   1      34.198  26.654  20.418  1.00  0.00     0.211 HD
ENDBRANCH  10  24
ENDBRANCH   4   7
ENDBRANCH   2   3
ENDBRANCH   1   2
BRANCH   1  26
ATOM     26  C   UNL A   1      33.384  28.699  27.428  1.00  0.00     0.118 C 
BRANCH  26  27
ATOM     27  N   UNL A   1      33.473  30.092  27.867  1.00  0.00    -0.352 N 
ATOM     28  C   UNL A   1      34.554  30.788  28.365  1.00  0.00     0.251 C 
ATOM     29  H   UNL A   1      32.638  30.609  27.797  1.00  0.00     0.163 HD
ATOM     30  O   UNL A   1      34.409  31.946  28.747  1.00  0.00    -0.269 OA
BRANCH  28  31
ATOM     31  C   UNL A   1      35.868  30.119  28.482  1.00  0.00     0.039 A 
ATOM     32  C   UNL A   1      36.728  30.097  27.381  1.00  0.00     0.014 A 
ATOM     33  C   UNL A   1      36.280  29.580  29.699  1.00  0.00     0.014 A 
ATOM     34  C   UNL A   1      38.040  29.641  27.537  1.00  0.00     0.010 A 
ATOM     35  C   UNL A   1      37.615  29.253  29.884  1.00  0.00     0.010 A 
ATOM     36  C   UNL A   1      38.514  29.278  28.807  1.00  0.00    -0.014 A 
BRANCH  36  37
ATOM     37  C   UNL A   1      39.932  28.910  29.065  1.00  0.00     0.031 A 
ATOM     38  C   UNL A   1      40.878  29.958  29.592  1.00  0.00     0.074 A 
ATOM     39  C   UNL A   1      40.400  27.700  28.702  1.00  0.00     0.049 A 
ATOM     40  N   UNL A   1      42.184  29.941  29.654  1.00  0.00    -0.248 NA
ATOM     41  C   UNL A   1      40.274  31.220  30.052  1.00  0.00     0.031 C 
ATOM     42  C   UNL A   1      39.603  26.616  28.119  1.00  0.00     0.029 A 
ATOM     43  N   UNL A   1      41.671  27.184  28.745  1.00  0.00    -0.354 N 
ATOM     44  C   UNL A   1      42.557  31.206  30.093  1.00  0.00     0.074 A 
ATOM     45  C   UNL A   1      41.343  31.978  30.239  1.00  0.00     0.031 C 
ATOM     46  C   UNL A   1      40.398  25.558  27.887  1.00  0.00     0.029 A 
ATOM     47  C   UNL A   1      41.768  25.902  28.255  1.00  0.00     0.049 A 
ATOM     48  H   UNL A   1      42.443  27.685  29.096  1.00  0.00     0.167 HD
ATOM     49  C   UNL A   1      43.795  31.675  30.373  1.00  0.00     0.037 A 
ATOM     50  C   UNL A   1      42.840  25.101  28.105  1.00  0.00     0.037 A 
ATOM     51  C   UNL A   1      44.985  30.871  30.314  1.00  0.00     0.049 A 
ATOM     52  C   UNL A   1      44.196  25.611  28.508  1.00  0.00     0.074 A 
ATOM     53  C   UNL A   1      46.278  31.219  30.663  1.00  0.00     0.029 A 
ATOM     54  N   UNL A   1      45.022  29.548  29.900  1.00  0.00    -0.354 N 
ATOM     55  N   UNL A   1      44.527  26.798  28.956  1.00  0.00    -0.248 NA
ATOM     56  C   UNL A   1      45.323  24.676  28.388  1.00  0.00     0.031 C 
ATOM     57  C   UNL A   1      47.100  30.108  30.448  1.00  0.00     0.029 A 
ATOM     58  C   UNL A   1      46.314  29.061  29.991  1.00  0.00     0.049 A 
ATOM     59  H   UNL A   1      44.245  29.031  29.587  1.00  0.00     0.167 HD
ATOM     60  C   UNL A   1      45.895  26.745  29.196  1.00  0.00     0.074 A 
ATOM     61  C   UNL A   1      46.330  25.408  28.848  1.00  0.00     0.031 C 
ATOM     62  C   UNL A   1      46.717  27.716  29.664  1.00  0.00     0.037 A 
BRANCH  49  63
ATOM     63  C   UNL A   1      43.914  33.114  30.789  1.00  0.00     0.058 A 
ATOM     64  C   UNL A   1      44.105  34.141  29.851  1.00  0.00     0.135 A 
ATOM     65  C   UNL A   1      43.836  33.474  32.145  1.00  0.00     0.135 A 
ATOM     66  F   UNL A   1      44.204  33.851  28.543  1.00  0.00    -0.206 F 
ATOM     67  C   UNL A   1      44.262  35.465  30.242  1.00  0.00     0.059 A 
ATOM     68  C   UNL A   1      43.960  34.797  32.557  1.00  0.00     0.059 A 
ATOM     69  F   UNL A   1      43.651  32.534  33.085  1.00  0.00    -0.206 F 
ATOM     70  C   UNL A   1      44.195  35.783  31.599  1.00  0.00     0.060 A 
BRANCH  70  71
ATOM     71  S   UNL A   1      44.419  37.504  32.097  1.00  0.00     0.124 S 
ATOM     72  O   UNL A   1      43.607  37.561  33.309  1.00  0.00    -0.237 OA
ATOM     73  O   UNL A   1      45.862  37.589  32.298  1.00  0.00    -0.237 OA
ATOM     74  O   UNL A   1      43.903  38.256  30.958  1.00  0.00    -0.744 OA
ENDBRANCH  70  71
ENDBRANCH  49  63
BRANCH  50  75
ATOM     75  C   UNL A   1      42.666  23.718  27.588  1.00  0.00     0.058 A 
ATOM     76  C   UNL A   1      42.477  22.645  28.472  1.00  0.00     0.135 A 
ATOM     77  C   UNL A   1      42.653  23.443  26.213  1.00  0.00     0.135 A 
ATOM     78  F   UNL A   1      42.486  22.860  29.796  1.00  0.00    -0.206 F 
ATOM     79  C   UNL A   1      42.291  21.345  28.013  1.00  0.00     0.059 A 
ATOM     80  C   UNL A   1      42.449  22.152  25.728  1.00  0.00     0.059 A 
ATOM     81  F   UNL A   1      42.811  24.437  25.326  1.00  0.00    -0.206 F 
ATOM     82  C   UNL A   1      42.277  21.109  26.638  1.00  0.00     0.060 A 
BRANCH  82  83
ATOM     83  S   UNL A   1      41.978  19.427  26.053  1.00  0.00     0.124 S 
ATOM     84  O   UNL A   1      42.857  19.360  24.890  1.00  0.00    -0.237 OA
ATOM     85  O   UNL A   1      42.380  18.624  27.204  1.00  0.00    -0.237 OA
ATOM     86  O   UNL A   1      40.547  19.422  25.765  1.00  0.00    -0.744 OA
ENDBRANCH  82  83
ENDBRANCH  50  75
BRANCH  62  87
ATOM     87  C   UNL A   1      48.160  27.363  29.874  1.00  0.00     0.058 A 
ATOM     88  C   UNL A   1      49.124  27.593  28.882  1.00  0.00     0.135 A 
ATOM     89  C   UNL A   1      48.593  26.874  31.116  1.00  0.00     0.135 A 
ATOM     90  F   UNL A   1      48.756  28.054  27.677  1.00  0.00    -0.206 F 
ATOM     91  C   UNL A   1      50.472  27.345  29.114  1.00  0.00     0.059 A 
ATOM     92  C   UNL A   1      49.937  26.637  31.376  1.00  0.00     0.059 A 
ATOM     93  F   UNL A   1      47.707  26.646  32.099  1.00  0.00    -0.206 F 
ATOM     94  C   UNL A   1      50.870  26.873  30.366  1.00  0.00     0.060 A 
BRANCH  94  95
ATOM     95  S   UNL A   1      52.631  26.619  30.680  1.00  0.00     0.124 S 
ATOM     96  O   UNL A   1      52.974  27.827  31.420  1.00  0.00    -0.237 OA
ATOM     97  O   UNL A   1      52.636  25.379  31.451  1.00  0.00    -0.237 OA
ATOM     98  O   UNL A   1      53.202  26.518  29.341  1.00  0.00    -0.744 OA
ENDBRANCH  94  95
ENDBRANCH  62  87
ENDBRANCH  36  37
ENDBRANCH  28  31
ENDBRANCH  26  27
ENDBRANCH   1  26
TORSDOF 16
ENDMDL
MODEL 2
REMARK VINA RESULT:     -11.8      4.440     11.080
REMARK SMILES C[C@]12CCC(=O)N1[C@@H](C(=O)N1C[C@H](O)C[C@@H]1C(=O)NCCCNC(=O)c1ccc(-c3c4nc(c(-c5c(F)cc(S(=O)(=O)[O-])cc5F)c5ccc([nH]5)c(-c5c(F)cc(S(=O)(=O)[O-])cc5F)c5nc(c(-c6c(F)cc(S(=O)(=O)[O-])cc6F)c6ccc3[nH]6)C=C5)C=C4)cc1)CS2
REMARK SMILES IDX 21 1 20 2 19 3 17 4 18 5 16 7 11 8 12 9 13 10 15 11 9 12
REMARK SMILES IDX 10 13 8 14 1 15 2 16 3 17 7 18 93 19 4 20 5 21 92 22 6 23
REMARK SMILES IDX 14 24 22 26 23 27 24 28 25 30 26 31 27 32 91 33 28 34 90 35
REMARK SMILES IDX 29 36 30 37 31 38 84 39 32 40 89 41 83 42 85 43 33 44 88 45
REMARK SMILES IDX 82 46 81 47 34 49 68 50 47 51 67 52 48 53 51 54 66 55 86 56
REMARK SMILES IDX 49 57 50 58 65 60 87 61 52 62 35 63 36 64 45 65 37 66 38 67
REMARK SMILES IDX 44 68 46 69 39 70 40 71 41 72 42 73 43 74 69 75 70 76 79 77
REMARK SMILES IDX 71 78 72 79 78 80 80 81 73 82 74 83 75 84 76 85 77 86 53 87
REMARK SMILES IDX 54 88 63 89 55 90 56 91 62 92 64 93 57 94 58 95 59 96 60 97
REMARK SMILES IDX 61 98
REMARK H PARENT 19 6 14 25 23 29 85 48 51 59
REMARK Flexibility Score: inf
ROOT
ATOM      1  C   UNL A   1      40.451  20.220  26.112  1.00  0.00     0.042 C 
ENDROOT
BRANCH   1   2
ATOM      2  C   UNL A   1      41.834  19.853  26.607  1.00  0.00     0.117 C 
BRANCH   2   3
ATOM      3  N   UNL A   1      42.566  18.974  25.746  1.00  0.00    -0.354 N 
ATOM      4  C   UNL A   1      43.922  18.952  25.585  1.00  0.00     0.242 C 
ATOM      5  O   UNL A   1      44.423  17.826  25.475  1.00  0.00    -0.273 OA
ATOM      6  H   UNL A   1      42.044  18.325  25.220  1.00  0.00     0.163 HD
BRANCH   4   7
ATOM      7  C   UNL A   1      44.805  20.240  25.762  1.00  0.00     0.177 C 
ATOM      8  N   UNL A   1      44.503  21.385  24.877  1.00  0.00    -0.326 N 
ATOM      9  C   UNL A   1      45.306  21.270  23.655  1.00  0.00     0.152 C 
ATOM     10  C   UNL A   1      46.234  20.072  23.853  1.00  0.00     0.136 C 
ATOM     11  C   UNL A   1      46.245  19.873  25.365  1.00  0.00     0.069 C 
BRANCH   8  12
ATOM     12  C   UNL A   1      43.868  22.598  25.053  1.00  0.00     0.247 C 
ATOM     13  O   UNL A   1      42.639  22.644  24.871  1.00  0.00    -0.272 OA
BRANCH  12  14
ATOM     14  C   UNL A   1      44.583  23.968  25.268  1.00  0.00     0.186 C 
ATOM     15  C   UNL A   1      47.463  25.295  25.580  1.00  0.00     0.047 C 
ATOM     16  C   UNL A   1      46.236  25.275  26.490  1.00  0.00     0.087 C 
ATOM     17  C   UNL A   1      46.612  25.436  27.956  1.00  0.00     0.049 C 
ATOM     18  N   UNL A   1      45.471  24.054  26.431  1.00  0.00    -0.315 N 
ATOM     19  S   UNL A   1      45.048  26.546  25.912  1.00  0.00    -0.131 SA
ATOM     20  C   UNL A   1      45.565  24.638  28.712  1.00  0.00     0.103 C 
ATOM     21  C   UNL A   1      45.043  23.664  27.694  1.00  0.00     0.224 C 
ATOM     22  C   UNL A   1      43.902  25.327  25.166  1.00  0.00     0.107 C 
ATOM     23  O   UNL A   1      44.263  22.763  27.958  1.00  0.00    -0.275 OA
ENDBRANCH  12  14
ENDBRANCH   8  12
BRANCH  10  24
ATOM     24  O   UNL A   1      45.713  18.908  23.217  1.00  0.00    -0.391 OA
ATOM     25  H   UNL A   1      45.167  19.171  22.460  1.00  0.00     0.211 HD
ENDBRANCH  10  24
ENDBRANCH   4   7
ENDBRANCH   2   3
ENDBRANCH   1   2
BRANCH   1  26
ATOM     26  C   UNL A   1      39.981  21.550  26.678  1.00  0.00     0.118 C 
BRANCH  26  27
ATOM     27  N   UNL A   1      38.910  22.179  25.902  1.00  0.00    -0.352 N 
ATOM     28  C   UNL A   1      38.481  23.489  25.900  1.00  0.00     0.251 C 
ATOM     29  H   UNL A   1      38.425  21.577  25.292  1.00  0.00     0.163 HD
ATOM     30  O   UNL A   1      37.510  23.810  25.222  1.00  0.00    -0.269 OA
BRANCH  28  31
ATOM     31  C   UNL A   1      39.162  24.486  26.754  1.00  0.00     0.039 A 
ATOM     32  C   UNL A   1      40.031  25.412  26.171  1.00  0.00     0.014 A 
ATOM     33  C   UNL A   1      38.884  24.555  28.118  1.00  0.00     0.014 A 
ATOM     34  C   UNL A   1      40.526  26.473  26.934  1.00  0.00     0.010 A 
ATOM     35  C   UNL A   1      39.268  25.677  28.838  1.00  0.00     0.010 A 
ATOM     36  C   UNL A   1      40.093  26.651  28.258  1.00  0.00    -0.014 A 
BRANCH  36  37
ATOM     37  C   UNL A   1      40.478  27.829  29.080  1.00  0.00     0.031 A 
ATOM     38  C   UNL A   1      41.760  27.786  29.871  1.00  0.00     0.074 A 
ATOM     39  C   UNL A   1      39.627  28.865  29.229  1.00  0.00     0.049 A 
ATOM     40  N   UNL A   1      42.168  28.572  30.833  1.00  0.00    -0.248 NA
ATOM     41  C   UNL A   1      42.675  26.669  29.582  1.00  0.00     0.031 C 
ATOM     42  C   UNL A   1      38.325  29.001  28.571  1.00  0.00     0.029 A 
ATOM     43  N   UNL A   1      39.721  29.992  30.006  1.00  0.00    -0.354 N 
ATOM     44  C   UNL A   1      43.347  28.007  31.305  1.00  0.00     0.074 A 
ATOM     45  C   UNL A   1      43.564  26.790  30.555  1.00  0.00     0.031 C 
ATOM     46  C   UNL A   1      37.757  30.158  28.950  1.00  0.00     0.029 A 
ATOM     47  C   UNL A   1      38.627  30.822  29.915  1.00  0.00     0.049 A 
ATOM     48  H   UNL A   1      40.500  30.190  30.575  1.00  0.00     0.167 HD
ATOM     49  C   UNL A   1      44.187  28.472  32.259  1.00  0.00     0.037 A 
ATOM     50  C   UNL A   1      38.351  31.978  30.549  1.00  0.00     0.037 A 
ATOM     51  C   UNL A   1      44.011  29.730  32.933  1.00  0.00     0.049 A 
ATOM     52  C   UNL A   1      39.341  32.524  31.540  1.00  0.00     0.074 A 
ATOM     53  C   UNL A   1      44.846  30.340  33.851  1.00  0.00     0.029 A 
ATOM     54  N   UNL A   1      42.934  30.583  32.741  1.00  0.00    -0.354 N 
ATOM     55  N   UNL A   1      40.469  31.995  31.950  1.00  0.00    -0.248 NA
ATOM     56  C   UNL A   1      39.024  33.820  32.155  1.00  0.00     0.031 C 
ATOM     57  C   UNL A   1      44.268  31.558  34.224  1.00  0.00     0.029 A 
ATOM     58  C   UNL A   1      43.086  31.718  33.518  1.00  0.00     0.049 A 
ATOM     59  H   UNL A   1      42.173  30.406  32.142  1.00  0.00     0.167 HD
ATOM     60  C   UNL A   1      41.010  32.906  32.849  1.00  0.00     0.074 A 
ATOM     61  C   UNL A   1      40.088  34.021  32.922  1.00  0.00     0.031 C 
ATOM     62  C   UNL A   1      42.166  32.827  33.551  1.00  0.00     0.037 A 
BRANCH  49  63
ATOM     63  C   UNL A   1      45.378  27.625  32.609  1.00  0.00     0.058 A 
ATOM     64  C   UNL A   1      45.350  26.719  33.681  1.00  0.00     0.135 A 
ATOM     65  C   UNL A   1      46.564  27.719  31.863  1.00  0.00     0.135 A 
ATOM     66  F   UNL A   1      44.247  26.601  34.437  1.00  0.00    -0.206 F 
ATOM     67  C   UNL A   1      46.467  25.970  34.031  1.00  0.00     0.059 A 
ATOM     68  C   UNL A   1      47.686  26.958  32.177  1.00  0.00     0.059 A 
ATOM     69  F   UNL A   1      46.646  28.567  30.826  1.00  0.00    -0.206 F 
ATOM     70  C   UNL A   1      47.634  26.103  33.277  1.00  0.00     0.060 A 
BRANCH  70  71
ATOM     71  S   UNL A   1      49.085  25.140  33.753  1.00  0.00     0.124 S 
ATOM     72  O   UNL A   1      49.816  25.078  32.490  1.00  0.00    -0.237 OA
ATOM     73  O   UNL A   1      49.688  25.969  34.792  1.00  0.00    -0.237 OA
ATOM     74  O   UNL A   1      48.518  23.877  34.214  1.00  0.00    -0.744 OA
ENDBRANCH  70  71
ENDBRANCH  49  63
BRANCH  50  75
ATOM     75  C   UNL A   1      37.100  32.716  30.231  1.00  0.00     0.058 A 
ATOM     76  C   UNL A   1      37.073  33.658  29.192  1.00  0.00     0.135 A 
ATOM     77  C   UNL A   1      35.907  32.479  30.930  1.00  0.00     0.135 A 
ATOM     78  F   UNL A   1      38.191  33.921  28.498  1.00  0.00    -0.206 F 
ATOM     79  C   UNL A   1      35.911  34.347  28.861  1.00  0.00     0.059 A 
ATOM     80  C   UNL A   1      34.726  33.143  30.605  1.00  0.00     0.059 A 
ATOM     81  F   UNL A   1      35.876  31.575  31.921  1.00  0.00    -0.206 F 
ATOM     82  C   UNL A   1      34.740  34.081  29.573  1.00  0.00     0.060 A 
BRANCH  82  83
ATOM     83  S   UNL A   1      33.225  34.940  29.098  1.00  0.00     0.124 S 
ATOM     84  O   UNL A   1      32.499  34.977  30.363  1.00  0.00    -0.237 OA
ATOM     85  O   UNL A   1      33.734  36.221  28.617  1.00  0.00    -0.237 OA
ATOM     86  O   UNL A   1      32.658  34.074  28.069  1.00  0.00    -0.744 OA
ENDBRANCH  82  83
ENDBRANCH  50  75
BRANCH  62  87
ATOM     87  C   UNL A   1      42.531  33.992  34.424  1.00  0.00     0.058 A 
ATOM     88  C   UNL A   1      42.124  34.061  35.764  1.00  0.00     0.135 A 
ATOM     89  C   UNL A   1      43.371  35.005  33.935  1.00  0.00     0.135 A 
ATOM     90  F   UNL A   1      41.315  33.120  36.274  1.00  0.00    -0.206 F 
ATOM     91  C   UNL A   1      42.537  35.100  36.592  1.00  0.00     0.059 A 
ATOM     92  C   UNL A   1      43.811  36.041  34.749  1.00  0.00     0.059 A 
ATOM     93  F   UNL A   1      43.793  34.976  32.660  1.00  0.00    -0.206 F 
ATOM     94  C   UNL A   1      43.386  36.082  36.076  1.00  0.00     0.060 A 
BRANCH  94  95
ATOM     95  S   UNL A   1      43.971  37.388  37.177  1.00  0.00     0.124 S 
ATOM     96  O   UNL A   1      42.926  37.404  38.195  1.00  0.00    -0.237 OA
ATOM     97  O   UNL A   1      45.269  36.877  37.608  1.00  0.00    -0.237 OA
ATOM     98  O   UNL A   1      44.023  38.562  36.312  1.00  0.00    -0.744 OA
ENDBRANCH  94  95
ENDBRANCH  62  87
ENDBRANCH  36  37
ENDBRANCH  28  31
ENDBRANCH  26  27
ENDBRANCH   1  26
TORSDOF 16
ENDMDL
MODEL 3
REMARK VINA RESULT:     -11.8      4.947     10.510
REMARK SMILES C[C@]12CCC(=O)N1[C@@H](C(=O)N1C[C@H](O)C[C@@H]1C(=O)NCCCNC(=O)c1ccc(-c3c4nc(c(-c5c(F)cc(S(=O)(=O)[O-])cc5F)c5ccc([nH]5)c(-c5c(F)cc(S(=O)(=O)[O-])cc5F)c5nc(c(-c6c(F)cc(S(=O)(=O)[O-])cc6F)c6ccc3[nH]6)C=C5)C=C4)cc1)CS2
REMARK SMILES IDX 21 1 20 2 19 3 17 4 18 5 16 7 11 8 12 9 13 10 15 11 9 12
REMARK SMILES IDX 10 13 8 14 1 15 2 16 3 17 7 18 93 19 4 20 5 21 92 22 6 23
REMARK SMILES IDX 14 24 22 26 23 27 24 28 25 30 26 31 27 32 91 33 28 34 90 35
REMARK SMILES IDX 29 36 30 37 31 38 84 39 32 40 89 41 83 42 85 43 33 44 88 45
REMARK SMILES IDX 82 46 81 47 34 49 68 50 47 51 67 52 48 53 51 54 66 55 86 56
REMARK SMILES IDX 49 57 50 58 65 60 87 61 52 62 35 63 36 64 45 65 37 66 38 67
REMARK SMILES IDX 44 68 46 69 39 70 40 71 41 72 42 73 43 74 69 75 70 76 79 77
REMARK SMILES IDX 71 78 72 79 78 80 80 81 73 82 74 83 75 84 76 85 77 86 53 87
REMARK SMILES IDX 54 88 63 89 55 90 56 91 62 92 64 93 57 94 58 95 59 96 60 97
REMARK SMILES IDX 61 98
REMARK H PARENT 19 6 14 25 23 29 85 48 51 59
REMARK Flexibility Score: inf
ROOT
ATOM      1  C   UNL A   1      37.161  23.501  25.065  1.00  0.00     0.042 C 
ENDROOT
BRANCH   1   2
ATOM      2  C   UNL A   1      35.760  24.070  25.131  1.00  0.00     0.117 C 
BRANCH   2   3
ATOM      3  N   UNL A   1      35.020  23.710  26.303  1.00  0.00    -0.354 N 
ATOM      4  C   UNL A   1      33.937  22.879  26.345  1.00  0.00     0.242 C 
ATOM      5  O   UNL A   1      33.892  22.121  27.322  1.00  0.00    -0.273 OA
ATOM      6  H   UNL A   1      35.319  24.099  27.156  1.00  0.00     0.163 HD
BRANCH   4   7
ATOM      7  C   UNL A   1      32.951  22.729  25.131  1.00  0.00     0.177 C 
ATOM      8  N   UNL A   1      32.156  23.920  24.765  1.00  0.00    -0.326 N 
ATOM      9  C   UNL A   1      30.892  23.900  25.510  1.00  0.00     0.152 C 
ATOM     10  C   UNL A   1      30.855  22.575  26.272  1.00  0.00     0.136 C 
ATOM     11  C   UNL A   1      31.871  21.710  25.534  1.00  0.00     0.069 C 
BRANCH   8  12
ATOM     12  C   UNL A   1      32.223  24.847  23.744  1.00  0.00     0.247 C 
ATOM     13  O   UNL A   1      31.808  24.508  22.622  1.00  0.00    -0.272 OA
BRANCH  12  14
ATOM     14  C   UNL A   1      32.956  26.222  23.819  1.00  0.00     0.186 C 
ATOM     15  C   UNL A   1      34.025  28.407  25.876  1.00  0.00     0.047 C 
ATOM     16  C   UNL A   1      33.031  28.485  24.719  1.00  0.00     0.087 C 
ATOM     17  C   UNL A   1      32.014  29.600  24.916  1.00  0.00     0.049 C 
ATOM     18  N   UNL A   1      32.245  27.290  24.529  1.00  0.00    -0.315 N 
ATOM     19  S   UNL A   1      33.962  28.634  23.147  1.00  0.00    -0.131 SA
ATOM     20  C   UNL A   1      30.749  29.090  24.251  1.00  0.00     0.103 C 
ATOM     21  C   UNL A   1      30.924  27.597  24.232  1.00  0.00     0.224 C 
ATOM     22  C   UNL A   1      33.653  26.898  22.646  1.00  0.00     0.107 C 
ATOM     23  O   UNL A   1      30.052  26.819  23.878  1.00  0.00    -0.275 OA
ENDBRANCH  12  14
ENDBRANCH   8  12
BRANCH  10  24
ATOM     24  O   UNL A   1      31.262  22.750  27.626  1.00  0.00    -0.391 OA
ATOM     25  H   UNL A   1      31.973  22.124  27.833  1.00  0.00     0.211 HD
ENDBRANCH  10  24
ENDBRANCH   4   7
ENDBRANCH   2   3
ENDBRANCH   1   2
BRANCH   1  26
ATOM     26  C   UNL A   1      37.981  23.869  26.290  1.00  0.00     0.118 C 
BRANCH  26  27
ATOM     27  N   UNL A   1      39.420  23.654  26.127  1.00  0.00    -0.352 N 
ATOM     28  C   UNL A   1      40.478  24.381  26.628  1.00  0.00     0.251 C 
ATOM     29  H   UNL A   1      39.669  22.875  25.578  1.00  0.00     0.163 HD
ATOM     30  O   UNL A   1      41.627  24.077  26.319  1.00  0.00    -0.269 OA
BRANCH  28  31
ATOM     31  C   UNL A   1      40.221  25.552  27.494  1.00  0.00     0.039 A 
ATOM     32  C   UNL A   1      39.364  25.421  28.591  1.00  0.00     0.014 A 
ATOM     33  C   UNL A   1      40.881  26.758  27.267  1.00  0.00     0.014 A 
ATOM     34  C   UNL A   1      39.266  26.461  29.520  1.00  0.00     0.010 A 
ATOM     35  C   UNL A   1      40.885  27.732  28.254  1.00  0.00     0.010 A 
ATOM     36  C   UNL A   1      40.079  27.598  29.393  1.00  0.00    -0.014 A 
BRANCH  36  37
ATOM     37  C   UNL A   1      40.119  28.679  30.415  1.00  0.00     0.031 A 
ATOM     38  C   UNL A   1      41.062  28.550  31.583  1.00  0.00     0.074 A 
ATOM     39  C   UNL A   1      39.228  29.690  30.374  1.00  0.00     0.049 A 
ATOM     40  N   UNL A   1      41.093  29.225  32.703  1.00  0.00    -0.248 NA
ATOM     41  C   UNL A   1      42.063  27.472  31.506  1.00  0.00     0.031 C 
ATOM     42  C   UNL A   1      38.218  29.897  29.333  1.00  0.00     0.029 A 
ATOM     43  N   UNL A   1      39.012  30.725  31.250  1.00  0.00    -0.354 N 
ATOM     44  C   UNL A   1      42.066  28.613  33.484  1.00  0.00     0.074 A 
ATOM     45  C   UNL A   1      42.569  27.486  32.730  1.00  0.00     0.031 C 
ATOM     46  C   UNL A   1      37.511  31.004  29.616  1.00  0.00     0.029 A 
ATOM     47  C   UNL A   1      37.981  31.557  30.882  1.00  0.00     0.049 A 
ATOM     48  H   UNL A   1      39.546  30.859  32.066  1.00  0.00     0.167 HD
ATOM     49  C   UNL A   1      42.518  28.970  34.709  1.00  0.00     0.037 A 
ATOM     50  C   UNL A   1      37.463  32.636  31.502  1.00  0.00     0.037 A 
ATOM     51  C   UNL A   1      42.077  30.145  35.410  1.00  0.00     0.049 A 
ATOM     52  C   UNL A   1      38.041  33.069  32.821  1.00  0.00     0.074 A 
ATOM     53  C   UNL A   1      42.532  30.651  36.615  1.00  0.00     0.029 A 
ATOM     54  N   UNL A   1      41.095  31.012  34.956  1.00  0.00    -0.354 N 
ATOM     55  N   UNL A   1      38.986  32.500  33.530  1.00  0.00    -0.248 NA
ATOM     56  C   UNL A   1      37.486  34.289  33.423  1.00  0.00     0.031 C 
ATOM     57  C   UNL A   1      41.815  31.819  36.895  1.00  0.00     0.029 A 
ATOM     58  C   UNL A   1      40.933  32.054  35.852  1.00  0.00     0.049 A 
ATOM     59  H   UNL A   1      40.587  30.902  34.120  1.00  0.00     0.167 HD
ATOM     60  C   UNL A   1      39.158  33.306  34.648  1.00  0.00     0.074 A 
ATOM     61  C   UNL A   1      38.222  34.405  34.521  1.00  0.00     0.031 C 
ATOM     62  C   UNL A   1      40.013  33.151  35.688  1.00  0.00     0.037 A 
BRANCH  49  63
ATOM     63  C   UNL A   1      43.554  28.091  35.350  1.00  0.00     0.058 A 
ATOM     64  C   UNL A   1      44.924  28.257  35.094  1.00  0.00     0.135 A 
ATOM     65  C   UNL A   1      43.174  27.066  36.232  1.00  0.00     0.135 A 
ATOM     66  F   UNL A   1      45.342  29.211  34.246  1.00  0.00    -0.206 F 
ATOM     67  C   UNL A   1      45.878  27.413  35.651  1.00  0.00     0.059 A 
ATOM     68  C   UNL A   1      44.112  26.227  36.824  1.00  0.00     0.059 A 
ATOM     69  F   UNL A   1      41.877  26.863  36.514  1.00  0.00    -0.206 F 
ATOM     70  C   UNL A   1      45.461  26.395  36.510  1.00  0.00     0.060 A 
BRANCH  70  71
ATOM     71  S   UNL A   1      46.706  25.292  37.213  1.00  0.00     0.124 S 
ATOM     72  O   UNL A   1      47.493  26.222  38.017  1.00  0.00    -0.237 OA
ATOM     73  O   UNL A   1      45.895  24.338  37.963  1.00  0.00    -0.237 OA
ATOM     74  O   UNL A   1      47.380  24.750  36.038  1.00  0.00    -0.744 OA
ENDBRANCH  70  71
ENDBRANCH  49  63
BRANCH  50  75
ATOM     75  C   UNL A   1      36.363  33.403  30.858  1.00  0.00     0.058 A 
ATOM     76  C   UNL A   1      35.066  33.370  31.390  1.00  0.00     0.135 A 
ATOM     77  C   UNL A   1      36.588  34.202  29.728  1.00  0.00     0.135 A 
ATOM     78  F   UNL A   1      34.804  32.616  32.468  1.00  0.00    -0.206 F 
ATOM     79  C   UNL A   1      34.025  34.094  30.820  1.00  0.00     0.059 A 
ATOM     80  C   UNL A   1      35.565  34.952  29.150  1.00  0.00     0.059 A 
ATOM     81  F   UNL A   1      37.815  34.281  29.192  1.00  0.00    -0.206 F 
ATOM     82  C   UNL A   1      34.285  34.885  29.699  1.00  0.00     0.060 A 
BRANCH  82  83
ATOM     83  S   UNL A   1      32.939  35.865  29.001  1.00  0.00     0.124 S 
ATOM     84  O   UNL A   1      33.668  36.962  28.375  1.00  0.00    -0.237 OA
ATOM     85  O   UNL A   1      32.307  34.916  28.090  1.00  0.00    -0.237 OA
ATOM     86  O   UNL A   1      32.143  36.222  30.172  1.00  0.00    -0.744 OA
ENDBRANCH  82  83
ENDBRANCH  50  75
BRANCH  62  87
ATOM     87  C   UNL A   1      40.018  34.213  36.749  1.00  0.00     0.058 A 
ATOM     88  C   UNL A   1      40.752  35.398  36.597  1.00  0.00     0.135 A 
ATOM     89  C   UNL A   1      39.207  34.078  37.886  1.00  0.00     0.135 A 
ATOM     90  F   UNL A   1      41.546  35.570  35.529  1.00  0.00    -0.206 F 
ATOM     91  C   UNL A   1      40.684  36.415  37.543  1.00  0.00     0.059 A 
ATOM     92  C   UNL A   1      39.109  35.089  38.834  1.00  0.00     0.059 A 
ATOM     93  F   UNL A   1      38.480  32.963  38.070  1.00  0.00    -0.206 F 
ATOM     94  C   UNL A   1      39.855  36.254  38.655  1.00  0.00     0.060 A 
BRANCH  94  95
ATOM     95  S   UNL A   1      39.721  37.608  39.843  1.00  0.00     0.124 S 
ATOM     96  O   UNL A   1      40.987  38.304  39.637  1.00  0.00    -0.237 OA
ATOM     97  O   UNL A   1      38.529  38.313  39.382  1.00  0.00    -0.237 OA
ATOM     98  O   UNL A   1      39.581  36.923  41.123  1.00  0.00    -0.744 OA
ENDBRANCH  94  95
ENDBRANCH  62  87
ENDBRANCH  36  37
ENDBRANCH  28  31
ENDBRANCH  26  27
ENDBRANCH   1  26
TORSDOF 16
ENDMDL
