MODEL 1
REMARK VINA RESULT:     -11.9      0.000      0.000
REMARK SMILES O=C(CO/N=C\c1ccccc1)Nc1ccccc1C(=O)NCCCNC(=O)c1ccc(-c2c3nc(c(-c4c(F)cc(S(=O)(=O)[O-])cc4F)c4ccc([nH]4)c(-c4c(F)cc(S(=O)(=O)[O-])cc4F)c4nc(c(-c5c(F)cc(S(=O)(=O)[O-])cc5F)c5ccc2[nH]5)C=C4)C=C3)cc1
REMARK SMILES IDX 23 1 22 2 20 3 21 4 19 6 14 7 15 8 16 9 18 10 17 11 13 12
REMARK SMILES IDX 1 13 2 14 3 16 4 17 5 18 6 19 7 20 8 21 12 22 9 23 11 24
REMARK SMILES IDX 10 25 24 26 25 27 26 28 27 29 28 31 29 32 30 33 94 34 31 35
REMARK SMILES IDX 93 36 32 37 33 38 34 39 87 40 35 41 92 42 86 43 88 44 36 45
REMARK SMILES IDX 91 46 85 47 84 48 37 50 71 51 50 52 70 53 51 54 54 55 69 56
REMARK SMILES IDX 89 57 52 58 53 59 68 61 90 62 55 63 38 64 39 65 48 66 40 67
REMARK SMILES IDX 41 68 47 69 49 70 42 71 43 72 44 73 45 74 46 75 72 76 73 77
REMARK SMILES IDX 82 78 74 79 75 80 81 81 83 82 76 83 77 84 78 85 79 86 80 87
REMARK SMILES IDX 56 88 57 89 66 90 58 91 59 92 65 93 67 94 60 95 61 96 62 97
REMARK SMILES IDX 63 98 64 99
REMARK H PARENT 22 5 13 15 26 30 88 49 54 60
REMARK Flexibility Score: inf
ROOT
ATOM      1  C   UNL A   1      33.611  26.555  25.791  1.00  0.00     0.118 C 
ENDROOT
BRANCH   1   2
ATOM      2  N   UNL A   1      33.751  26.100  24.429  1.00  0.00    -0.352 N 
ATOM      3  C   UNL A   1      32.871  26.263  23.378  1.00  0.00     0.253 C 
ATOM      4  O   UNL A   1      33.228  25.885  22.261  1.00  0.00    -0.269 OA
ATOM      5  H   UNL A   1      34.580  25.610  24.222  1.00  0.00     0.163 HD
BRANCH   3   6
ATOM      6  C   UNL A   1      31.452  26.683  23.589  1.00  0.00     0.063 A 
ATOM      7  C   UNL A   1      30.347  25.896  23.974  1.00  0.00     0.054 A 
ATOM      8  C   UNL A   1      29.055  26.439  23.819  1.00  0.00     0.027 A 
ATOM      9  C   UNL A   1      28.857  27.763  23.415  1.00  0.00     0.002 A 
ATOM     10  C   UNL A   1      31.232  28.032  23.218  1.00  0.00     0.016 A 
ATOM     11  C   UNL A   1      29.950  28.571  23.144  1.00  0.00     0.001 A 
BRANCH   7  12
ATOM     12  N   UNL A   1      30.364  24.588  24.515  1.00  0.00    -0.322 N 
ATOM     13  O   UNL A   1      30.662  25.022  26.772  1.00  0.00    -0.271 OA
ATOM     14  C   UNL A   1      30.586  24.234  25.835  1.00  0.00     0.265 C 
ATOM     15  H   UNL A   1      30.199  23.850  23.885  1.00  0.00     0.170 HD
BRANCH  14  16
ATOM     16  C   UNL A   1      30.865  22.736  26.023  1.00  0.00     0.363 C 
BRANCH  16  17
ATOM     17  O   UNL A   1      32.240  22.400  26.129  1.00  0.00    -0.386 OA
BRANCH  17  18
ATOM     18  N   UNL A   1      32.957  23.113  25.163  1.00  0.00    -0.094 NA
ATOM     19  C   UNL A   1      33.516  22.329  24.292  1.00  0.00     0.162 C 
BRANCH  19  20
ATOM     20  C   UNL A   1      33.415  20.864  24.190  1.00  0.00    -0.004 A 
ATOM     21  C   UNL A   1      34.448  20.104  24.744  1.00  0.00     0.010 A 
ATOM     22  C   UNL A   1      32.373  20.250  23.490  1.00  0.00     0.010 A 
ATOM     23  C   UNL A   1      34.423  18.715  24.622  1.00  0.00     0.001 A 
ATOM     24  C   UNL A   1      32.363  18.860  23.357  1.00  0.00     0.001 A 
ATOM     25  C   UNL A   1      33.384  18.095  23.927  1.00  0.00     0.000 A 
ENDBRANCH  19  20
ENDBRANCH  17  18
ENDBRANCH  16  17
ENDBRANCH  14  16
ENDBRANCH   7  12
ENDBRANCH   3   6
ENDBRANCH   1   2
BRANCH   1  26
ATOM     26  C   UNL A   1      33.696  28.050  26.017  1.00  0.00     0.042 C 
BRANCH  26  27
ATOM     27  C   UNL A   1      33.156  28.528  27.362  1.00  0.00     0.118 C 
BRANCH  27  28
ATOM     28  N   UNL A   1      33.325  29.960  27.623  1.00  0.00    -0.352 N 
ATOM     29  C   UNL A   1      34.382  30.712  28.089  1.00  0.00     0.251 C 
ATOM     30  H   UNL A   1      32.521  30.493  27.424  1.00  0.00     0.163 HD
ATOM     31  O   UNL A   1      34.190  31.896  28.372  1.00  0.00    -0.269 OA
BRANCH  29  32
ATOM     32  C   UNL A   1      35.725  30.122  28.294  1.00  0.00     0.039 A 
ATOM     33  C   UNL A   1      36.637  30.072  27.232  1.00  0.00     0.014 A 
ATOM     34  C   UNL A   1      36.099  29.605  29.530  1.00  0.00     0.014 A 
ATOM     35  C   UNL A   1      37.947  29.627  27.453  1.00  0.00     0.010 A 
ATOM     36  C   UNL A   1      37.431  29.310  29.784  1.00  0.00     0.010 A 
ATOM     37  C   UNL A   1      38.376  29.309  28.750  1.00  0.00    -0.014 A 
BRANCH  37  38
ATOM     38  C   UNL A   1      39.785  28.960  29.082  1.00  0.00     0.031 A 
ATOM     39  C   UNL A   1      40.691  30.005  29.685  1.00  0.00     0.074 A 
ATOM     40  C   UNL A   1      40.290  27.763  28.715  1.00  0.00     0.049 A 
ATOM     41  N   UNL A   1      41.990  29.989  29.839  1.00  0.00    -0.248 NA
ATOM     42  C   UNL A   1      40.054  31.260  30.116  1.00  0.00     0.031 C 
ATOM     43  C   UNL A   1      39.541  26.684  28.067  1.00  0.00     0.029 A 
ATOM     44  N   UNL A   1      41.563  27.262  28.818  1.00  0.00    -0.354 N 
ATOM     45  C   UNL A   1      42.327  31.246  30.331  1.00  0.00     0.074 A 
ATOM     46  C   UNL A   1      41.106  32.018  30.385  1.00  0.00     0.031 C 
ATOM     47  C   UNL A   1      40.358  25.638  27.863  1.00  0.00     0.029 A 
ATOM     48  C   UNL A   1      41.701  25.989  28.314  1.00  0.00     0.049 A 
ATOM     49  H   UNL A   1      42.311  27.766  29.215  1.00  0.00     0.167 HD
ATOM     50  C   UNL A   1      43.536  31.708  30.732  1.00  0.00     0.037 A 
ATOM     51  C   UNL A   1      42.786  25.196  28.219  1.00  0.00     0.037 A 
ATOM     52  C   UNL A   1      44.734  30.911  30.738  1.00  0.00     0.049 A 
ATOM     53  C   UNL A   1      44.110  25.708  28.714  1.00  0.00     0.074 A 
ATOM     54  C   UNL A   1      45.995  31.251  31.193  1.00  0.00     0.029 A 
ATOM     55  N   UNL A   1      44.813  29.604  30.278  1.00  0.00    -0.354 N 
ATOM     56  N   UNL A   1      44.404  26.884  29.215  1.00  0.00    -0.248 NA
ATOM     57  C   UNL A   1      45.249  24.784  28.635  1.00  0.00     0.031 C 
ATOM     58  C   UNL A   1      46.844  30.158  30.984  1.00  0.00     0.029 A 
ATOM     59  C   UNL A   1      46.101  29.123  30.436  1.00  0.00     0.049 A 
ATOM     60  H   UNL A   1      44.063  29.093  29.896  1.00  0.00     0.167 HD
ATOM     61  C   UNL A   1      45.754  26.833  29.540  1.00  0.00     0.074 A 
ATOM     62  C   UNL A   1      46.218  25.507  29.184  1.00  0.00     0.031 C 
ATOM     63  C   UNL A   1      46.539  27.794  30.087  1.00  0.00     0.037 A 
BRANCH  50  64
ATOM     64  C   UNL A   1      43.608  33.135  31.209  1.00  0.00     0.058 A 
ATOM     65  C   UNL A   1      43.851  34.199  30.323  1.00  0.00     0.135 A 
ATOM     66  C   UNL A   1      43.448  33.446  32.569  1.00  0.00     0.135 A 
ATOM     67  F   UNL A   1      44.024  33.961  29.013  1.00  0.00    -0.206 F 
ATOM     68  C   UNL A   1      43.993  35.507  30.774  1.00  0.00     0.059 A 
ATOM     69  C   UNL A   1      43.551  34.752  33.039  1.00  0.00     0.059 A 
ATOM     70  F   UNL A   1      43.208  32.473  33.462  1.00  0.00    -0.206 F 
ATOM     71  C   UNL A   1      43.849  35.773  32.136  1.00  0.00     0.060 A 
BRANCH  71  72
ATOM     72  S   UNL A   1      44.069  37.470  32.711  1.00  0.00     0.124 S 
ATOM     73  O   UNL A   1      43.005  37.578  33.704  1.00  0.00    -0.237 OA
ATOM     74  O   UNL A   1      45.428  37.449  33.239  1.00  0.00    -0.237 OA
ATOM     75  O   UNL A   1      43.882  38.264  31.499  1.00  0.00    -0.744 OA
ENDBRANCH  71  72
ENDBRANCH  50  64
BRANCH  51  76
ATOM     76  C   UNL A   1      42.647  23.815  27.685  1.00  0.00     0.058 A 
ATOM     77  C   UNL A   1      42.510  22.726  28.559  1.00  0.00     0.135 A 
ATOM     78  C   UNL A   1      42.604  23.555  26.306  1.00  0.00     0.135 A 
ATOM     79  F   UNL A   1      42.550  22.924  29.885  1.00  0.00    -0.206 F 
ATOM     80  C   UNL A   1      42.338  21.429  28.089  1.00  0.00     0.059 A 
ATOM     81  C   UNL A   1      42.410  22.269  25.811  1.00  0.00     0.059 A 
ATOM     82  F   UNL A   1      42.710  24.564  25.428  1.00  0.00    -0.206 F 
ATOM     83  C   UNL A   1      42.282  21.211  26.712  1.00  0.00     0.060 A 
BRANCH  83  84
ATOM     84  S   UNL A   1      41.978  19.533  26.117  1.00  0.00     0.124 S 
ATOM     85  O   UNL A   1      40.541  19.564  25.869  1.00  0.00    -0.237 OA
ATOM     86  O   UNL A   1      42.829  19.469  24.933  1.00  0.00    -0.237 OA
ATOM     87  O   UNL A   1      42.409  18.698  27.234  1.00  0.00    -0.744 OA
ENDBRANCH  83  84
ENDBRANCH  51  76
BRANCH  63  88
ATOM     88  C   UNL A   1      47.968  27.435  30.379  1.00  0.00     0.058 A 
ATOM     89  C   UNL A   1      48.377  27.001  31.649  1.00  0.00     0.135 A 
ATOM     90  C   UNL A   1      48.928  27.473  29.355  1.00  0.00     0.135 A 
ATOM     91  F   UNL A   1      47.498  26.953  32.662  1.00  0.00    -0.206 F 
ATOM     92  C   UNL A   1      49.695  26.635  31.900  1.00  0.00     0.059 A 
ATOM     93  C   UNL A   1      50.246  27.088  29.577  1.00  0.00     0.059 A 
ATOM     94  F   UNL A   1      48.585  27.871  28.120  1.00  0.00    -0.206 F 
ATOM     95  C   UNL A   1      50.623  26.682  30.857  1.00  0.00     0.060 A 
BRANCH  95  96
ATOM     96  S   UNL A   1      52.323  26.170  31.186  1.00  0.00     0.124 S 
ATOM     97  O   UNL A   1      52.129  24.813  31.684  1.00  0.00    -0.237 OA
ATOM     98  O   UNL A   1      52.942  26.280  29.868  1.00  0.00    -0.237 OA
ATOM     99  O   UNL A   1      52.785  27.144  32.171  1.00  0.00    -0.744 OA
ENDBRANCH  95  96
ENDBRANCH  63  88
ENDBRANCH  37  38
ENDBRANCH  29  32
ENDBRANCH  27  28
ENDBRANCH  26  27
ENDBRANCH   1  26
TORSDOF 18
ENDMDL
MODEL 2
REMARK VINA RESULT:     -11.5      2.932      9.430
REMARK SMILES O=C(CO/N=C\c1ccccc1)Nc1ccccc1C(=O)NCCCNC(=O)c1ccc(-c2c3nc(c(-c4c(F)cc(S(=O)(=O)[O-])cc4F)c4ccc([nH]4)c(-c4c(F)cc(S(=O)(=O)[O-])cc4F)c4nc(c(-c5c(F)cc(S(=O)(=O)[O-])cc5F)c5ccc2[nH]5)C=C4)C=C3)cc1
REMARK SMILES IDX 23 1 22 2 20 3 21 4 19 6 14 7 15 8 16 9 18 10 17 11 13 12
REMARK SMILES IDX 1 13 2 14 3 16 4 17 5 18 6 19 7 20 8 21 12 22 9 23 11 24
REMARK SMILES IDX 10 25 24 26 25 27 26 28 27 29 28 31 29 32 30 33 94 34 31 35
REMARK SMILES IDX 93 36 32 37 33 38 34 39 87 40 35 41 92 42 86 43 88 44 36 45
REMARK SMILES IDX 91 46 85 47 84 48 37 50 71 51 50 52 70 53 51 54 54 55 69 56
REMARK SMILES IDX 89 57 52 58 53 59 68 61 90 62 55 63 38 64 39 65 48 66 40 67
REMARK SMILES IDX 41 68 47 69 49 70 42 71 43 72 44 73 45 74 46 75 72 76 73 77
REMARK SMILES IDX 82 78 74 79 75 80 81 81 83 82 76 83 77 84 78 85 79 86 80 87
REMARK SMILES IDX 56 88 57 89 66 90 58 91 59 92 65 93 67 94 60 95 61 96 62 97
REMARK SMILES IDX 63 98 64 99
REMARK H PARENT 22 5 13 15 26 30 88 49 54 60
REMARK Flexibility Score: inf
ROOT
ATOM      1  C   UNL A   1      34.946  22.633  25.974  1.00  0.00     0.118 C 
ENDROOT
BRANCH   1   2
ATOM      2  N   UNL A   1      33.564  22.936  26.259  1.00  0.00    -0.352 N 
ATOM      3  C   UNL A   1      32.433  22.340  25.741  1.00  0.00     0.253 C 
ATOM      4  O   UNL A   1      31.339  22.681  26.195  1.00  0.00    -0.269 OA
ATOM      5  H   UNL A   1      33.408  23.662  26.906  1.00  0.00     0.163 HD
BRANCH   3   6
ATOM      6  C   UNL A   1      32.480  21.467  24.528  1.00  0.00     0.063 A 
ATOM      7  C   UNL A   1      32.250  21.815  23.181  1.00  0.00     0.054 A 
ATOM      8  C   UNL A   1      32.054  20.776  22.248  1.00  0.00     0.027 A 
ATOM      9  C   UNL A   1      32.203  19.432  22.601  1.00  0.00     0.002 A 
ATOM     10  C   UNL A   1      32.664  20.102  24.858  1.00  0.00     0.016 A 
ATOM     11  C   UNL A   1      32.540  19.095  23.903  1.00  0.00     0.001 A 
BRANCH   7  12
ATOM     12  N   UNL A   1      32.188  23.115  22.622  1.00  0.00    -0.322 N 
ATOM     13  O   UNL A   1      34.435  23.668  22.483  1.00  0.00    -0.271 OA
ATOM     14  C   UNL A   1      33.250  23.970  22.380  1.00  0.00     0.265 C 
ATOM     15  H   UNL A   1      31.294  23.446  22.379  1.00  0.00     0.170 HD
BRANCH  14  16
ATOM     16  C   UNL A   1      32.813  25.411  22.081  1.00  0.00     0.363 C 
BRANCH  16  17
ATOM     17  O   UNL A   1      32.288  26.111  23.200  1.00  0.00    -0.386 OA
BRANCH  17  18
ATOM     18  N   UNL A   1      30.906  25.910  23.253  1.00  0.00    -0.094 NA
ATOM     19  C   UNL A   1      30.351  26.584  24.214  1.00  0.00     0.162 C 
BRANCH  19  20
ATOM     20  C   UNL A   1      30.985  27.530  25.147  1.00  0.00    -0.004 A 
ATOM     21  C   UNL A   1      31.248  27.084  26.444  1.00  0.00     0.010 A 
ATOM     22  C   UNL A   1      31.239  28.855  24.782  1.00  0.00     0.010 A 
ATOM     23  C   UNL A   1      31.797  27.963  27.377  1.00  0.00     0.001 A 
ATOM     24  C   UNL A   1      31.773  29.734  25.726  1.00  0.00     0.001 A 
ATOM     25  C   UNL A   1      32.056  29.286  27.020  1.00  0.00     0.000 A 
ENDBRANCH  19  20
ENDBRANCH  17  18
ENDBRANCH  16  17
ENDBRANCH  14  16
ENDBRANCH   7  12
ENDBRANCH   3   6
ENDBRANCH   1   2
BRANCH   1  26
ATOM     26  C   UNL A   1      35.877  23.815  25.809  1.00  0.00     0.042 C 
BRANCH  26  27
ATOM     27  C   UNL A   1      37.011  23.606  24.809  1.00  0.00     0.118 C 
BRANCH  27  28
ATOM     28  N   UNL A   1      38.100  22.745  25.280  1.00  0.00    -0.352 N 
ATOM     29  C   UNL A   1      39.194  22.972  26.087  1.00  0.00     0.251 C 
ATOM     30  H   UNL A   1      38.037  21.819  24.954  1.00  0.00     0.163 HD
ATOM     31  O   UNL A   1      40.052  22.093  26.185  1.00  0.00    -0.269 OA
BRANCH  29  32
ATOM     32  C   UNL A   1      39.380  24.256  26.803  1.00  0.00     0.039 A 
ATOM     33  C   UNL A   1      38.812  24.439  28.070  1.00  0.00     0.014 A 
ATOM     34  C   UNL A   1      40.108  25.295  26.233  1.00  0.00     0.014 A 
ATOM     35  C   UNL A   1      39.087  25.603  28.800  1.00  0.00     0.010 A 
ATOM     36  C   UNL A   1      40.502  26.374  27.010  1.00  0.00     0.010 A 
ATOM     37  C   UNL A   1      39.995  26.550  28.304  1.00  0.00    -0.014 A 
BRANCH  37  38
ATOM     38  C   UNL A   1      40.437  27.742  29.080  1.00  0.00     0.031 A 
ATOM     39  C   UNL A   1      41.758  27.709  29.809  1.00  0.00     0.074 A 
ATOM     40  C   UNL A   1      39.602  28.789  29.247  1.00  0.00     0.049 A 
ATOM     41  N   UNL A   1      42.228  28.529  30.713  1.00  0.00    -0.248 NA
ATOM     42  C   UNL A   1      42.639  26.564  29.526  1.00  0.00     0.031 C 
ATOM     43  C   UNL A   1      38.272  28.923  28.651  1.00  0.00     0.029 A 
ATOM     44  N   UNL A   1      39.745  29.934  29.991  1.00  0.00    -0.354 N 
ATOM     45  C   UNL A   1      43.428  27.970  31.142  1.00  0.00     0.074 A 
ATOM     46  C   UNL A   1      43.578  26.711  30.447  1.00  0.00     0.031 C 
ATOM     47  C   UNL A   1      37.736  30.096  29.022  1.00  0.00     0.029 A 
ATOM     48  C   UNL A   1      38.658  30.775  29.926  1.00  0.00     0.049 A 
ATOM     49  H   UNL A   1      40.549  30.134  30.523  1.00  0.00     0.167 HD
ATOM     50  C   UNL A   1      44.339  28.472  32.010  1.00  0.00     0.037 A 
ATOM     51  C   UNL A   1      38.427  31.956  30.531  1.00  0.00     0.037 A 
ATOM     52  C   UNL A   1      44.214  29.757  32.645  1.00  0.00     0.049 A 
ATOM     53  C   UNL A   1      39.471  32.521  31.454  1.00  0.00     0.074 A 
ATOM     54  C   UNL A   1      45.111  30.398  33.481  1.00  0.00     0.029 A 
ATOM     55  N   UNL A   1      43.126  30.606  32.500  1.00  0.00    -0.354 N 
ATOM     56  N   UNL A   1      40.619  32.000  31.816  1.00  0.00    -0.248 NA
ATOM     57  C   UNL A   1      39.191  33.836  32.046  1.00  0.00     0.031 C 
ATOM     58  C   UNL A   1      44.553  31.623  33.863  1.00  0.00     0.029 A 
ATOM     59  C   UNL A   1      43.326  31.763  33.232  1.00  0.00     0.049 A 
ATOM     60  H   UNL A   1      42.328  30.413  31.956  1.00  0.00     0.167 HD
ATOM     61  C   UNL A   1      41.214  32.936  32.654  1.00  0.00     0.074 A 
ATOM     62  C   UNL A   1      40.301  34.058  32.741  1.00  0.00     0.031 C 
ATOM     63  C   UNL A   1      42.409  32.875  33.292  1.00  0.00     0.037 A 
BRANCH  50  64
ATOM     64  C   UNL A   1      45.553  27.629  32.303  1.00  0.00     0.058 A 
ATOM     65  C   UNL A   1      45.604  26.768  33.413  1.00  0.00     0.135 A 
ATOM     66  C   UNL A   1      46.687  27.692  31.476  1.00  0.00     0.135 A 
ATOM     67  F   UNL A   1      44.555  26.677  34.245  1.00  0.00    -0.206 F 
ATOM     68  C   UNL A   1      46.751  26.048  33.726  1.00  0.00     0.059 A 
ATOM     69  C   UNL A   1      47.834  26.953  31.750  1.00  0.00     0.059 A 
ATOM     70  F   UNL A   1      46.695  28.492  30.399  1.00  0.00    -0.206 F 
ATOM     71  C   UNL A   1      47.866  26.153  32.893  1.00  0.00     0.060 A 
BRANCH  71  72
ATOM     72  S   UNL A   1      49.359  25.238  33.330  1.00  0.00     0.124 S 
ATOM     73  O   UNL A   1      49.967  26.132  34.312  1.00  0.00    -0.237 OA
ATOM     74  O   UNL A   1      48.819  23.991  33.859  1.00  0.00    -0.237 OA
ATOM     75  O   UNL A   1      50.070  25.123  32.060  1.00  0.00    -0.744 OA
ENDBRANCH  71  72
ENDBRANCH  50  64
BRANCH  51  76
ATOM     76  C   UNL A   1      37.178  32.707  30.234  1.00  0.00     0.058 A 
ATOM     77  C   UNL A   1      37.129  33.606  29.158  1.00  0.00     0.135 A 
ATOM     78  C   UNL A   1      36.004  32.515  30.979  1.00  0.00     0.135 A 
ATOM     79  F   UNL A   1      38.227  33.826  28.420  1.00  0.00    -0.206 F 
ATOM     80  C   UNL A   1      35.964  34.291  28.831  1.00  0.00     0.059 A 
ATOM     81  C   UNL A   1      34.819  33.172  30.658  1.00  0.00     0.059 A 
ATOM     82  F   UNL A   1      35.993  31.652  32.006  1.00  0.00    -0.206 F 
ATOM     83  C   UNL A   1      34.811  34.062  29.583  1.00  0.00     0.060 A 
BRANCH  83  84
ATOM     84  S   UNL A   1      33.285  34.897  29.098  1.00  0.00     0.124 S 
ATOM     85  O   UNL A   1      32.752  33.980  28.097  1.00  0.00    -0.237 OA
ATOM     86  O   UNL A   1      32.555  34.959  30.360  1.00  0.00    -0.237 OA
ATOM     87  O   UNL A   1      33.754  36.184  28.591  1.00  0.00    -0.744 OA
ENDBRANCH  83  84
ENDBRANCH  51  76
BRANCH  63  88
ATOM     88  C   UNL A   1      42.821  34.071  34.102  1.00  0.00     0.058 A 
ATOM     89  C   UNL A   1      42.619  34.130  35.489  1.00  0.00     0.135 A 
ATOM     90  C   UNL A   1      43.480  35.148  33.486  1.00  0.00     0.135 A 
ATOM     91  F   UNL A   1      41.989  33.129  36.123  1.00  0.00    -0.206 F 
ATOM     92  C   UNL A   1      43.037  35.226  36.236  1.00  0.00     0.059 A 
ATOM     93  C   UNL A   1      43.929  36.242  34.217  1.00  0.00     0.059 A 
ATOM     94  F   UNL A   1      43.707  35.134  32.163  1.00  0.00    -0.206 F 
ATOM     95  C   UNL A   1      43.693  36.277  35.592  1.00  0.00     0.060 A 
BRANCH  95  96
ATOM     96  S   UNL A   1      44.264  37.677  36.577  1.00  0.00     0.124 S 
ATOM     97  O   UNL A   1      44.235  38.757  35.597  1.00  0.00    -0.237 OA
ATOM     98  O   UNL A   1      43.256  37.749  37.630  1.00  0.00    -0.237 OA
ATOM     99  O   UNL A   1      45.593  37.262  37.018  1.00  0.00    -0.744 OA
ENDBRANCH  95  96
ENDBRANCH  63  88
ENDBRANCH  37  38
ENDBRANCH  29  32
ENDBRANCH  27  28
ENDBRANCH  26  27
ENDBRANCH   1  26
TORSDOF 18
ENDMDL
MODEL 3
REMARK VINA RESULT:     -11.5      0.881      2.153
REMARK SMILES O=C(CO/N=C\c1ccccc1)Nc1ccccc1C(=O)NCCCNC(=O)c1ccc(-c2c3nc(c(-c4c(F)cc(S(=O)(=O)[O-])cc4F)c4ccc([nH]4)c(-c4c(F)cc(S(=O)(=O)[O-])cc4F)c4nc(c(-c5c(F)cc(S(=O)(=O)[O-])cc5F)c5ccc2[nH]5)C=C4)C=C3)cc1
REMARK SMILES IDX 23 1 22 2 20 3 21 4 19 6 14 7 15 8 16 9 18 10 17 11 13 12
REMARK SMILES IDX 1 13 2 14 3 16 4 17 5 18 6 19 7 20 8 21 12 22 9 23 11 24
REMARK SMILES IDX 10 25 24 26 25 27 26 28 27 29 28 31 29 32 30 33 94 34 31 35
REMARK SMILES IDX 93 36 32 37 33 38 34 39 87 40 35 41 92 42 86 43 88 44 36 45
REMARK SMILES IDX 91 46 85 47 84 48 37 50 71 51 50 52 70 53 51 54 54 55 69 56
REMARK SMILES IDX 89 57 52 58 53 59 68 61 90 62 55 63 38 64 39 65 48 66 40 67
REMARK SMILES IDX 41 68 47 69 49 70 42 71 43 72 44 73 45 74 46 75 72 76 73 77
REMARK SMILES IDX 82 78 74 79 75 80 81 81 83 82 76 83 77 84 78 85 79 86 80 87
REMARK SMILES IDX 56 88 57 89 66 90 58 91 59 92 65 93 67 94 60 95 61 96 62 97
REMARK SMILES IDX 63 98 64 99
REMARK H PARENT 22 5 13 15 26 30 88 49 54 60
REMARK Flexibility Score: inf
ROOT
ATOM      1  C   UNL A   1      33.792  25.970  24.719  1.00  0.00     0.118 C 
ENDROOT
BRANCH   1   2
ATOM      2  N   UNL A   1      33.618  25.619  23.331  1.00  0.00    -0.352 N 
ATOM      3  C   UNL A   1      32.566  25.930  22.494  1.00  0.00     0.253 C 
ATOM      4  O   UNL A   1      32.659  25.620  21.305  1.00  0.00    -0.269 OA
ATOM      5  H   UNL A   1      34.344  25.088  22.928  1.00  0.00     0.163 HD
BRANCH   3   6
ATOM      6  C   UNL A   1      31.259  26.434  23.017  1.00  0.00     0.063 A 
ATOM      7  C   UNL A   1      30.278  25.741  23.757  1.00  0.00     0.054 A 
ATOM      8  C   UNL A   1      29.001  26.325  23.882  1.00  0.00     0.027 A 
ATOM      9  C   UNL A   1      28.729  27.609  23.403  1.00  0.00     0.002 A 
ATOM     10  C   UNL A   1      30.975  27.748  22.572  1.00  0.00     0.016 A 
ATOM     11  C   UNL A   1      29.727  28.336  22.774  1.00  0.00     0.001 A 
BRANCH   7  12
ATOM     12  N   UNL A   1      30.412  24.493  24.413  1.00  0.00    -0.322 N 
ATOM     13  O   UNL A   1      30.858  25.158  26.588  1.00  0.00    -0.271 OA
ATOM     14  C   UNL A   1      30.756  24.280  25.738  1.00  0.00     0.265 C 
ATOM     15  H   UNL A   1      30.242  23.691  23.870  1.00  0.00     0.170 HD
BRANCH  14  16
ATOM     16  C   UNL A   1      31.133  22.823  26.040  1.00  0.00     0.363 C 
BRANCH  16  17
ATOM     17  O   UNL A   1      32.091  22.266  25.152  1.00  0.00    -0.386 OA
BRANCH  17  18
ATOM     18  N   UNL A   1      32.475  21.010  25.630  1.00  0.00    -0.094 NA
ATOM     19  C   UNL A   1      33.767  20.887  25.695  1.00  0.00     0.162 C 
BRANCH  19  20
ATOM     20  C   UNL A   1      34.794  21.900  25.400  1.00  0.00    -0.004 A 
ATOM     21  C   UNL A   1      35.344  21.908  24.116  1.00  0.00     0.010 A 
ATOM     22  C   UNL A   1      35.269  22.768  26.387  1.00  0.00     0.010 A 
ATOM     23  C   UNL A   1      36.359  22.814  23.808  1.00  0.00     0.001 A 
ATOM     24  C   UNL A   1      36.296  23.660  26.076  1.00  0.00     0.001 A 
ATOM     25  C   UNL A   1      36.837  23.685  24.787  1.00  0.00     0.000 A 
ENDBRANCH  19  20
ENDBRANCH  17  18
ENDBRANCH  16  17
ENDBRANCH  14  16
ENDBRANCH   7  12
ENDBRANCH   3   6
ENDBRANCH   1   2
BRANCH   1  26
ATOM     26  C   UNL A   1      33.546  27.418  25.086  1.00  0.00     0.042 C 
BRANCH  26  27
ATOM     27  C   UNL A   1      34.177  27.863  26.403  1.00  0.00     0.118 C 
BRANCH  27  28
ATOM     28  N   UNL A   1      33.786  29.201  26.856  1.00  0.00    -0.352 N 
ATOM     29  C   UNL A   1      34.406  30.143  27.648  1.00  0.00     0.251 C 
ATOM     30  H   UNL A   1      32.902  29.485  26.527  1.00  0.00     0.163 HD
ATOM     31  O   UNL A   1      33.766  31.133  28.006  1.00  0.00    -0.269 OA
BRANCH  29  32
ATOM     32  C   UNL A   1      35.803  29.973  28.109  1.00  0.00     0.039 A 
ATOM     33  C   UNL A   1      36.060  29.537  29.416  1.00  0.00     0.014 A 
ATOM     34  C   UNL A   1      36.875  30.247  27.266  1.00  0.00     0.014 A 
ATOM     35  C   UNL A   1      37.374  29.259  29.816  1.00  0.00     0.010 A 
ATOM     36  C   UNL A   1      38.153  29.830  27.610  1.00  0.00     0.010 A 
ATOM     37  C   UNL A   1      38.426  29.335  28.891  1.00  0.00    -0.014 A 
BRANCH  37  38
ATOM     38  C   UNL A   1      39.822  28.926  29.208  1.00  0.00     0.031 A 
ATOM     39  C   UNL A   1      40.775  29.929  29.811  1.00  0.00     0.074 A 
ATOM     40  C   UNL A   1      40.275  27.712  28.829  1.00  0.00     0.049 A 
ATOM     41  N   UNL A   1      42.073  29.860  29.953  1.00  0.00    -0.248 NA
ATOM     42  C   UNL A   1      40.193  31.206  30.256  1.00  0.00     0.031 C 
ATOM     43  C   UNL A   1      39.478  26.669  28.180  1.00  0.00     0.029 A 
ATOM     44  N   UNL A   1      41.528  27.160  28.918  1.00  0.00    -0.354 N 
ATOM     45  C   UNL A   1      42.465  31.099  30.452  1.00  0.00     0.074 A 
ATOM     46  C   UNL A   1      41.276  31.919  30.521  1.00  0.00     0.031 C 
ATOM     47  C   UNL A   1      40.250  25.593  27.962  1.00  0.00     0.029 A 
ATOM     48  C   UNL A   1      41.610  25.886  28.404  1.00  0.00     0.049 A 
ATOM     49  H   UNL A   1      42.299  27.631  29.311  1.00  0.00     0.167 HD
ATOM     50  C   UNL A   1      43.695  31.509  30.845  1.00  0.00     0.037 A 
ATOM     51  C   UNL A   1      42.661  25.051  28.294  1.00  0.00     0.037 A 
ATOM     52  C   UNL A   1      44.859  30.664  30.835  1.00  0.00     0.049 A 
ATOM     53  C   UNL A   1      44.009  25.505  28.781  1.00  0.00     0.074 A 
ATOM     54  C   UNL A   1      46.137  30.949  31.283  1.00  0.00     0.029 A 
ATOM     55  N   UNL A   1      44.882  29.358  30.366  1.00  0.00    -0.354 N 
ATOM     56  N   UNL A   1      44.354  26.665  29.287  1.00  0.00    -0.248 NA
ATOM     57  C   UNL A   1      45.110  24.537  28.686  1.00  0.00     0.031 C 
ATOM     58  C   UNL A   1      46.939  29.825  31.058  1.00  0.00     0.029 A 
ATOM     59  C   UNL A   1      46.151  28.825  30.510  1.00  0.00     0.049 A 
ATOM     60  H   UNL A   1      44.109  28.881  29.987  1.00  0.00     0.167 HD
ATOM     61  C   UNL A   1      45.704  26.557  29.601  1.00  0.00     0.074 A 
ATOM     62  C   UNL A   1      46.111  25.216  29.231  1.00  0.00     0.031 C 
ATOM     63  C   UNL A   1      46.531  27.481  30.148  1.00  0.00     0.037 A 
BRANCH  50  64
ATOM     64  C   UNL A   1      43.829  32.928  31.332  1.00  0.00     0.058 A 
ATOM     65  C   UNL A   1      43.721  33.255  32.695  1.00  0.00     0.135 A 
ATOM     66  C   UNL A   1      44.051  33.979  30.427  1.00  0.00     0.135 A 
ATOM     67  F   UNL A   1      43.496  32.293  33.604  1.00  0.00    -0.206 F 
ATOM     68  C   UNL A   1      43.769  34.573  33.135  1.00  0.00     0.059 A 
ATOM     69  C   UNL A   1      44.138  35.303  30.849  1.00  0.00     0.059 A 
ATOM     70  F   UNL A   1      44.168  33.728  29.114  1.00  0.00    -0.206 F 
ATOM     71  C   UNL A   1      43.970  35.592  32.203  1.00  0.00     0.060 A 
BRANCH  71  72
ATOM     72  S   UNL A   1      43.996  37.300  32.786  1.00  0.00     0.124 S 
ATOM     73  O   UNL A   1      45.293  37.357  33.453  1.00  0.00    -0.237 OA
ATOM     74  O   UNL A   1      43.889  38.057  31.544  1.00  0.00    -0.237 OA
ATOM     75  O   UNL A   1      42.833  37.376  33.665  1.00  0.00    -0.744 OA
ENDBRANCH  71  72
ENDBRANCH  50  64
BRANCH  51  76
ATOM     76  C   UNL A   1      42.462  23.680  27.752  1.00  0.00     0.058 A 
ATOM     77  C   UNL A   1      42.440  23.462  26.366  1.00  0.00     0.135 A 
ATOM     78  C   UNL A   1      42.334  22.563  28.592  1.00  0.00     0.135 A 
ATOM     79  F   UNL A   1      42.553  24.499  25.523  1.00  0.00    -0.206 F 
ATOM     80  C   UNL A   1      42.297  22.187  25.830  1.00  0.00     0.059 A 
ATOM     81  C   UNL A   1      42.212  21.274  28.079  1.00  0.00     0.059 A 
ATOM     82  F   UNL A   1      42.368  22.716  29.924  1.00  0.00    -0.206 F 
ATOM     83  C   UNL A   1      42.190  21.097  26.695  1.00  0.00     0.060 A 
BRANCH  83  84
ATOM     84  S   UNL A   1      42.085  19.440  25.986  1.00  0.00     0.124 S 
ATOM     85  O   UNL A   1      42.627  18.622  27.065  1.00  0.00    -0.237 OA
ATOM     86  O   UNL A   1      40.654  19.303  25.738  1.00  0.00    -0.237 OA
ATOM     87  O   UNL A   1      42.914  19.535  24.787  1.00  0.00    -0.744 OA
ENDBRANCH  83  84
ENDBRANCH  51  76
BRANCH  63  88
ATOM     88  C   UNL A   1      47.947  27.063  30.425  1.00  0.00     0.058 A 
ATOM     89  C   UNL A   1      48.973  27.262  29.489  1.00  0.00     0.135 A 
ATOM     90  C   UNL A   1      48.289  26.506  31.669  1.00  0.00     0.135 A 
ATOM     91  F   UNL A   1      48.697  27.785  28.284  1.00  0.00    -0.206 F 
ATOM     92  C   UNL A   1      50.288  26.905  29.769  1.00  0.00     0.059 A 
ATOM     93  C   UNL A   1      49.601  26.166  31.979  1.00  0.00     0.059 A 
ATOM     94  F   UNL A   1      47.345  26.305  32.601  1.00  0.00    -0.206 F 
ATOM     95  C   UNL A   1      50.593  26.358  31.017  1.00  0.00     0.060 A 
BRANCH  95  96
ATOM     96  S   UNL A   1      52.309  25.933  31.382  1.00  0.00     0.124 S 
ATOM     97  O   UNL A   1      52.175  24.561  31.861  1.00  0.00    -0.237 OA
ATOM     98  O   UNL A   1      52.953  26.091  30.082  1.00  0.00    -0.237 OA
ATOM     99  O   UNL A   1      52.695  26.916  32.390  1.00  0.00    -0.744 OA
ENDBRANCH  95  96
ENDBRANCH  63  88
ENDBRANCH  37  38
ENDBRANCH  29  32
ENDBRANCH  27  28
ENDBRANCH  26  27
ENDBRANCH   1  26
TORSDOF 18
ENDMDL
