MODEL 1
REMARK VINA RESULT:     -13.8      0.000      0.000
REMARK SMILES Cc1n[nH]c(C[N@H+]2CCC[C@H](c3cccc(C(=O)NCCCNC(=O)c4ccc(-c5c6nc(c(-c7c(F)cc(S(=O)(=O)[O-])cc7F)c7ccc([nH]7)c(-c7c(F)cc(S(=O)(=O)[O-])cc7F)c7nc(c(-c8c(F)cc(S(=O)(=O)[O-])cc8F)c8ccc5[nH]8)C=C7)C=C6)cc4)c3)C2)n1
REMARK SMILES IDX 21 1 20 2 19 3 17 4 18 5 16 7 12 8 13 9 92 10 14 11 15 12
REMARK SMILES IDX 11 13 7 14 8 15 93 16 9 18 10 19 6 20 5 21 1 22 2 23 3 24
REMARK SMILES IDX 94 25 4 26 22 28 23 29 24 30 25 32 26 33 27 34 91 35 28 36
REMARK SMILES IDX 90 37 29 38 30 39 31 40 84 41 32 42 89 43 83 44 85 45 33 46
REMARK SMILES IDX 88 47 82 48 81 49 34 51 68 52 47 53 67 54 48 55 51 56 66 57
REMARK SMILES IDX 86 58 49 59 50 60 65 62 87 63 52 64 35 65 36 66 45 67 37 68
REMARK SMILES IDX 38 69 44 70 46 71 39 72 40 73 41 74 42 75 43 76 69 77 70 78
REMARK SMILES IDX 79 79 71 80 72 81 78 82 80 83 73 84 74 85 75 86 76 87 77 88
REMARK SMILES IDX 53 89 54 90 63 91 55 92 56 93 62 94 64 95 57 96 58 97 59 98
REMARK SMILES IDX 60 99 61 100
REMARK H PARENT 19 6 7 17 4 27 23 31 85 50 51 61
REMARK Flexibility Score: inf
ROOT
ATOM      1  C   UNL A   1      36.172  22.146  25.207  1.00  0.00     0.042 C 
ENDROOT
BRANCH   1   2
ATOM      2  C   UNL A   1      35.151  22.216  26.356  1.00  0.00     0.118 C 
BRANCH   2   3
ATOM      3  N   UNL A   1      34.026  21.308  26.179  1.00  0.00    -0.352 N 
ATOM      4  C   UNL A   1      32.978  21.266  25.288  1.00  0.00     0.251 C 
ATOM      5  O   UNL A   1      32.285  20.248  25.288  1.00  0.00    -0.269 OA
ATOM      6  H   UNL A   1      34.013  20.571  26.832  1.00  0.00     0.163 HD
BRANCH   4   7
ATOM      7  C   UNL A   1      32.649  22.352  24.317  1.00  0.00     0.040 A 
ATOM      8  C   UNL A   1      31.452  24.397  23.662  1.00  0.00    -0.039 A 
ATOM      9  C   UNL A   1      32.138  24.399  22.448  1.00  0.00     0.004 A 
ATOM     10  C   UNL A   1      31.686  23.330  24.541  1.00  0.00     0.018 A 
ATOM     11  C   UNL A   1      33.060  23.390  22.157  1.00  0.00     0.001 A 
ATOM     12  C   UNL A   1      33.327  22.386  23.092  1.00  0.00     0.014 A 
BRANCH   8  13
ATOM     13  C   UNL A   1      30.454  25.457  24.113  1.00  0.00     0.074 C 
ATOM     14  N   UNL A   1      31.748  27.591  23.820  1.00  0.00    -0.328 N 
ATOM     15  C   UNL A   1      31.799  27.810  25.269  1.00  0.00     0.262 C 
ATOM     16  C   UNL A   1      30.549  26.826  23.419  1.00  0.00     0.270 C 
ATOM     17  H   UNL A   1      32.566  27.024  23.598  1.00  0.00     0.348 HD
ATOM     18  C   UNL A   1      31.727  26.494  26.045  1.00  0.00     0.062 C 
ATOM     19  C   UNL A   1      30.497  25.687  25.643  1.00  0.00     0.020 C 
BRANCH  14  20
ATOM     20  C   UNL A   1      31.883  28.834  23.040  1.00  0.00     0.340 C 
BRANCH  20  21
ATOM     21  C   UNL A   1      30.594  29.532  22.764  1.00  0.00     0.179 A 
ATOM     22  C   UNL A   1      27.622  31.257  23.528  1.00  0.00     0.092 C 
ATOM     23  C   UNL A   1      28.785  30.606  22.897  1.00  0.00     0.147 A 
ATOM     24  N   UNL A   1      29.164  30.827  21.632  1.00  0.00    -0.159 NA
ATOM     25  N   UNL A   1      29.606  29.774  23.602  1.00  0.00    -0.211 NA
ATOM     26  N   UNL A   1      30.306  30.122  21.568  1.00  0.00    -0.258 N 
ATOM     27  H   UNL A   1      30.864  30.042  20.761  1.00  0.00     0.192 HD
ENDBRANCH  20  21
ENDBRANCH  14  20
ENDBRANCH   8  13
ENDBRANCH   4   7
ENDBRANCH   2   3
ENDBRANCH   1   2
BRANCH   1  28
ATOM     28  C   UNL A   1      37.496  22.809  25.538  1.00  0.00     0.118 C 
BRANCH  28  29
ATOM     29  N   UNL A   1      38.404  21.897  26.238  1.00  0.00    -0.352 N 
ATOM     30  C   UNL A   1      39.614  22.172  26.854  1.00  0.00     0.251 C 
ATOM     31  H   UNL A   1      38.114  20.957  26.276  1.00  0.00     0.163 HD
ATOM     32  O   UNL A   1      40.396  21.279  27.113  1.00  0.00    -0.269 OA
BRANCH  30  33
ATOM     33  C   UNL A   1      39.932  23.578  27.160  1.00  0.00     0.039 A 
ATOM     34  C   UNL A   1      38.925  24.544  27.231  1.00  0.00     0.014 A 
ATOM     35  C   UNL A   1      41.248  23.889  27.479  1.00  0.00     0.014 A 
ATOM     36  C   UNL A   1      39.238  25.803  27.739  1.00  0.00     0.010 A 
ATOM     37  C   UNL A   1      41.510  25.060  28.143  1.00  0.00     0.010 A 
ATOM     38  C   UNL A   1      40.529  26.047  28.231  1.00  0.00    -0.014 A 
BRANCH  38  39
ATOM     39  C   UNL A   1      40.847  27.290  28.933  1.00  0.00     0.031 A 
ATOM     40  C   UNL A   1      41.935  28.121  28.335  1.00  0.00     0.074 A 
ATOM     41  C   UNL A   1      40.052  27.788  29.905  1.00  0.00     0.049 A 
ATOM     42  N   UNL A   1      43.069  28.450  28.862  1.00  0.00    -0.248 NA
ATOM     43  C   UNL A   1      41.790  28.557  26.936  1.00  0.00     0.031 C 
ATOM     44  C   UNL A   1      38.776  27.255  30.403  1.00  0.00     0.029 A 
ATOM     45  N   UNL A   1      40.151  28.972  30.566  1.00  0.00    -0.354 N 
ATOM     46  C   UNL A   1      43.692  29.305  27.954  1.00  0.00     0.074 A 
ATOM     47  C   UNL A   1      42.945  29.193  26.727  1.00  0.00     0.031 C 
ATOM     48  C   UNL A   1      38.108  28.224  31.063  1.00  0.00     0.029 A 
ATOM     49  C   UNL A   1      38.982  29.372  31.201  1.00  0.00     0.049 A 
ATOM     50  H   UNL A   1      40.981  29.501  30.592  1.00  0.00     0.167 HD
ATOM     51  C   UNL A   1      44.645  30.201  28.346  1.00  0.00     0.037 A 
ATOM     52  C   UNL A   1      38.734  30.573  31.776  1.00  0.00     0.037 A 
ATOM     53  C   UNL A   1      45.131  29.899  29.669  1.00  0.00     0.049 A 
ATOM     54  C   UNL A   1      40.053  31.192  32.064  1.00  0.00     0.074 A 
ATOM     55  C   UNL A   1      45.739  28.803  30.251  1.00  0.00     0.029 A 
ATOM     56  N   UNL A   1      44.672  30.666  30.713  1.00  0.00    -0.354 N 
ATOM     57  N   UNL A   1      40.906  30.712  32.931  1.00  0.00    -0.248 NA
ATOM     58  C   UNL A   1      40.624  32.079  31.062  1.00  0.00     0.031 C 
ATOM     59  C   UNL A   1      45.169  28.719  31.556  1.00  0.00     0.029 A 
ATOM     60  C   UNL A   1      44.305  29.804  31.714  1.00  0.00     0.049 A 
ATOM     61  H   UNL A   1      44.618  31.649  30.737  1.00  0.00     0.167 HD
ATOM     62  C   UNL A   1      42.150  30.877  32.337  1.00  0.00     0.074 A 
ATOM     63  C   UNL A   1      41.921  31.816  31.240  1.00  0.00     0.031 C 
ATOM     64  C   UNL A   1      43.185  30.025  32.605  1.00  0.00     0.037 A 
BRANCH  51  65
ATOM     65  C   UNL A   1      44.902  31.543  27.694  1.00  0.00     0.058 A 
ATOM     66  C   UNL A   1      46.132  31.772  27.038  1.00  0.00     0.135 A 
ATOM     67  C   UNL A   1      44.122  32.695  27.933  1.00  0.00     0.135 A 
ATOM     68  F   UNL A   1      46.958  30.753  26.755  1.00  0.00    -0.206 F 
ATOM     69  C   UNL A   1      46.589  33.055  26.726  1.00  0.00     0.059 A 
ATOM     70  C   UNL A   1      44.532  33.977  27.580  1.00  0.00     0.059 A 
ATOM     71  F   UNL A   1      42.969  32.648  28.612  1.00  0.00    -0.206 F 
ATOM     72  C   UNL A   1      45.788  34.152  27.023  1.00  0.00     0.060 A 
BRANCH  72  73
ATOM     73  S   UNL A   1      46.427  35.815  26.750  1.00  0.00     0.124 S 
ATOM     74  O   UNL A   1      45.193  36.584  26.641  1.00  0.00    -0.237 OA
ATOM     75  O   UNL A   1      47.217  36.040  27.956  1.00  0.00    -0.237 OA
ATOM     76  O   UNL A   1      47.200  35.679  25.518  1.00  0.00    -0.744 OA
ENDBRANCH  72  73
ENDBRANCH  51  65
BRANCH  52  77
ATOM     77  C   UNL A   1      37.445  31.311  31.825  1.00  0.00     0.058 A 
ATOM     78  C   UNL A   1      36.852  31.661  33.049  1.00  0.00     0.135 A 
ATOM     79  C   UNL A   1      36.897  31.917  30.673  1.00  0.00     0.135 A 
ATOM     80  F   UNL A   1      37.319  31.149  34.197  1.00  0.00    -0.206 F 
ATOM     81  C   UNL A   1      35.812  32.594  33.132  1.00  0.00     0.059 A 
ATOM     82  C   UNL A   1      35.852  32.838  30.731  1.00  0.00     0.059 A 
ATOM     83  F   UNL A   1      37.425  31.702  29.459  1.00  0.00    -0.206 F 
ATOM     84  C   UNL A   1      35.332  33.194  31.968  1.00  0.00     0.060 A 
BRANCH  84  85
ATOM     85  S   UNL A   1      34.123  34.533  32.091  1.00  0.00     0.124 S 
ATOM     86  O   UNL A   1      33.139  33.970  33.008  1.00  0.00    -0.237 OA
ATOM     87  O   UNL A   1      34.931  35.629  32.617  1.00  0.00    -0.237 OA
ATOM     88  O   UNL A   1      33.667  34.706  30.714  1.00  0.00    -0.744 OA
ENDBRANCH  84  85
ENDBRANCH  52  77
BRANCH  64  89
ATOM     89  C   UNL A   1      43.050  29.068  33.765  1.00  0.00     0.058 A 
ATOM     90  C   UNL A   1      43.286  29.411  35.109  1.00  0.00     0.135 A 
ATOM     91  C   UNL A   1      42.492  27.804  33.523  1.00  0.00     0.135 A 
ATOM     92  F   UNL A   1      43.711  30.635  35.445  1.00  0.00    -0.206 F 
ATOM     93  C   UNL A   1      43.024  28.526  36.156  1.00  0.00     0.059 A 
ATOM     94  C   UNL A   1      42.190  26.917  34.554  1.00  0.00     0.059 A 
ATOM     95  F   UNL A   1      42.177  27.437  32.269  1.00  0.00    -0.206 F 
ATOM     96  C   UNL A   1      42.472  27.280  35.869  1.00  0.00     0.060 A 
BRANCH  96  97
ATOM     97  S   UNL A   1      42.055  26.170  37.230  1.00  0.00     0.124 S 
ATOM     98  O   UNL A   1      43.093  26.480  38.208  1.00  0.00    -0.237 OA
ATOM     99  O   UNL A   1      40.703  26.594  37.586  1.00  0.00    -0.237 OA
ATOM    100  O   UNL A   1      42.142  24.842  36.628  1.00  0.00    -0.744 OA
ENDBRANCH  96  97
ENDBRANCH  64  89
ENDBRANCH  38  39
ENDBRANCH  30  33
ENDBRANCH  28  29
ENDBRANCH   1  28
TORSDOF 16
ENDMDL
MODEL 2
REMARK VINA RESULT:     -13.7      2.924      9.679
REMARK SMILES Cc1n[nH]c(C[N@H+]2CCC[C@H](c3cccc(C(=O)NCCCNC(=O)c4ccc(-c5c6nc(c(-c7c(F)cc(S(=O)(=O)[O-])cc7F)c7ccc([nH]7)c(-c7c(F)cc(S(=O)(=O)[O-])cc7F)c7nc(c(-c8c(F)cc(S(=O)(=O)[O-])cc8F)c8ccc5[nH]8)C=C7)C=C6)cc4)c3)C2)n1
REMARK SMILES IDX 21 1 20 2 19 3 17 4 18 5 16 7 12 8 13 9 92 10 14 11 15 12
REMARK SMILES IDX 11 13 7 14 8 15 93 16 9 18 10 19 6 20 5 21 1 22 2 23 3 24
REMARK SMILES IDX 94 25 4 26 22 28 23 29 24 30 25 32 26 33 27 34 91 35 28 36
REMARK SMILES IDX 90 37 29 38 30 39 31 40 84 41 32 42 89 43 83 44 85 45 33 46
REMARK SMILES IDX 88 47 82 48 81 49 34 51 68 52 47 53 67 54 48 55 51 56 66 57
REMARK SMILES IDX 86 58 49 59 50 60 65 62 87 63 52 64 35 65 36 66 45 67 37 68
REMARK SMILES IDX 38 69 44 70 46 71 39 72 40 73 41 74 42 75 43 76 69 77 70 78
REMARK SMILES IDX 79 79 71 80 72 81 78 82 80 83 73 84 74 85 75 86 76 87 77 88
REMARK SMILES IDX 53 89 54 90 63 91 55 92 56 93 62 94 64 95 57 96 58 97 59 98
REMARK SMILES IDX 60 99 61 100
REMARK H PARENT 19 6 7 17 4 27 23 31 85 50 51 61
REMARK Flexibility Score: inf
ROOT
ATOM      1  C   UNL A   1      33.561  28.790  25.119  1.00  0.00     0.042 C 
ENDROOT
BRANCH   1   2
ATOM      2  C   UNL A   1      32.129  29.321  24.934  1.00  0.00     0.118 C 
BRANCH   2   3
ATOM      3  N   UNL A   1      31.567  29.012  23.627  1.00  0.00    -0.352 N 
ATOM      4  C   UNL A   1      30.958  27.894  23.102  1.00  0.00     0.251 C 
ATOM      5  O   UNL A   1      30.419  28.017  22.001  1.00  0.00    -0.269 OA
ATOM      6  H   UNL A   1      31.637  29.755  22.986  1.00  0.00     0.163 HD
BRANCH   4   7
ATOM      7  C   UNL A   1      30.888  26.568  23.786  1.00  0.00     0.040 A 
ATOM      8  C   UNL A   1      31.345  24.156  23.910  1.00  0.00    -0.039 A 
ATOM      9  C   UNL A   1      30.767  24.120  25.178  1.00  0.00     0.004 A 
ATOM     10  C   UNL A   1      31.332  25.378  23.221  1.00  0.00     0.018 A 
ATOM     11  C   UNL A   1      30.243  25.284  25.747  1.00  0.00     0.001 A 
ATOM     12  C   UNL A   1      30.320  26.502  25.064  1.00  0.00     0.014 A 
BRANCH   8  13
ATOM     13  C   UNL A   1      31.983  22.969  23.197  1.00  0.00     0.074 C 
ATOM     14  N   UNL A   1      33.651  22.147  24.886  1.00  0.00    -0.328 N 
ATOM     15  C   UNL A   1      34.776  22.556  24.040  1.00  0.00     0.262 C 
ATOM     16  C   UNL A   1      32.455  21.809  24.089  1.00  0.00     0.270 C 
ATOM     17  H   UNL A   1      33.424  22.961  25.457  1.00  0.00     0.348 HD
ATOM     18  C   UNL A   1      34.403  23.724  23.126  1.00  0.00     0.062 C 
ATOM     19  C   UNL A   1      33.166  23.396  22.295  1.00  0.00     0.020 C 
BRANCH  14  20
ATOM     20  C   UNL A   1      33.997  21.067  25.828  1.00  0.00     0.340 C 
BRANCH  20  21
ATOM     21  C   UNL A   1      33.546  19.710  25.404  1.00  0.00     0.179 A 
ATOM     22  C   UNL A   1      33.742  16.606  23.755  1.00  0.00     0.092 C 
ATOM     23  C   UNL A   1      33.390  17.775  24.584  1.00  0.00     0.147 A 
ATOM     24  N   UNL A   1      32.536  17.725  25.613  1.00  0.00    -0.159 NA
ATOM     25  N   UNL A   1      33.985  18.989  24.392  1.00  0.00    -0.211 NA
ATOM     26  N   UNL A   1      32.641  18.971  26.108  1.00  0.00    -0.258 N 
ATOM     27  H   UNL A   1      32.130  19.306  26.879  1.00  0.00     0.192 HD
ENDBRANCH  20  21
ENDBRANCH  14  20
ENDBRANCH   8  13
ENDBRANCH   4   7
ENDBRANCH   2   3
ENDBRANCH   1   2
BRANCH   1  28
ATOM     28  C   UNL A   1      34.168  29.150  26.462  1.00  0.00     0.118 C 
BRANCH  28  29
ATOM     29  N   UNL A   1      34.110  30.591  26.720  1.00  0.00    -0.352 N 
ATOM     30  C   UNL A   1      34.808  31.341  27.651  1.00  0.00     0.251 C 
ATOM     31  H   UNL A   1      33.486  31.098  26.151  1.00  0.00     0.163 HD
ATOM     32  O   UNL A   1      34.433  32.455  27.961  1.00  0.00    -0.269 OA
BRANCH  30  33
ATOM     33  C   UNL A   1      36.002  30.738  28.272  1.00  0.00     0.039 A 
ATOM     34  C   UNL A   1      36.236  29.363  28.194  1.00  0.00     0.014 A 
ATOM     35  C   UNL A   1      36.936  31.594  28.842  1.00  0.00     0.014 A 
ATOM     36  C   UNL A   1      37.475  28.870  28.594  1.00  0.00     0.010 A 
ATOM     37  C   UNL A   1      38.208  31.133  29.062  1.00  0.00     0.010 A 
ATOM     38  C   UNL A   1      38.477  29.766  28.995  1.00  0.00    -0.014 A 
BRANCH  38  39
ATOM     39  C   UNL A   1      39.843  29.308  29.250  1.00  0.00     0.031 A 
ATOM     40  C   UNL A   1      40.230  29.168  30.687  1.00  0.00     0.074 A 
ATOM     41  C   UNL A   1      40.623  28.799  28.272  1.00  0.00     0.049 A 
ATOM     42  N   UNL A   1      41.158  29.802  31.328  1.00  0.00    -0.248 NA
ATOM     43  C   UNL A   1      39.418  28.290  31.546  1.00  0.00     0.031 C 
ATOM     44  C   UNL A   1      40.286  28.575  26.859  1.00  0.00     0.029 A 
ATOM     45  N   UNL A   1      41.856  28.235  28.370  1.00  0.00    -0.354 N 
ATOM     46  C   UNL A   1      41.191  29.257  32.611  1.00  0.00     0.074 A 
ATOM     47  C   UNL A   1      39.995  28.465  32.737  1.00  0.00     0.031 C 
ATOM     48  C   UNL A   1      41.159  27.700  26.319  1.00  0.00     0.029 A 
ATOM     49  C   UNL A   1      42.217  27.455  27.279  1.00  0.00     0.049 A 
ATOM     50  H   UNL A   1      42.445  28.369  29.149  1.00  0.00     0.167 HD
ATOM     51  C   UNL A   1      42.308  29.327  33.393  1.00  0.00     0.037 A 
ATOM     52  C   UNL A   1      43.293  26.639  27.177  1.00  0.00     0.037 A 
ATOM     53  C   UNL A   1      43.247  30.290  32.876  1.00  0.00     0.049 A 
ATOM     54  C   UNL A   1      44.275  27.095  28.194  1.00  0.00     0.074 A 
ATOM     55  C   UNL A   1      43.196  31.645  32.605  1.00  0.00     0.029 A 
ATOM     56  N   UNL A   1      44.344  29.818  32.196  1.00  0.00    -0.354 N 
ATOM     57  N   UNL A   1      44.879  28.253  28.150  1.00  0.00    -0.248 NA
ATOM     58  C   UNL A   1      44.243  26.463  29.505  1.00  0.00     0.031 C 
ATOM     59  C   UNL A   1      43.937  31.804  31.397  1.00  0.00     0.029 A 
ATOM     60  C   UNL A   1      44.451  30.555  31.045  1.00  0.00     0.049 A 
ATOM     61  H   UNL A   1      44.940  29.088  32.482  1.00  0.00     0.167 HD
ATOM     62  C   UNL A   1      44.914  28.688  29.468  1.00  0.00     0.074 A 
ATOM     63  C   UNL A   1      44.605  27.501  30.264  1.00  0.00     0.031 C 
ATOM     64  C   UNL A   1      44.907  30.020  29.778  1.00  0.00     0.037 A 
BRANCH  51  65
ATOM     65  C   UNL A   1      42.716  28.299  34.427  1.00  0.00     0.058 A 
ATOM     66  C   UNL A   1      42.951  28.708  35.759  1.00  0.00     0.135 A 
ATOM     67  C   UNL A   1      43.161  26.998  34.107  1.00  0.00     0.135 A 
ATOM     68  F   UNL A   1      42.570  29.924  36.179  1.00  0.00    -0.206 F 
ATOM     69  C   UNL A   1      43.654  27.919  36.673  1.00  0.00     0.059 A 
ATOM     70  C   UNL A   1      43.813  26.173  35.019  1.00  0.00     0.059 A 
ATOM     71  F   UNL A   1      43.077  26.499  32.868  1.00  0.00    -0.206 F 
ATOM     72  C   UNL A   1      44.100  26.661  36.283  1.00  0.00     0.060 A 
BRANCH  72  73
ATOM     73  S   UNL A   1      45.124  25.695  37.409  1.00  0.00     0.124 S 
ATOM     74  O   UNL A   1      45.029  24.366  36.818  1.00  0.00    -0.237 OA
ATOM     75  O   UNL A   1      46.418  26.359  37.289  1.00  0.00    -0.237 OA
ATOM     76  O   UNL A   1      44.456  25.865  38.697  1.00  0.00    -0.744 OA
ENDBRANCH  72  73
ENDBRANCH  51  65
BRANCH  52  77
ATOM     77  C   UNL A   1      43.389  25.343  26.456  1.00  0.00     0.058 A 
ATOM     78  C   UNL A   1      44.312  25.156  25.414  1.00  0.00     0.135 A 
ATOM     79  C   UNL A   1      42.760  24.178  26.945  1.00  0.00     0.135 A 
ATOM     80  F   UNL A   1      44.972  26.204  24.900  1.00  0.00    -0.206 F 
ATOM     81  C   UNL A   1      44.629  23.885  24.920  1.00  0.00     0.059 A 
ATOM     82  C   UNL A   1      43.049  22.904  26.458  1.00  0.00     0.059 A 
ATOM     83  F   UNL A   1      41.908  24.231  27.980  1.00  0.00    -0.206 F 
ATOM     84  C   UNL A   1      44.008  22.761  25.464  1.00  0.00     0.060 A 
BRANCH  84  85
ATOM     85  S   UNL A   1      44.553  21.113  24.960  1.00  0.00     0.124 S 
ATOM     86  O   UNL A   1      45.881  21.037  25.558  1.00  0.00    -0.237 OA
ATOM     87  O   UNL A   1      43.534  20.256  25.558  1.00  0.00    -0.237 OA
ATOM     88  O   UNL A   1      44.528  21.177  23.501  1.00  0.00    -0.744 OA
ENDBRANCH  84  85
ENDBRANCH  52  77
BRANCH  64  89
ATOM     89  C   UNL A   1      45.144  31.019  28.672  1.00  0.00     0.058 A 
ATOM     90  C   UNL A   1      44.149  31.476  27.789  1.00  0.00     0.135 A 
ATOM     91  C   UNL A   1      46.387  31.667  28.616  1.00  0.00     0.135 A 
ATOM     92  F   UNL A   1      42.902  30.996  27.846  1.00  0.00    -0.206 F 
ATOM     93  C   UNL A   1      44.390  32.496  26.866  1.00  0.00     0.059 A 
ATOM     94  C   UNL A   1      46.640  32.709  27.727  1.00  0.00     0.059 A 
ATOM     95  F   UNL A   1      47.361  31.328  29.477  1.00  0.00    -0.206 F 
ATOM     96  C   UNL A   1      45.640  33.109  26.844  1.00  0.00     0.060 A 
BRANCH  96  97
ATOM     97  S   UNL A   1      45.923  34.484  25.708  1.00  0.00     0.124 S 
ATOM     98  O   UNL A   1      47.335  34.322  25.377  1.00  0.00    -0.237 OA
ATOM     99  O   UNL A   1      44.982  34.203  24.626  1.00  0.00    -0.237 OA
ATOM    100  O   UNL A   1      45.601  35.662  26.509  1.00  0.00    -0.744 OA
ENDBRANCH  96  97
ENDBRANCH  64  89
ENDBRANCH  38  39
ENDBRANCH  30  33
ENDBRANCH  28  29
ENDBRANCH   1  28
TORSDOF 16
ENDMDL
MODEL 3
REMARK VINA RESULT:     -13.7      1.306      2.137
REMARK SMILES Cc1n[nH]c(C[N@H+]2CCC[C@H](c3cccc(C(=O)NCCCNC(=O)c4ccc(-c5c6nc(c(-c7c(F)cc(S(=O)(=O)[O-])cc7F)c7ccc([nH]7)c(-c7c(F)cc(S(=O)(=O)[O-])cc7F)c7nc(c(-c8c(F)cc(S(=O)(=O)[O-])cc8F)c8ccc5[nH]8)C=C7)C=C6)cc4)c3)C2)n1
REMARK SMILES IDX 21 1 20 2 19 3 17 4 18 5 16 7 12 8 13 9 92 10 14 11 15 12
REMARK SMILES IDX 11 13 7 14 8 15 93 16 9 18 10 19 6 20 5 21 1 22 2 23 3 24
REMARK SMILES IDX 94 25 4 26 22 28 23 29 24 30 25 32 26 33 27 34 91 35 28 36
REMARK SMILES IDX 90 37 29 38 30 39 31 40 84 41 32 42 89 43 83 44 85 45 33 46
REMARK SMILES IDX 88 47 82 48 81 49 34 51 68 52 47 53 67 54 48 55 51 56 66 57
REMARK SMILES IDX 86 58 49 59 50 60 65 62 87 63 52 64 35 65 36 66 45 67 37 68
REMARK SMILES IDX 38 69 44 70 46 71 39 72 40 73 41 74 42 75 43 76 69 77 70 78
REMARK SMILES IDX 79 79 71 80 72 81 78 82 80 83 73 84 74 85 75 86 76 87 77 88
REMARK SMILES IDX 53 89 54 90 63 91 55 92 56 93 62 94 64 95 57 96 58 97 59 98
REMARK SMILES IDX 60 99 61 100
REMARK H PARENT 19 6 7 17 4 27 23 31 85 50 51 61
REMARK Flexibility Score: inf
ROOT
ATOM      1  C   UNL A   1      36.184  22.550  24.463  1.00  0.00     0.042 C 
ENDROOT
BRANCH   1   2
ATOM      2  C   UNL A   1      34.763  22.854  24.968  1.00  0.00     0.118 C 
BRANCH   2   3
ATOM      3  N   UNL A   1      33.736  22.068  24.298  1.00  0.00    -0.352 N 
ATOM      4  C   UNL A   1      32.785  22.371  23.350  1.00  0.00     0.251 C 
ATOM      5  O   UNL A   1      32.179  21.425  22.845  1.00  0.00    -0.269 OA
ATOM      6  H   UNL A   1      33.719  21.126  24.582  1.00  0.00     0.163 HD
BRANCH   4   7
ATOM      7  C   UNL A   1      32.466  23.753  22.882  1.00  0.00     0.040 A 
ATOM      8  C   UNL A   1      31.294  25.904  23.089  1.00  0.00    -0.039 A 
ATOM      9  C   UNL A   1      31.973  26.372  21.965  1.00  0.00     0.004 A 
ATOM     10  C   UNL A   1      31.518  24.576  23.481  1.00  0.00     0.018 A 
ATOM     11  C   UNL A   1      32.879  25.547  21.294  1.00  0.00     0.001 A 
ATOM     12  C   UNL A   1      33.137  24.254  21.760  1.00  0.00     0.014 A 
BRANCH   8  13
ATOM     13  C   UNL A   1      30.313  26.714  23.929  1.00  0.00     0.074 C 
ATOM     14  N   UNL A   1      31.827  28.273  25.190  1.00  0.00    -0.328 N 
ATOM     15  C   UNL A   1      31.520  27.613  26.462  1.00  0.00     0.262 C 
ATOM     16  C   UNL A   1      30.710  28.170  24.230  1.00  0.00     0.270 C 
ATOM     17  H   UNL A   1      32.621  27.765  24.800  1.00  0.00     0.348 HD
ATOM     18  C   UNL A   1      31.129  26.148  26.262  1.00  0.00     0.062 C 
ATOM     19  C   UNL A   1      29.978  26.019  25.270  1.00  0.00     0.020 C 
BRANCH  14  20
ATOM     20  C   UNL A   1      32.273  29.669  25.353  1.00  0.00     0.340 C 
BRANCH  20  21
ATOM     21  C   UNL A   1      33.332  29.861  26.387  1.00  0.00     0.179 A 
ATOM     22  C   UNL A   1      36.538  29.612  27.818  1.00  0.00     0.092 C 
ATOM     23  C   UNL A   1      35.134  29.912  27.477  1.00  0.00     0.147 A 
ATOM     24  N   UNL A   1      34.439  30.921  28.016  1.00  0.00    -0.159 NA
ATOM     25  N   UNL A   1      34.468  29.207  26.516  1.00  0.00    -0.211 NA
ATOM     26  N   UNL A   1      33.292  30.858  27.317  1.00  0.00    -0.258 N 
ATOM     27  H   UNL A   1      32.523  31.455  27.459  1.00  0.00     0.192 HD
ENDBRANCH  20  21
ENDBRANCH  14  20
ENDBRANCH   8  13
ENDBRANCH   4   7
ENDBRANCH   2   3
ENDBRANCH   1   2
BRANCH   1  28
ATOM     28  C   UNL A   1      37.272  23.185  25.310  1.00  0.00     0.118 C 
BRANCH  28  29
ATOM     29  N   UNL A   1      38.054  22.183  26.037  1.00  0.00    -0.352 N 
ATOM     30  C   UNL A   1      39.266  22.327  26.692  1.00  0.00     0.251 C 
ATOM     31  H   UNL A   1      37.663  21.279  26.065  1.00  0.00     0.163 HD
ATOM     32  O   UNL A   1      39.939  21.356  26.975  1.00  0.00    -0.269 OA
BRANCH  30  33
ATOM     33  C   UNL A   1      39.724  23.692  27.010  1.00  0.00     0.039 A 
ATOM     34  C   UNL A   1      38.860  24.784  26.897  1.00  0.00     0.014 A 
ATOM     35  C   UNL A   1      41.005  23.840  27.525  1.00  0.00     0.014 A 
ATOM     36  C   UNL A   1      39.261  26.012  27.417  1.00  0.00     0.010 A 
ATOM     37  C   UNL A   1      41.320  24.996  28.193  1.00  0.00     0.010 A 
ATOM     38  C   UNL A   1      40.483  26.106  28.101  1.00  0.00    -0.014 A 
BRANCH  38  39
ATOM     39  C   UNL A   1      40.857  27.327  28.814  1.00  0.00     0.031 A 
ATOM     40  C   UNL A   1      41.976  28.118  28.217  1.00  0.00     0.074 A 
ATOM     41  C   UNL A   1      40.089  27.849  29.795  1.00  0.00     0.049 A 
ATOM     42  N   UNL A   1      43.126  28.393  28.742  1.00  0.00    -0.248 NA
ATOM     43  C   UNL A   1      41.842  28.574  26.824  1.00  0.00     0.031 C 
ATOM     44  C   UNL A   1      38.794  27.366  30.295  1.00  0.00     0.029 A 
ATOM     45  N   UNL A   1      40.242  29.021  30.467  1.00  0.00    -0.354 N 
ATOM     46  C   UNL A   1      43.780  29.230  27.839  1.00  0.00     0.074 A 
ATOM     47  C   UNL A   1      43.022  29.163  26.615  1.00  0.00     0.031 C 
ATOM     48  C   UNL A   1      38.172  28.355  30.969  1.00  0.00     0.029 A 
ATOM     49  C   UNL A   1      39.095  29.463  31.113  1.00  0.00     0.049 A 
ATOM     50  H   UNL A   1      41.094  29.514  30.494  1.00  0.00     0.167 HD
ATOM     51  C   UNL A   1      44.772  30.080  28.234  1.00  0.00     0.037 A 
ATOM     52  C   UNL A   1      38.901  30.668  31.702  1.00  0.00     0.037 A 
ATOM     53  C   UNL A   1      45.252  29.745  29.551  1.00  0.00     0.049 A 
ATOM     54  C   UNL A   1      40.246  31.227  31.989  1.00  0.00     0.074 A 
ATOM     55  C   UNL A   1      45.816  28.617  30.119  1.00  0.00     0.029 A 
ATOM     56  N   UNL A   1      44.831  30.519  30.606  1.00  0.00    -0.354 N 
ATOM     57  N   UNL A   1      41.082  30.702  32.845  1.00  0.00    -0.248 NA
ATOM     58  C   UNL A   1      40.849  32.099  30.992  1.00  0.00     0.031 C 
ATOM     59  C   UNL A   1      45.250  28.545  31.426  1.00  0.00     0.029 A 
ATOM     60  C   UNL A   1      44.433  29.663  31.600  1.00  0.00     0.049 A 
ATOM     61  H   UNL A   1      44.819  31.503  30.640  1.00  0.00     0.167 HD
ATOM     62  C   UNL A   1      42.329  30.820  32.246  1.00  0.00     0.074 A 
ATOM     63  C   UNL A   1      42.135  31.780  31.161  1.00  0.00     0.031 C 
ATOM     64  C   UNL A   1      43.329  29.922  32.500  1.00  0.00     0.037 A 
BRANCH  51  65
ATOM     65  C   UNL A   1      45.083  31.417  27.594  1.00  0.00     0.058 A 
ATOM     66  C   UNL A   1      46.349  31.627  27.004  1.00  0.00     0.135 A 
ATOM     67  C   UNL A   1      44.307  32.581  27.790  1.00  0.00     0.135 A 
ATOM     68  F   UNL A   1      47.174  30.595  26.767  1.00  0.00    -0.206 F 
ATOM     69  C   UNL A   1      46.840  32.902  26.714  1.00  0.00     0.059 A 
ATOM     70  C   UNL A   1      44.754  33.855  27.457  1.00  0.00     0.059 A 
ATOM     71  F   UNL A   1      43.120  32.552  28.407  1.00  0.00    -0.206 F 
ATOM     72  C   UNL A   1      46.040  34.012  26.966  1.00  0.00     0.060 A 
BRANCH  72  73
ATOM     73  S   UNL A   1      46.716  35.665  26.725  1.00  0.00     0.124 S 
ATOM     74  O   UNL A   1      45.501  36.459  26.601  1.00  0.00    -0.237 OA
ATOM     75  O   UNL A   1      47.488  35.860  27.949  1.00  0.00    -0.237 OA
ATOM     76  O   UNL A   1      47.510  35.527  25.507  1.00  0.00    -0.744 OA
ENDBRANCH  72  73
ENDBRANCH  51  65
BRANCH  52  77
ATOM     77  C   UNL A   1      37.644  31.459  31.765  1.00  0.00     0.058 A 
ATOM     78  C   UNL A   1      36.984  31.682  32.985  1.00  0.00     0.135 A 
ATOM     79  C   UNL A   1      37.204  32.234  30.670  1.00  0.00     0.135 A 
ATOM     80  F   UNL A   1      37.349  31.004  34.083  1.00  0.00    -0.206 F 
ATOM     81  C   UNL A   1      35.982  32.649  33.124  1.00  0.00     0.059 A 
ATOM     82  C   UNL A   1      36.198  33.193  30.782  1.00  0.00     0.059 A 
ATOM     83  F   UNL A   1      37.804  32.148  29.474  1.00  0.00    -0.206 F 
ATOM     84  C   UNL A   1      35.610  33.416  32.020  1.00  0.00     0.060 A 
BRANCH  84  85
ATOM     85  S   UNL A   1      34.455  34.789  32.240  1.00  0.00     0.124 S 
ATOM     86  O   UNL A   1      34.240  35.228  30.866  1.00  0.00    -0.237 OA
ATOM     87  O   UNL A   1      33.320  34.137  32.886  1.00  0.00    -0.237 OA
ATOM     88  O   UNL A   1      35.194  35.723  33.085  1.00  0.00    -0.744 OA
ENDBRANCH  84  85
ENDBRANCH  52  77
BRANCH  64  89
ATOM     89  C   UNL A   1      43.159  28.961  33.651  1.00  0.00     0.058 A 
ATOM     90  C   UNL A   1      43.483  29.256  34.987  1.00  0.00     0.135 A 
ATOM     91  C   UNL A   1      42.480  27.755  33.416  1.00  0.00     0.135 A 
ATOM     92  F   UNL A   1      44.030  30.431  35.321  1.00  0.00    -0.206 F 
ATOM     93  C   UNL A   1      43.188  28.379  36.033  1.00  0.00     0.059 A 
ATOM     94  C   UNL A   1      42.145  26.880  34.446  1.00  0.00     0.059 A 
ATOM     95  F   UNL A   1      42.079  27.441  32.172  1.00  0.00    -0.206 F 
ATOM     96  C   UNL A   1      42.516  27.193  35.753  1.00  0.00     0.060 A 
BRANCH  96  97
ATOM     97  S   UNL A   1      42.061  26.099  37.115  1.00  0.00     0.124 S 
ATOM     98  O   UNL A   1      42.311  24.779  36.546  1.00  0.00    -0.237 OA
ATOM     99  O   UNL A   1      42.974  26.514  38.177  1.00  0.00    -0.237 OA
ATOM    100  O   UNL A   1      40.656  26.419  37.356  1.00  0.00    -0.744 OA
ENDBRANCH  96  97
ENDBRANCH  64  89
ENDBRANCH  38  39
ENDBRANCH  30  33
ENDBRANCH  28  29
ENDBRANCH   1  28
TORSDOF 16
ENDMDL
