MODEL 1
REMARK VINA RESULT:     -11.1      0.000      0.000
REMARK SMILES O=C(NCCCNC(=O)[C@@H]1C=C[C@@H]([NH+]2CC3(CC3)C2)C1)c1ccc(-c2c3nc(c(-c4c(F)cc(S(=O)(=O)[O-])cc4F)c4ccc([nH]4)c(-c4c(F)cc(S(=O)(=O)[O-])cc4F)c4nc(c(-c5c(F)cc(S(=O)(=O)[O-])cc5F)c5ccc2[nH]5)C=C4)C=C3)cc1
REMARK SMILES IDX 4 1 3 2 1 3 2 4 21 6 22 7 86 8 23 9 85 10 24 11 25 12 26 13
REMARK SMILES IDX 79 14 27 15 84 16 78 17 80 18 28 19 83 20 77 21 76 22 29 24
REMARK SMILES IDX 63 25 42 26 62 27 43 28 46 29 61 30 81 31 44 32 45 33 60 35
REMARK SMILES IDX 82 36 47 37 30 38 31 39 40 40 32 41 33 42 39 43 41 44 34 45
REMARK SMILES IDX 35 46 36 47 37 48 38 49 64 50 65 51 74 52 66 53 67 54 73 55
REMARK SMILES IDX 75 56 68 57 69 58 70 59 71 60 72 61 48 62 49 63 58 64 50 65
REMARK SMILES IDX 51 66 57 67 59 68 52 69 53 70 54 71 55 72 56 73 5 74 6 75
REMARK SMILES IDX 7 76 8 77 9 79 10 80 11 81 20 82 12 83 13 84 14 85 15 86
REMARK SMILES IDX 19 87 16 89 17 90 18 91
REMARK H PARENT 3 5 80 23 46 34 7 78 14 88
REMARK Flexibility Score: inf
ROOT
ATOM      1  C   UNL A   1      34.725  32.605  28.920  1.00  0.00     0.118 C 
ENDROOT
BRANCH   1   2
ATOM      2  N   UNL A   1      33.996  31.420  28.490  1.00  0.00    -0.352 N 
ATOM      3  O   UNL A   1      33.706  29.396  27.555  1.00  0.00    -0.269 OA
ATOM      4  C   UNL A   1      34.469  30.194  28.095  1.00  0.00     0.251 C 
ATOM      5  H   UNL A   1      33.015  31.512  28.482  1.00  0.00     0.163 HD
BRANCH   4   6
ATOM      6  C   UNL A   1      35.889  29.842  28.310  1.00  0.00     0.039 A 
ATOM      7  C   UNL A   1      36.830  30.037  27.296  1.00  0.00     0.014 A 
ATOM      8  C   UNL A   1      36.291  29.350  29.555  1.00  0.00     0.014 A 
ATOM      9  C   UNL A   1      38.142  29.617  27.479  1.00  0.00     0.010 A 
ATOM     10  C   UNL A   1      37.632  29.016  29.768  1.00  0.00     0.010 A 
ATOM     11  C   UNL A   1      38.564  29.132  28.726  1.00  0.00    -0.014 A 
BRANCH  11  12
ATOM     12  C   UNL A   1      40.004  28.855  28.946  1.00  0.00     0.031 A 
ATOM     13  C   UNL A   1      40.615  27.540  28.554  1.00  0.00     0.074 A 
ATOM     14  C   UNL A   1      40.757  29.815  29.520  1.00  0.00     0.049 A 
ATOM     15  N   UNL A   1      41.848  27.131  28.706  1.00  0.00    -0.248 NA
ATOM     16  C   UNL A   1      39.731  26.553  27.914  1.00  0.00     0.031 C 
ATOM     17  C   UNL A   1      40.262  31.124  29.958  1.00  0.00     0.029 A 
ATOM     18  N   UNL A   1      42.091  29.848  29.834  1.00  0.00    -0.354 N 
ATOM     19  C   UNL A   1      41.887  25.836  28.205  1.00  0.00     0.074 A 
ATOM     20  C   UNL A   1      40.548  25.518  27.757  1.00  0.00     0.031 C 
ATOM     21  C   UNL A   1      41.279  31.838  30.458  1.00  0.00     0.029 A 
ATOM     22  C   UNL A   1      42.483  31.017  30.442  1.00  0.00     0.049 A 
ATOM     23  H   UNL A   1      42.710  29.107  29.642  1.00  0.00     0.167 HD
ATOM     24  C   UNL A   1      42.946  24.995  28.128  1.00  0.00     0.037 A 
ATOM     25  C   UNL A   1      43.669  31.379  30.965  1.00  0.00     0.037 A 
ATOM     26  C   UNL A   1      44.278  25.335  28.563  1.00  0.00     0.049 A 
ATOM     27  C   UNL A   1      44.817  30.414  30.892  1.00  0.00     0.074 A 
ATOM     28  C   UNL A   1      45.433  24.578  28.466  1.00  0.00     0.029 A 
ATOM     29  N   UNL A   1      44.633  26.522  29.190  1.00  0.00    -0.354 N 
ATOM     30  N   UNL A   1      44.850  29.216  30.357  1.00  0.00    -0.248 NA
ATOM     31  C   UNL A   1      46.085  30.842  31.496  1.00  0.00     0.031 C 
ATOM     32  C   UNL A   1      46.471  25.280  29.086  1.00  0.00     0.029 A 
ATOM     33  C   UNL A   1      45.977  26.500  29.520  1.00  0.00     0.049 A 
ATOM     34  H   UNL A   1      44.017  27.269  29.373  1.00  0.00     0.167 HD
ATOM     35  C   UNL A   1      46.145  28.753  30.549  1.00  0.00     0.074 A 
ATOM     36  C   UNL A   1      46.870  29.807  31.230  1.00  0.00     0.031 C 
ATOM     37  C   UNL A   1      46.684  27.560  30.198  1.00  0.00     0.037 A 
BRANCH  24  38
ATOM     38  C   UNL A   1      42.720  23.614  27.574  1.00  0.00     0.058 A 
ATOM     39  C   UNL A   1      42.794  23.343  26.200  1.00  0.00     0.135 A 
ATOM     40  C   UNL A   1      42.499  22.531  28.443  1.00  0.00     0.135 A 
ATOM     41  F   UNL A   1      42.991  24.339  25.323  1.00  0.00    -0.206 F 
ATOM     42  C   UNL A   1      42.642  22.050  25.705  1.00  0.00     0.059 A 
ATOM     43  C   UNL A   1      42.368  21.228  27.973  1.00  0.00     0.059 A 
ATOM     44  F   UNL A   1      42.418  22.734  29.768  1.00  0.00    -0.206 F 
ATOM     45  C   UNL A   1      42.432  20.999  26.599  1.00  0.00     0.060 A 
BRANCH  45  46
ATOM     46  S   UNL A   1      42.257  19.327  25.941  1.00  0.00     0.124 S 
ATOM     47  O   UNL A   1      40.817  19.255  25.710  1.00  0.00    -0.237 OA
ATOM     48  O   UNL A   1      43.088  19.375  24.743  1.00  0.00    -0.237 OA
ATOM     49  O   UNL A   1      42.761  18.480  27.018  1.00  0.00    -0.744 OA
ENDBRANCH  45  46
ENDBRANCH  24  38
BRANCH  25  50
ATOM     50  C   UNL A   1      43.811  32.700  31.632  1.00  0.00     0.058 A 
ATOM     51  C   UNL A   1      43.617  32.842  33.013  1.00  0.00     0.135 A 
ATOM     52  C   UNL A   1      44.160  33.846  30.899  1.00  0.00     0.135 A 
ATOM     53  F   UNL A   1      43.279  31.777  33.756  1.00  0.00    -0.206 F 
ATOM     54  C   UNL A   1      43.744  34.075  33.642  1.00  0.00     0.059 A 
ATOM     55  C   UNL A   1      44.325  35.084  31.510  1.00  0.00     0.059 A 
ATOM     56  F   UNL A   1      44.377  33.760  29.577  1.00  0.00    -0.206 F 
ATOM     57  C   UNL A   1      44.101  35.190  32.881  1.00  0.00     0.060 A 
BRANCH  57  58
ATOM     58  S   UNL A   1      44.297  36.781  33.712  1.00  0.00     0.124 S 
ATOM     59  O   UNL A   1      43.296  36.686  34.767  1.00  0.00    -0.237 OA
ATOM     60  O   UNL A   1      45.690  36.730  34.146  1.00  0.00    -0.237 OA
ATOM     61  O   UNL A   1      44.014  37.749  32.656  1.00  0.00    -0.744 OA
ENDBRANCH  57  58
ENDBRANCH  25  50
BRANCH  37  62
ATOM     62  C   UNL A   1      48.133  27.335  30.526  1.00  0.00     0.058 A 
ATOM     63  C   UNL A   1      48.525  26.634  31.677  1.00  0.00     0.135 A 
ATOM     64  C   UNL A   1      49.138  27.772  29.647  1.00  0.00     0.135 A 
ATOM     65  F   UNL A   1      47.604  26.207  32.555  1.00  0.00    -0.206 F 
ATOM     66  C   UNL A   1      49.866  26.386  31.953  1.00  0.00     0.059 A 
ATOM     67  C   UNL A   1      50.482  27.509  29.889  1.00  0.00     0.059 A 
ATOM     68  F   UNL A   1      48.814  28.442  28.530  1.00  0.00    -0.206 F 
ATOM     69  C   UNL A   1      50.837  26.821  31.049  1.00  0.00     0.060 A 
BRANCH  69  70
ATOM     70  S   UNL A   1      52.567  26.443  31.393  1.00  0.00     0.124 S 
ATOM     71  O   UNL A   1      53.034  27.699  31.970  1.00  0.00    -0.237 OA
ATOM     72  O   UNL A   1      52.462  25.319  32.319  1.00  0.00    -0.237 OA
ATOM     73  O   UNL A   1      53.112  26.115  30.078  1.00  0.00    -0.744 OA
ENDBRANCH  69  70
ENDBRANCH  37  62
ENDBRANCH  11  12
ENDBRANCH   4   6
ENDBRANCH   1   2
BRANCH   1  74
ATOM     74  C   UNL A   1      34.437  33.810  28.036  1.00  0.00     0.042 C 
BRANCH  74  75
ATOM     75  C   UNL A   1      33.078  34.441  28.304  1.00  0.00     0.117 C 
BRANCH  75  76
ATOM     76  N   UNL A   1      33.196  35.858  28.602  1.00  0.00    -0.356 N 
ATOM     77  C   UNL A   1      33.129  36.489  29.811  1.00  0.00     0.227 C 
ATOM     78  H   UNL A   1      33.345  36.443  27.826  1.00  0.00     0.163 HD
ATOM     79  O   UNL A   1      33.153  37.721  29.827  1.00  0.00    -0.274 OA
BRANCH  77  80
ATOM     80  C   UNL A   1      33.048  35.638  31.075  1.00  0.00     0.107 C 
ATOM     81  C   UNL A   1      32.682  36.451  32.277  1.00  0.00    -0.012 C 
ATOM     82  C   UNL A   1      34.401  35.017  31.447  1.00  0.00     0.087 C 
ATOM     83  C   UNL A   1      33.627  36.414  33.220  1.00  0.00     0.033 C 
ATOM     84  C   UNL A   1      34.813  35.591  32.821  1.00  0.00     0.208 C 
BRANCH  84  85
ATOM     85  N   UNL A   1      35.228  34.679  33.895  1.00  0.00    -0.328 N 
ATOM     86  C   UNL A   1      34.864  33.273  33.676  1.00  0.00     0.275 C 
ATOM     87  C   UNL A   1      36.661  34.369  33.829  1.00  0.00     0.275 C 
ATOM     88  H   UNL A   1      34.838  35.161  34.706  1.00  0.00     0.348 HD
ATOM     89  C   UNL A   1      36.289  33.012  33.375  1.00  0.00     0.068 C 
ATOM     90  C   UNL A   1      36.834  32.284  32.180  1.00  0.00     0.020 C 
ATOM     91  C   UNL A   1      37.050  31.740  33.565  1.00  0.00     0.020 C 
ENDBRANCH  84  85
ENDBRANCH  77  80
ENDBRANCH  75  76
ENDBRANCH  74  75
ENDBRANCH   1  74
TORSDOF 14
ENDMDL
MODEL 2
REMARK VINA RESULT:     -11.1      0.352      8.558
REMARK SMILES O=C(NCCCNC(=O)[C@@H]1C=C[C@@H]([NH+]2CC3(CC3)C2)C1)c1ccc(-c2c3nc(c(-c4c(F)cc(S(=O)(=O)[O-])cc4F)c4ccc([nH]4)c(-c4c(F)cc(S(=O)(=O)[O-])cc4F)c4nc(c(-c5c(F)cc(S(=O)(=O)[O-])cc5F)c5ccc2[nH]5)C=C4)C=C3)cc1
REMARK SMILES IDX 4 1 3 2 1 3 2 4 21 6 22 7 86 8 23 9 85 10 24 11 25 12 26 13
REMARK SMILES IDX 79 14 27 15 84 16 78 17 80 18 28 19 83 20 77 21 76 22 29 24
REMARK SMILES IDX 63 25 42 26 62 27 43 28 46 29 61 30 81 31 44 32 45 33 60 35
REMARK SMILES IDX 82 36 47 37 30 38 31 39 40 40 32 41 33 42 39 43 41 44 34 45
REMARK SMILES IDX 35 46 36 47 37 48 38 49 64 50 65 51 74 52 66 53 67 54 73 55
REMARK SMILES IDX 75 56 68 57 69 58 70 59 71 60 72 61 48 62 49 63 58 64 50 65
REMARK SMILES IDX 51 66 57 67 59 68 52 69 53 70 54 71 55 72 56 73 5 74 6 75
REMARK SMILES IDX 7 76 8 77 9 79 10 80 11 81 20 82 12 83 13 84 14 85 15 86
REMARK SMILES IDX 19 87 16 89 17 90 18 91
REMARK H PARENT 3 5 80 23 46 34 7 78 14 88
REMARK Flexibility Score: inf
ROOT
ATOM      1  C   UNL A   1      34.734  32.493  28.957  1.00  0.00     0.118 C 
ENDROOT
BRANCH   1   2
ATOM      2  N   UNL A   1      34.048  31.314  28.447  1.00  0.00    -0.352 N 
ATOM      3  O   UNL A   1      33.842  29.322  27.424  1.00  0.00    -0.269 OA
ATOM      4  C   UNL A   1      34.562  30.111  28.032  1.00  0.00     0.251 C 
ATOM      5  H   UNL A   1      33.068  31.391  28.391  1.00  0.00     0.163 HD
BRANCH   4   6
ATOM      6  C   UNL A   1      35.975  29.773  28.306  1.00  0.00     0.039 A 
ATOM      7  C   UNL A   1      36.948  29.923  27.314  1.00  0.00     0.014 A 
ATOM      8  C   UNL A   1      36.339  29.340  29.585  1.00  0.00     0.014 A 
ATOM      9  C   UNL A   1      38.254  29.516  27.556  1.00  0.00     0.010 A 
ATOM     10  C   UNL A   1      37.673  29.020  29.854  1.00  0.00     0.010 A 
ATOM     11  C   UNL A   1      38.637  29.090  28.837  1.00  0.00    -0.014 A 
BRANCH  11  12
ATOM     12  C   UNL A   1      40.070  28.827  29.115  1.00  0.00     0.031 A 
ATOM     13  C   UNL A   1      40.951  29.875  29.732  1.00  0.00     0.074 A 
ATOM     14  C   UNL A   1      40.571  27.618  28.790  1.00  0.00     0.049 A 
ATOM     15  N   UNL A   1      42.227  29.813  30.010  1.00  0.00    -0.248 NA
ATOM     16  C   UNL A   1      40.324  31.161  30.077  1.00  0.00     0.031 C 
ATOM     17  C   UNL A   1      39.807  26.531  28.168  1.00  0.00     0.029 A 
ATOM     18  N   UNL A   1      41.829  27.094  28.934  1.00  0.00    -0.354 N 
ATOM     19  C   UNL A   1      42.565  31.053  30.540  1.00  0.00     0.074 A 
ATOM     20  C   UNL A   1      41.361  31.855  30.530  1.00  0.00     0.031 C 
ATOM     21  C   UNL A   1      40.604  25.465  28.009  1.00  0.00     0.029 A 
ATOM     22  C   UNL A   1      41.949  25.813  28.450  1.00  0.00     0.049 A 
ATOM     23  H   UNL A   1      42.575  27.587  29.345  1.00  0.00     0.167 HD
ATOM     24  C   UNL A   1      43.770  31.475  30.991  1.00  0.00     0.037 A 
ATOM     25  C   UNL A   1      43.027  25.015  28.337  1.00  0.00     0.037 A 
ATOM     26  C   UNL A   1      44.955  30.654  31.010  1.00  0.00     0.049 A 
ATOM     27  C   UNL A   1      44.355  25.522  28.819  1.00  0.00     0.074 A 
ATOM     28  C   UNL A   1      46.208  30.967  31.509  1.00  0.00     0.029 A 
ATOM     29  N   UNL A   1      45.043  29.368  30.496  1.00  0.00    -0.354 N 
ATOM     30  N   UNL A   1      44.642  26.674  29.375  1.00  0.00    -0.248 NA
ATOM     31  C   UNL A   1      45.508  24.626  28.654  1.00  0.00     0.031 C 
ATOM     32  C   UNL A   1      47.066  29.895  31.244  1.00  0.00     0.029 A 
ATOM     33  C   UNL A   1      46.335  28.890  30.630  1.00  0.00     0.049 A 
ATOM     34  H   UNL A   1      44.294  28.869  30.094  1.00  0.00     0.167 HD
ATOM     35  C   UNL A   1      46.005  26.638  29.638  1.00  0.00     0.074 A 
ATOM     36  C   UNL A   1      46.482  25.342  29.200  1.00  0.00     0.031 C 
ATOM     37  C   UNL A   1      46.792  27.595  30.188  1.00  0.00     0.037 A 
BRANCH  24  38
ATOM     38  C   UNL A   1      43.888  32.891  31.485  1.00  0.00     0.058 A 
ATOM     39  C   UNL A   1      44.051  33.974  30.609  1.00  0.00     0.135 A 
ATOM     40  C   UNL A   1      43.760  33.174  32.857  1.00  0.00     0.135 A 
ATOM     41  F   UNL A   1      44.191  33.763  29.291  1.00  0.00    -0.206 F 
ATOM     42  C   UNL A   1      44.098  35.286  31.074  1.00  0.00     0.059 A 
ATOM     43  C   UNL A   1      43.781  34.479  33.341  1.00  0.00     0.059 A 
ATOM     44  F   UNL A   1      43.603  32.176  33.740  1.00  0.00    -0.206 F 
ATOM     45  C   UNL A   1      43.959  35.529  32.441  1.00  0.00     0.060 A 
BRANCH  45  46
ATOM     46  S   UNL A   1      44.004  37.236  33.024  1.00  0.00     0.124 S 
ATOM     47  O   UNL A   1      42.823  37.282  33.881  1.00  0.00    -0.237 OA
ATOM     48  O   UNL A   1      45.288  37.296  33.715  1.00  0.00    -0.237 OA
ATOM     49  O   UNL A   1      43.918  38.020  31.796  1.00  0.00    -0.744 OA
ENDBRANCH  45  46
ENDBRANCH  24  38
BRANCH  25  50
ATOM     50  C   UNL A   1      42.891  23.674  27.710  1.00  0.00     0.058 A 
ATOM     51  C   UNL A   1      43.093  23.491  26.335  1.00  0.00     0.135 A 
ATOM     52  C   UNL A   1      42.573  22.544  28.481  1.00  0.00     0.135 A 
ATOM     53  F   UNL A   1      43.397  24.540  25.555  1.00  0.00    -0.206 F 
ATOM     54  C   UNL A   1      42.965  22.240  25.742  1.00  0.00     0.059 A 
ATOM     55  C   UNL A   1      42.470  21.278  27.916  1.00  0.00     0.059 A 
ATOM     56  F   UNL A   1      42.389  22.662  29.805  1.00  0.00    -0.206 F 
ATOM     57  C   UNL A   1      42.654  21.139  26.542  1.00  0.00     0.060 A 
BRANCH  57  58
ATOM     58  S   UNL A   1      42.523  19.512  25.769  1.00  0.00     0.124 S 
ATOM     59  O   UNL A   1      41.111  19.472  25.409  1.00  0.00    -0.237 OA
ATOM     60  O   UNL A   1      43.463  19.625  24.658  1.00  0.00    -0.237 OA
ATOM     61  O   UNL A   1      42.931  18.601  26.834  1.00  0.00    -0.744 OA
ENDBRANCH  57  58
ENDBRANCH  25  50
BRANCH  37  62
ATOM     62  C   UNL A   1      48.249  27.270  30.366  1.00  0.00     0.058 A 
ATOM     63  C   UNL A   1      49.204  27.628  29.401  1.00  0.00     0.135 A 
ATOM     64  C   UNL A   1      48.702  26.649  31.542  1.00  0.00     0.135 A 
ATOM     65  F   UNL A   1      48.821  28.211  28.255  1.00  0.00    -0.206 F 
ATOM     66  C   UNL A   1      50.558  27.369  29.591  1.00  0.00     0.059 A 
ATOM     67  C   UNL A   1      50.053  26.407  31.764  1.00  0.00     0.059 A 
ATOM     68  F   UNL A   1      47.828  26.292  32.497  1.00  0.00    -0.206 F 
ATOM     69  C   UNL A   1      50.973  26.765  30.779  1.00  0.00     0.060 A 
BRANCH  69  70
ATOM     70  S   UNL A   1      52.737  26.485  31.034  1.00  0.00     0.124 S 
ATOM     71  O   UNL A   1      53.225  26.404  29.662  1.00  0.00    -0.237 OA
ATOM     72  O   UNL A   1      53.136  27.675  31.781  1.00  0.00    -0.237 OA
ATOM     73  O   UNL A   1      52.779  25.236  31.790  1.00  0.00    -0.744 OA
ENDBRANCH  69  70
ENDBRANCH  37  62
ENDBRANCH  11  12
ENDBRANCH   4   6
ENDBRANCH   1   2
BRANCH   1  74
ATOM     74  C   UNL A   1      34.525  33.710  28.067  1.00  0.00     0.042 C 
BRANCH  74  75
ATOM     75  C   UNL A   1      33.193  34.407  28.306  1.00  0.00     0.117 C 
BRANCH  75  76
ATOM     76  N   UNL A   1      33.371  35.826  28.563  1.00  0.00    -0.356 N 
ATOM     77  C   UNL A   1      33.270  36.505  29.743  1.00  0.00     0.227 C 
ATOM     78  H   UNL A   1      33.596  36.373  27.777  1.00  0.00     0.163 HD
ATOM     79  O   UNL A   1      33.360  37.734  29.718  1.00  0.00    -0.274 OA
BRANCH  77  80
ATOM     80  C   UNL A   1      33.070  35.707  31.028  1.00  0.00     0.107 C 
ATOM     81  C   UNL A   1      32.849  36.595  32.212  1.00  0.00    -0.012 C 
ATOM     82  C   UNL A   1      34.313  34.890  31.407  1.00  0.00     0.087 C 
ATOM     83  C   UNL A   1      33.787  36.433  33.150  1.00  0.00     0.033 C 
ATOM     84  C   UNL A   1      34.825  35.425  32.763  1.00  0.00     0.208 C 
BRANCH  84  85
ATOM     85  N   UNL A   1      35.103  34.485  33.857  1.00  0.00    -0.328 N 
ATOM     86  C   UNL A   1      35.006  33.068  33.483  1.00  0.00     0.275 C 
ATOM     87  C   UNL A   1      36.541  34.365  34.126  1.00  0.00     0.275 C 
ATOM     88  H   UNL A   1      34.470  34.843  34.572  1.00  0.00     0.348 HD
ATOM     89  C   UNL A   1      36.484  33.016  33.524  1.00  0.00     0.068 C 
ATOM     90  C   UNL A   1      37.391  32.466  32.462  1.00  0.00     0.020 C 
ATOM     91  C   UNL A   1      37.353  31.839  33.827  1.00  0.00     0.020 C 
ENDBRANCH  84  85
ENDBRANCH  77  80
ENDBRANCH  75  76
ENDBRANCH  74  75
ENDBRANCH   1  74
TORSDOF 14
ENDMDL
MODEL 3
REMARK VINA RESULT:     -11.0      4.902     10.715
REMARK SMILES O=C(NCCCNC(=O)[C@@H]1C=C[C@@H]([NH+]2CC3(CC3)C2)C1)c1ccc(-c2c3nc(c(-c4c(F)cc(S(=O)(=O)[O-])cc4F)c4ccc([nH]4)c(-c4c(F)cc(S(=O)(=O)[O-])cc4F)c4nc(c(-c5c(F)cc(S(=O)(=O)[O-])cc5F)c5ccc2[nH]5)C=C4)C=C3)cc1
REMARK SMILES IDX 4 1 3 2 1 3 2 4 21 6 22 7 86 8 23 9 85 10 24 11 25 12 26 13
REMARK SMILES IDX 79 14 27 15 84 16 78 17 80 18 28 19 83 20 77 21 76 22 29 24
REMARK SMILES IDX 63 25 42 26 62 27 43 28 46 29 61 30 81 31 44 32 45 33 60 35
REMARK SMILES IDX 82 36 47 37 30 38 31 39 40 40 32 41 33 42 39 43 41 44 34 45
REMARK SMILES IDX 35 46 36 47 37 48 38 49 64 50 65 51 74 52 66 53 67 54 73 55
REMARK SMILES IDX 75 56 68 57 69 58 70 59 71 60 72 61 48 62 49 63 58 64 50 65
REMARK SMILES IDX 51 66 57 67 59 68 52 69 53 70 54 71 55 72 56 73 5 74 6 75
REMARK SMILES IDX 7 76 8 77 9 79 10 80 11 81 20 82 12 83 13 84 14 85 15 86
REMARK SMILES IDX 19 87 16 89 17 90 18 91
REMARK H PARENT 3 5 80 23 46 34 7 78 14 88
REMARK Flexibility Score: inf
ROOT
ATOM      1  C   UNL A   1      38.313  24.210  26.376  1.00  0.00     0.118 C 
ENDROOT
BRANCH   1   2
ATOM      2  N   UNL A   1      39.708  23.881  26.122  1.00  0.00    -0.352 N 
ATOM      3  O   UNL A   1      41.930  24.216  26.040  1.00  0.00    -0.269 OA
ATOM      4  C   UNL A   1      40.850  24.515  26.544  1.00  0.00     0.251 C 
ATOM      5  H   UNL A   1      39.856  23.084  25.563  1.00  0.00     0.163 HD
BRANCH   4   6
ATOM      6  C   UNL A   1      40.777  25.556  27.592  1.00  0.00     0.039 A 
ATOM      7  C   UNL A   1      39.788  25.504  28.578  1.00  0.00     0.014 A 
ATOM      8  C   UNL A   1      41.734  26.575  27.612  1.00  0.00     0.014 A 
ATOM      9  C   UNL A   1      39.674  26.536  29.500  1.00  0.00     0.010 A 
ATOM     10  C   UNL A   1      41.674  27.562  28.599  1.00  0.00     0.010 A 
ATOM     11  C   UNL A   1      40.633  27.560  29.541  1.00  0.00    -0.014 A 
BRANCH  11  12
ATOM     12  C   UNL A   1      40.588  28.552  30.642  1.00  0.00     0.031 A 
ATOM     13  C   UNL A   1      41.514  28.454  31.820  1.00  0.00     0.074 A 
ATOM     14  C   UNL A   1      39.684  29.549  30.564  1.00  0.00     0.049 A 
ATOM     15  N   UNL A   1      41.581  29.222  32.877  1.00  0.00    -0.248 NA
ATOM     16  C   UNL A   1      42.486  27.350  31.820  1.00  0.00     0.031 C 
ATOM     17  C   UNL A   1      38.723  29.730  29.471  1.00  0.00     0.029 A 
ATOM     18  N   UNL A   1      39.421  30.597  31.408  1.00  0.00    -0.354 N 
ATOM     19  C   UNL A   1      42.582  28.686  33.678  1.00  0.00     0.074 A 
ATOM     20  C   UNL A   1      43.086  27.515  32.993  1.00  0.00     0.031 C 
ATOM     21  C   UNL A   1      37.996  30.832  29.699  1.00  0.00     0.029 A 
ATOM     22  C   UNL A   1      38.387  31.398  30.983  1.00  0.00     0.049 A 
ATOM     23  H   UNL A   1      39.924  30.761  32.238  1.00  0.00     0.167 HD
ATOM     24  C   UNL A   1      43.033  29.136  34.873  1.00  0.00     0.037 A 
ATOM     25  C   UNL A   1      37.793  32.450  31.576  1.00  0.00     0.037 A 
ATOM     26  C   UNL A   1      42.531  30.315  35.532  1.00  0.00     0.049 A 
ATOM     27  C   UNL A   1      38.296  32.906  32.914  1.00  0.00     0.074 A 
ATOM     28  C   UNL A   1      42.969  30.891  36.712  1.00  0.00     0.029 A 
ATOM     29  N   UNL A   1      41.473  31.091  35.080  1.00  0.00    -0.354 N 
ATOM     30  N   UNL A   1      39.286  32.425  33.628  1.00  0.00    -0.248 NA
ATOM     31  C   UNL A   1      37.601  34.043  33.533  1.00  0.00     0.031 C 
ATOM     32  C   UNL A   1      42.139  31.978  37.004  1.00  0.00     0.029 A 
ATOM     33  C   UNL A   1      41.218  32.115  35.977  1.00  0.00     0.049 A 
ATOM     34  H   UNL A   1      40.976  30.935  34.244  1.00  0.00     0.167 HD
ATOM     35  C   UNL A   1      39.341  33.207  34.774  1.00  0.00     0.074 A 
ATOM     36  C   UNL A   1      38.299  34.206  34.649  1.00  0.00     0.031 C 
ATOM     37  C   UNL A   1      40.177  33.103  35.836  1.00  0.00     0.037 A 
BRANCH  24  38
ATOM     38  C   UNL A   1      44.111  28.348  35.568  1.00  0.00     0.058 A 
ATOM     39  C   UNL A   1      45.473  28.584  35.333  1.00  0.00     0.135 A 
ATOM     40  C   UNL A   1      43.772  27.392  36.541  1.00  0.00     0.135 A 
ATOM     41  F   UNL A   1      45.856  29.476  34.407  1.00  0.00    -0.206 F 
ATOM     42  C   UNL A   1      46.462  27.890  36.027  1.00  0.00     0.059 A 
ATOM     43  C   UNL A   1      44.742  26.704  37.263  1.00  0.00     0.059 A 
ATOM     44  F   UNL A   1      42.483  27.126  36.806  1.00  0.00    -0.206 F 
ATOM     45  C   UNL A   1      46.087  26.954  36.992  1.00  0.00     0.060 A 
BRANCH  45  46
ATOM     46  S   UNL A   1      47.381  26.078  37.895  1.00  0.00     0.124 S 
ATOM     47  O   UNL A   1      46.783  25.962  39.222  1.00  0.00    -0.237 OA
ATOM     48  O   UNL A   1      47.496  24.832  37.143  1.00  0.00    -0.237 OA
ATOM     49  O   UNL A   1      48.530  26.973  37.802  1.00  0.00    -0.744 OA
ENDBRANCH  45  46
ENDBRANCH  24  38
BRANCH  25  50
ATOM     50  C   UNL A   1      36.636  33.112  30.917  1.00  0.00     0.058 A 
ATOM     51  C   UNL A   1      35.329  32.933  31.393  1.00  0.00     0.135 A 
ATOM     52  C   UNL A   1      36.819  33.951  29.807  1.00  0.00     0.135 A 
ATOM     53  F   UNL A   1      35.102  32.139  32.450  1.00  0.00    -0.206 F 
ATOM     54  C   UNL A   1      34.243  33.547  30.780  1.00  0.00     0.059 A 
ATOM     55  C   UNL A   1      35.752  34.601  29.196  1.00  0.00     0.059 A 
ATOM     56  F   UNL A   1      38.052  34.172  29.325  1.00  0.00    -0.206 F 
ATOM     57  C   UNL A   1      34.465  34.381  29.682  1.00  0.00     0.060 A 
BRANCH  57  58
ATOM     58  S   UNL A   1      33.052  35.200  28.913  1.00  0.00     0.124 S 
ATOM     59  O   UNL A   1      32.617  34.194  27.953  1.00  0.00    -0.237 OA
ATOM     60  O   UNL A   1      32.168  35.420  30.053  1.00  0.00    -0.237 OA
ATOM     61  O   UNL A   1      33.636  36.410  28.341  1.00  0.00    -0.744 OA
ENDBRANCH  57  58
ENDBRANCH  25  50
BRANCH  37  62
ATOM     62  C   UNL A   1      40.012  34.107  36.943  1.00  0.00     0.058 A 
ATOM     63  C   UNL A   1      40.634  35.365  36.891  1.00  0.00     0.135 A 
ATOM     64  C   UNL A   1      39.175  33.831  38.036  1.00  0.00     0.135 A 
ATOM     65  F   UNL A   1      41.455  35.672  35.875  1.00  0.00    -0.206 F 
ATOM     66  C   UNL A   1      40.440  36.310  37.894  1.00  0.00     0.059 A 
ATOM     67  C   UNL A   1      38.945  34.772  39.033  1.00  0.00     0.059 A 
ATOM     68  F   UNL A   1      38.553  32.645  38.128  1.00  0.00    -0.206 F 
ATOM     69  C   UNL A   1      39.588  36.007  38.957  1.00  0.00     0.060 A 
BRANCH  69  70
ATOM     70  S   UNL A   1      39.305  37.263  40.221  1.00  0.00     0.124 S 
ATOM     71  O   UNL A   1      38.523  38.251  39.485  1.00  0.00    -0.237 OA
ATOM     72  O   UNL A   1      38.582  36.516  41.246  1.00  0.00    -0.237 OA
ATOM     73  O   UNL A   1      40.654  37.680  40.594  1.00  0.00    -0.744 OA
ENDBRANCH  69  70
ENDBRANCH  37  62
ENDBRANCH  11  12
ENDBRANCH   4   6
ENDBRANCH   1   2
BRANCH   1  74
ATOM     74  C   UNL A   1      37.359  23.285  25.634  1.00  0.00     0.042 C 
BRANCH  74  75
ATOM     75  C   UNL A   1      35.892  23.602  25.892  1.00  0.00     0.117 C 
BRANCH  75  76
ATOM     76  N   UNL A   1      35.169  23.830  24.653  1.00  0.00    -0.356 N 
ATOM     77  C   UNL A   1      34.268  24.811  24.351  1.00  0.00     0.227 C 
ATOM     78  H   UNL A   1      35.355  23.188  23.930  1.00  0.00     0.163 HD
ATOM     79  O   UNL A   1      33.691  24.758  23.264  1.00  0.00    -0.274 OA
BRANCH  77  80
ATOM     80  C   UNL A   1      34.039  25.927  25.366  1.00  0.00     0.107 C 
ATOM     81  C   UNL A   1      32.902  25.621  26.289  1.00  0.00    -0.012 C 
ATOM     82  C   UNL A   1      33.629  27.247  24.700  1.00  0.00     0.087 C 
ATOM     83  C   UNL A   1      31.922  26.526  26.204  1.00  0.00     0.033 C 
ATOM     84  C   UNL A   1      32.207  27.594  25.193  1.00  0.00     0.208 C 
BRANCH  84  85
ATOM     85  N   UNL A   1      31.929  28.934  25.726  1.00  0.00    -0.328 N 
ATOM     86  C   UNL A   1      32.115  29.063  27.178  1.00  0.00     0.275 C 
ATOM     87  C   UNL A   1      33.026  29.872  25.454  1.00  0.00     0.275 C 
ATOM     88  H   UNL A   1      30.999  29.097  25.340  1.00  0.00     0.348 HD
ATOM     89  C   UNL A   1      33.359  29.811  26.893  1.00  0.00     0.068 C 
ATOM     90  C   UNL A   1      34.713  29.560  27.491  1.00  0.00     0.020 C 
ATOM     91  C   UNL A   1      34.009  30.866  27.729  1.00  0.00     0.020 C 
ENDBRANCH  84  85
ENDBRANCH  77  80
ENDBRANCH  75  76
ENDBRANCH  74  75
ENDBRANCH   1  74
TORSDOF 14
ENDMDL
