MODEL 1
REMARK VINA RESULT:     -12.2      0.000      0.000
REMARK SMILES CC1(C)[C@H](C(=O)NCCCNC(=O)c2ccc(-c3c4nc(c(-c5c(F)cc(S(=O)(=O)[O-])cc5F)c5ccc([nH]5)c(-c5c(F)cc(S(=O)(=O)[O-])cc5F)c5nc(c(-c6c(F)cc(S(=O)(=O)[O-])cc6F)c6ccc3[nH]6)C=C5)C=C4)cc2)[C@@H]1c1nc2ccc(F)cc2s1
REMARK SMILES IDX 10 1 9 2 8 3 7 4 5 5 6 6 4 8 1 9 2 10 3 11 80 12 81 13 82 14
REMARK SMILES IDX 90 15 83 16 89 17 84 18 88 19 85 20 86 21 87 22 11 23 12 24
REMARK SMILES IDX 13 26 14 27 15 28 79 29 16 30 78 31 17 32 18 33 19 34 72 35
REMARK SMILES IDX 20 36 77 37 71 38 73 39 21 40 76 41 70 42 69 43 22 45 56 46
REMARK SMILES IDX 35 47 55 48 36 49 39 50 54 51 74 52 37 53 38 54 53 56 75 57
REMARK SMILES IDX 40 58 23 59 24 60 33 61 25 62 26 63 32 64 34 65 27 66 28 67
REMARK SMILES IDX 29 68 30 69 31 70 57 71 58 72 67 73 59 74 60 75 66 76 68 77
REMARK SMILES IDX 61 78 62 79 63 80 64 81 65 82 41 83 42 84 51 85 43 86 44 87
REMARK SMILES IDX 50 88 52 89 45 90 46 91 47 92 48 93 49 94
REMARK H PARENT 7 7 11 25 73 44 39 55
REMARK Flexibility Score: inf
ROOT
ATOM      1  C   UNL A   1      33.645  28.454  27.068  1.00  0.00     0.118 C 
ENDROOT
BRANCH   1   2
ATOM      2  C   UNL A   1      33.851  28.342  25.572  1.00  0.00     0.042 C 
BRANCH   2   3
ATOM      3  C   UNL A   1      33.189  27.115  24.976  1.00  0.00     0.117 C 
BRANCH   3   4
ATOM      4  N   UNL A   1      34.055  25.974  24.888  1.00  0.00    -0.356 N 
ATOM      5  C   UNL A   1      33.913  24.678  25.289  1.00  0.00     0.224 C 
ATOM      6  O   UNL A   1      34.871  23.945  25.028  1.00  0.00    -0.275 OA
ATOM      7  H   UNL A   1      34.918  26.164  24.456  1.00  0.00     0.163 HD
BRANCH   5   8
ATOM      8  C   UNL A   1      32.767  24.038  25.993  1.00  0.00     0.095 C 
ATOM      9  C   UNL A   1      30.271  24.453  26.397  1.00  0.00     0.013 C 
ATOM     10  C   UNL A   1      31.328  23.880  25.471  1.00  0.00    -0.013 C 
ATOM     11  C   UNL A   1      30.993  24.150  24.027  1.00  0.00     0.013 C 
ATOM     12  C   UNL A   1      32.131  22.683  25.965  1.00  0.00     0.068 C 
BRANCH  12  13
ATOM     13  C   UNL A   1      32.735  21.484  25.251  1.00  0.00     0.098 A 
ATOM     14  N   UNL A   1      32.127  21.015  24.185  1.00  0.00    -0.241 NA
ATOM     15  S   UNL A   1      34.231  20.728  25.619  1.00  0.00    -0.118 S 
ATOM     16  C   UNL A   1      32.688  19.804  23.826  1.00  0.00     0.082 A 
ATOM     17  C   UNL A   1      33.796  19.414  24.584  1.00  0.00     0.057 A 
ATOM     18  C   UNL A   1      32.209  18.939  22.820  1.00  0.00     0.033 A 
ATOM     19  C   UNL A   1      34.382  18.147  24.440  1.00  0.00     0.060 A 
ATOM     20  C   UNL A   1      32.796  17.681  22.655  1.00  0.00     0.041 A 
ATOM     21  C   UNL A   1      33.847  17.295  23.474  1.00  0.00     0.124 A 
ATOM     22  F   UNL A   1      34.369  16.070  23.324  1.00  0.00    -0.207 F 
ENDBRANCH  12  13
ENDBRANCH   5   8
ENDBRANCH   3   4
ENDBRANCH   2   3
ENDBRANCH   1   2
BRANCH   1  23
ATOM     23  N   UNL A   1      33.585  29.843  27.512  1.00  0.00    -0.352 N 
ATOM     24  C   UNL A   1      34.504  30.594  28.204  1.00  0.00     0.251 C 
ATOM     25  H   UNL A   1      32.753  30.316  27.279  1.00  0.00     0.163 HD
ATOM     26  O   UNL A   1      34.167  31.671  28.684  1.00  0.00    -0.269 OA
BRANCH  24  27
ATOM     27  C   UNL A   1      35.885  30.095  28.386  1.00  0.00     0.039 A 
ATOM     28  C   UNL A   1      36.789  30.177  27.324  1.00  0.00     0.014 A 
ATOM     29  C   UNL A   1      36.289  29.543  29.603  1.00  0.00     0.014 A 
ATOM     30  C   UNL A   1      38.114  29.778  27.513  1.00  0.00     0.010 A 
ATOM     31  C   UNL A   1      37.629  29.262  29.825  1.00  0.00     0.010 A 
ATOM     32  C   UNL A   1      38.556  29.359  28.779  1.00  0.00    -0.014 A 
BRANCH  32  33
ATOM     33  C   UNL A   1      39.968  28.981  29.035  1.00  0.00     0.031 A 
ATOM     34  C   UNL A   1      40.918  30.003  29.608  1.00  0.00     0.074 A 
ATOM     35  C   UNL A   1      40.412  27.757  28.689  1.00  0.00     0.049 A 
ATOM     36  N   UNL A   1      42.209  29.918  29.793  1.00  0.00    -0.248 NA
ATOM     37  C   UNL A   1      40.344  31.307  29.990  1.00  0.00     0.031 C 
ATOM     38  C   UNL A   1      39.598  26.696  28.088  1.00  0.00     0.029 A 
ATOM     39  N   UNL A   1      41.663  27.198  28.781  1.00  0.00    -0.354 N 
ATOM     40  C   UNL A   1      42.600  31.153  30.298  1.00  0.00     0.074 A 
ATOM     41  C   UNL A   1      41.426  31.994  30.324  1.00  0.00     0.031 C 
ATOM     42  C   UNL A   1      40.363  25.611  27.891  1.00  0.00     0.029 A 
ATOM     43  C   UNL A   1      41.730  25.909  28.303  1.00  0.00     0.049 A 
ATOM     44  H   UNL A   1      42.439  27.675  29.153  1.00  0.00     0.167 HD
ATOM     45  C   UNL A   1      43.822  31.542  30.733  1.00  0.00     0.037 A 
ATOM     46  C   UNL A   1      42.779  25.070  28.199  1.00  0.00     0.037 A 
ATOM     47  C   UNL A   1      44.979  30.687  30.735  1.00  0.00     0.049 A 
ATOM     48  C   UNL A   1      44.133  25.535  28.670  1.00  0.00     0.074 A 
ATOM     49  C   UNL A   1      46.254  30.969  31.191  1.00  0.00     0.029 A 
ATOM     50  N   UNL A   1      45.000  29.382  30.265  1.00  0.00    -0.354 N 
ATOM     51  N   UNL A   1      44.473  26.690  29.190  1.00  0.00    -0.248 NA
ATOM     52  C   UNL A   1      45.244  24.581  28.546  1.00  0.00     0.031 C 
ATOM     53  C   UNL A   1      47.058  29.850  30.957  1.00  0.00     0.029 A 
ATOM     54  C   UNL A   1      46.271  28.851  30.408  1.00  0.00     0.049 A 
ATOM     55  H   UNL A   1      44.226  28.905  29.886  1.00  0.00     0.167 HD
ATOM     56  C   UNL A   1      45.827  26.587  29.492  1.00  0.00     0.074 A 
ATOM     57  C   UNL A   1      46.240  25.255  29.105  1.00  0.00     0.031 C 
ATOM     58  C   UNL A   1      46.654  27.510  30.042  1.00  0.00     0.037 A 
BRANCH  45  59
ATOM     59  C   UNL A   1      43.966  32.940  31.267  1.00  0.00     0.058 A 
ATOM     60  C   UNL A   1      44.295  34.015  30.425  1.00  0.00     0.135 A 
ATOM     61  C   UNL A   1      43.719  33.222  32.620  1.00  0.00     0.135 A 
ATOM     62  F   UNL A   1      44.561  33.803  29.126  1.00  0.00    -0.206 F 
ATOM     63  C   UNL A   1      44.391  35.316  30.909  1.00  0.00     0.059 A 
ATOM     64  C   UNL A   1      43.779  34.520  33.120  1.00  0.00     0.059 A 
ATOM     65  F   UNL A   1      43.406  32.231  33.471  1.00  0.00    -0.206 F 
ATOM     66  C   UNL A   1      44.125  35.559  32.257  1.00  0.00     0.060 A 
BRANCH  66  67
ATOM     67  S   UNL A   1      44.222  37.258  32.859  1.00  0.00     0.124 S 
ATOM     68  O   UNL A   1      43.007  37.352  33.661  1.00  0.00    -0.237 OA
ATOM     69  O   UNL A   1      45.476  37.251  33.605  1.00  0.00    -0.237 OA
ATOM     70  O   UNL A   1      44.228  38.053  31.635  1.00  0.00    -0.744 OA
ENDBRANCH  66  67
ENDBRANCH  45  59
BRANCH  46  71
ATOM     71  C   UNL A   1      42.600  23.702  27.640  1.00  0.00     0.058 A 
ATOM     72  C   UNL A   1      42.373  22.601  28.482  1.00  0.00     0.135 A 
ATOM     73  C   UNL A   1      42.676  23.459  26.259  1.00  0.00     0.135 A 
ATOM     74  F   UNL A   1      42.293  22.779  29.810  1.00  0.00    -0.206 F 
ATOM     75  C   UNL A   1      42.267  21.308  27.982  1.00  0.00     0.059 A 
ATOM     76  C   UNL A   1      42.542  22.178  25.732  1.00  0.00     0.059 A 
ATOM     77  F   UNL A   1      42.871  24.477  25.406  1.00  0.00    -0.206 F 
ATOM     78  C   UNL A   1      42.357  21.106  26.604  1.00  0.00     0.060 A 
BRANCH  78  79
ATOM     79  S   UNL A   1      42.212  19.423  25.965  1.00  0.00     0.124 S 
ATOM     80  O   UNL A   1      40.772  19.307  25.768  1.00  0.00    -0.237 OA
ATOM     81  O   UNL A   1      43.020  19.487  24.751  1.00  0.00    -0.237 OA
ATOM     82  O   UNL A   1      42.771  18.608  27.039  1.00  0.00    -0.744 OA
ENDBRANCH  78  79
ENDBRANCH  46  71
BRANCH  58  83
ATOM     83  C   UNL A   1      48.074  27.099  30.318  1.00  0.00     0.058 A 
ATOM     84  C   UNL A   1      49.113  27.369  29.417  1.00  0.00     0.135 A 
ATOM     85  C   UNL A   1      48.405  26.486  31.539  1.00  0.00     0.135 A 
ATOM     86  F   UNL A   1      48.850  27.947  28.234  1.00  0.00    -0.206 F 
ATOM     87  C   UNL A   1      50.430  27.028  29.706  1.00  0.00     0.059 A 
ATOM     88  C   UNL A   1      49.718  26.165  31.862  1.00  0.00     0.059 A 
ATOM     89  F   UNL A   1      47.448  26.215  32.441  1.00  0.00    -0.206 F 
ATOM     90  C   UNL A   1      50.724  26.432  30.934  1.00  0.00     0.060 A 
BRANCH  90  91
ATOM     91  S   UNL A   1      52.444  26.041  31.315  1.00  0.00     0.124 S 
ATOM     92  O   UNL A   1      52.809  27.147  32.195  1.00  0.00    -0.237 OA
ATOM     93  O   UNL A   1      52.332  24.734  31.953  1.00  0.00    -0.237 OA
ATOM     94  O   UNL A   1      53.092  26.040  30.007  1.00  0.00    -0.744 OA
ENDBRANCH  90  91
ENDBRANCH  58  83
ENDBRANCH  32  33
ENDBRANCH  24  27
ENDBRANCH   1  23
TORSDOF 14
ENDMDL
MODEL 2
REMARK VINA RESULT:     -11.8      2.624      3.942
REMARK SMILES CC1(C)[C@H](C(=O)NCCCNC(=O)c2ccc(-c3c4nc(c(-c5c(F)cc(S(=O)(=O)[O-])cc5F)c5ccc([nH]5)c(-c5c(F)cc(S(=O)(=O)[O-])cc5F)c5nc(c(-c6c(F)cc(S(=O)(=O)[O-])cc6F)c6ccc3[nH]6)C=C5)C=C4)cc2)[C@@H]1c1nc2ccc(F)cc2s1
REMARK SMILES IDX 10 1 9 2 8 3 7 4 5 5 6 6 4 8 1 9 2 10 3 11 80 12 81 13 82 14
REMARK SMILES IDX 90 15 83 16 89 17 84 18 88 19 85 20 86 21 87 22 11 23 12 24
REMARK SMILES IDX 13 26 14 27 15 28 79 29 16 30 78 31 17 32 18 33 19 34 72 35
REMARK SMILES IDX 20 36 77 37 71 38 73 39 21 40 76 41 70 42 69 43 22 45 56 46
REMARK SMILES IDX 35 47 55 48 36 49 39 50 54 51 74 52 37 53 38 54 53 56 75 57
REMARK SMILES IDX 40 58 23 59 24 60 33 61 25 62 26 63 32 64 34 65 27 66 28 67
REMARK SMILES IDX 29 68 30 69 31 70 57 71 58 72 67 73 59 74 60 75 66 76 68 77
REMARK SMILES IDX 61 78 62 79 63 80 64 81 65 82 41 83 42 84 51 85 43 86 44 87
REMARK SMILES IDX 50 88 52 89 45 90 46 91 47 92 48 93 49 94
REMARK H PARENT 7 7 11 25 73 44 39 55
REMARK Flexibility Score: inf
ROOT
ATOM      1  C   UNL A   1      33.594  28.462  27.362  1.00  0.00     0.118 C 
ENDROOT
BRANCH   1   2
ATOM      2  C   UNL A   1      32.819  28.149  26.100  1.00  0.00     0.042 C 
BRANCH   2   3
ATOM      3  C   UNL A   1      31.416  27.648  26.380  1.00  0.00     0.117 C 
BRANCH   3   4
ATOM      4  N   UNL A   1      31.344  26.238  26.637  1.00  0.00    -0.356 N 
ATOM      5  C   UNL A   1      31.755  25.151  25.923  1.00  0.00     0.224 C 
ATOM      6  O   UNL A   1      31.548  24.063  26.467  1.00  0.00    -0.275 OA
ATOM      7  H   UNL A   1      30.915  26.012  27.493  1.00  0.00     0.163 HD
BRANCH   5   8
ATOM      8  C   UNL A   1      32.411  25.104  24.587  1.00  0.00     0.095 C 
ATOM      9  C   UNL A   1      32.966  23.392  22.763  1.00  0.00     0.013 C 
ATOM     10  C   UNL A   1      31.931  24.338  23.342  1.00  0.00    -0.013 C 
ATOM     11  C   UNL A   1      30.550  23.736  23.288  1.00  0.00     0.013 C 
ATOM     12  C   UNL A   1      32.226  25.832  23.291  1.00  0.00     0.068 C 
BRANCH  12  13
ATOM     13  C   UNL A   1      31.334  27.053  23.131  1.00  0.00     0.098 A 
ATOM     14  N   UNL A   1      30.080  26.969  23.515  1.00  0.00    -0.241 NA
ATOM     15  S   UNL A   1      31.826  28.610  22.605  1.00  0.00    -0.118 S 
ATOM     16  C   UNL A   1      29.386  28.083  23.078  1.00  0.00     0.082 A 
ATOM     17  C   UNL A   1      30.162  29.055  22.441  1.00  0.00     0.057 A 
ATOM     18  C   UNL A   1      27.993  28.278  23.179  1.00  0.00     0.033 A 
ATOM     19  C   UNL A   1      29.585  30.169  21.812  1.00  0.00     0.060 A 
ATOM     20  C   UNL A   1      27.407  29.393  22.572  1.00  0.00     0.041 A 
ATOM     21  C   UNL A   1      28.198  30.301  21.883  1.00  0.00     0.124 A 
ATOM     22  F   UNL A   1      27.610  31.342  21.276  1.00  0.00    -0.207 F 
ENDBRANCH  12  13
ENDBRANCH   5   8
ENDBRANCH   3   4
ENDBRANCH   2   3
ENDBRANCH   1   2
BRANCH   1  23
ATOM     23  N   UNL A   1      33.577  29.887  27.678  1.00  0.00    -0.352 N 
ATOM     24  C   UNL A   1      34.533  30.675  28.275  1.00  0.00     0.251 C 
ATOM     25  H   UNL A   1      32.750  30.356  27.425  1.00  0.00     0.163 HD
ATOM     26  O   UNL A   1      34.232  31.799  28.663  1.00  0.00    -0.269 OA
BRANCH  24  27
ATOM     27  C   UNL A   1      35.906  30.160  28.466  1.00  0.00     0.039 A 
ATOM     28  C   UNL A   1      36.802  30.184  27.393  1.00  0.00     0.014 A 
ATOM     29  C   UNL A   1      36.312  29.653  29.701  1.00  0.00     0.014 A 
ATOM     30  C   UNL A   1      38.122  29.771  27.588  1.00  0.00     0.010 A 
ATOM     31  C   UNL A   1      37.650  29.360  29.923  1.00  0.00     0.010 A 
ATOM     32  C   UNL A   1      38.568  29.398  28.866  1.00  0.00    -0.014 A 
BRANCH  32  33
ATOM     33  C   UNL A   1      39.977  29.007  29.126  1.00  0.00     0.031 A 
ATOM     34  C   UNL A   1      40.932  30.018  29.708  1.00  0.00     0.074 A 
ATOM     35  C   UNL A   1      40.413  27.782  28.773  1.00  0.00     0.049 A 
ATOM     36  N   UNL A   1      42.222  29.922  29.898  1.00  0.00    -0.248 NA
ATOM     37  C   UNL A   1      40.367  31.324  30.096  1.00  0.00     0.031 C 
ATOM     38  C   UNL A   1      39.593  26.731  28.162  1.00  0.00     0.029 A 
ATOM     39  N   UNL A   1      41.659  27.212  28.867  1.00  0.00    -0.354 N 
ATOM     40  C   UNL A   1      42.621  31.151  30.412  1.00  0.00     0.074 A 
ATOM     41  C   UNL A   1      41.452  32.000  30.439  1.00  0.00     0.031 C 
ATOM     42  C   UNL A   1      40.351  25.641  27.961  1.00  0.00     0.029 A 
ATOM     43  C   UNL A   1      41.718  25.926  28.381  1.00  0.00     0.049 A 
ATOM     44  H   UNL A   1      42.437  27.681  29.245  1.00  0.00     0.167 HD
ATOM     45  C   UNL A   1      43.843  31.527  30.855  1.00  0.00     0.037 A 
ATOM     46  C   UNL A   1      42.761  25.079  28.276  1.00  0.00     0.037 A 
ATOM     47  C   UNL A   1      44.994  30.664  30.856  1.00  0.00     0.049 A 
ATOM     48  C   UNL A   1      44.117  25.532  28.755  1.00  0.00     0.074 A 
ATOM     49  C   UNL A   1      46.269  30.933  31.319  1.00  0.00     0.029 A 
ATOM     50  N   UNL A   1      45.007  29.362  30.378  1.00  0.00    -0.354 N 
ATOM     51  N   UNL A   1      44.464  26.681  29.284  1.00  0.00    -0.248 NA
ATOM     52  C   UNL A   1      45.221  24.570  28.630  1.00  0.00     0.031 C 
ATOM     53  C   UNL A   1      47.065  29.809  31.081  1.00  0.00     0.029 A 
ATOM     54  C   UNL A   1      46.272  28.820  30.523  1.00  0.00     0.049 A 
ATOM     55  H   UNL A   1      44.231  28.893  29.993  1.00  0.00     0.167 HD
ATOM     56  C   UNL A   1      45.815  26.565  29.591  1.00  0.00     0.074 A 
ATOM     57  C   UNL A   1      46.220  25.232  29.197  1.00  0.00     0.031 C 
ATOM     58  C   UNL A   1      46.647  27.478  30.150  1.00  0.00     0.037 A 
BRANCH  45  59
ATOM     59  C   UNL A   1      43.996  32.921  31.398  1.00  0.00     0.058 A 
ATOM     60  C   UNL A   1      44.333  34.000  30.564  1.00  0.00     0.135 A 
ATOM     61  C   UNL A   1      43.749  33.195  32.752  1.00  0.00     0.135 A 
ATOM     62  F   UNL A   1      44.599  33.794  29.264  1.00  0.00    -0.206 F 
ATOM     63  C   UNL A   1      44.437  35.297  31.057  1.00  0.00     0.059 A 
ATOM     64  C   UNL A   1      43.817  34.490  33.261  1.00  0.00     0.059 A 
ATOM     65  F   UNL A   1      43.428  32.201  33.597  1.00  0.00    -0.206 F 
ATOM     66  C   UNL A   1      44.171  35.532  32.406  1.00  0.00     0.060 A 
BRANCH  66  67
ATOM     67  S   UNL A   1      44.278  37.226  33.019  1.00  0.00     0.124 S 
ATOM     68  O   UNL A   1      43.114  37.293  33.895  1.00  0.00    -0.237 OA
ATOM     69  O   UNL A   1      45.576  37.232  33.688  1.00  0.00    -0.237 OA
ATOM     70  O   UNL A   1      44.197  38.033  31.805  1.00  0.00    -0.744 OA
ENDBRANCH  66  67
ENDBRANCH  45  59
BRANCH  46  71
ATOM     71  C   UNL A   1      42.573  23.716  27.707  1.00  0.00     0.058 A 
ATOM     72  C   UNL A   1      42.414  22.601  28.544  1.00  0.00     0.135 A 
ATOM     73  C   UNL A   1      42.575  23.494  26.321  1.00  0.00     0.135 A 
ATOM     74  F   UNL A   1      42.407  22.759  29.877  1.00  0.00    -0.206 F 
ATOM     75  C   UNL A   1      42.302  21.312  28.032  1.00  0.00     0.059 A 
ATOM     76  C   UNL A   1      42.433  22.219  25.783  1.00  0.00     0.059 A 
ATOM     77  F   UNL A   1      42.704  24.527  25.473  1.00  0.00    -0.206 F 
ATOM     78  C   UNL A   1      42.316  21.132  26.648  1.00  0.00     0.060 A 
BRANCH  78  79
ATOM     79  S   UNL A   1      42.164  19.456  25.993  1.00  0.00     0.124 S 
ATOM     80  O   UNL A   1      42.998  19.530  24.800  1.00  0.00    -0.237 OA
ATOM     81  O   UNL A   1      42.687  18.649  27.091  1.00  0.00    -0.237 OA
ATOM     82  O   UNL A   1      40.729  19.320  25.753  1.00  0.00    -0.744 OA
ENDBRANCH  78  79
ENDBRANCH  46  71
BRANCH  58  83
ATOM     83  C   UNL A   1      48.063  27.054  30.430  1.00  0.00     0.058 A 
ATOM     84  C   UNL A   1      49.105  27.312  29.529  1.00  0.00     0.135 A 
ATOM     85  C   UNL A   1      48.386  26.441  31.652  1.00  0.00     0.135 A 
ATOM     86  F   UNL A   1      48.850  27.891  28.344  1.00  0.00    -0.206 F 
ATOM     87  C   UNL A   1      50.419  26.960  29.821  1.00  0.00     0.059 A 
ATOM     88  C   UNL A   1      49.695  26.109  31.977  1.00  0.00     0.059 A 
ATOM     89  F   UNL A   1      47.425  26.181  32.553  1.00  0.00    -0.206 F 
ATOM     90  C   UNL A   1      50.705  26.364  31.050  1.00  0.00     0.060 A 
BRANCH  90  91
ATOM     91  S   UNL A   1      52.421  25.958  31.436  1.00  0.00     0.124 S 
ATOM     92  O   UNL A   1      53.053  26.076  30.125  1.00  0.00    -0.237 OA
ATOM     93  O   UNL A   1      52.775  26.989  32.405  1.00  0.00    -0.237 OA
ATOM     94  O   UNL A   1      52.338  24.603  31.972  1.00  0.00    -0.744 OA
ENDBRANCH  90  91
ENDBRANCH  58  83
ENDBRANCH  32  33
ENDBRANCH  24  27
ENDBRANCH   1  23
TORSDOF 14
ENDMDL
MODEL 3
REMARK VINA RESULT:     -11.7      4.706     10.182
REMARK SMILES CC1(C)[C@H](C(=O)NCCCNC(=O)c2ccc(-c3c4nc(c(-c5c(F)cc(S(=O)(=O)[O-])cc5F)c5ccc([nH]5)c(-c5c(F)cc(S(=O)(=O)[O-])cc5F)c5nc(c(-c6c(F)cc(S(=O)(=O)[O-])cc6F)c6ccc3[nH]6)C=C5)C=C4)cc2)[C@@H]1c1nc2ccc(F)cc2s1
REMARK SMILES IDX 10 1 9 2 8 3 7 4 5 5 6 6 4 8 1 9 2 10 3 11 80 12 81 13 82 14
REMARK SMILES IDX 90 15 83 16 89 17 84 18 88 19 85 20 86 21 87 22 11 23 12 24
REMARK SMILES IDX 13 26 14 27 15 28 79 29 16 30 78 31 17 32 18 33 19 34 72 35
REMARK SMILES IDX 20 36 77 37 71 38 73 39 21 40 76 41 70 42 69 43 22 45 56 46
REMARK SMILES IDX 35 47 55 48 36 49 39 50 54 51 74 52 37 53 38 54 53 56 75 57
REMARK SMILES IDX 40 58 23 59 24 60 33 61 25 62 26 63 32 64 34 65 27 66 28 67
REMARK SMILES IDX 29 68 30 69 31 70 57 71 58 72 67 73 59 74 60 75 66 76 68 77
REMARK SMILES IDX 61 78 62 79 63 80 64 81 65 82 41 83 42 84 51 85 43 86 44 87
REMARK SMILES IDX 50 88 52 89 45 90 46 91 47 92 48 93 49 94
REMARK H PARENT 7 7 11 25 73 44 39 55
REMARK Flexibility Score: inf
ROOT
ATOM      1  C   UNL A   1      38.241  23.981  26.504  1.00  0.00     0.118 C 
ENDROOT
BRANCH   1   2
ATOM      2  C   UNL A   1      37.365  23.494  25.369  1.00  0.00     0.042 C 
BRANCH   2   3
ATOM      3  C   UNL A   1      35.885  23.652  25.657  1.00  0.00     0.117 C 
BRANCH   3   4
ATOM      4  N   UNL A   1      35.206  24.523  24.742  1.00  0.00    -0.356 N 
ATOM      5  C   UNL A   1      33.900  24.902  24.629  1.00  0.00     0.224 C 
ATOM      6  O   UNL A   1      33.667  25.700  23.717  1.00  0.00    -0.275 OA
ATOM      7  H   UNL A   1      35.796  24.923  24.063  1.00  0.00     0.163 HD
BRANCH   5   8
ATOM      8  C   UNL A   1      32.731  24.484  25.452  1.00  0.00     0.095 C 
ATOM      9  C   UNL A   1      30.286  25.154  25.820  1.00  0.00     0.013 C 
ATOM     10  C   UNL A   1      31.270  24.351  24.989  1.00  0.00    -0.013 C 
ATOM     11  C   UNL A   1      30.913  24.396  23.526  1.00  0.00     0.013 C 
ATOM     12  C   UNL A   1      31.997  23.197  25.668  1.00  0.00     0.068 C 
BRANCH  12  13
ATOM     13  C   UNL A   1      32.489  21.850  25.162  1.00  0.00     0.098 A 
ATOM     14  N   UNL A   1      32.216  21.507  23.923  1.00  0.00    -0.241 NA
ATOM     15  S   UNL A   1      33.496  20.750  26.010  1.00  0.00    -0.118 S 
ATOM     16  C   UNL A   1      32.537  20.176  23.729  1.00  0.00     0.082 A 
ATOM     17  C   UNL A   1      33.148  19.547  24.818  1.00  0.00     0.057 A 
ATOM     18  C   UNL A   1      32.255  19.420  22.573  1.00  0.00     0.033 A 
ATOM     19  C   UNL A   1      33.398  18.166  24.831  1.00  0.00     0.060 A 
ATOM     20  C   UNL A   1      32.515  18.046  22.566  1.00  0.00     0.041 A 
ATOM     21  C   UNL A   1      33.054  17.439  23.691  1.00  0.00     0.124 A 
ATOM     22  F   UNL A   1      33.259  16.115  23.677  1.00  0.00    -0.207 F 
ENDBRANCH  12  13
ENDBRANCH   5   8
ENDBRANCH   3   4
ENDBRANCH   2   3
ENDBRANCH   1   2
BRANCH   1  23
ATOM     23  N   UNL A   1      39.661  23.841  26.201  1.00  0.00    -0.352 N 
ATOM     24  C   UNL A   1      40.723  24.649  26.530  1.00  0.00     0.251 C 
ATOM     25  H   UNL A   1      39.895  23.041  25.677  1.00  0.00     0.163 HD
ATOM     26  O   UNL A   1      41.806  24.478  25.981  1.00  0.00    -0.269 OA
BRANCH  24  27
ATOM     27  C   UNL A   1      40.552  25.731  27.524  1.00  0.00     0.039 A 
ATOM     28  C   UNL A   1      39.600  25.586  28.537  1.00  0.00     0.014 A 
ATOM     29  C   UNL A   1      41.327  26.890  27.457  1.00  0.00     0.014 A 
ATOM     30  C   UNL A   1      39.487  26.570  29.523  1.00  0.00     0.010 A 
ATOM     31  C   UNL A   1      41.298  27.804  28.502  1.00  0.00     0.010 A 
ATOM     32  C   UNL A   1      40.366  27.665  29.538  1.00  0.00    -0.014 A 
BRANCH  32  33
ATOM     33  C   UNL A   1      40.316  28.701  30.600  1.00  0.00     0.031 A 
ATOM     34  C   UNL A   1      41.231  28.586  31.793  1.00  0.00     0.074 A 
ATOM     35  C   UNL A   1      39.407  29.694  30.531  1.00  0.00     0.049 A 
ATOM     36  N   UNL A   1      41.263  29.309  32.881  1.00  0.00    -0.248 NA
ATOM     37  C   UNL A   1      42.217  27.490  31.774  1.00  0.00     0.031 C 
ATOM     38  C   UNL A   1      38.439  29.886  29.447  1.00  0.00     0.029 A 
ATOM     39  N   UNL A   1      39.139  30.725  31.397  1.00  0.00    -0.354 N 
ATOM     40  C   UNL A   1      42.258  28.751  33.676  1.00  0.00     0.074 A 
ATOM     41  C   UNL A   1      42.756  27.587  32.980  1.00  0.00     0.031 C 
ATOM     42  C   UNL A   1      37.704  30.980  29.701  1.00  0.00     0.029 A 
ATOM     43  C   UNL A   1      38.110  31.541  30.985  1.00  0.00     0.049 A 
ATOM     44  H   UNL A   1      39.635  30.866  32.235  1.00  0.00     0.167 HD
ATOM     45  C   UNL A   1      42.737  29.187  34.865  1.00  0.00     0.037 A 
ATOM     46  C   UNL A   1      37.553  32.613  31.582  1.00  0.00     0.037 A 
ATOM     47  C   UNL A   1      42.258  30.365  35.536  1.00  0.00     0.049 A 
ATOM     48  C   UNL A   1      38.090  33.064  32.916  1.00  0.00     0.074 A 
ATOM     49  C   UNL A   1      42.701  30.917  36.724  1.00  0.00     0.029 A 
ATOM     50  N   UNL A   1      41.232  31.177  35.074  1.00  0.00    -0.354 N 
ATOM     51  N   UNL A   1      39.064  32.551  33.629  1.00  0.00    -0.248 NA
ATOM     52  C   UNL A   1      37.456  34.243  33.523  1.00  0.00     0.031 C 
ATOM     53  C   UNL A   1      41.915  32.038  37.004  1.00  0.00     0.029 A 
ATOM     54  C   UNL A   1      41.021  32.218  35.962  1.00  0.00     0.049 A 
ATOM     55  H   UNL A   1      40.730  31.034  34.239  1.00  0.00     0.167 HD
ATOM     56  C   UNL A   1      39.186  33.368  34.748  1.00  0.00     0.074 A 
ATOM     57  C   UNL A   1      38.194  34.413  34.612  1.00  0.00     0.031 C 
ATOM     58  C   UNL A   1      40.045  33.266  35.792  1.00  0.00     0.037 A 
BRANCH  45  59
ATOM     59  C   UNL A   1      43.851  28.404  35.504  1.00  0.00     0.058 A 
ATOM     60  C   UNL A   1      45.199  28.699  35.243  1.00  0.00     0.135 A 
ATOM     61  C   UNL A   1      43.573  27.386  36.429  1.00  0.00     0.135 A 
ATOM     62  F   UNL A   1      45.524  29.650  34.351  1.00  0.00    -0.206 F 
ATOM     63  C   UNL A   1      46.231  28.001  35.862  1.00  0.00     0.059 A 
ATOM     64  C   UNL A   1      44.589  26.695  37.084  1.00  0.00     0.059 A 
ATOM     65  F   UNL A   1      42.302  27.057  36.713  1.00  0.00    -0.206 F 
ATOM     66  C   UNL A   1      45.915  27.005  36.786  1.00  0.00     0.060 A 
BRANCH  66  67
ATOM     67  S   UNL A   1      47.268  26.134  37.605  1.00  0.00     0.124 S 
ATOM     68  O   UNL A   1      48.113  27.245  38.032  1.00  0.00    -0.237 OA
ATOM     69  O   UNL A   1      46.575  25.418  38.671  1.00  0.00    -0.237 OA
ATOM     70  O   UNL A   1      47.823  25.296  36.547  1.00  0.00    -0.744 OA
ENDBRANCH  66  67
ENDBRANCH  45  59
BRANCH  46  71
ATOM     71  C   UNL A   1      36.433  33.344  30.928  1.00  0.00     0.058 A 
ATOM     72  C   UNL A   1      36.661  34.165  29.812  1.00  0.00     0.135 A 
ATOM     73  C   UNL A   1      35.119  33.261  31.416  1.00  0.00     0.135 A 
ATOM     74  F   UNL A   1      37.899  34.280  29.306  1.00  0.00    -0.206 F 
ATOM     75  C   UNL A   1      35.639  34.906  29.228  1.00  0.00     0.059 A 
ATOM     76  C   UNL A   1      34.074  33.969  30.831  1.00  0.00     0.059 A 
ATOM     77  F   UNL A   1      34.840  32.477  32.469  1.00  0.00    -0.206 F 
ATOM     78  C   UNL A   1      34.348  34.803  29.748  1.00  0.00     0.060 A 
BRANCH  78  79
ATOM     79  S   UNL A   1      33.027  35.764  28.979  1.00  0.00     0.124 S 
ATOM     80  O   UNL A   1      33.784  36.777  28.254  1.00  0.00    -0.237 OA
ATOM     81  O   UNL A   1      32.355  34.760  28.160  1.00  0.00    -0.237 OA
ATOM     82  O   UNL A   1      32.256  36.248  30.121  1.00  0.00    -0.744 OA
ENDBRANCH  78  79
ENDBRANCH  46  71
BRANCH  58  83
ATOM     83  C   UNL A   1      39.995  34.340  36.844  1.00  0.00     0.058 A 
ATOM     84  C   UNL A   1      40.763  35.509  36.746  1.00  0.00     0.135 A 
ATOM     85  C   UNL A   1      39.112  34.222  37.930  1.00  0.00     0.135 A 
ATOM     86  F   UNL A   1      41.627  35.669  35.731  1.00  0.00    -0.206 F 
ATOM     87  C   UNL A   1      40.671  36.518  37.700  1.00  0.00     0.059 A 
ATOM     88  C   UNL A   1      38.981  35.231  38.877  1.00  0.00     0.059 A 
ATOM     89  F   UNL A   1      38.347  33.126  38.064  1.00  0.00    -0.206 F 
ATOM     90  C   UNL A   1      39.773  36.372  38.758  1.00  0.00     0.060 A 
BRANCH  90  91
ATOM     91  S   UNL A   1      39.629  37.711  39.960  1.00  0.00     0.124 S 
ATOM     92  O   UNL A   1      39.611  36.975  41.220  1.00  0.00    -0.237 OA
ATOM     93  O   UNL A   1      40.831  38.494  39.699  1.00  0.00    -0.237 OA
ATOM     94  O   UNL A   1      38.373  38.362  39.597  1.00  0.00    -0.744 OA
ENDBRANCH  90  91
ENDBRANCH  58  83
ENDBRANCH  32  33
ENDBRANCH  24  27
ENDBRANCH   1  23
TORSDOF 14
ENDMDL
