MODEL 1
REMARK VINA RESULT:      -9.7      0.000      0.000
REMARK SMILES CC(=O)Nc1ccc(/N=C2\C(=O)N(c3ccc(NC(C)=O)cc3)[C@H](c3ccccc3)[C@H]2CC(=O)NCCCNC(=O)c2ccc(-c3c4nc(c(-c5c(F)cc(S(=O)(=O)[O-])cc5F)c5ccc([nH]5)c(-c5c(F)cc(S(=O)(=O)[O-])cc5F)c5nc(c(-c6c(F)cc(S(=O)(=O)[O-])cc6F)c6ccc3[nH]6)C=C5)C=C4)cc2)cc1
REMARK SMILES IDX 37 1 36 2 35 3 33 4 34 5 32 7 31 8 9 9 10 10 11 11 12 12
REMARK SMILES IDX 13 13 24 14 8 15 5 16 6 17 109 18 7 19 108 20 4 21 1 22 2 23
REMARK SMILES IDX 3 24 14 26 15 27 23 28 16 29 22 30 17 31 18 32 19 33 20 35
REMARK SMILES IDX 21 36 25 37 26 38 30 39 27 40 29 41 28 42 38 43 39 44 40 45
REMARK SMILES IDX 41 47 42 48 43 49 107 50 44 51 106 52 45 53 46 54 47 55
REMARK SMILES IDX 100 56 48 57 105 58 99 59 101 60 49 61 104 62 98 63 97 64
REMARK SMILES IDX 50 66 84 67 63 68 83 69 64 70 67 71 82 72 102 73 65 74 66 75
REMARK SMILES IDX 81 77 103 78 68 79 51 80 52 81 61 82 53 83 54 84 60 85 62 86
REMARK SMILES IDX 55 87 56 88 57 89 58 90 59 91 85 92 86 93 95 94 87 95 88 96
REMARK SMILES IDX 94 97 96 98 89 99 90 100 91 101 92 102 93 103 69 104 70 105
REMARK SMILES IDX 79 106 71 107 72 108 78 109 80 110 73 111 74 112 75 113
REMARK SMILES IDX 76 114 77 115
REMARK H PARENT 35 6 4 25 18 34 39 46 101 65 67 76
REMARK Flexibility Score: inf
ROOT
ATOM      1  C   UNL A   1      42.836  26.091  24.971  1.00  0.00     0.042 C 
ENDROOT
BRANCH   1   2
ATOM      2  C   UNL A   1      43.873  27.072  25.508  1.00  0.00     0.117 C 
BRANCH   2   3
ATOM      3  N   UNL A   1      45.193  26.844  24.933  1.00  0.00    -0.356 N 
ATOM      4  C   UNL A   1      46.326  27.597  25.003  1.00  0.00     0.220 C 
ATOM      5  O   UNL A   1      47.338  27.198  24.423  1.00  0.00    -0.275 OA
ATOM      6  H   UNL A   1      45.281  26.013  24.414  1.00  0.00     0.163 HD
BRANCH   4   7
ATOM      7  C   UNL A   1      46.359  28.883  25.810  1.00  0.00     0.112 C 
BRANCH   7   8
ATOM      8  C   UNL A   1      47.160  28.691  27.115  1.00  0.00     0.081 C 
ATOM      9  N   UNL A   1      47.129  30.743  28.465  1.00  0.00    -0.247 NA
ATOM     10  C   UNL A   1      46.576  29.616  28.142  1.00  0.00     0.112 C 
ATOM     11  C   UNL A   1      45.399  28.917  28.770  1.00  0.00     0.273 C 
ATOM     12  O   UNL A   1      44.387  29.456  29.162  1.00  0.00    -0.267 OA
ATOM     13  N   UNL A   1      45.784  27.590  28.790  1.00  0.00    -0.299 N 
ATOM     14  C   UNL A   1      46.874  27.335  27.841  1.00  0.00     0.131 C 
BRANCH   9  15
ATOM     15  C   UNL A   1      46.554  31.610  29.410  1.00  0.00     0.064 A 
ATOM     16  C   UNL A   1      45.058  33.280  31.148  1.00  0.00     0.041 A 
ATOM     17  C   UNL A   1      44.982  33.424  29.760  1.00  0.00     0.028 A 
ATOM     18  C   UNL A   1      45.972  32.362  31.657  1.00  0.00     0.028 A 
ATOM     19  C   UNL A   1      45.739  32.619  28.913  1.00  0.00     0.030 A 
ATOM     20  C   UNL A   1      46.729  31.549  30.792  1.00  0.00     0.030 A 
BRANCH  16  21
ATOM     21  N   UNL A   1      44.168  34.083  31.882  1.00  0.00    -0.326 N 
ATOM     22  C   UNL A   1      42.076  32.724  32.024  1.00  0.00     0.114 C 
ATOM     23  C   UNL A   1      42.872  33.964  32.277  1.00  0.00     0.221 C 
ATOM     24  O   UNL A   1      42.357  34.939  32.835  1.00  0.00    -0.275 OA
ATOM     25  H   UNL A   1      44.578  34.927  32.180  1.00  0.00     0.169 HD
ENDBRANCH  16  21
ENDBRANCH   9  15
BRANCH  13  26
ATOM     26  C   UNL A   1      45.412  26.806  29.904  1.00  0.00     0.045 A 
ATOM     27  C   UNL A   1      46.016  27.026  31.143  1.00  0.00     0.028 A 
ATOM     28  C   UNL A   1      44.673  25.635  29.720  1.00  0.00     0.028 A 
ATOM     29  C   UNL A   1      45.874  26.097  32.185  1.00  0.00     0.028 A 
ATOM     30  C   UNL A   1      44.549  24.699  30.748  1.00  0.00     0.028 A 
ATOM     31  C   UNL A   1      45.164  24.913  31.984  1.00  0.00     0.041 A 
BRANCH  31  32
ATOM     32  N   UNL A   1      45.087  23.860  32.917  1.00  0.00    -0.326 N 
ATOM     33  C   UNL A   1      44.273  23.774  34.029  1.00  0.00     0.221 C 
ATOM     34  H   UNL A   1      45.685  23.094  32.757  1.00  0.00     0.169 HD
ATOM     35  C   UNL A   1      44.616  22.590  34.900  1.00  0.00     0.114 C 
ATOM     36  O   UNL A   1      43.374  24.547  34.344  1.00  0.00    -0.275 OA
ENDBRANCH  31  32
ENDBRANCH  13  26
BRANCH  14  37
ATOM     37  C   UNL A   1      48.112  26.635  28.376  1.00  0.00    -0.024 A 
ATOM     38  C   UNL A   1      49.000  27.357  29.197  1.00  0.00     0.006 A 
ATOM     39  C   UNL A   1      48.425  25.300  28.073  1.00  0.00     0.006 A 
ATOM     40  C   UNL A   1      50.158  26.763  29.702  1.00  0.00     0.000 A 
ATOM     41  C   UNL A   1      49.582  24.707  28.584  1.00  0.00     0.000 A 
ATOM     42  C   UNL A   1      50.448  25.436  29.397  1.00  0.00     0.000 A 
ENDBRANCH  14  37
ENDBRANCH   7   8
ENDBRANCH   4   7
ENDBRANCH   2   3
ENDBRANCH   1   2
BRANCH   1  43
ATOM     43  C   UNL A   1      42.678  24.825  25.819  1.00  0.00     0.118 C 
BRANCH  43  44
ATOM     44  N   UNL A   1      41.297  24.370  25.844  1.00  0.00    -0.352 N 
ATOM     45  C   UNL A   1      40.313  24.518  26.790  1.00  0.00     0.251 C 
ATOM     46  H   UNL A   1      41.021  23.868  25.043  1.00  0.00     0.163 HD
ATOM     47  O   UNL A   1      39.309  23.809  26.693  1.00  0.00    -0.269 OA
BRANCH  45  48
ATOM     48  C   UNL A   1      40.399  25.492  27.913  1.00  0.00     0.039 A 
ATOM     49  C   UNL A   1      39.272  25.660  28.732  1.00  0.00     0.014 A 
ATOM     50  C   UNL A   1      41.495  26.342  28.091  1.00  0.00     0.014 A 
ATOM     51  C   UNL A   1      39.248  26.647  29.728  1.00  0.00     0.010 A 
ATOM     52  C   UNL A   1      41.483  27.313  29.103  1.00  0.00     0.010 A 
ATOM     53  C   UNL A   1      40.354  27.486  29.921  1.00  0.00    -0.014 A 
BRANCH  53  54
ATOM     54  C   UNL A   1      40.313  28.598  30.910  1.00  0.00     0.031 A 
ATOM     55  C   UNL A   1      41.271  28.608  32.068  1.00  0.00     0.074 A 
ATOM     56  C   UNL A   1      39.414  29.592  30.801  1.00  0.00     0.049 A 
ATOM     57  N   UNL A   1      41.288  29.389  33.117  1.00  0.00    -0.248 NA
ATOM     58  C   UNL A   1      42.339  27.597  32.047  1.00  0.00     0.031 C 
ATOM     59  C   UNL A   1      38.422  29.718  29.738  1.00  0.00     0.029 A 
ATOM     60  N   UNL A   1      39.182  30.682  31.603  1.00  0.00    -0.354 N 
ATOM     61  C   UNL A   1      42.326  28.928  33.915  1.00  0.00     0.074 A 
ATOM     62  C   UNL A   1      42.944  27.824  33.205  1.00  0.00     0.031 C 
ATOM     63  C   UNL A   1      37.689  30.824  29.946  1.00  0.00     0.029 A 
ATOM     64  C   UNL A   1      38.146  31.474  31.172  1.00  0.00     0.049 A 
ATOM     65  H   UNL A   1      39.709  30.877  32.411  1.00  0.00     0.167 HD
ATOM     66  C   UNL A   1      42.717  29.364  35.136  1.00  0.00     0.037 A 
ATOM     67  C   UNL A   1      37.612  32.587  31.708  1.00  0.00     0.037 A 
ATOM     68  C   UNL A   1      42.143  30.483  35.833  1.00  0.00     0.049 A 
ATOM     69  C   UNL A   1      38.154  33.140  32.991  1.00  0.00     0.074 A 
ATOM     70  C   UNL A   1      42.429  30.954  37.104  1.00  0.00     0.029 A 
ATOM     71  N   UNL A   1      41.186  31.332  35.300  1.00  0.00    -0.354 N 
ATOM     72  N   UNL A   1      39.078  32.639  33.773  1.00  0.00    -0.248 NA
ATOM     73  C   UNL A   1      37.580  34.408  33.467  1.00  0.00     0.031 C 
ATOM     74  C   UNL A   1      41.658  32.105  37.329  1.00  0.00     0.029 A 
ATOM     75  C   UNL A   1      40.893  32.343  36.199  1.00  0.00     0.049 A 
ATOM     76  H   UNL A   1      40.773  31.230  34.412  1.00  0.00     0.167 HD
ATOM     77  C   UNL A   1      39.185  33.517  34.844  1.00  0.00     0.074 A 
ATOM     78  C   UNL A   1      38.248  34.596  34.599  1.00  0.00     0.031 C 
ATOM     79  C   UNL A   1      39.975  33.422  35.941  1.00  0.00     0.037 A 
BRANCH  66  80
ATOM     80  C   UNL A   1      43.802  28.577  35.803  1.00  0.00     0.058 A 
ATOM     81  C   UNL A   1      45.155  28.889  35.612  1.00  0.00     0.135 A 
ATOM     82  C   UNL A   1      43.481  27.466  36.598  1.00  0.00     0.135 A 
ATOM     83  F   UNL A   1      45.505  29.932  34.842  1.00  0.00    -0.206 F 
ATOM     84  C   UNL A   1      46.162  28.104  36.165  1.00  0.00     0.059 A 
ATOM     85  C   UNL A   1      44.471  26.671  37.162  1.00  0.00     0.059 A 
ATOM     86  F   UNL A   1      42.199  27.124  36.796  1.00  0.00    -0.206 F 
ATOM     87  C   UNL A   1      45.809  26.986  36.922  1.00  0.00     0.060 A 
BRANCH  87  88
ATOM     88  S   UNL A   1      47.091  25.910  37.598  1.00  0.00     0.124 S 
ATOM     89  O   UNL A   1      48.303  26.565  37.112  1.00  0.00    -0.237 OA
ATOM     90  O   UNL A   1      46.869  25.988  39.038  1.00  0.00    -0.237 OA
ATOM     91  O   UNL A   1      46.782  24.620  36.989  1.00  0.00    -0.744 OA
ENDBRANCH  87  88
ENDBRANCH  66  80
BRANCH  67  92
ATOM     92  C   UNL A   1      36.474  33.244  31.021  1.00  0.00     0.058 A 
ATOM     93  C   UNL A   1      35.180  33.187  31.555  1.00  0.00     0.135 A 
ATOM     94  C   UNL A   1      36.679  33.991  29.854  1.00  0.00     0.135 A 
ATOM     95  F   UNL A   1      34.946  32.474  32.668  1.00  0.00    -0.206 F 
ATOM     96  C   UNL A   1      34.120  33.865  30.962  1.00  0.00     0.059 A 
ATOM     97  C   UNL A   1      35.636  34.679  29.245  1.00  0.00     0.059 A 
ATOM     98  F   UNL A   1      37.904  34.074  29.313  1.00  0.00    -0.206 F 
ATOM     99  C   UNL A   1      34.360  34.614  29.810  1.00  0.00     0.060 A 
BRANCH  99 100
ATOM    100  S   UNL A   1      33.032  35.590  29.070  1.00  0.00     0.124 S 
ATOM    101  O   UNL A   1      32.262  35.981  30.246  1.00  0.00    -0.237 OA
ATOM    102  O   UNL A   1      33.747  36.667  28.393  1.00  0.00    -0.237 OA
ATOM    103  O   UNL A   1      32.390  34.625  28.182  1.00  0.00    -0.744 OA
ENDBRANCH  99 100
ENDBRANCH  67  92
BRANCH  79 104
ATOM    104  C   UNL A   1      39.858  34.514  36.959  1.00  0.00     0.058 A 
ATOM    105  C   UNL A   1      40.611  35.692  36.841  1.00  0.00     0.135 A 
ATOM    106  C   UNL A   1      38.983  34.395  38.048  1.00  0.00     0.135 A 
ATOM    107  F   UNL A   1      41.463  35.849  35.815  1.00  0.00    -0.206 F 
ATOM    108  C   UNL A   1      40.505  36.717  37.775  1.00  0.00     0.059 A 
ATOM    109  C   UNL A   1      38.863  35.407  38.995  1.00  0.00     0.059 A 
ATOM    110  F   UNL A   1      38.248  33.282  38.205  1.00  0.00    -0.206 F 
ATOM    111  C   UNL A   1      39.635  36.562  38.856  1.00  0.00     0.060 A 
BRANCH 111 112
ATOM    112  S   UNL A   1      39.476  37.890  40.068  1.00  0.00     0.124 S 
ATOM    113  O   UNL A   1      40.753  38.581  39.915  1.00  0.00    -0.237 OA
ATOM    114  O   UNL A   1      38.302  38.623  39.602  1.00  0.00    -0.237 OA
ATOM    115  O   UNL A   1      39.295  37.169  41.324  1.00  0.00    -0.744 OA
ENDBRANCH 111 112
ENDBRANCH  79 104
ENDBRANCH  53  54
ENDBRANCH  45  48
ENDBRANCH  43  44
ENDBRANCH   1  43
TORSDOF 19
ENDMDL
MODEL 2
REMARK VINA RESULT:      -9.5      4.434     12.041
REMARK SMILES CC(=O)Nc1ccc(/N=C2\C(=O)N(c3ccc(NC(C)=O)cc3)[C@H](c3ccccc3)[C@H]2CC(=O)NCCCNC(=O)c2ccc(-c3c4nc(c(-c5c(F)cc(S(=O)(=O)[O-])cc5F)c5ccc([nH]5)c(-c5c(F)cc(S(=O)(=O)[O-])cc5F)c5nc(c(-c6c(F)cc(S(=O)(=O)[O-])cc6F)c6ccc3[nH]6)C=C5)C=C4)cc2)cc1
REMARK SMILES IDX 37 1 36 2 35 3 33 4 34 5 32 7 31 8 9 9 10 10 11 11 12 12
REMARK SMILES IDX 13 13 24 14 8 15 5 16 6 17 109 18 7 19 108 20 4 21 1 22 2 23
REMARK SMILES IDX 3 24 14 26 15 27 23 28 16 29 22 30 17 31 18 32 19 33 20 35
REMARK SMILES IDX 21 36 25 37 26 38 30 39 27 40 29 41 28 42 38 43 39 44 40 45
REMARK SMILES IDX 41 47 42 48 43 49 107 50 44 51 106 52 45 53 46 54 47 55
REMARK SMILES IDX 100 56 48 57 105 58 99 59 101 60 49 61 104 62 98 63 97 64
REMARK SMILES IDX 50 66 84 67 63 68 83 69 64 70 67 71 82 72 102 73 65 74 66 75
REMARK SMILES IDX 81 77 103 78 68 79 51 80 52 81 61 82 53 83 54 84 60 85 62 86
REMARK SMILES IDX 55 87 56 88 57 89 58 90 59 91 85 92 86 93 95 94 87 95 88 96
REMARK SMILES IDX 94 97 96 98 89 99 90 100 91 101 92 102 93 103 69 104 70 105
REMARK SMILES IDX 79 106 71 107 72 108 78 109 80 110 73 111 74 112 75 113
REMARK SMILES IDX 76 114 77 115
REMARK H PARENT 35 6 4 25 18 34 39 46 101 65 67 76
REMARK Flexibility Score: inf
ROOT
ATOM      1  C   UNL A   1      36.422  33.317  29.450  1.00  0.00     0.042 C 
ENDROOT
BRANCH   1   2
ATOM      2  C   UNL A   1      37.937  33.446  29.320  1.00  0.00     0.117 C 
BRANCH   2   3
ATOM      3  N   UNL A   1      38.506  34.297  30.357  1.00  0.00    -0.356 N 
ATOM      4  C   UNL A   1      39.127  33.968  31.524  1.00  0.00     0.220 C 
ATOM      5  O   UNL A   1      39.527  34.875  32.256  1.00  0.00    -0.275 OA
ATOM      6  H   UNL A   1      38.431  35.263  30.186  1.00  0.00     0.163 HD
BRANCH   4   7
ATOM      7  C   UNL A   1      39.359  32.516  31.901  1.00  0.00     0.112 C 
BRANCH   7   8
ATOM      8  C   UNL A   1      40.459  32.397  32.977  1.00  0.00     0.081 C 
ATOM      9  N   UNL A   1      39.674  33.290  35.127  1.00  0.00    -0.247 NA
ATOM     10  C   UNL A   1      39.777  32.289  34.308  1.00  0.00     0.112 C 
ATOM     11  C   UNL A   1      39.420  30.842  34.524  1.00  0.00     0.273 C 
ATOM     12  O   UNL A   1      38.439  30.438  35.108  1.00  0.00    -0.267 OA
ATOM     13  N   UNL A   1      40.465  30.160  33.928  1.00  0.00    -0.299 N 
ATOM     14  C   UNL A   1      41.193  31.017  32.984  1.00  0.00     0.131 C 
BRANCH   9  15
ATOM     15  C   UNL A   1      39.008  33.177  36.359  1.00  0.00     0.064 A 
ATOM     16  C   UNL A   1      37.895  33.232  38.968  1.00  0.00     0.041 A 
ATOM     17  C   UNL A   1      39.268  33.073  38.768  1.00  0.00     0.028 A 
ATOM     18  C   UNL A   1      37.074  33.256  37.844  1.00  0.00     0.028 A 
ATOM     19  C   UNL A   1      39.806  33.020  37.485  1.00  0.00     0.030 A 
ATOM     20  C   UNL A   1      37.627  33.206  36.550  1.00  0.00     0.030 A 
BRANCH  16  21
ATOM     21  N   UNL A   1      37.497  33.372  40.309  1.00  0.00    -0.326 N 
ATOM     22  C   UNL A   1      37.336  31.029  41.160  1.00  0.00     0.114 C 
ATOM     23  C   UNL A   1      37.194  32.509  41.314  1.00  0.00     0.221 C 
ATOM     24  O   UNL A   1      36.764  32.992  42.368  1.00  0.00    -0.275 OA
ATOM     25  H   UNL A   1      37.420  34.314  40.583  1.00  0.00     0.169 HD
ENDBRANCH  16  21
ENDBRANCH   9  15
BRANCH  13  26
ATOM     26  C   UNL A   1      40.923  28.975  34.544  1.00  0.00     0.045 A 
ATOM     27  C   UNL A   1      41.404  29.012  35.854  1.00  0.00     0.028 A 
ATOM     28  C   UNL A   1      41.171  27.837  33.774  1.00  0.00     0.028 A 
ATOM     29  C   UNL A   1      42.113  27.924  36.388  1.00  0.00     0.028 A 
ATOM     30  C   UNL A   1      41.895  26.763  34.296  1.00  0.00     0.028 A 
ATOM     31  C   UNL A   1      42.388  26.805  35.601  1.00  0.00     0.041 A 
BRANCH  31  32
ATOM     32  N   UNL A   1      43.209  25.732  36.001  1.00  0.00    -0.326 N 
ATOM     33  C   UNL A   1      43.872  25.576  37.202  1.00  0.00     0.221 C 
ATOM     34  H   UNL A   1      43.324  25.007  35.344  1.00  0.00     0.169 HD
ATOM     35  C   UNL A   1      44.816  24.398  37.187  1.00  0.00     0.114 C 
ATOM     36  O   UNL A   1      43.770  26.288  38.196  1.00  0.00    -0.275 OA
ENDBRANCH  31  32
ENDBRANCH  13  26
BRANCH  14  37
ATOM     37  C   UNL A   1      42.701  31.105  33.148  1.00  0.00    -0.024 A 
ATOM     38  C   UNL A   1      43.525  30.368  32.274  1.00  0.00     0.006 A 
ATOM     39  C   UNL A   1      43.317  31.875  34.148  1.00  0.00     0.006 A 
ATOM     40  C   UNL A   1      44.915  30.405  32.393  1.00  0.00     0.000 A 
ATOM     41  C   UNL A   1      44.709  31.914  34.261  1.00  0.00     0.000 A 
ATOM     42  C   UNL A   1      45.507  31.181  33.385  1.00  0.00     0.000 A 
ENDBRANCH  14  37
ENDBRANCH   7   8
ENDBRANCH   4   7
ENDBRANCH   2   3
ENDBRANCH   1   2
BRANCH   1  43
ATOM     43  C   UNL A   1      35.972  32.314  30.517  1.00  0.00     0.118 C 
BRANCH  43  44
ATOM     44  N   UNL A   1      35.362  31.138  29.918  1.00  0.00    -0.352 N 
ATOM     45  C   UNL A   1      35.895  30.135  29.146  1.00  0.00     0.251 C 
ATOM     46  H   UNL A   1      34.398  31.044  30.098  1.00  0.00     0.163 HD
ATOM     47  O   UNL A   1      35.116  29.399  28.539  1.00  0.00    -0.269 OA
BRANCH  45  48
ATOM     48  C   UNL A   1      37.359  29.897  29.014  1.00  0.00     0.039 A 
ATOM     49  C   UNL A   1      37.918  29.903  27.727  1.00  0.00     0.014 A 
ATOM     50  C   UNL A   1      38.163  29.526  30.097  1.00  0.00     0.014 A 
ATOM     51  C   UNL A   1      39.264  29.566  27.526  1.00  0.00     0.010 A 
ATOM     52  C   UNL A   1      39.516  29.213  29.901  1.00  0.00     0.010 A 
ATOM     53  C   UNL A   1      40.076  29.215  28.613  1.00  0.00    -0.014 A 
BRANCH  53  54
ATOM     54  C   UNL A   1      41.480  28.765  28.411  1.00  0.00     0.031 A 
ATOM     55  C   UNL A   1      42.608  29.752  28.525  1.00  0.00     0.074 A 
ATOM     56  C   UNL A   1      41.763  27.487  28.102  1.00  0.00     0.049 A 
ATOM     57  N   UNL A   1      43.872  29.598  28.225  1.00  0.00    -0.248 NA
ATOM     58  C   UNL A   1      42.263  31.089  29.029  1.00  0.00     0.031 C 
ATOM     59  C   UNL A   1      40.780  26.418  27.954  1.00  0.00     0.029 A 
ATOM     60  N   UNL A   1      42.964  26.872  27.846  1.00  0.00    -0.354 N 
ATOM     61  C   UNL A   1      44.465  30.834  28.443  1.00  0.00     0.074 A 
ATOM     62  C   UNL A   1      43.428  31.716  28.943  1.00  0.00     0.031 C 
ATOM     63  C   UNL A   1      41.413  25.276  27.638  1.00  0.00     0.029 A 
ATOM     64  C   UNL A   1      42.847  25.538  27.540  1.00  0.00     0.049 A 
ATOM     65  H   UNL A   1      43.828  27.343  27.879  1.00  0.00     0.167 HD
ATOM     66  C   UNL A   1      45.749  31.210  28.225  1.00  0.00     0.037 A 
ATOM     67  C   UNL A   1      43.782  24.630  27.202  1.00  0.00     0.037 A 
ATOM     68  C   UNL A   1      46.796  30.337  27.771  1.00  0.00     0.049 A 
ATOM     69  C   UNL A   1      45.223  25.034  27.107  1.00  0.00     0.074 A 
ATOM     70  C   UNL A   1      48.110  30.646  27.458  1.00  0.00     0.029 A 
ATOM     71  N   UNL A   1      46.659  28.968  27.600  1.00  0.00    -0.354 N 
ATOM     72  N   UNL A   1      45.749  26.227  27.231  1.00  0.00    -0.248 NA
ATOM     73  C   UNL A   1      46.196  23.969  26.822  1.00  0.00     0.031 C 
ATOM     74  C   UNL A   1      48.772  29.456  27.118  1.00  0.00     0.029 A 
ATOM     75  C   UNL A   1      47.868  28.412  27.219  1.00  0.00     0.049 A 
ATOM     76  H   UNL A   1      45.822  28.465  27.730  1.00  0.00     0.167 HD
ATOM     77  C   UNL A   1      47.112  26.062  27.021  1.00  0.00     0.074 A 
ATOM     78  C   UNL A   1      47.335  24.650  26.785  1.00  0.00     0.031 C 
ATOM     79  C   UNL A   1      48.086  27.005  27.005  1.00  0.00     0.037 A 
BRANCH  66  80
ATOM     80  C   UNL A   1      46.059  32.658  28.442  1.00  0.00     0.058 A 
ATOM     81  C   UNL A   1      45.827  33.614  27.443  1.00  0.00     0.135 A 
ATOM     82  C   UNL A   1      46.645  33.082  29.645  1.00  0.00     0.135 A 
ATOM     83  F   UNL A   1      45.287  33.247  26.270  1.00  0.00    -0.206 F 
ATOM     84  C   UNL A   1      46.195  34.944  27.617  1.00  0.00     0.059 A 
ATOM     85  C   UNL A   1      47.016  34.406  29.841  1.00  0.00     0.059 A 
ATOM     86  F   UNL A   1      46.896  32.198  30.622  1.00  0.00    -0.206 F 
ATOM     87  C   UNL A   1      46.807  35.326  28.812  1.00  0.00     0.060 A 
BRANCH  87  88
ATOM     88  S   UNL A   1      47.355  37.030  29.044  1.00  0.00     0.124 S 
ATOM     89  O   UNL A   1      46.899  37.298  30.405  1.00  0.00    -0.237 OA
ATOM     90  O   UNL A   1      48.802  36.943  28.871  1.00  0.00    -0.237 OA
ATOM     91  O   UNL A   1      46.644  37.742  27.987  1.00  0.00    -0.744 OA
ENDBRANCH  87  88
ENDBRANCH  66  80
BRANCH  67  92
ATOM     92  C   UNL A   1      43.364  23.239  26.912  1.00  0.00     0.058 A 
ATOM     93  C   UNL A   1      43.372  22.742  25.602  1.00  0.00     0.135 A 
ATOM     94  C   UNL A   1      43.010  22.367  27.951  1.00  0.00     0.135 A 
ATOM     95  F   UNL A   1      43.698  23.550  24.582  1.00  0.00    -0.206 F 
ATOM     96  C   UNL A   1      43.058  21.415  25.327  1.00  0.00     0.059 A 
ATOM     97  C   UNL A   1      42.696  21.036  27.701  1.00  0.00     0.059 A 
ATOM     98  F   UNL A   1      42.995  22.802  29.220  1.00  0.00    -0.206 F 
ATOM     99  C   UNL A   1      42.727  20.568  26.386  1.00  0.00     0.060 A 
BRANCH  99 100
ATOM    100  S   UNL A   1      42.413  18.815  26.080  1.00  0.00     0.124 S 
ATOM    101  O   UNL A   1      43.371  18.524  25.019  1.00  0.00    -0.237 OA
ATOM    102  O   UNL A   1      42.691  18.197  27.373  1.00  0.00    -0.237 OA
ATOM    103  O   UNL A   1      41.007  18.812  25.687  1.00  0.00    -0.744 OA
ENDBRANCH  99 100
ENDBRANCH  67  92
BRANCH  79 104
ATOM    104  C   UNL A   1      49.479  26.537  26.721  1.00  0.00     0.058 A 
ATOM    105  C   UNL A   1      49.995  26.561  25.416  1.00  0.00     0.135 A 
ATOM    106  C   UNL A   1      50.311  26.077  27.752  1.00  0.00     0.135 A 
ATOM    107  F   UNL A   1      49.233  26.991  24.397  1.00  0.00    -0.206 F 
ATOM    108  C   UNL A   1      51.290  26.137  25.140  1.00  0.00     0.059 A 
ATOM    109  C   UNL A   1      51.610  25.646  27.498  1.00  0.00     0.059 A 
ATOM    110  F   UNL A   1      49.857  26.030  29.014  1.00  0.00    -0.206 F 
ATOM    111  C   UNL A   1      52.088  25.671  26.187  1.00  0.00     0.060 A 
BRANCH 111 112
ATOM    112  S   UNL A   1      53.777  25.131  25.846  1.00  0.00     0.124 S 
ATOM    113  O   UNL A   1      54.138  25.991  24.723  1.00  0.00    -0.237 OA
ATOM    114  O   UNL A   1      54.471  25.408  27.101  1.00  0.00    -0.237 OA
ATOM    115  O   UNL A   1      53.612  23.715  25.531  1.00  0.00    -0.744 OA
ENDBRANCH 111 112
ENDBRANCH  79 104
ENDBRANCH  53  54
ENDBRANCH  45  48
ENDBRANCH  43  44
ENDBRANCH   1  43
TORSDOF 19
ENDMDL
MODEL 3
REMARK VINA RESULT:      -9.4      5.696     14.095
REMARK SMILES CC(=O)Nc1ccc(/N=C2\C(=O)N(c3ccc(NC(C)=O)cc3)[C@H](c3ccccc3)[C@H]2CC(=O)NCCCNC(=O)c2ccc(-c3c4nc(c(-c5c(F)cc(S(=O)(=O)[O-])cc5F)c5ccc([nH]5)c(-c5c(F)cc(S(=O)(=O)[O-])cc5F)c5nc(c(-c6c(F)cc(S(=O)(=O)[O-])cc6F)c6ccc3[nH]6)C=C5)C=C4)cc2)cc1
REMARK SMILES IDX 37 1 36 2 35 3 33 4 34 5 32 7 31 8 9 9 10 10 11 11 12 12
REMARK SMILES IDX 13 13 24 14 8 15 5 16 6 17 109 18 7 19 108 20 4 21 1 22 2 23
REMARK SMILES IDX 3 24 14 26 15 27 23 28 16 29 22 30 17 31 18 32 19 33 20 35
REMARK SMILES IDX 21 36 25 37 26 38 30 39 27 40 29 41 28 42 38 43 39 44 40 45
REMARK SMILES IDX 41 47 42 48 43 49 107 50 44 51 106 52 45 53 46 54 47 55
REMARK SMILES IDX 100 56 48 57 105 58 99 59 101 60 49 61 104 62 98 63 97 64
REMARK SMILES IDX 50 66 84 67 63 68 83 69 64 70 67 71 82 72 102 73 65 74 66 75
REMARK SMILES IDX 81 77 103 78 68 79 51 80 52 81 61 82 53 83 54 84 60 85 62 86
REMARK SMILES IDX 55 87 56 88 57 89 58 90 59 91 85 92 86 93 95 94 87 95 88 96
REMARK SMILES IDX 94 97 96 98 89 99 90 100 91 101 92 102 93 103 69 104 70 105
REMARK SMILES IDX 79 106 71 107 72 108 78 109 80 110 73 111 74 112 75 113
REMARK SMILES IDX 76 114 77 115
REMARK H PARENT 35 6 4 25 18 34 39 46 101 65 67 76
REMARK Flexibility Score: inf
ROOT
ATOM      1  C   UNL A   1      50.107  38.184  27.455  1.00  0.00     0.042 C 
ENDROOT
BRANCH   1   2
ATOM      2  C   UNL A   1      48.990  39.203  27.659  1.00  0.00     0.117 C 
BRANCH   2   3
ATOM      3  N   UNL A   1      48.261  39.473  26.426  1.00  0.00    -0.356 N 
ATOM      4  C   UNL A   1      47.120  38.913  25.937  1.00  0.00     0.220 C 
ATOM      5  O   UNL A   1      46.687  39.306  24.852  1.00  0.00    -0.275 OA
ATOM      6  H   UNL A   1      48.656  40.173  25.857  1.00  0.00     0.163 HD
BRANCH   4   7
ATOM      7  C   UNL A   1      46.371  37.854  26.726  1.00  0.00     0.112 C 
BRANCH   7   8
ATOM      8  C   UNL A   1      44.865  38.185  26.795  1.00  0.00     0.081 C 
ATOM      9  N   UNL A   1      43.639  36.419  27.984  1.00  0.00    -0.247 NA
ATOM     10  C   UNL A   1      44.314  37.525  28.025  1.00  0.00     0.112 C 
ATOM     11  C   UNL A   1      44.564  38.447  29.190  1.00  0.00     0.273 C 
ATOM     12  O   UNL A   1      44.807  38.099  30.324  1.00  0.00    -0.267 OA
ATOM     13  N   UNL A   1      44.424  39.707  28.639  1.00  0.00    -0.299 N 
ATOM     14  C   UNL A   1      44.559  39.671  27.178  1.00  0.00     0.131 C 
BRANCH   9  15
ATOM     15  C   UNL A   1      43.154  35.801  29.149  1.00  0.00     0.064 A 
ATOM     16  C   UNL A   1      42.026  34.286  31.266  1.00  0.00     0.041 A 
ATOM     17  C   UNL A   1      41.247  34.726  30.193  1.00  0.00     0.028 A 
ATOM     18  C   UNL A   1      43.352  34.704  31.319  1.00  0.00     0.028 A 
ATOM     19  C   UNL A   1      41.799  35.492  29.171  1.00  0.00     0.030 A 
ATOM     20  C   UNL A   1      43.905  35.474  30.278  1.00  0.00     0.030 A 
BRANCH  16  21
ATOM     21  N   UNL A   1      41.369  33.437  32.174  1.00  0.00    -0.326 N 
ATOM     22  C   UNL A   1      40.611  34.955  34.008  1.00  0.00     0.114 C 
ATOM     23  C   UNL A   1      40.770  33.607  33.382  1.00  0.00     0.221 C 
ATOM     24  O   UNL A   1      40.379  32.592  33.970  1.00  0.00    -0.275 OA
ATOM     25  H   UNL A   1      41.337  32.504  31.863  1.00  0.00     0.169 HD
ENDBRANCH  16  21
ENDBRANCH   9  15
BRANCH  13  26
ATOM     26  C   UNL A   1      43.813  40.711  29.421  1.00  0.00     0.045 A 
ATOM     27  C   UNL A   1      44.571  41.784  29.894  1.00  0.00     0.028 A 
ATOM     28  C   UNL A   1      42.544  40.500  29.966  1.00  0.00     0.028 A 
ATOM     29  C   UNL A   1      44.065  42.637  30.888  1.00  0.00     0.028 A 
ATOM     30  C   UNL A   1      42.049  41.333  30.970  1.00  0.00     0.028 A 
ATOM     31  C   UNL A   1      42.812  42.398  31.453  1.00  0.00     0.041 A 
BRANCH  31  32
ATOM     32  N   UNL A   1      42.283  43.108  32.549  1.00  0.00    -0.326 N 
ATOM     33  C   UNL A   1      42.468  44.440  32.862  1.00  0.00     0.221 C 
ATOM     34  H   UNL A   1      41.713  42.593  33.164  1.00  0.00     0.169 HD
ATOM     35  C   UNL A   1      41.910  44.793  34.219  1.00  0.00     0.114 C 
ATOM     36  O   UNL A   1      43.031  45.286  32.174  1.00  0.00    -0.275 OA
ENDBRANCH  31  32
ENDBRANCH  13  26
BRANCH  14  37
ATOM     37  C   UNL A   1      43.452  40.316  26.362  1.00  0.00    -0.024 A 
ATOM     38  C   UNL A   1      42.125  39.880  26.550  1.00  0.00     0.006 A 
ATOM     39  C   UNL A   1      43.691  41.317  25.407  1.00  0.00     0.006 A 
ATOM     40  C   UNL A   1      41.075  40.431  25.815  1.00  0.00     0.000 A 
ATOM     41  C   UNL A   1      42.637  41.870  24.675  1.00  0.00     0.000 A 
ATOM     42  C   UNL A   1      41.331  41.429  24.879  1.00  0.00     0.000 A 
ENDBRANCH  14  37
ENDBRANCH   7   8
ENDBRANCH   4   7
ENDBRANCH   2   3
ENDBRANCH   1   2
BRANCH   1  43
ATOM     43  C   UNL A   1      50.077  37.020  28.450  1.00  0.00     0.118 C 
BRANCH  43  44
ATOM     44  N   UNL A   1      49.164  37.283  29.550  1.00  0.00    -0.352 N 
ATOM     45  C   UNL A   1      48.070  36.589  30.005  1.00  0.00     0.251 C 
ATOM     46  H   UNL A   1      49.367  38.102  30.059  1.00  0.00     0.163 HD
ATOM     47  O   UNL A   1      47.307  37.163  30.784  1.00  0.00    -0.269 OA
BRANCH  45  48
ATOM     48  C   UNL A   1      47.770  35.186  29.606  1.00  0.00     0.039 A 
ATOM     49  C   UNL A   1      47.212  34.964  28.337  1.00  0.00     0.014 A 
ATOM     50  C   UNL A   1      47.883  34.111  30.492  1.00  0.00     0.014 A 
ATOM     51  C   UNL A   1      46.795  33.682  27.951  1.00  0.00     0.010 A 
ATOM     52  C   UNL A   1      47.489  32.823  30.098  1.00  0.00     0.010 A 
ATOM     53  C   UNL A   1      46.928  32.598  28.831  1.00  0.00    -0.014 A 
BRANCH  53  54
ATOM     54  C   UNL A   1      46.407  31.250  28.475  1.00  0.00     0.031 A 
ATOM     55  C   UNL A   1      44.948  30.939  28.653  1.00  0.00     0.074 A 
ATOM     56  C   UNL A   1      47.226  30.288  28.013  1.00  0.00     0.049 A 
ATOM     57  N   UNL A   1      44.333  29.787  28.560  1.00  0.00    -0.248 NA
ATOM     58  C   UNL A   1      44.071  32.068  28.995  1.00  0.00     0.031 C 
ATOM     59  C   UNL A   1      48.661  30.437  27.791  1.00  0.00     0.029 A 
ATOM     60  N   UNL A   1      46.968  28.987  27.659  1.00  0.00    -0.354 N 
ATOM     61  C   UNL A   1      43.009  30.038  28.892  1.00  0.00     0.074 A 
ATOM     62  C   UNL A   1      42.902  31.462  29.147  1.00  0.00     0.031 C 
ATOM     63  C   UNL A   1      49.161  29.278  27.333  1.00  0.00     0.029 A 
ATOM     64  C   UNL A   1      48.083  28.295  27.251  1.00  0.00     0.049 A 
ATOM     65  H   UNL A   1      46.070  28.587  27.695  1.00  0.00     0.167 HD
ATOM     66  C   UNL A   1      41.980  29.164  29.000  1.00  0.00     0.037 A 
ATOM     67  C   UNL A   1      48.228  27.012  26.868  1.00  0.00     0.037 A 
ATOM     68  C   UNL A   1      42.061  27.758  28.708  1.00  0.00     0.049 A 
ATOM     69  C   UNL A   1      47.044  26.092  26.856  1.00  0.00     0.074 A 
ATOM     70  C   UNL A   1      41.087  26.784  28.855  1.00  0.00     0.029 A 
ATOM     71  N   UNL A   1      43.174  27.130  28.174  1.00  0.00    -0.354 N 
ATOM     72  N   UNL A   1      45.820  26.328  27.258  1.00  0.00    -0.248 NA
ATOM     73  C   UNL A   1      47.262  24.732  26.341  1.00  0.00     0.031 C 
ATOM     74  C   UNL A   1      41.609  25.568  28.386  1.00  0.00     0.029 A 
ATOM     75  C   UNL A   1      42.905  25.790  27.953  1.00  0.00     0.049 A 
ATOM     76  H   UNL A   1      44.033  27.572  27.981  1.00  0.00     0.167 HD
ATOM     77  C   UNL A   1      45.123  25.141  27.063  1.00  0.00     0.074 A 
ATOM     78  C   UNL A   1      46.056  24.195  26.485  1.00  0.00     0.031 C 
ATOM     79  C   UNL A   1      43.831  24.860  27.360  1.00  0.00     0.037 A 
BRANCH  66  80
ATOM     80  C   UNL A   1      40.686  29.724  29.501  1.00  0.00     0.058 A 
ATOM     81  C   UNL A   1      40.514  30.078  30.846  1.00  0.00     0.135 A 
ATOM     82  C   UNL A   1      39.591  29.856  28.633  1.00  0.00     0.135 A 
ATOM     83  F   UNL A   1      41.530  29.947  31.714  1.00  0.00    -0.206 F 
ATOM     84  C   UNL A   1      39.284  30.518  31.326  1.00  0.00     0.059 A 
ATOM     85  C   UNL A   1      38.355  30.298  29.091  1.00  0.00     0.059 A 
ATOM     86  F   UNL A   1      39.708  29.517  27.341  1.00  0.00    -0.206 F 
ATOM     87  C   UNL A   1      38.206  30.606  30.444  1.00  0.00     0.060 A 
BRANCH  87  88
ATOM     88  S   UNL A   1      36.582  31.111  31.047  1.00  0.00     0.124 S 
ATOM     89  O   UNL A   1      36.016  29.830  31.458  1.00  0.00    -0.237 OA
ATOM     90  O   UNL A   1      36.900  32.035  32.132  1.00  0.00    -0.237 OA
ATOM     91  O   UNL A   1      35.977  31.722  29.868  1.00  0.00    -0.744 OA
ENDBRANCH  87  88
ENDBRANCH  66  80
BRANCH  67  92
ATOM     92  C   UNL A   1      49.571  26.523  26.479  1.00  0.00     0.058 A 
ATOM     93  C   UNL A   1      50.039  26.668  25.166  1.00  0.00     0.135 A 
ATOM     94  C   UNL A   1      50.431  25.961  27.433  1.00  0.00     0.135 A 
ATOM     95  F   UNL A   1      49.241  27.195  24.226  1.00  0.00    -0.206 F 
ATOM     96  C   UNL A   1      51.328  26.284  24.809  1.00  0.00     0.059 A 
ATOM     97  C   UNL A   1      51.724  25.573  27.100  1.00  0.00     0.059 A 
ATOM     98  F   UNL A   1      50.023  25.810  28.702  1.00  0.00    -0.206 F 
ATOM     99  C   UNL A   1      52.165  25.744  25.786  1.00  0.00     0.060 A 
BRANCH  99 100
ATOM    100  S   UNL A   1      53.877  25.329  25.383  1.00  0.00     0.124 S 
ATOM    101  O   UNL A   1      54.454  25.139  26.709  1.00  0.00    -0.237 OA
ATOM    102  O   UNL A   1      53.744  24.125  24.569  1.00  0.00    -0.237 OA
ATOM    103  O   UNL A   1      54.325  26.514  24.658  1.00  0.00    -0.744 OA
ENDBRANCH  99 100
ENDBRANCH  67  92
BRANCH  79 104
ATOM    104  C   UNL A   1      43.353  23.473  27.064  1.00  0.00     0.058 A 
ATOM    105  C   UNL A   1      43.166  22.541  28.096  1.00  0.00     0.135 A 
ATOM    106  C   UNL A   1      43.066  23.072  25.751  1.00  0.00     0.135 A 
ATOM    107  F   UNL A   1      43.431  22.880  29.368  1.00  0.00    -0.206 F 
ATOM    108  C   UNL A   1      42.715  21.251  27.836  1.00  0.00     0.059 A 
ATOM    109  C   UNL A   1      42.615  21.786  25.468  1.00  0.00     0.059 A 
ATOM    110  F   UNL A   1      43.237  23.928  24.732  1.00  0.00    -0.206 F 
ATOM    111  C   UNL A   1      42.451  20.879  26.517  1.00  0.00     0.060 A 
BRANCH 111 112
ATOM    112  S   UNL A   1      41.850  19.213  26.166  1.00  0.00     0.124 S 
ATOM    113  O   UNL A   1      42.649  18.853  24.999  1.00  0.00    -0.237 OA
ATOM    114  O   UNL A   1      42.161  18.486  27.393  1.00  0.00    -0.237 OA
ATOM    115  O   UNL A   1      40.426  19.423  25.917  1.00  0.00    -0.744 OA
ENDBRANCH 111 112
ENDBRANCH  79 104
ENDBRANCH  53  54
ENDBRANCH  45  48
ENDBRANCH  43  44
ENDBRANCH   1  43
TORSDOF 19
ENDMDL
