MODEL 1
REMARK VINA RESULT:      -9.0      0.000      0.000
REMARK SMILES CC[C@@H](C)[C@H](NC(=O)[C@H](C)N1C(=O)N2CCC3=c4cc(OC)ccc4=N[C@H]3[C@@]2(C)C1=O)C(=O)NCCCNC(=O)c1ccc(-c2c3nc(c(-c4c(F)cc(S(=O)(=O)[O-])cc4F)c4ccc([nH]4)c(-c4c(F)cc(S(=O)(=O)[O-])cc4F)c4nc(c(-c5c(F)cc(S(=O)(=O)[O-])cc5F)c5ccc2[nH]5)C=C4)C=C3)cc1
REMARK SMILES IDX 35 1 34 2 32 3 33 4 5 6 3 7 4 8 2 9 1 10 6 11 7 12 8 14 9 15
REMARK SMILES IDX 10 16 11 17 12 18 30 19 14 20 13 21 28 22 31 23 15 24 27 25
REMARK SMILES IDX 29 26 16 27 17 28 26 29 18 30 25 31 19 32 24 33 20 34 23 35
REMARK SMILES IDX 21 36 22 37 36 38 37 39 38 40 39 41 40 43 41 44 42 45 106 46
REMARK SMILES IDX 43 47 105 48 44 49 45 50 46 51 99 52 47 53 104 54 98 55
REMARK SMILES IDX 100 56 48 57 103 58 97 59 96 60 49 62 83 63 62 64 82 65
REMARK SMILES IDX 63 66 66 67 81 68 101 69 64 70 65 71 80 73 102 74 67 75
REMARK SMILES IDX 50 76 51 77 60 78 52 79 53 80 59 81 61 82 54 83 55 84 56 85
REMARK SMILES IDX 57 86 58 87 84 88 85 89 94 90 86 91 87 92 93 93 95 94 88 95
REMARK SMILES IDX 89 96 90 97 91 98 92 99 68 100 69 101 78 102 70 103 71 104
REMARK SMILES IDX 77 105 79 106 72 107 73 108 74 109 75 110 76 111
REMARK H PARENT 34 5 6 13 38 42 100 61 66 72
REMARK Flexibility Score: inf
ROOT
ATOM      1  C   UNL A   1      37.807  32.881  34.643  1.00  0.00     0.117 C 
ENDROOT
BRANCH   1   2
ATOM      2  N   UNL A   1      39.096  33.543  34.722  1.00  0.00    -0.354 N 
ATOM      3  C   UNL A   1      40.161  33.217  35.509  1.00  0.00     0.242 C 
ATOM      4  O   UNL A   1      41.246  33.754  35.271  1.00  0.00    -0.273 OA
ATOM      5  H   UNL A   1      39.216  34.324  34.135  1.00  0.00     0.163 HD
BRANCH   3   6
ATOM      6  C   UNL A   1      39.993  32.273  36.716  1.00  0.00     0.174 C 
BRANCH   6   7
ATOM      7  C   UNL A   1      39.601  33.034  38.055  1.00  0.00     0.018 C 
ATOM      8  C   UNL A   1      39.033  34.456  37.977  1.00  0.00     0.010 C 
BRANCH   7   9
ATOM      9  C   UNL A   1      40.641  32.933  39.185  1.00  0.00     0.002 C 
ATOM     10  C   UNL A   1      40.100  33.231  40.589  1.00  0.00     0.004 C 
ENDBRANCH   7   9
ENDBRANCH   6   7
BRANCH   6  11
ATOM     11  N   UNL A   1      40.912  31.113  36.497  1.00  0.00    -0.342 N 
ATOM     12  C   UNL A   1      40.870  30.112  35.543  1.00  0.00     0.243 C 
ATOM     13  H   UNL A   1      41.665  31.053  37.129  1.00  0.00     0.164 HD
ATOM     14  O   UNL A   1      39.716  29.817  35.284  1.00  0.00    -0.273 OA
BRANCH  12  15
ATOM     15  C   UNL A   1      42.380  29.331  35.076  1.00  0.00     0.181 C 
ATOM     16  C   UNL A   1      42.415  28.415  36.395  1.00  0.00     0.042 C 
BRANCH  15  17
ATOM     17  N   UNL A   1      43.991  29.701  34.733  1.00  0.00    -0.250 N 
ATOM     18  C   UNL A   1      45.427  29.605  35.146  1.00  0.00     0.328 C 
ATOM     19  C   UNL A   1      44.120  30.802  33.969  1.00  0.00     0.259 C 
ATOM     20  N   UNL A   1      46.309  30.377  33.981  1.00  0.00    -0.307 N 
ATOM     21  O   UNL A   1      45.917  29.141  36.159  1.00  0.00    -0.248 OA
ATOM     22  C   UNL A   1      45.263  30.484  33.088  1.00  0.00     0.147 C 
ATOM     23  O   UNL A   1      43.548  31.846  34.066  1.00  0.00    -0.271 OA
ATOM     24  C   UNL A   1      47.624  29.983  32.914  1.00  0.00     0.127 C 
ATOM     25  C   UNL A   1      45.252  28.919  32.686  1.00  0.00     0.168 C 
ATOM     26  C   UNL A   1      45.500  31.744  32.232  1.00  0.00     0.048 C 
ATOM     27  C   UNL A   1      46.974  29.334  31.240  1.00  0.00     0.055 C 
ATOM     28  C   UNL A   1      45.385  28.597  31.302  1.00  0.00    -0.032 C 
ATOM     29  N   UNL A   1      45.843  27.568  33.430  1.00  0.00    -0.274 NA
ATOM     30  C   UNL A   1      44.791  27.342  31.437  1.00  0.00     0.005 A 
ATOM     31  C   UNL A   1      45.761  26.743  32.388  1.00  0.00     0.066 A 
ATOM     32  C   UNL A   1      43.486  27.069  32.466  1.00  0.00     0.056 A 
ATOM     33  C   UNL A   1      45.709  25.274  32.460  1.00  0.00     0.032 A 
ATOM     34  C   UNL A   1      43.683  26.070  33.427  1.00  0.00     0.119 A 
ATOM     35  C   UNL A   1      44.546  24.969  33.051  1.00  0.00     0.048 A 
BRANCH  34  36
ATOM     36  O   UNL A   1      43.297  25.942  34.736  1.00  0.00    -0.497 OA
ATOM     37  C   UNL A   1      42.327  24.978  35.253  1.00  0.00     0.278 C 
ENDBRANCH  34  36
ENDBRANCH  15  17
ENDBRANCH  12  15
ENDBRANCH   6  11
ENDBRANCH   3   6
ENDBRANCH   1   2
BRANCH   1  38
ATOM     38  C   UNL A   1      36.895  33.366  33.546  1.00  0.00     0.042 C 
BRANCH  38  39
ATOM     39  C   UNL A   1      37.157  32.718  32.203  1.00  0.00     0.118 C 
BRANCH  39  40
ATOM     40  N   UNL A   1      36.475  31.437  32.024  1.00  0.00    -0.352 N 
ATOM     41  C   UNL A   1      36.887  30.281  31.401  1.00  0.00     0.251 C 
ATOM     42  H   UNL A   1      35.571  31.394  32.413  1.00  0.00     0.163 HD
ATOM     43  O   UNL A   1      36.102  29.351  31.249  1.00  0.00    -0.269 OA
BRANCH  41  44
ATOM     44  C   UNL A   1      38.265  30.190  30.877  1.00  0.00     0.039 A 
ATOM     45  C   UNL A   1      38.522  30.462  29.537  1.00  0.00     0.014 A 
ATOM     46  C   UNL A   1      39.298  29.765  31.718  1.00  0.00     0.014 A 
ATOM     47  C   UNL A   1      39.725  30.063  28.979  1.00  0.00     0.010 A 
ATOM     48  C   UNL A   1      40.559  29.502  31.177  1.00  0.00     0.010 A 
ATOM     49  C   UNL A   1      40.766  29.591  29.792  1.00  0.00    -0.014 A 
BRANCH  49  50
ATOM     50  C   UNL A   1      42.062  29.215  29.171  1.00  0.00     0.031 A 
ATOM     51  C   UNL A   1      42.287  27.820  28.647  1.00  0.00     0.074 A 
ATOM     52  C   UNL A   1      43.015  30.158  29.030  1.00  0.00     0.049 A 
ATOM     53  N   UNL A   1      43.383  27.292  28.163  1.00  0.00    -0.248 NA
ATOM     54  C   UNL A   1      41.140  26.897  28.664  1.00  0.00     0.031 C 
ATOM     55  C   UNL A   1      42.889  31.558  29.454  1.00  0.00     0.029 A 
ATOM     56  N   UNL A   1      44.265  30.097  28.473  1.00  0.00    -0.354 N 
ATOM     57  C   UNL A   1      43.065  25.977  27.838  1.00  0.00     0.074 A 
ATOM     58  C   UNL A   1      41.679  25.777  28.199  1.00  0.00     0.031 C 
ATOM     59  C   UNL A   1      43.988  32.232  29.087  1.00  0.00     0.029 A 
ATOM     60  C   UNL A   1      44.936  31.297  28.500  1.00  0.00     0.049 A 
ATOM     61  H   UNL A   1      44.646  29.274  28.090  1.00  0.00     0.167 HD
ATOM     62  C   UNL A   1      43.860  25.032  27.282  1.00  0.00     0.037 A 
ATOM     63  C   UNL A   1      46.193  31.605  28.132  1.00  0.00     0.037 A 
ATOM     64  C   UNL A   1      45.234  25.253  26.908  1.00  0.00     0.049 A 
ATOM     65  C   UNL A   1      47.073  30.513  27.595  1.00  0.00     0.074 A 
ATOM     66  C   UNL A   1      46.139  24.351  26.375  1.00  0.00     0.029 A 
ATOM     67  N   UNL A   1      45.897  26.469  27.007  1.00  0.00    -0.354 N 
ATOM     68  N   UNL A   1      46.780  29.255  27.371  1.00  0.00    -0.248 NA
ATOM     69  C   UNL A   1      48.458  30.880  27.277  1.00  0.00     0.031 C 
ATOM     70  C   UNL A   1      47.357  25.011  26.181  1.00  0.00     0.029 A 
ATOM     71  C   UNL A   1      47.196  26.339  26.544  1.00  0.00     0.049 A 
ATOM     72  H   UNL A   1      45.502  27.300  27.355  1.00  0.00     0.167 HD
ATOM     73  C   UNL A   1      47.936  28.686  26.853  1.00  0.00     0.074 A 
ATOM     74  C   UNL A   1      48.927  29.741  26.787  1.00  0.00     0.031 C 
ATOM     75  C   UNL A   1      48.160  27.406  26.468  1.00  0.00     0.037 A 
BRANCH  62  76
ATOM     76  C   UNL A   1      43.283  23.663  27.037  1.00  0.00     0.058 A 
ATOM     77  C   UNL A   1      42.869  23.258  25.757  1.00  0.00     0.135 A 
ATOM     78  C   UNL A   1      43.248  22.709  28.066  1.00  0.00     0.135 A 
ATOM     79  F   UNL A   1      42.860  24.136  24.742  1.00  0.00    -0.206 F 
ATOM     80  C   UNL A   1      42.454  21.953  25.506  1.00  0.00     0.059 A 
ATOM     81  C   UNL A   1      42.859  21.392  27.833  1.00  0.00     0.059 A 
ATOM     82  F   UNL A   1      43.627  23.044  29.311  1.00  0.00    -0.206 F 
ATOM     83  C   UNL A   1      42.465  21.023  26.548  1.00  0.00     0.060 A 
BRANCH  83  84
ATOM     84  S   UNL A   1      41.992  19.318  26.189  1.00  0.00     0.124 S 
ATOM     85  O   UNL A   1      42.797  19.031  25.005  1.00  0.00    -0.237 OA
ATOM     86  O   UNL A   1      42.388  18.623  27.410  1.00  0.00    -0.237 OA
ATOM     87  O   UNL A   1      40.553  19.403  25.960  1.00  0.00    -0.744 OA
ENDBRANCH  83  84
ENDBRANCH  62  76
BRANCH  63  88
ATOM     88  C   UNL A   1      46.702  32.994  28.286  1.00  0.00     0.058 A 
ATOM     89  C   UNL A   1      47.495  33.353  29.385  1.00  0.00     0.135 A 
ATOM     90  C   UNL A   1      46.396  33.991  27.346  1.00  0.00     0.135 A 
ATOM     91  F   UNL A   1      47.812  32.435  30.311  1.00  0.00    -0.206 F 
ATOM     92  C   UNL A   1      47.942  34.656  29.564  1.00  0.00     0.059 A 
ATOM     93  C   UNL A   1      46.860  35.294  27.485  1.00  0.00     0.059 A 
ATOM     94  F   UNL A   1      45.656  33.696  26.266  1.00  0.00    -0.206 F 
ATOM     95  C   UNL A   1      47.617  35.621  28.610  1.00  0.00     0.060 A 
BRANCH  95  96
ATOM     96  S   UNL A   1      48.210  37.309  28.847  1.00  0.00     0.124 S 
ATOM     97  O   UNL A   1      49.622  37.173  28.509  1.00  0.00    -0.237 OA
ATOM     98  O   UNL A   1      47.394  38.057  27.895  1.00  0.00    -0.237 OA
ATOM     99  O   UNL A   1      47.919  37.572  30.253  1.00  0.00    -0.744 OA
ENDBRANCH  95  96
ENDBRANCH  63  88
BRANCH  75 100
ATOM    100  C   UNL A   1      49.508  27.097  25.880  1.00  0.00     0.058 A 
ATOM    101  C   UNL A   1      49.771  27.244  24.511  1.00  0.00     0.135 A 
ATOM    102  C   UNL A   1      50.553  26.658  26.709  1.00  0.00     0.135 A 
ATOM    103  F   UNL A   1      48.803  27.654  23.675  1.00  0.00    -0.206 F 
ATOM    104  C   UNL A   1      51.014  26.928  23.974  1.00  0.00     0.059 A 
ATOM    105  C   UNL A   1      51.814  26.366  26.200  1.00  0.00     0.059 A 
ATOM    106  F   UNL A   1      50.355  26.512  28.029  1.00  0.00    -0.206 F 
ATOM    107  C   UNL A   1      52.028  26.486  24.826  1.00  0.00     0.060 A 
BRANCH 107 108
ATOM    108  S   UNL A   1      53.636  26.077  24.116  1.00  0.00     0.124 S 
ATOM    109  O   UNL A   1      53.317  25.997  22.695  1.00  0.00    -0.237 OA
ATOM    110  O   UNL A   1      54.454  27.216  24.520  1.00  0.00    -0.237 OA
ATOM    111  O   UNL A   1      53.977  24.809  24.755  1.00  0.00    -0.744 OA
ENDBRANCH 107 108
ENDBRANCH  75 100
ENDBRANCH  49  50
ENDBRANCH  41  44
ENDBRANCH  39  40
ENDBRANCH  38  39
ENDBRANCH   1  38
TORSDOF 19
ENDMDL
MODEL 2
REMARK VINA RESULT:      -8.9      3.579     10.038
REMARK SMILES CC[C@@H](C)[C@H](NC(=O)[C@H](C)N1C(=O)N2CCC3=c4cc(OC)ccc4=N[C@H]3[C@@]2(C)C1=O)C(=O)NCCCNC(=O)c1ccc(-c2c3nc(c(-c4c(F)cc(S(=O)(=O)[O-])cc4F)c4ccc([nH]4)c(-c4c(F)cc(S(=O)(=O)[O-])cc4F)c4nc(c(-c5c(F)cc(S(=O)(=O)[O-])cc5F)c5ccc2[nH]5)C=C4)C=C3)cc1
REMARK SMILES IDX 35 1 34 2 32 3 33 4 5 6 3 7 4 8 2 9 1 10 6 11 7 12 8 14 9 15
REMARK SMILES IDX 10 16 11 17 12 18 30 19 14 20 13 21 28 22 31 23 15 24 27 25
REMARK SMILES IDX 29 26 16 27 17 28 26 29 18 30 25 31 19 32 24 33 20 34 23 35
REMARK SMILES IDX 21 36 22 37 36 38 37 39 38 40 39 41 40 43 41 44 42 45 106 46
REMARK SMILES IDX 43 47 105 48 44 49 45 50 46 51 99 52 47 53 104 54 98 55
REMARK SMILES IDX 100 56 48 57 103 58 97 59 96 60 49 62 83 63 62 64 82 65
REMARK SMILES IDX 63 66 66 67 81 68 101 69 64 70 65 71 80 73 102 74 67 75
REMARK SMILES IDX 50 76 51 77 60 78 52 79 53 80 59 81 61 82 54 83 55 84 56 85
REMARK SMILES IDX 57 86 58 87 84 88 85 89 94 90 86 91 87 92 93 93 95 94 88 95
REMARK SMILES IDX 89 96 90 97 91 98 92 99 68 100 69 101 78 102 70 103 71 104
REMARK SMILES IDX 77 105 79 106 72 107 73 108 74 109 75 110 76 111
REMARK H PARENT 34 5 6 13 38 42 100 61 66 72
REMARK Flexibility Score: inf
ROOT
ATOM      1  C   UNL A   1      41.571  35.105  38.274  1.00  0.00     0.117 C 
ENDROOT
BRANCH   1   2
ATOM      2  N   UNL A   1      40.691  35.847  37.390  1.00  0.00    -0.354 N 
ATOM      3  C   UNL A   1      40.553  35.719  36.040  1.00  0.00     0.242 C 
ATOM      4  O   UNL A   1      39.594  36.273  35.498  1.00  0.00    -0.273 OA
ATOM      5  H   UNL A   1      40.123  36.527  37.819  1.00  0.00     0.163 HD
BRANCH   3   6
ATOM      6  C   UNL A   1      41.615  34.977  35.204  1.00  0.00     0.174 C 
BRANCH   6   7
ATOM      7  C   UNL A   1      42.842  35.899  34.792  1.00  0.00     0.018 C 
ATOM      8  C   UNL A   1      44.260  35.508  35.227  1.00  0.00     0.010 C 
BRANCH   7   9
ATOM      9  C   UNL A   1      42.616  37.407  34.994  1.00  0.00     0.002 C 
ATOM     10  C   UNL A   1      43.030  38.288  33.809  1.00  0.00     0.004 C 
ENDBRANCH   7   9
ENDBRANCH   6   7
BRANCH   6  11
ATOM     11  N   UNL A   1      40.900  33.916  34.429  1.00  0.00    -0.342 N 
ATOM     12  C   UNL A   1      40.553  32.628  34.795  1.00  0.00     0.243 C 
ATOM     13  H   UNL A   1      40.635  34.175  33.516  1.00  0.00     0.164 HD
ATOM     14  O   UNL A   1      41.404  32.146  35.523  1.00  0.00    -0.273 OA
BRANCH  12  15
ATOM     15  C   UNL A   1      39.162  31.878  34.014  1.00  0.00     0.181 C 
ATOM     16  C   UNL A   1      38.497  31.452  35.412  1.00  0.00     0.042 C 
BRANCH  15  17
ATOM     17  N   UNL A   1      38.781  30.640  32.930  1.00  0.00    -0.250 N 
ATOM     18  C   UNL A   1      37.907  29.469  32.603  1.00  0.00     0.328 C 
ATOM     19  C   UNL A   1      39.832  30.268  32.176  1.00  0.00     0.259 C 
ATOM     20  N   UNL A   1      38.416  28.890  31.142  1.00  0.00    -0.307 N 
ATOM     21  O   UNL A   1      37.032  28.941  33.265  1.00  0.00    -0.248 OA
ATOM     22  C   UNL A   1      39.229  29.969  30.860  1.00  0.00     0.147 C 
ATOM     23  O   UNL A   1      40.962  30.083  32.515  1.00  0.00    -0.271 OA
ATOM     24  C   UNL A   1      37.713  28.583  29.582  1.00  0.00     0.127 C 
ATOM     25  C   UNL A   1      38.016  30.988  30.546  1.00  0.00     0.168 C 
ATOM     26  C   UNL A   1      40.385  29.470  29.971  1.00  0.00     0.048 C 
ATOM     27  C   UNL A   1      37.890  30.104  28.441  1.00  0.00     0.055 C 
ATOM     28  C   UNL A   1      38.020  31.639  29.276  1.00  0.00    -0.032 C 
ATOM     29  N   UNL A   1      36.412  30.977  30.942  1.00  0.00    -0.274 NA
ATOM     30  C   UNL A   1      37.217  32.697  29.706  1.00  0.00     0.005 A 
ATOM     31  C   UNL A   1      36.013  31.915  30.085  1.00  0.00     0.066 A 
ATOM     32  C   UNL A   1      37.365  33.372  31.242  1.00  0.00     0.056 A 
ATOM     33  C   UNL A   1      34.785  32.717  30.204  1.00  0.00     0.032 A 
ATOM     34  C   UNL A   1      36.194  33.369  32.009  1.00  0.00     0.119 A 
ATOM     35  C   UNL A   1      34.944  33.488  31.287  1.00  0.00     0.048 A 
BRANCH  34  36
ATOM     36  O   UNL A   1      35.952  33.177  33.345  1.00  0.00    -0.497 OA
ATOM     37  C   UNL A   1      36.218  34.142  34.411  1.00  0.00     0.278 C 
ENDBRANCH  34  36
ENDBRANCH  15  17
ENDBRANCH  12  15
ENDBRANCH   6  11
ENDBRANCH   3   6
ENDBRANCH   1   2
BRANCH   1  38
ATOM     38  C   UNL A   1      42.684  35.906  38.900  1.00  0.00     0.042 C 
BRANCH  38  39
ATOM     39  C   UNL A   1      44.063  35.332  38.652  1.00  0.00     0.118 C 
BRANCH  39  40
ATOM     40  N   UNL A   1      44.703  34.794  39.852  1.00  0.00    -0.352 N 
ATOM     41  C   UNL A   1      45.149  33.523  40.136  1.00  0.00     0.251 C 
ATOM     42  H   UNL A   1      44.838  35.448  40.575  1.00  0.00     0.163 HD
ATOM     43  O   UNL A   1      45.546  33.250  41.264  1.00  0.00    -0.269 OA
BRANCH  41  44
ATOM     44  C   UNL A   1      45.102  32.485  39.088  1.00  0.00     0.039 A 
ATOM     45  C   UNL A   1      46.261  32.130  38.404  1.00  0.00     0.014 A 
ATOM     46  C   UNL A   1      43.877  31.909  38.739  1.00  0.00     0.014 A 
ATOM     47  C   UNL A   1      46.163  31.417  37.221  1.00  0.00     0.010 A 
ATOM     48  C   UNL A   1      43.806  31.067  37.626  1.00  0.00     0.010 A 
ATOM     49  C   UNL A   1      44.938  30.863  36.822  1.00  0.00    -0.014 A 
BRANCH  49  50
ATOM     50  C   UNL A   1      44.872  30.063  35.572  1.00  0.00     0.031 A 
ATOM     51  C   UNL A   1      44.622  30.730  34.244  1.00  0.00     0.074 A 
ATOM     52  C   UNL A   1      45.099  28.735  35.636  1.00  0.00     0.049 A 
ATOM     53  N   UNL A   1      44.439  30.180  33.070  1.00  0.00    -0.248 NA
ATOM     54  C   UNL A   1      44.570  32.202  34.225  1.00  0.00     0.031 C 
ATOM     55  C   UNL A   1      45.403  27.987  36.861  1.00  0.00     0.029 A 
ATOM     56  N   UNL A   1      45.134  27.781  34.654  1.00  0.00    -0.354 N 
ATOM     57  C   UNL A   1      44.232  31.229  32.181  1.00  0.00     0.074 A 
ATOM     58  C   UNL A   1      44.290  32.452  32.952  1.00  0.00     0.031 C 
ATOM     59  C   UNL A   1      45.653  26.708  36.549  1.00  0.00     0.029 A 
ATOM     60  C   UNL A   1      45.425  26.521  35.123  1.00  0.00     0.049 A 
ATOM     61  H   UNL A   1      44.968  27.977  33.704  1.00  0.00     0.167 HD
ATOM     62  C   UNL A   1      44.023  31.172  30.845  1.00  0.00     0.037 A 
ATOM     63  C   UNL A   1      45.462  25.337  34.487  1.00  0.00     0.037 A 
ATOM     64  C   UNL A   1      43.990  29.946  30.087  1.00  0.00     0.049 A 
ATOM     65  C   UNL A   1      45.145  25.299  33.020  1.00  0.00     0.074 A 
ATOM     66  C   UNL A   1      43.745  29.774  28.736  1.00  0.00     0.029 A 
ATOM     67  N   UNL A   1      44.230  28.683  30.611  1.00  0.00    -0.354 N 
ATOM     68  N   UNL A   1      44.871  26.295  32.210  1.00  0.00    -0.248 NA
ATOM     69  C   UNL A   1      45.126  23.977  32.383  1.00  0.00     0.031 C 
ATOM     70  C   UNL A   1      43.806  28.406  28.447  1.00  0.00     0.029 A 
ATOM     71  C   UNL A   1      44.140  27.730  29.609  1.00  0.00     0.049 A 
ATOM     72  H   UNL A   1      44.434  28.493  31.555  1.00  0.00     0.167 HD
ATOM     73  C   UNL A   1      44.680  25.721  30.960  1.00  0.00     0.074 A 
ATOM     74  C   UNL A   1      44.881  24.295  31.120  1.00  0.00     0.031 C 
ATOM     75  C   UNL A   1      44.364  26.319  29.785  1.00  0.00     0.037 A 
BRANCH  62  76
ATOM     76  C   UNL A   1      43.811  32.460  30.095  1.00  0.00     0.058 A 
ATOM     77  C   UNL A   1      44.833  33.042  29.329  1.00  0.00     0.135 A 
ATOM     78  C   UNL A   1      42.540  33.057  30.051  1.00  0.00     0.135 A 
ATOM     79  F   UNL A   1      46.071  32.526  29.353  1.00  0.00    -0.206 F 
ATOM     80  C   UNL A   1      44.600  34.163  28.537  1.00  0.00     0.059 A 
ATOM     81  C   UNL A   1      42.278  34.164  29.248  1.00  0.00     0.059 A 
ATOM     82  F   UNL A   1      41.528  32.546  30.770  1.00  0.00    -0.206 F 
ATOM     83  C   UNL A   1      43.315  34.709  28.492  1.00  0.00     0.060 A 
BRANCH  83  84
ATOM     84  S   UNL A   1      43.013  36.119  27.405  1.00  0.00     0.124 S 
ATOM     85  O   UNL A   1      44.296  36.814  27.459  1.00  0.00    -0.237 OA
ATOM     86  O   UNL A   1      42.696  35.470  26.137  1.00  0.00    -0.237 OA
ATOM     87  O   UNL A   1      41.900  36.813  28.045  1.00  0.00    -0.744 OA
ENDBRANCH  83  84
ENDBRANCH  62  76
BRANCH  63  88
ATOM     88  C   UNL A   1      45.783  24.092  35.233  1.00  0.00     0.058 A 
ATOM     89  C   UNL A   1      44.778  23.368  35.892  1.00  0.00     0.135 A 
ATOM     90  C   UNL A   1      47.098  23.608  35.315  1.00  0.00     0.135 A 
ATOM     91  F   UNL A   1      43.507  23.793  35.846  1.00  0.00    -0.206 F 
ATOM     92  C   UNL A   1      45.069  22.227  36.629  1.00  0.00     0.059 A 
ATOM     93  C   UNL A   1      47.409  22.450  36.017  1.00  0.00     0.059 A 
ATOM     94  F   UNL A   1      48.094  24.252  34.686  1.00  0.00    -0.206 F 
ATOM     95  C   UNL A   1      46.389  21.777  36.689  1.00  0.00     0.060 A 
BRANCH  95  96
ATOM     96  S   UNL A   1      46.755  20.289  37.642  1.00  0.00     0.124 S 
ATOM     97  O   UNL A   1      46.233  19.246  36.766  1.00  0.00    -0.237 OA
ATOM     98  O   UNL A   1      48.208  20.353  37.763  1.00  0.00    -0.237 OA
ATOM     99  O   UNL A   1      46.020  20.497  38.885  1.00  0.00    -0.744 OA
ENDBRANCH  95  96
ENDBRANCH  63  88
BRANCH  75 100
ATOM    100  C   UNL A   1      44.284  25.436  28.572  1.00  0.00     0.058 A 
ATOM    101  C   UNL A   1      43.079  24.844  28.165  1.00  0.00     0.135 A 
ATOM    102  C   UNL A   1      45.431  25.192  27.801  1.00  0.00     0.135 A 
ATOM    103  F   UNL A   1      41.955  25.040  28.873  1.00  0.00    -0.206 F 
ATOM    104  C   UNL A   1      43.022  24.006  27.057  1.00  0.00     0.059 A 
ATOM    105  C   UNL A   1      45.392  24.383  26.670  1.00  0.00     0.059 A 
ATOM    106  F   UNL A   1      46.606  25.745  28.141  1.00  0.00    -0.206 F 
ATOM    107  C   UNL A   1      44.185  23.779  26.318  1.00  0.00     0.060 A 
BRANCH 107 108
ATOM    108  S   UNL A   1      44.097  22.688  24.883  1.00  0.00     0.124 S 
ATOM    109  O   UNL A   1      42.658  22.623  24.652  1.00  0.00    -0.237 OA
ATOM    110  O   UNL A   1      44.867  23.423  23.885  1.00  0.00    -0.237 OA
ATOM    111  O   UNL A   1      44.713  21.452  25.357  1.00  0.00    -0.744 OA
ENDBRANCH 107 108
ENDBRANCH  75 100
ENDBRANCH  49  50
ENDBRANCH  41  44
ENDBRANCH  39  40
ENDBRANCH  38  39
ENDBRANCH   1  38
TORSDOF 19
ENDMDL
MODEL 3
REMARK VINA RESULT:      -8.8      2.305      8.767
REMARK SMILES CC[C@@H](C)[C@H](NC(=O)[C@H](C)N1C(=O)N2CCC3=c4cc(OC)ccc4=N[C@H]3[C@@]2(C)C1=O)C(=O)NCCCNC(=O)c1ccc(-c2c3nc(c(-c4c(F)cc(S(=O)(=O)[O-])cc4F)c4ccc([nH]4)c(-c4c(F)cc(S(=O)(=O)[O-])cc4F)c4nc(c(-c5c(F)cc(S(=O)(=O)[O-])cc5F)c5ccc2[nH]5)C=C4)C=C3)cc1
REMARK SMILES IDX 35 1 34 2 32 3 33 4 5 6 3 7 4 8 2 9 1 10 6 11 7 12 8 14 9 15
REMARK SMILES IDX 10 16 11 17 12 18 30 19 14 20 13 21 28 22 31 23 15 24 27 25
REMARK SMILES IDX 29 26 16 27 17 28 26 29 18 30 25 31 19 32 24 33 20 34 23 35
REMARK SMILES IDX 21 36 22 37 36 38 37 39 38 40 39 41 40 43 41 44 42 45 106 46
REMARK SMILES IDX 43 47 105 48 44 49 45 50 46 51 99 52 47 53 104 54 98 55
REMARK SMILES IDX 100 56 48 57 103 58 97 59 96 60 49 62 83 63 62 64 82 65
REMARK SMILES IDX 63 66 66 67 81 68 101 69 64 70 65 71 80 73 102 74 67 75
REMARK SMILES IDX 50 76 51 77 60 78 52 79 53 80 59 81 61 82 54 83 55 84 56 85
REMARK SMILES IDX 57 86 58 87 84 88 85 89 94 90 86 91 87 92 93 93 95 94 88 95
REMARK SMILES IDX 89 96 90 97 91 98 92 99 68 100 69 101 78 102 70 103 71 104
REMARK SMILES IDX 77 105 79 106 72 107 73 108 74 109 75 110 76 111
REMARK H PARENT 34 5 6 13 38 42 100 61 66 72
REMARK Flexibility Score: inf
ROOT
ATOM      1  C   UNL A   1      36.015  33.304  31.138  1.00  0.00     0.117 C 
ENDROOT
BRANCH   1   2
ATOM      2  N   UNL A   1      34.888  32.855  31.935  1.00  0.00    -0.354 N 
ATOM      3  C   UNL A   1      34.165  33.568  32.844  1.00  0.00     0.242 C 
ATOM      4  O   UNL A   1      33.104  33.085  33.251  1.00  0.00    -0.273 OA
ATOM      5  H   UNL A   1      34.613  31.919  31.802  1.00  0.00     0.163 HD
BRANCH   3   6
ATOM      6  C   UNL A   1      34.700  34.896  33.415  1.00  0.00     0.174 C 
BRANCH   6   7
ATOM      7  C   UNL A   1      33.974  36.174  32.811  1.00  0.00     0.018 C 
ATOM      8  C   UNL A   1      33.651  37.362  33.725  1.00  0.00     0.010 C 
BRANCH   7   9
ATOM      9  C   UNL A   1      32.780  35.866  31.890  1.00  0.00     0.002 C 
ATOM     10  C   UNL A   1      33.037  36.101  30.397  1.00  0.00     0.004 C 
ENDBRANCH   7   9
ENDBRANCH   6   7
BRANCH   6  11
ATOM     11  N   UNL A   1      36.138  34.675  33.763  1.00  0.00    -0.342 N 
ATOM     12  C   UNL A   1      36.710  33.813  34.681  1.00  0.00     0.243 C 
ATOM     13  H   UNL A   1      36.778  35.230  33.259  1.00  0.00     0.164 HD
ATOM     14  O   UNL A   1      35.995  33.698  35.662  1.00  0.00    -0.273 OA
BRANCH  12  15
ATOM     15  C   UNL A   1      38.359  33.257  34.399  1.00  0.00     0.181 C 
ATOM     16  C   UNL A   1      38.877  34.722  33.997  1.00  0.00     0.042 C 
BRANCH  15  17
ATOM     17  N   UNL A   1      39.227  32.182  33.430  1.00  0.00    -0.250 N 
ATOM     18  C   UNL A   1      40.269  31.991  32.371  1.00  0.00     0.328 C 
ATOM     19  C   UNL A   1      38.567  31.029  33.211  1.00  0.00     0.259 C 
ATOM     20  N   UNL A   1      40.389  30.364  32.110  1.00  0.00    -0.307 N 
ATOM     21  O   UNL A   1      40.887  32.820  31.727  1.00  0.00    -0.248 OA
ATOM     22  C   UNL A   1      39.636  30.009  33.210  1.00  0.00     0.147 C 
ATOM     23  O   UNL A   1      37.415  30.872  32.939  1.00  0.00    -0.271 OA
ATOM     24  C   UNL A   1      41.642  29.159  32.156  1.00  0.00     0.127 C 
ATOM     25  C   UNL A   1      40.776  30.380  34.294  1.00  0.00     0.168 C 
ATOM     26  C   UNL A   1      38.942  28.670  32.895  1.00  0.00     0.048 C 
ATOM     27  C   UNL A   1      41.750  28.352  33.884  1.00  0.00     0.055 C 
ATOM     28  C   UNL A   1      41.176  29.354  35.202  1.00  0.00    -0.032 C 
ATOM     29  N   UNL A   1      42.116  31.343  34.224  1.00  0.00    -0.274 NA
ATOM     30  C   UNL A   1      41.659  30.251  36.155  1.00  0.00     0.005 A 
ATOM     31  C   UNL A   1      42.709  30.900  35.330  1.00  0.00     0.066 A 
ATOM     32  C   UNL A   1      40.895  31.715  36.483  1.00  0.00     0.056 A 
ATOM     33  C   UNL A   1      43.726  31.626  36.108  1.00  0.00     0.032 A 
ATOM     34  C   UNL A   1      41.697  32.853  36.334  1.00  0.00     0.119 A 
ATOM     35  C   UNL A   1      43.107  32.695  36.626  1.00  0.00     0.048 A 
BRANCH  34  36
ATOM     36  O   UNL A   1      41.449  34.117  35.865  1.00  0.00    -0.497 OA
ATOM     37  C   UNL A   1      42.241  34.830  34.863  1.00  0.00     0.278 C 
ENDBRANCH  34  36
ENDBRANCH  15  17
ENDBRANCH  12  15
ENDBRANCH   6  11
ENDBRANCH   3   6
ENDBRANCH   1   2
BRANCH   1  38
ATOM     38  C   UNL A   1      36.466  32.353  30.059  1.00  0.00     0.042 C 
BRANCH  38  39
ATOM     39  C   UNL A   1      35.526  32.284  28.874  1.00  0.00     0.118 C 
BRANCH  39  40
ATOM     40  N   UNL A   1      34.960  30.955  28.647  1.00  0.00    -0.352 N 
ATOM     41  C   UNL A   1      35.574  29.756  28.365  1.00  0.00     0.251 C 
ATOM     42  H   UNL A   1      33.978  30.910  28.707  1.00  0.00     0.163 HD
ATOM     43  O   UNL A   1      34.897  28.772  28.081  1.00  0.00    -0.269 OA
BRANCH  41  44
ATOM     44  C   UNL A   1      37.048  29.677  28.360  1.00  0.00     0.039 A 
ATOM     45  C   UNL A   1      37.764  30.068  27.233  1.00  0.00     0.014 A 
ATOM     46  C   UNL A   1      37.716  29.146  29.467  1.00  0.00     0.014 A 
ATOM     47  C   UNL A   1      39.090  29.691  27.103  1.00  0.00     0.010 A 
ATOM     48  C   UNL A   1      39.089  28.901  29.387  1.00  0.00     0.010 A 
ATOM     49  C   UNL A   1      39.777  29.116  28.183  1.00  0.00    -0.014 A 
BRANCH  49  50
ATOM     50  C   UNL A   1      41.212  28.766  28.030  1.00  0.00     0.031 A 
ATOM     51  C   UNL A   1      42.284  29.806  28.232  1.00  0.00     0.074 A 
ATOM     52  C   UNL A   1      41.545  27.486  27.765  1.00  0.00     0.049 A 
ATOM     53  N   UNL A   1      43.575  29.701  28.047  1.00  0.00    -0.248 NA
ATOM     54  C   UNL A   1      41.857  31.135  28.702  1.00  0.00     0.031 C 
ATOM     55  C   UNL A   1      40.595  26.381  27.600  1.00  0.00     0.029 A 
ATOM     56  N   UNL A   1      42.769  26.890  27.612  1.00  0.00    -0.354 N 
ATOM     57  C   UNL A   1      44.111  30.947  28.358  1.00  0.00     0.074 A 
ATOM     58  C   UNL A   1      43.003  31.803  28.723  1.00  0.00     0.031 C 
ATOM     59  C   UNL A   1      41.270  25.237  27.430  1.00  0.00     0.029 A 
ATOM     60  C   UNL A   1      42.693  25.538  27.369  1.00  0.00     0.049 A 
ATOM     61  H   UNL A   1      43.620  27.380  27.670  1.00  0.00     0.167 HD
ATOM     62  C   UNL A   1      45.409  31.331  28.345  1.00  0.00     0.037 A 
ATOM     63  C   UNL A   1      43.657  24.644  27.085  1.00  0.00     0.037 A 
ATOM     64  C   UNL A   1      46.504  30.460  27.999  1.00  0.00     0.049 A 
ATOM     65  C   UNL A   1      45.078  25.123  26.999  1.00  0.00     0.074 A 
ATOM     66  C   UNL A   1      47.853  30.761  27.917  1.00  0.00     0.029 A 
ATOM     67  N   UNL A   1      46.380  29.110  27.700  1.00  0.00    -0.354 N 
ATOM     68  N   UNL A   1      45.557  26.324  27.216  1.00  0.00    -0.248 NA
ATOM     69  C   UNL A   1      46.086  24.128  26.614  1.00  0.00     0.031 C 
ATOM     70  C   UNL A   1      48.540  29.603  27.538  1.00  0.00     0.029 A 
ATOM     71  C   UNL A   1      47.626  28.567  27.435  1.00  0.00     0.049 A 
ATOM     72  H   UNL A   1      45.531  28.613  27.681  1.00  0.00     0.167 HD
ATOM     73  C   UNL A   1      46.929  26.222  27.027  1.00  0.00     0.074 A 
ATOM     74  C   UNL A   1      47.202  24.839  26.690  1.00  0.00     0.031 C 
ATOM     75  C   UNL A   1      47.878  27.185  27.121  1.00  0.00     0.037 A 
BRANCH  62  76
ATOM     76  C   UNL A   1      45.740  32.754  28.713  1.00  0.00     0.058 A 
ATOM     77  C   UNL A   1      46.206  33.093  29.993  1.00  0.00     0.135 A 
ATOM     78  C   UNL A   1      45.698  33.768  27.742  1.00  0.00     0.135 A 
ATOM     79  F   UNL A   1      46.244  32.168  30.964  1.00  0.00    -0.206 F 
ATOM     80  C   UNL A   1      46.630  34.385  30.294  1.00  0.00     0.059 A 
ATOM     81  C   UNL A   1      46.140  35.061  28.014  1.00  0.00     0.059 A 
ATOM     82  F   UNL A   1      45.255  33.501  26.503  1.00  0.00    -0.206 F 
ATOM     83  C   UNL A   1      46.606  35.359  29.293  1.00  0.00     0.060 A 
BRANCH  83  84
ATOM     84  S   UNL A   1      47.227  37.010  29.680  1.00  0.00     0.124 S 
ATOM     85  O   UNL A   1      48.186  37.225  28.601  1.00  0.00    -0.237 OA
ATOM     86  O   UNL A   1      46.013  37.819  29.622  1.00  0.00    -0.237 OA
ATOM     87  O   UNL A   1      47.808  36.855  31.010  1.00  0.00    -0.744 OA
ENDBRANCH  83  84
ENDBRANCH  62  76
BRANCH  63  88
ATOM     88  C   UNL A   1      43.312  23.220  26.833  1.00  0.00     0.058 A 
ATOM     89  C   UNL A   1      42.953  22.368  27.887  1.00  0.00     0.135 A 
ATOM     90  C   UNL A   1      43.346  22.680  25.537  1.00  0.00     0.135 A 
ATOM     91  F   UNL A   1      42.909  22.838  29.143  1.00  0.00    -0.206 F 
ATOM     92  C   UNL A   1      42.669  21.025  27.671  1.00  0.00     0.059 A 
ATOM     93  C   UNL A   1      43.033  21.348  25.292  1.00  0.00     0.059 A 
ATOM     94  F   UNL A   1      43.664  23.457  24.490  1.00  0.00    -0.206 F 
ATOM     95  C   UNL A   1      42.715  20.523  26.370  1.00  0.00     0.060 A 
BRANCH  95  96
ATOM     96  S   UNL A   1      42.337  18.779  26.100  1.00  0.00     0.124 S 
ATOM     97  O   UNL A   1      43.251  18.448  25.013  1.00  0.00    -0.237 OA
ATOM     98  O   UNL A   1      42.650  18.193  27.400  1.00  0.00    -0.237 OA
ATOM     99  O   UNL A   1      40.919  18.793  25.752  1.00  0.00    -0.744 OA
ENDBRANCH  95  96
ENDBRANCH  63  88
BRANCH  75 100
ATOM    100  C   UNL A   1      49.305  26.757  26.920  1.00  0.00     0.058 A 
ATOM    101  C   UNL A   1      49.867  26.633  25.642  1.00  0.00     0.135 A 
ATOM    102  C   UNL A   1      50.120  26.480  28.030  1.00  0.00     0.135 A 
ATOM    103  F   UNL A   1      49.127  26.879  24.549  1.00  0.00    -0.206 F 
ATOM    104  C   UNL A   1      51.180  26.209  25.467  1.00  0.00     0.059 A 
ATOM    105  C   UNL A   1      51.445  26.085  27.880  1.00  0.00     0.059 A 
ATOM    106  F   UNL A   1      49.632  26.596  29.275  1.00  0.00    -0.206 F 
ATOM    107  C   UNL A   1      51.960  25.934  26.593  1.00  0.00     0.060 A 
BRANCH 107 108
ATOM    108  S   UNL A   1      53.661  25.383  26.351  1.00  0.00     0.124 S 
ATOM    109  O   UNL A   1      53.461  24.087  25.711  1.00  0.00    -0.237 OA
ATOM    110  O   UNL A   1      54.211  26.433  25.499  1.00  0.00    -0.237 OA
ATOM    111  O   UNL A   1      54.200  25.336  27.708  1.00  0.00    -0.744 OA
ENDBRANCH 107 108
ENDBRANCH  75 100
ENDBRANCH  49  50
ENDBRANCH  41  44
ENDBRANCH  39  40
ENDBRANCH  38  39
ENDBRANCH   1  38
TORSDOF 19
ENDMDL
