MODEL 1
REMARK VINA RESULT:     -11.3      0.000      0.000
REMARK SMILES CN(C)c1cccc(C(C)(C)C(=O)NCCCNC(=O)c2ccc(-c3c4nc(c(-c5c(F)cc(S(=O)(=O)[O-])cc5F)c5ccc([nH]5)c(-c5c(F)cc(S(=O)(=O)[O-])cc5F)c5nc(c(-c6c(F)cc(S(=O)(=O)[O-])cc6F)c6ccc3[nH]6)C=C5)C=C4)cc2)c1
REMARK SMILES IDX 16 1 15 2 14 3 12 4 13 5 9 7 10 8 11 9 8 10 4 11 5 12 87 13
REMARK SMILES IDX 6 14 7 15 2 16 1 17 3 18 17 19 18 20 19 21 20 23 21 24 22 25
REMARK SMILES IDX 86 26 23 27 85 28 24 29 25 30 26 31 79 32 27 33 84 34 78 35
REMARK SMILES IDX 80 36 28 37 83 38 77 39 76 40 29 42 63 43 42 44 62 45 43 46
REMARK SMILES IDX 46 47 61 48 81 49 44 50 45 51 60 53 82 54 47 55 30 56 31 57
REMARK SMILES IDX 40 58 32 59 33 60 39 61 41 62 34 63 35 64 36 65 37 66 38 67
REMARK SMILES IDX 64 68 65 69 74 70 66 71 67 72 73 73 75 74 68 75 69 76 70 77
REMARK SMILES IDX 71 78 72 79 48 80 49 81 58 82 50 83 51 84 57 85 59 86 52 87
REMARK SMILES IDX 53 88 54 89 55 90 56 91
REMARK H PARENT 14 6 18 22 80 41 46 52
REMARK Flexibility Score: inf
ROOT
ATOM      1  C   UNL A   1      37.296  23.701  25.449  1.00  0.00     0.042 C 
ENDROOT
BRANCH   1   2
ATOM      2  C   UNL A   1      36.722  22.298  25.599  1.00  0.00     0.117 C 
BRANCH   2   3
ATOM      3  N   UNL A   1      35.775  22.213  26.699  1.00  0.00    -0.355 N 
ATOM      4  C   UNL A   1      34.415  22.200  26.791  1.00  0.00     0.230 C 
ATOM      5  O   UNL A   1      34.020  22.109  27.957  1.00  0.00    -0.274 OA
ATOM      6  H   UNL A   1      36.216  22.149  27.577  1.00  0.00     0.163 HD
BRANCH   4   7
ATOM      7  C   UNL A   1      33.478  22.248  25.541  1.00  0.00     0.068 C 
ATOM      8  C   UNL A   1      32.026  22.205  26.084  1.00  0.00     0.026 C 
ATOM      9  C   UNL A   1      33.804  21.047  24.624  1.00  0.00     0.026 C 
BRANCH   7  10
ATOM     10  C   UNL A   1      33.560  23.515  24.626  1.00  0.00    -0.031 A 
ATOM     11  C   UNL A   1      33.550  25.964  24.239  1.00  0.00     0.036 A 
ATOM     12  C   UNL A   1      33.593  25.728  22.861  1.00  0.00     0.026 A 
ATOM     13  C   UNL A   1      33.564  24.842  25.094  1.00  0.00     0.030 A 
ATOM     14  C   UNL A   1      33.650  24.433  22.355  1.00  0.00     0.002 A 
ATOM     15  C   UNL A   1      33.631  23.345  23.226  1.00  0.00     0.005 A 
BRANCH  11  16
ATOM     16  N   UNL A   1      33.480  27.272  24.725  1.00  0.00    -0.378 N 
ATOM     17  C   UNL A   1      33.769  28.387  23.832  1.00  0.00     0.143 C 
ATOM     18  C   UNL A   1      33.826  27.444  26.133  1.00  0.00     0.143 C 
ENDBRANCH  11  16
ENDBRANCH   7  10
ENDBRANCH   4   7
ENDBRANCH   2   3
ENDBRANCH   1   2
BRANCH   1  19
ATOM     19  C   UNL A   1      38.261  24.105  26.555  1.00  0.00     0.118 C 
BRANCH  19  20
ATOM     20  N   UNL A   1      39.652  24.084  26.125  1.00  0.00    -0.352 N 
ATOM     21  C   UNL A   1      40.695  24.906  26.465  1.00  0.00     0.251 C 
ATOM     22  H   UNL A   1      39.879  23.366  25.490  1.00  0.00     0.163 HD
ATOM     23  O   UNL A   1      41.748  24.832  25.828  1.00  0.00    -0.269 OA
BRANCH  21  24
ATOM     24  C   UNL A   1      40.565  25.880  27.570  1.00  0.00     0.039 A 
ATOM     25  C   UNL A   1      39.621  25.642  28.572  1.00  0.00     0.014 A 
ATOM     26  C   UNL A   1      41.334  27.046  27.604  1.00  0.00     0.014 A 
ATOM     27  C   UNL A   1      39.480  26.548  29.625  1.00  0.00     0.010 A 
ATOM     28  C   UNL A   1      41.258  27.900  28.700  1.00  0.00     0.010 A 
ATOM     29  C   UNL A   1      40.314  27.674  29.710  1.00  0.00    -0.014 A 
BRANCH  29  30
ATOM     30  C   UNL A   1      40.178  28.648  30.824  1.00  0.00     0.031 A 
ATOM     31  C   UNL A   1      41.057  28.529  32.041  1.00  0.00     0.074 A 
ATOM     32  C   UNL A   1      39.238  29.613  30.757  1.00  0.00     0.049 A 
ATOM     33  N   UNL A   1      41.077  29.266  33.122  1.00  0.00    -0.248 NA
ATOM     34  C   UNL A   1      42.021  27.416  32.059  1.00  0.00     0.031 C 
ATOM     35  C   UNL A   1      38.293  29.799  29.655  1.00  0.00     0.029 A 
ATOM     36  N   UNL A   1      38.925  30.618  31.636  1.00  0.00    -0.354 N 
ATOM     37  C   UNL A   1      42.034  28.695  33.953  1.00  0.00     0.074 A 
ATOM     38  C   UNL A   1      42.531  27.517  33.276  1.00  0.00     0.031 C 
ATOM     39  C   UNL A   1      37.534  30.879  29.905  1.00  0.00     0.029 A 
ATOM     40  C   UNL A   1      37.916  31.441  31.196  1.00  0.00     0.049 A 
ATOM     41  H   UNL A   1      39.380  30.739  32.501  1.00  0.00     0.167 HD
ATOM     42  C   UNL A   1      42.481  29.128  35.157  1.00  0.00     0.037 A 
ATOM     43  C   UNL A   1      37.369  32.532  31.766  1.00  0.00     0.037 A 
ATOM     44  C   UNL A   1      42.008  30.320  35.808  1.00  0.00     0.049 A 
ATOM     45  C   UNL A   1      37.894  33.005  33.094  1.00  0.00     0.074 A 
ATOM     46  C   UNL A   1      42.439  30.883  36.996  1.00  0.00     0.029 A 
ATOM     47  N   UNL A   1      40.998  31.138  35.321  1.00  0.00    -0.354 N 
ATOM     48  N   UNL A   1      38.848  32.491  33.836  1.00  0.00    -0.248 NA
ATOM     49  C   UNL A   1      37.278  34.213  33.657  1.00  0.00     0.031 C 
ATOM     50  C   UNL A   1      41.662  32.021  37.248  1.00  0.00     0.029 A 
ATOM     51  C   UNL A   1      40.779  32.191  36.193  1.00  0.00     0.049 A 
ATOM     52  H   UNL A   1      40.508  30.990  34.481  1.00  0.00     0.167 HD
ATOM     53  C   UNL A   1      38.968  33.332  34.936  1.00  0.00     0.074 A 
ATOM     54  C   UNL A   1      37.994  34.392  34.759  1.00  0.00     0.031 C 
ATOM     55  C   UNL A   1      39.810  33.241  35.995  1.00  0.00     0.037 A 
BRANCH  42  56
ATOM     56  C   UNL A   1      43.535  28.297  35.841  1.00  0.00     0.058 A 
ATOM     57  C   UNL A   1      43.199  27.255  36.722  1.00  0.00     0.135 A 
ATOM     58  C   UNL A   1      44.899  28.545  35.615  1.00  0.00     0.135 A 
ATOM     59  F   UNL A   1      41.911  26.983  36.987  1.00  0.00    -0.206 F 
ATOM     60  C   UNL A   1      44.175  26.522  37.390  1.00  0.00     0.059 A 
ATOM     61  C   UNL A   1      45.892  27.804  36.249  1.00  0.00     0.059 A 
ATOM     62  F   UNL A   1      45.278  29.525  34.780  1.00  0.00    -0.206 F 
ATOM     63  C   UNL A   1      45.519  26.810  37.152  1.00  0.00     0.060 A 
BRANCH  63  64
ATOM     64  S   UNL A   1      46.775  25.868  38.044  1.00  0.00     0.124 S 
ATOM     65  O   UNL A   1      45.956  25.120  38.993  1.00  0.00    -0.237 OA
ATOM     66  O   UNL A   1      47.391  25.081  36.981  1.00  0.00    -0.237 OA
ATOM     67  O   UNL A   1      47.625  26.902  38.627  1.00  0.00    -0.744 OA
ENDBRANCH  63  64
ENDBRANCH  42  56
BRANCH  43  68
ATOM     68  C   UNL A   1      36.303  33.285  31.054  1.00  0.00     0.058 A 
ATOM     69  C   UNL A   1      36.605  34.051  29.919  1.00  0.00     0.135 A 
ATOM     70  C   UNL A   1      34.966  33.242  31.477  1.00  0.00     0.135 A 
ATOM     71  F   UNL A   1      37.871  34.127  29.479  1.00  0.00    -0.206 F 
ATOM     72  C   UNL A   1      35.624  34.760  29.234  1.00  0.00     0.059 A 
ATOM     73  C   UNL A   1      33.962  33.924  30.796  1.00  0.00     0.059 A 
ATOM     74  F   UNL A   1      34.623  32.509  32.548  1.00  0.00    -0.206 F 
ATOM     75  C   UNL A   1      34.303  34.688  29.680  1.00  0.00     0.060 A 
BRANCH  75  76
ATOM     76  S   UNL A   1      33.028  35.568  28.752  1.00  0.00     0.124 S 
ATOM     77  O   UNL A   1      32.462  34.497  27.941  1.00  0.00    -0.237 OA
ATOM     78  O   UNL A   1      32.172  36.083  29.818  1.00  0.00    -0.237 OA
ATOM     79  O   UNL A   1      33.783  36.582  28.023  1.00  0.00    -0.744 OA
ENDBRANCH  75  76
ENDBRANCH  43  68
BRANCH  55  80
ATOM     80  C   UNL A   1      39.746  34.338  37.021  1.00  0.00     0.058 A 
ATOM     81  C   UNL A   1      38.965  34.224  38.180  1.00  0.00     0.135 A 
ATOM     82  C   UNL A   1      40.502  35.509  36.851  1.00  0.00     0.135 A 
ATOM     83  F   UNL A   1      38.220  33.126  38.387  1.00  0.00    -0.206 F 
ATOM     84  C   UNL A   1      38.908  35.246  39.121  1.00  0.00     0.059 A 
ATOM     85  C   UNL A   1      40.482  36.533  37.792  1.00  0.00     0.059 A 
ATOM     86  F   UNL A   1      41.276  35.665  35.765  1.00  0.00    -0.206 F 
ATOM     87  C   UNL A   1      39.668  36.399  38.916  1.00  0.00     0.060 A 
BRANCH  87  88
ATOM     88  S   UNL A   1      39.598  37.716  40.151  1.00  0.00     0.124 S 
ATOM     89  O   UNL A   1      40.951  38.255  40.080  1.00  0.00    -0.237 OA
ATOM     90  O   UNL A   1      38.543  38.580  39.629  1.00  0.00    -0.237 OA
ATOM     91  O   UNL A   1      39.266  37.007  41.383  1.00  0.00    -0.744 OA
ENDBRANCH  87  88
ENDBRANCH  55  80
ENDBRANCH  29  30
ENDBRANCH  21  24
ENDBRANCH  19  20
ENDBRANCH   1  19
TORSDOF 15
ENDMDL
MODEL 2
REMARK VINA RESULT:     -11.2      4.881     10.473
REMARK SMILES CN(C)c1cccc(C(C)(C)C(=O)NCCCNC(=O)c2ccc(-c3c4nc(c(-c5c(F)cc(S(=O)(=O)[O-])cc5F)c5ccc([nH]5)c(-c5c(F)cc(S(=O)(=O)[O-])cc5F)c5nc(c(-c6c(F)cc(S(=O)(=O)[O-])cc6F)c6ccc3[nH]6)C=C5)C=C4)cc2)c1
REMARK SMILES IDX 16 1 15 2 14 3 12 4 13 5 9 7 10 8 11 9 8 10 4 11 5 12 87 13
REMARK SMILES IDX 6 14 7 15 2 16 1 17 3 18 17 19 18 20 19 21 20 23 21 24 22 25
REMARK SMILES IDX 86 26 23 27 85 28 24 29 25 30 26 31 79 32 27 33 84 34 78 35
REMARK SMILES IDX 80 36 28 37 83 38 77 39 76 40 29 42 63 43 42 44 62 45 43 46
REMARK SMILES IDX 46 47 61 48 81 49 44 50 45 51 60 53 82 54 47 55 30 56 31 57
REMARK SMILES IDX 40 58 32 59 33 60 39 61 41 62 34 63 35 64 36 65 37 66 38 67
REMARK SMILES IDX 64 68 65 69 74 70 66 71 67 72 73 73 75 74 68 75 69 76 70 77
REMARK SMILES IDX 71 78 72 79 48 80 49 81 58 82 50 83 51 84 57 85 59 86 52 87
REMARK SMILES IDX 53 88 54 89 55 90 56 91
REMARK H PARENT 14 6 18 22 80 41 46 52
REMARK Flexibility Score: inf
ROOT
ATOM      1  C   UNL A   1      33.595  27.911  25.456  1.00  0.00     0.042 C 
ENDROOT
BRANCH   1   2
ATOM      2  C   UNL A   1      33.272  26.470  25.084  1.00  0.00     0.117 C 
BRANCH   2   3
ATOM      3  N   UNL A   1      32.448  25.819  26.090  1.00  0.00    -0.355 N 
ATOM      4  C   UNL A   1      31.883  24.585  26.211  1.00  0.00     0.230 C 
ATOM      5  O   UNL A   1      31.249  24.455  27.262  1.00  0.00    -0.274 OA
ATOM      6  H   UNL A   1      32.256  26.403  26.859  1.00  0.00     0.163 HD
BRANCH   4   7
ATOM      7  C   UNL A   1      32.071  23.457  25.146  1.00  0.00     0.068 C 
ATOM      8  C   UNL A   1      31.200  23.860  23.927  1.00  0.00     0.026 C 
ATOM      9  C   UNL A   1      31.640  22.107  25.762  1.00  0.00     0.026 C 
BRANCH   7  10
ATOM     10  C   UNL A   1      33.515  23.225  24.587  1.00  0.00    -0.031 A 
ATOM     11  C   UNL A   1      35.955  22.871  24.851  1.00  0.00     0.036 A 
ATOM     12  C   UNL A   1      36.096  22.938  23.461  1.00  0.00     0.026 A 
ATOM     13  C   UNL A   1      34.653  22.988  25.381  1.00  0.00     0.030 A 
ATOM     14  C   UNL A   1      34.991  23.112  22.634  1.00  0.00     0.002 A 
ATOM     15  C   UNL A   1      33.722  23.255  23.191  1.00  0.00     0.005 A 
BRANCH  11  16
ATOM     16  N   UNL A   1      37.080  22.710  25.664  1.00  0.00    -0.378 N 
ATOM     17  C   UNL A   1      37.707  23.881  26.263  1.00  0.00     0.143 C 
ATOM     18  C   UNL A   1      37.955  21.593  25.320  1.00  0.00     0.143 C 
ENDBRANCH  11  16
ENDBRANCH   7  10
ENDBRANCH   4   7
ENDBRANCH   2   3
ENDBRANCH   1   2
BRANCH   1  19
ATOM     19  C   UNL A   1      33.840  28.135  26.942  1.00  0.00     0.118 C 
BRANCH  19  20
ATOM     20  N   UNL A   1      33.634  29.519  27.345  1.00  0.00    -0.352 N 
ATOM     21  C   UNL A   1      34.465  30.377  28.018  1.00  0.00     0.251 C 
ATOM     22  H   UNL A   1      32.760  29.899  27.095  1.00  0.00     0.163 HD
ATOM     23  O   UNL A   1      34.014  31.446  28.433  1.00  0.00    -0.269 OA
BRANCH  21  24
ATOM     24  C   UNL A   1      35.881  30.028  28.259  1.00  0.00     0.039 A 
ATOM     25  C   UNL A   1      36.249  29.523  29.510  1.00  0.00     0.014 A 
ATOM     26  C   UNL A   1      36.858  30.233  27.280  1.00  0.00     0.014 A 
ATOM     27  C   UNL A   1      37.581  29.187  29.760  1.00  0.00     0.010 A 
ATOM     28  C   UNL A   1      38.165  29.811  27.499  1.00  0.00     0.010 A 
ATOM     29  C   UNL A   1      38.547  29.307  28.749  1.00  0.00    -0.014 A 
BRANCH  29  30
ATOM     30  C   UNL A   1      39.968  28.954  28.999  1.00  0.00     0.031 A 
ATOM     31  C   UNL A   1      40.895  29.958  29.634  1.00  0.00     0.074 A 
ATOM     32  C   UNL A   1      40.434  27.748  28.617  1.00  0.00     0.049 A 
ATOM     33  N   UNL A   1      42.168  29.847  29.915  1.00  0.00    -0.248 NA
ATOM     34  C   UNL A   1      40.321  31.271  29.972  1.00  0.00     0.031 C 
ATOM     35  C   UNL A   1      39.649  26.711  27.945  1.00  0.00     0.029 A 
ATOM     36  N   UNL A   1      41.682  27.191  28.741  1.00  0.00    -0.354 N 
ATOM     37  C   UNL A   1      42.549  31.076  30.439  1.00  0.00     0.074 A 
ATOM     38  C   UNL A   1      41.388  31.937  30.383  1.00  0.00     0.031 C 
ATOM     39  C   UNL A   1      40.422  25.628  27.755  1.00  0.00     0.029 A 
ATOM     40  C   UNL A   1      41.762  25.906  28.260  1.00  0.00     0.049 A 
ATOM     41  H   UNL A   1      42.447  27.667  29.138  1.00  0.00     0.167 HD
ATOM     42  C   UNL A   1      43.749  31.448  30.948  1.00  0.00     0.037 A 
ATOM     43  C   UNL A   1      42.799  25.046  28.239  1.00  0.00     0.037 A 
ATOM     44  C   UNL A   1      44.890  30.575  31.034  1.00  0.00     0.049 A 
ATOM     45  C   UNL A   1      44.115  25.473  28.827  1.00  0.00     0.074 A 
ATOM     46  C   UNL A   1      46.131  30.829  31.590  1.00  0.00     0.029 A 
ATOM     47  N   UNL A   1      44.927  29.274  30.552  1.00  0.00    -0.354 N 
ATOM     48  N   UNL A   1      44.441  26.618  29.380  1.00  0.00    -0.248 NA
ATOM     49  C   UNL A   1      45.204  24.486  28.799  1.00  0.00     0.031 C 
ATOM     50  C   UNL A   1      46.932  29.694  31.409  1.00  0.00     0.029 A 
ATOM     51  C   UNL A   1      46.174  28.718  30.782  1.00  0.00     0.049 A 
ATOM     52  H   UNL A   1      44.177  28.814  30.110  1.00  0.00     0.167 HD
ATOM     53  C   UNL A   1      45.760  26.477  29.796  1.00  0.00     0.074 A 
ATOM     54  C   UNL A   1      46.170  25.134  29.436  1.00  0.00     0.031 C 
ATOM     55  C   UNL A   1      46.560  27.375  30.424  1.00  0.00     0.037 A 
BRANCH  42  56
ATOM     56  C   UNL A   1      43.880  32.862  31.448  1.00  0.00     0.058 A 
ATOM     57  C   UNL A   1      43.528  33.217  32.762  1.00  0.00     0.135 A 
ATOM     58  C   UNL A   1      44.362  33.877  30.606  1.00  0.00     0.135 A 
ATOM     59  F   UNL A   1      43.048  32.291  33.607  1.00  0.00    -0.206 F 
ATOM     60  C   UNL A   1      43.603  34.533  33.206  1.00  0.00     0.059 A 
ATOM     61  C   UNL A   1      44.474  35.195  31.038  1.00  0.00     0.059 A 
ATOM     62  F   UNL A   1      44.717  33.594  29.342  1.00  0.00    -0.206 F 
ATOM     63  C   UNL A   1      44.071  35.516  32.334  1.00  0.00     0.060 A 
BRANCH  63  64
ATOM     64  S   UNL A   1      44.140  37.225  32.914  1.00  0.00     0.124 S 
ATOM     65  O   UNL A   1      45.485  37.285  33.478  1.00  0.00    -0.237 OA
ATOM     66  O   UNL A   1      43.935  37.983  31.684  1.00  0.00    -0.237 OA
ATOM     67  O   UNL A   1      43.049  37.300  33.882  1.00  0.00    -0.744 OA
ENDBRANCH  63  64
ENDBRANCH  42  56
BRANCH  43  68
ATOM     68  C   UNL A   1      42.614  23.675  27.694  1.00  0.00     0.058 A 
ATOM     69  C   UNL A   1      42.690  23.438  26.313  1.00  0.00     0.135 A 
ATOM     70  C   UNL A   1      42.377  22.576  28.534  1.00  0.00     0.135 A 
ATOM     71  F   UNL A   1      42.911  24.458  25.469  1.00  0.00    -0.206 F 
ATOM     72  C   UNL A   1      42.526  22.164  25.781  1.00  0.00     0.059 A 
ATOM     73  C   UNL A   1      42.232  21.288  28.028  1.00  0.00     0.059 A 
ATOM     74  F   UNL A   1      42.313  22.749  29.863  1.00  0.00    -0.206 F 
ATOM     75  C   UNL A   1      42.299  21.093  26.649  1.00  0.00     0.060 A 
BRANCH  75  76
ATOM     76  S   UNL A   1      42.141  19.435  25.953  1.00  0.00     0.124 S 
ATOM     77  O   UNL A   1      40.704  19.347  25.725  1.00  0.00    -0.237 OA
ATOM     78  O   UNL A   1      42.974  19.523  24.756  1.00  0.00    -0.237 OA
ATOM     79  O   UNL A   1      42.667  18.576  27.009  1.00  0.00    -0.744 OA
ENDBRANCH  75  76
ENDBRANCH  43  68
BRANCH  55  80
ATOM     80  C   UNL A   1      47.942  26.919  30.800  1.00  0.00     0.058 A 
ATOM     81  C   UNL A   1      49.034  27.070  29.932  1.00  0.00     0.135 A 
ATOM     82  C   UNL A   1      48.179  26.349  32.061  1.00  0.00     0.135 A 
ATOM     83  F   UNL A   1      48.858  27.604  28.713  1.00  0.00    -0.206 F 
ATOM     84  C   UNL A   1      50.308  26.640  30.287  1.00  0.00     0.059 A 
ATOM     85  C   UNL A   1      49.451  25.938  32.448  1.00  0.00     0.059 A 
ATOM     86  F   UNL A   1      47.172  26.194  32.935  1.00  0.00    -0.206 F 
ATOM     87  C   UNL A   1      50.506  26.072  31.547  1.00  0.00     0.060 A 
BRANCH  87  88
ATOM     88  S   UNL A   1      52.167  25.530  32.004  1.00  0.00     0.124 S 
ATOM     89  O   UNL A   1      52.415  26.326  33.200  1.00  0.00    -0.237 OA
ATOM     90  O   UNL A   1      51.982  24.099  32.222  1.00  0.00    -0.237 OA
ATOM     91  O   UNL A   1      52.970  25.881  30.837  1.00  0.00    -0.744 OA
ENDBRANCH  87  88
ENDBRANCH  55  80
ENDBRANCH  29  30
ENDBRANCH  21  24
ENDBRANCH  19  20
ENDBRANCH   1  19
TORSDOF 15
ENDMDL
MODEL 3
REMARK VINA RESULT:     -11.2      6.646      8.916
REMARK SMILES CN(C)c1cccc(C(C)(C)C(=O)NCCCNC(=O)c2ccc(-c3c4nc(c(-c5c(F)cc(S(=O)(=O)[O-])cc5F)c5ccc([nH]5)c(-c5c(F)cc(S(=O)(=O)[O-])cc5F)c5nc(c(-c6c(F)cc(S(=O)(=O)[O-])cc6F)c6ccc3[nH]6)C=C5)C=C4)cc2)c1
REMARK SMILES IDX 16 1 15 2 14 3 12 4 13 5 9 7 10 8 11 9 8 10 4 11 5 12 87 13
REMARK SMILES IDX 6 14 7 15 2 16 1 17 3 18 17 19 18 20 19 21 20 23 21 24 22 25
REMARK SMILES IDX 86 26 23 27 85 28 24 29 25 30 26 31 79 32 27 33 84 34 78 35
REMARK SMILES IDX 80 36 28 37 83 38 77 39 76 40 29 42 63 43 42 44 62 45 43 46
REMARK SMILES IDX 46 47 61 48 81 49 44 50 45 51 60 53 82 54 47 55 30 56 31 57
REMARK SMILES IDX 40 58 32 59 33 60 39 61 41 62 34 63 35 64 36 65 37 66 38 67
REMARK SMILES IDX 64 68 65 69 74 70 66 71 67 72 73 73 75 74 68 75 69 76 70 77
REMARK SMILES IDX 71 78 72 79 48 80 49 81 58 82 50 83 51 84 57 85 59 86 52 87
REMARK SMILES IDX 53 88 54 89 55 90 56 91
REMARK H PARENT 14 6 18 22 80 41 46 52
REMARK Flexibility Score: inf
ROOT
ATOM      1  C   UNL A   1      38.223  19.799  24.977  1.00  0.00     0.042 C 
ENDROOT
BRANCH   1   2
ATOM      2  C   UNL A   1      36.868  20.481  25.110  1.00  0.00     0.117 C 
BRANCH   2   3
ATOM      3  N   UNL A   1      36.993  21.927  25.210  1.00  0.00    -0.355 N 
ATOM      4  C   UNL A   1      36.134  22.943  25.505  1.00  0.00     0.230 C 
ATOM      5  O   UNL A   1      36.682  24.049  25.479  1.00  0.00    -0.274 OA
ATOM      6  H   UNL A   1      37.907  22.243  25.023  1.00  0.00     0.163 HD
BRANCH   4   7
ATOM      7  C   UNL A   1      34.636  22.706  25.881  1.00  0.00     0.068 C 
ATOM      8  C   UNL A   1      34.012  24.112  26.084  1.00  0.00     0.026 C 
ATOM      9  C   UNL A   1      34.570  21.839  27.158  1.00  0.00     0.026 C 
BRANCH   7  10
ATOM     10  C   UNL A   1      33.733  21.981  24.828  1.00  0.00    -0.031 A 
ATOM     11  C   UNL A   1      32.621  19.979  23.880  1.00  0.00     0.036 A 
ATOM     12  C   UNL A   1      32.191  20.753  22.797  1.00  0.00     0.026 A 
ATOM     13  C   UNL A   1      33.363  20.625  24.890  1.00  0.00     0.030 A 
ATOM     14  C   UNL A   1      32.483  22.111  22.724  1.00  0.00     0.002 A 
ATOM     15  C   UNL A   1      33.245  22.712  23.725  1.00  0.00     0.005 A 
BRANCH  11  16
ATOM     16  N   UNL A   1      32.327  18.612  23.926  1.00  0.00    -0.378 N 
ATOM     17  C   UNL A   1      32.486  17.886  25.179  1.00  0.00     0.143 C 
ATOM     18  C   UNL A   1      32.574  17.870  22.694  1.00  0.00     0.143 C 
ENDBRANCH  11  16
ENDBRANCH   7  10
ENDBRANCH   4   7
ENDBRANCH   2   3
ENDBRANCH   1   2
BRANCH   1  19
ATOM     19  C   UNL A   1      39.296  20.351  25.906  1.00  0.00     0.118 C 
BRANCH  19  20
ATOM     20  N   UNL A   1      40.396  19.420  26.111  1.00  0.00    -0.352 N 
ATOM     21  C   UNL A   1      41.731  19.659  26.311  1.00  0.00     0.251 C 
ATOM     22  H   UNL A   1      40.142  18.468  26.105  1.00  0.00     0.163 HD
ATOM     23  O   UNL A   1      42.523  18.716  26.262  1.00  0.00    -0.269 OA
BRANCH  21  24
ATOM     24  C   UNL A   1      42.227  21.028  26.568  1.00  0.00     0.039 A 
ATOM     25  C   UNL A   1      42.497  21.412  27.885  1.00  0.00     0.014 A 
ATOM     26  C   UNL A   1      42.387  21.950  25.530  1.00  0.00     0.014 A 
ATOM     27  C   UNL A   1      42.966  22.700  28.152  1.00  0.00     0.010 A 
ATOM     28  C   UNL A   1      42.941  23.200  25.787  1.00  0.00     0.010 A 
ATOM     29  C   UNL A   1      43.213  23.598  27.102  1.00  0.00    -0.014 A 
BRANCH  29  30
ATOM     30  C   UNL A   1      43.712  24.972  27.369  1.00  0.00     0.031 A 
ATOM     31  C   UNL A   1      45.156  25.314  27.106  1.00  0.00     0.074 A 
ATOM     32  C   UNL A   1      42.879  25.898  27.884  1.00  0.00     0.049 A 
ATOM     33  N   UNL A   1      45.785  26.446  27.293  1.00  0.00    -0.248 NA
ATOM     34  C   UNL A   1      46.013  24.232  26.594  1.00  0.00     0.031 C 
ATOM     35  C   UNL A   1      41.474  25.673  28.230  1.00  0.00     0.029 A 
ATOM     36  N   UNL A   1      43.093  27.214  28.206  1.00  0.00    -0.354 N 
ATOM     37  C   UNL A   1      47.109  26.207  26.943  1.00  0.00     0.074 A 
ATOM     38  C   UNL A   1      47.205  24.808  26.590  1.00  0.00     0.031 C 
ATOM     39  C   UNL A   1      40.942  26.823  28.676  1.00  0.00     0.029 A 
ATOM     40  C   UNL A   1      41.974  27.856  28.678  1.00  0.00     0.049 A 
ATOM     41  H   UNL A   1      43.967  27.657  28.107  1.00  0.00     0.167 HD
ATOM     42  C   UNL A   1      48.145  27.079  26.892  1.00  0.00     0.037 A 
ATOM     43  C   UNL A   1      41.797  29.135  29.060  1.00  0.00     0.037 A 
ATOM     44  C   UNL A   1      48.034  28.478  27.211  1.00  0.00     0.049 A 
ATOM     45  C   UNL A   1      42.957  30.090  28.976  1.00  0.00     0.074 A 
ATOM     46  C   UNL A   1      49.004  29.460  27.130  1.00  0.00     0.029 A 
ATOM     47  N   UNL A   1      46.878  29.094  27.668  1.00  0.00    -0.354 N 
ATOM     48  N   UNL A   1      44.187  29.863  28.580  1.00  0.00    -0.248 NA
ATOM     49  C   UNL A   1      42.701  31.478  29.382  1.00  0.00     0.031 C 
ATOM     50  C   UNL A   1      48.445  30.664  27.576  1.00  0.00     0.029 A 
ATOM     51  C   UNL A   1      47.114  30.441  27.891  1.00  0.00     0.049 A 
ATOM     52  H   UNL A   1      46.017  28.641  27.815  1.00  0.00     0.167 HD
ATOM     53  C   UNL A   1      44.842  31.086  28.656  1.00  0.00     0.074 A 
ATOM     54  C   UNL A   1      43.870  32.051  29.131  1.00  0.00     0.031 C 
ATOM     55  C   UNL A   1      46.131  31.387  28.355  1.00  0.00     0.037 A 
BRANCH  42  56
ATOM     56  C   UNL A   1      49.486  26.534  26.477  1.00  0.00     0.058 A 
ATOM     57  C   UNL A   1      50.361  25.938  27.402  1.00  0.00     0.135 A 
ATOM     58  C   UNL A   1      49.905  26.608  25.139  1.00  0.00     0.135 A 
ATOM     59  F   UNL A   1      50.019  25.853  28.698  1.00  0.00    -0.206 F 
ATOM     60  C   UNL A   1      51.619  25.480  27.024  1.00  0.00     0.059 A 
ATOM     61  C   UNL A   1      51.146  26.128  24.733  1.00  0.00     0.059 A 
ATOM     62  F   UNL A   1      49.108  27.163  24.211  1.00  0.00    -0.206 F 
ATOM     63  C   UNL A   1      52.005  25.586  25.689  1.00  0.00     0.060 A 
BRANCH  63  64
ATOM     64  S   UNL A   1      53.651  25.011  25.216  1.00  0.00     0.124 S 
ATOM     65  O   UNL A   1      54.476  25.599  26.267  1.00  0.00    -0.237 OA
ATOM     66  O   UNL A   1      53.502  23.560  25.266  1.00  0.00    -0.237 OA
ATOM     67  O   UNL A   1      53.838  25.573  23.882  1.00  0.00    -0.744 OA
ENDBRANCH  63  64
ENDBRANCH  42  56
BRANCH  43  68
ATOM     68  C   UNL A   1      40.454  29.601  29.497  1.00  0.00     0.058 A 
ATOM     69  C   UNL A   1      40.187  29.840  30.854  1.00  0.00     0.135 A 
ATOM     70  C   UNL A   1      39.421  29.832  28.577  1.00  0.00     0.135 A 
ATOM     71  F   UNL A   1      41.143  29.629  31.772  1.00  0.00    -0.206 F 
ATOM     72  C   UNL A   1      38.941  30.281  31.286  1.00  0.00     0.059 A 
ATOM     73  C   UNL A   1      38.173  30.295  28.981  1.00  0.00     0.059 A 
ATOM     74  F   UNL A   1      39.632  29.634  27.266  1.00  0.00    -0.206 F 
ATOM     75  C   UNL A   1      37.940  30.507  30.340  1.00  0.00     0.060 A 
BRANCH  75  76
ATOM     76  S   UNL A   1      36.342  31.131  30.906  1.00  0.00     0.124 S 
ATOM     77  O   UNL A   1      36.695  32.465  31.372  1.00  0.00    -0.237 OA
ATOM     78  O   UNL A   1      35.540  31.071  29.686  1.00  0.00    -0.237 OA
ATOM     79  O   UNL A   1      35.959  30.179  31.944  1.00  0.00    -0.744 OA
ENDBRANCH  75  76
ENDBRANCH  43  68
BRANCH  55  80
ATOM     80  C   UNL A   1      46.549  32.825  28.490  1.00  0.00     0.058 A 
ATOM     81  C   UNL A   1      46.387  33.744  27.443  1.00  0.00     0.135 A 
ATOM     82  C   UNL A   1      47.094  33.292  29.697  1.00  0.00     0.135 A 
ATOM     83  F   UNL A   1      45.876  33.346  26.267  1.00  0.00    -0.206 F 
ATOM     84  C   UNL A   1      46.782  35.071  27.575  1.00  0.00     0.059 A 
ATOM     85  C   UNL A   1      47.470  34.621  29.860  1.00  0.00     0.059 A 
ATOM     86  F   UNL A   1      47.259  32.457  30.735  1.00  0.00    -0.206 F 
ATOM     87  C   UNL A   1      47.326  35.500  28.787  1.00  0.00     0.060 A 
BRANCH  87  88
ATOM     88  S   UNL A   1      47.823  37.228  28.953  1.00  0.00     0.124 S 
ATOM     89  O   UNL A   1      47.659  37.443  30.386  1.00  0.00    -0.237 OA
ATOM     90  O   UNL A   1      49.200  37.207  28.470  1.00  0.00    -0.237 OA
ATOM     91  O   UNL A   1      46.876  37.936  28.098  1.00  0.00    -0.744 OA
ENDBRANCH  87  88
ENDBRANCH  55  80
ENDBRANCH  29  30
ENDBRANCH  21  24
ENDBRANCH  19  20
ENDBRANCH   1  19
TORSDOF 15
ENDMDL
