MODEL 1
REMARK VINA RESULT:     -10.5      0.000      0.000
REMARK SMILES CCC1(CC)CCN(C(=O)NC(=O)CCC(=O)NCCCNC(=O)c2ccc(-c3c4nc(c(-c5c(F)cc(S(=O)(=O)[O-])cc5F)c5ccc([nH]5)c(-c5c(F)cc(S(=O)(=O)[O-])cc5F)c5nc(c(-c6c(F)cc(S(=O)(=O)[O-])cc6F)c6ccc3[nH]6)C=C5)C=C4)cc2)C1
REMARK SMILES IDX 19 1 18 2 16 3 17 4 15 6 14 7 12 8 9 9 10 10 11 11 13 13
REMARK SMILES IDX 8 14 3 15 6 16 91 17 7 18 2 19 1 20 4 21 5 22 20 23 21 24
REMARK SMILES IDX 22 25 23 26 24 28 25 29 26 30 90 31 27 32 89 33 28 34 29 35
REMARK SMILES IDX 30 36 83 37 31 38 88 39 82 40 84 41 32 42 87 43 81 44 80 45
REMARK SMILES IDX 33 47 67 48 46 49 66 50 47 51 50 52 65 53 85 54 48 55 49 56
REMARK SMILES IDX 64 58 86 59 51 60 34 61 35 62 44 63 36 64 37 65 43 66 45 67
REMARK SMILES IDX 38 68 39 69 40 70 41 71 42 72 68 73 69 74 78 75 70 76 71 77
REMARK SMILES IDX 77 78 79 79 72 80 73 81 74 82 75 83 76 84 52 85 53 86 62 87
REMARK SMILES IDX 54 88 55 89 61 90 63 91 56 92 57 93 58 94 59 95 60 96
REMARK H PARENT 18 5 11 12 22 27 84 46 50 57
REMARK Flexibility Score: inf
ROOT
ATOM      1  C   UNL A   1      34.702  24.490  24.955  1.00  0.00     0.117 C 
ENDROOT
BRANCH   1   2
ATOM      2  N   UNL A   1      34.347  23.625  23.841  1.00  0.00    -0.356 N 
ATOM      3  C   UNL A   1      33.256  23.634  23.036  1.00  0.00     0.220 C 
ATOM      4  O   UNL A   1      33.236  22.892  22.055  1.00  0.00    -0.275 OA
ATOM      5  H   UNL A   1      35.005  22.921  23.637  1.00  0.00     0.163 HD
BRANCH   3   6
ATOM      6  C   UNL A   1      32.110  24.566  23.326  1.00  0.00     0.110 C 
BRANCH   6   7
ATOM      7  C   UNL A   1      31.646  25.484  22.208  1.00  0.00     0.110 C 
BRANCH   7   8
ATOM      8  C   UNL A   1      32.662  26.181  21.343  1.00  0.00     0.228 C 
ATOM      9  C   UNL A   1      33.679  28.183  22.706  1.00  0.00     0.324 C 
ATOM     10  O   UNL A   1      34.833  28.622  22.699  1.00  0.00    -0.248 OA
ATOM     11  N   UNL A   1      33.338  27.341  21.668  1.00  0.00    -0.278 N 
ATOM     12  H   UNL A   1      33.724  27.709  20.841  1.00  0.00     0.174 HD
ATOM     13  O   UNL A   1      32.950  25.664  20.254  1.00  0.00    -0.275 OA
BRANCH   9  14
ATOM     14  N   UNL A   1      32.774  28.567  23.640  1.00  0.00    -0.324 N 
ATOM     15  C   UNL A   1      31.948  29.195  25.813  1.00  0.00    -0.011 C 
ATOM     16  C   UNL A   1      31.017  29.723  24.699  1.00  0.00     0.030 C 
ATOM     17  C   UNL A   1      33.217  28.835  25.004  1.00  0.00     0.128 C 
ATOM     18  C   UNL A   1      31.401  28.947  23.463  1.00  0.00     0.122 C 
BRANCH  15  19
ATOM     19  C   UNL A   1      31.325  27.960  26.521  1.00  0.00     0.005 C 
ATOM     20  C   UNL A   1      32.199  26.708  26.546  1.00  0.00     0.004 C 
ENDBRANCH  15  19
BRANCH  15  21
ATOM     21  C   UNL A   1      32.218  30.351  26.812  1.00  0.00     0.005 C 
ATOM     22  C   UNL A   1      33.686  30.510  27.217  1.00  0.00     0.004 C 
ENDBRANCH  15  21
ENDBRANCH   9  14
ENDBRANCH   7   8
ENDBRANCH   6   7
ENDBRANCH   3   6
ENDBRANCH   1   2
BRANCH   1  23
ATOM     23  C   UNL A   1      35.932  24.006  25.715  1.00  0.00     0.042 C 
BRANCH  23  24
ATOM     24  C   UNL A   1      37.149  23.749  24.838  1.00  0.00     0.118 C 
BRANCH  24  25
ATOM     25  N   UNL A   1      37.985  22.702  25.397  1.00  0.00    -0.352 N 
ATOM     26  C   UNL A   1      39.119  22.822  26.163  1.00  0.00     0.251 C 
ATOM     27  H   UNL A   1      37.700  21.780  25.200  1.00  0.00     0.163 HD
ATOM     28  O   UNL A   1      39.874  21.859  26.269  1.00  0.00    -0.269 OA
BRANCH  26  29
ATOM     29  C   UNL A   1      39.441  24.097  26.846  1.00  0.00     0.039 A 
ATOM     30  C   UNL A   1      40.214  25.048  26.173  1.00  0.00     0.014 A 
ATOM     31  C   UNL A   1      39.053  24.335  28.168  1.00  0.00     0.014 A 
ATOM     32  C   UNL A   1      40.573  26.238  26.815  1.00  0.00     0.010 A 
ATOM     33  C   UNL A   1      39.337  25.557  28.776  1.00  0.00     0.010 A 
ATOM     34  C   UNL A   1      40.127  26.511  28.118  1.00  0.00    -0.014 A 
BRANCH  34  35
ATOM     35  C   UNL A   1      40.528  27.757  28.826  1.00  0.00     0.031 A 
ATOM     36  C   UNL A   1      41.906  27.869  29.432  1.00  0.00     0.074 A 
ATOM     37  C   UNL A   1      39.657  28.780  28.944  1.00  0.00     0.049 A 
ATOM     38  N   UNL A   1      42.427  28.848  30.126  1.00  0.00    -0.248 NA
ATOM     39  C   UNL A   1      42.809  26.720  29.250  1.00  0.00     0.031 C 
ATOM     40  C   UNL A   1      38.286  28.788  28.430  1.00  0.00     0.029 A 
ATOM     41  N   UNL A   1      39.795  30.010  29.536  1.00  0.00    -0.354 N 
ATOM     42  C   UNL A   1      43.712  28.433  30.465  1.00  0.00     0.074 A 
ATOM     43  C   UNL A   1      43.868  27.090  29.955  1.00  0.00     0.031 C 
ATOM     44  C   UNL A   1      37.720  29.975  28.704  1.00  0.00     0.029 A 
ATOM     45  C   UNL A   1      38.671  30.798  29.445  1.00  0.00     0.049 A 
ATOM     46  H   UNL A   1      40.622  30.303  29.983  1.00  0.00     0.167 HD
ATOM     47  C   UNL A   1      44.684  29.119  31.112  1.00  0.00     0.037 A 
ATOM     48  C   UNL A   1      38.432  32.041  29.909  1.00  0.00     0.037 A 
ATOM     49  C   UNL A   1      44.538  30.465  31.599  1.00  0.00     0.049 A 
ATOM     50  C   UNL A   1      39.523  32.772  30.648  1.00  0.00     0.074 A 
ATOM     51  C   UNL A   1      45.471  31.252  32.251  1.00  0.00     0.029 A 
ATOM     52  N   UNL A   1      43.386  31.228  31.479  1.00  0.00    -0.354 N 
ATOM     53  N   UNL A   1      40.741  32.374  30.927  1.00  0.00    -0.248 NA
ATOM     54  C   UNL A   1      39.207  34.124  31.130  1.00  0.00     0.031 C 
ATOM     55  C   UNL A   1      44.874  32.481  32.552  1.00  0.00     0.029 A 
ATOM     56  C   UNL A   1      43.583  32.474  32.051  1.00  0.00     0.049 A 
ATOM     57  H   UNL A   1      42.552  30.929  31.051  1.00  0.00     0.167 HD
ATOM     58  C   UNL A   1      41.347  33.440  31.586  1.00  0.00     0.074 A 
ATOM     59  C   UNL A   1      40.365  34.501  31.655  1.00  0.00     0.031 C 
ATOM     60  C   UNL A   1      42.603  33.529  32.090  1.00  0.00     0.037 A 
BRANCH  47  61
ATOM     61  C   UNL A   1      46.008  28.430  31.313  1.00  0.00     0.058 A 
ATOM     62  C   UNL A   1      46.254  27.640  32.449  1.00  0.00     0.135 A 
ATOM     63  C   UNL A   1      47.022  28.519  30.347  1.00  0.00     0.135 A 
ATOM     64  F   UNL A   1      45.326  27.532  33.412  1.00  0.00    -0.206 F 
ATOM     65  C   UNL A   1      47.468  26.985  32.630  1.00  0.00     0.059 A 
ATOM     66  C   UNL A   1      48.234  27.850  30.495  1.00  0.00     0.059 A 
ATOM     67  F   UNL A   1      46.840  29.260  29.242  1.00  0.00    -0.206 F 
ATOM     68  C   UNL A   1      48.452  27.095  31.647  1.00  0.00     0.060 A 
BRANCH  68  69
ATOM     69  S   UNL A   1      50.015  26.225  31.894  1.00  0.00     0.124 S 
ATOM     70  O   UNL A   1      49.820  25.037  31.070  1.00  0.00    -0.237 OA
ATOM     71  O   UNL A   1      50.991  27.188  31.399  1.00  0.00    -0.237 OA
ATOM     72  O   UNL A   1      50.047  25.989  33.336  1.00  0.00    -0.744 OA
ENDBRANCH  68  69
ENDBRANCH  47  61
BRANCH  48  73
ATOM     73  C   UNL A   1      37.113  32.690  29.678  1.00  0.00     0.058 A 
ATOM     74  C   UNL A   1      36.945  33.637  28.657  1.00  0.00     0.135 A 
ATOM     75  C   UNL A   1      36.005  32.399  30.488  1.00  0.00     0.135 A 
ATOM     76  F   UNL A   1      37.976  33.954  27.859  1.00  0.00    -0.206 F 
ATOM     77  C   UNL A   1      35.736  34.299  28.469  1.00  0.00     0.059 A 
ATOM     78  C   UNL A   1      34.778  33.028  30.301  1.00  0.00     0.059 A 
ATOM     79  F   UNL A   1      36.108  31.488  31.468  1.00  0.00    -0.206 F 
ATOM     80  C   UNL A   1      34.658  33.991  29.300  1.00  0.00     0.060 A 
BRANCH  80  81
ATOM     81  S   UNL A   1      33.090  34.849  29.043  1.00  0.00     0.124 S 
ATOM     82  O   UNL A   1      32.450  33.997  28.049  1.00  0.00    -0.237 OA
ATOM     83  O   UNL A   1      32.503  34.825  30.379  1.00  0.00    -0.237 OA
ATOM     84  O   UNL A   1      33.504  36.168  28.572  1.00  0.00    -0.744 OA
ENDBRANCH  80  81
ENDBRANCH  48  73
BRANCH  60  85
ATOM     85  C   UNL A   1      43.006  34.836  32.716  1.00  0.00     0.058 A 
ATOM     86  C   UNL A   1      43.580  35.871  31.960  1.00  0.00     0.135 A 
ATOM     87  C   UNL A   1      42.770  35.073  34.079  1.00  0.00     0.135 A 
ATOM     88  F   UNL A   1      43.833  35.694  30.654  1.00  0.00    -0.206 F 
ATOM     89  C   UNL A   1      43.927  37.086  32.541  1.00  0.00     0.059 A 
ATOM     90  C   UNL A   1      43.084  36.290  34.675  1.00  0.00     0.059 A 
ATOM     91  F   UNL A   1      42.213  34.119  34.844  1.00  0.00    -0.206 F 
ATOM     92  C   UNL A   1      43.674  37.287  33.900  1.00  0.00     0.060 A 
BRANCH  92  93
ATOM     93  S   UNL A   1      44.098  38.881  34.634  1.00  0.00     0.124 S 
ATOM     94  O   UNL A   1      44.080  38.564  36.058  1.00  0.00    -0.237 OA
ATOM     95  O   UNL A   1      45.413  39.150  34.060  1.00  0.00    -0.237 OA
ATOM     96  O   UNL A   1      43.029  39.762  34.172  1.00  0.00    -0.744 OA
ENDBRANCH  92  93
ENDBRANCH  60  85
ENDBRANCH  34  35
ENDBRANCH  26  29
ENDBRANCH  24  25
ENDBRANCH  23  24
ENDBRANCH   1  23
TORSDOF 18
ENDMDL
MODEL 2
REMARK VINA RESULT:     -10.4      3.204      4.089
REMARK SMILES CCC1(CC)CCN(C(=O)NC(=O)CCC(=O)NCCCNC(=O)c2ccc(-c3c4nc(c(-c5c(F)cc(S(=O)(=O)[O-])cc5F)c5ccc([nH]5)c(-c5c(F)cc(S(=O)(=O)[O-])cc5F)c5nc(c(-c6c(F)cc(S(=O)(=O)[O-])cc6F)c6ccc3[nH]6)C=C5)C=C4)cc2)C1
REMARK SMILES IDX 19 1 18 2 16 3 17 4 15 6 14 7 12 8 9 9 10 10 11 11 13 13
REMARK SMILES IDX 8 14 3 15 6 16 91 17 7 18 2 19 1 20 4 21 5 22 20 23 21 24
REMARK SMILES IDX 22 25 23 26 24 28 25 29 26 30 90 31 27 32 89 33 28 34 29 35
REMARK SMILES IDX 30 36 83 37 31 38 88 39 82 40 84 41 32 42 87 43 81 44 80 45
REMARK SMILES IDX 33 47 67 48 46 49 66 50 47 51 50 52 65 53 85 54 48 55 49 56
REMARK SMILES IDX 64 58 86 59 51 60 34 61 35 62 44 63 36 64 37 65 43 66 45 67
REMARK SMILES IDX 38 68 39 69 40 70 41 71 42 72 68 73 69 74 78 75 70 76 71 77
REMARK SMILES IDX 77 78 79 79 72 80 73 81 74 82 75 83 76 84 52 85 53 86 62 87
REMARK SMILES IDX 54 88 55 89 61 90 63 91 56 92 57 93 58 94 59 95 60 96
REMARK H PARENT 18 5 11 12 22 27 84 46 50 57
REMARK Flexibility Score: inf
ROOT
ATOM      1  C   UNL A   1      37.723  22.973  25.915  1.00  0.00     0.117 C 
ENDROOT
BRANCH   1   2
ATOM      2  N   UNL A   1      37.291  22.925  24.527  1.00  0.00    -0.356 N 
ATOM      3  C   UNL A   1      36.116  23.295  23.961  1.00  0.00     0.220 C 
ATOM      4  O   UNL A   1      36.024  23.301  22.734  1.00  0.00    -0.275 OA
ATOM      5  H   UNL A   1      37.958  22.567  23.897  1.00  0.00     0.163 HD
BRANCH   3   6
ATOM      6  C   UNL A   1      34.961  23.726  24.825  1.00  0.00     0.110 C 
BRANCH   6   7
ATOM      7  C   UNL A   1      33.664  22.945  24.712  1.00  0.00     0.110 C 
BRANCH   7   8
ATOM      8  C   UNL A   1      33.103  22.621  23.353  1.00  0.00     0.228 C 
ATOM      9  C   UNL A   1      32.789  24.866  22.027  1.00  0.00     0.324 C 
ATOM     10  O   UNL A   1      32.939  25.085  20.821  1.00  0.00    -0.248 OA
ATOM     11  N   UNL A   1      32.705  23.543  22.404  1.00  0.00    -0.278 N 
ATOM     12  H   UNL A   1      32.148  23.075  21.742  1.00  0.00     0.174 HD
ATOM     13  O   UNL A   1      33.012  21.427  23.032  1.00  0.00    -0.275 OA
BRANCH   9  14
ATOM     14  N   UNL A   1      32.641  25.874  22.922  1.00  0.00    -0.324 N 
ATOM     15  C   UNL A   1      31.586  27.182  24.647  1.00  0.00    -0.011 C 
ATOM     16  C   UNL A   1      33.111  27.430  24.627  1.00  0.00     0.030 C 
ATOM     17  C   UNL A   1      31.476  25.893  23.800  1.00  0.00     0.128 C 
ATOM     18  C   UNL A   1      33.580  26.894  23.296  1.00  0.00     0.122 C 
BRANCH  15  19
ATOM     19  C   UNL A   1      30.820  28.377  24.013  1.00  0.00     0.005 C 
ATOM     20  C   UNL A   1      29.692  27.998  23.056  1.00  0.00     0.004 C 
ENDBRANCH  15  19
BRANCH  15  21
ATOM     21  C   UNL A   1      31.152  26.939  26.116  1.00  0.00     0.005 C 
ATOM     22  C   UNL A   1      31.875  27.812  27.145  1.00  0.00     0.004 C 
ENDBRANCH  15  21
ENDBRANCH   9  14
ENDBRANCH   7   8
ENDBRANCH   6   7
ENDBRANCH   3   6
ENDBRANCH   1   2
BRANCH   1  23
ATOM     23  C   UNL A   1      39.039  22.242  26.153  1.00  0.00     0.042 C 
BRANCH  23  24
ATOM     24  C   UNL A   1      40.035  23.009  27.012  1.00  0.00     0.118 C 
BRANCH  24  25
ATOM     25  N   UNL A   1      41.153  23.486  26.219  1.00  0.00    -0.352 N 
ATOM     26  C   UNL A   1      41.706  24.744  26.180  1.00  0.00     0.251 C 
ATOM     27  H   UNL A   1      41.572  22.819  25.630  1.00  0.00     0.163 HD
ATOM     28  O   UNL A   1      42.417  25.054  25.227  1.00  0.00    -0.269 OA
BRANCH  26  29
ATOM     29  C   UNL A   1      41.443  25.722  27.261  1.00  0.00     0.039 A 
ATOM     30  C   UNL A   1      42.281  26.834  27.385  1.00  0.00     0.014 A 
ATOM     31  C   UNL A   1      40.426  25.517  28.199  1.00  0.00     0.014 A 
ATOM     32  C   UNL A   1      42.084  27.746  28.427  1.00  0.00     0.010 A 
ATOM     33  C   UNL A   1      40.177  26.472  29.186  1.00  0.00     0.010 A 
ATOM     34  C   UNL A   1      41.021  27.581  29.330  1.00  0.00    -0.014 A 
BRANCH  34  35
ATOM     35  C   UNL A   1      40.819  28.524  30.464  1.00  0.00     0.031 A 
ATOM     36  C   UNL A   1      41.686  28.417  31.696  1.00  0.00     0.074 A 
ATOM     37  C   UNL A   1      39.852  29.461  30.402  1.00  0.00     0.049 A 
ATOM     38  N   UNL A   1      41.636  29.110  32.805  1.00  0.00    -0.248 NA
ATOM     39  C   UNL A   1      42.731  27.381  31.687  1.00  0.00     0.031 C 
ATOM     40  C   UNL A   1      38.928  29.652  29.282  1.00  0.00     0.029 A 
ATOM     41  N   UNL A   1      39.484  30.430  31.302  1.00  0.00    -0.354 N 
ATOM     42  C   UNL A   1      42.636  28.594  33.622  1.00  0.00     0.074 A 
ATOM     43  C   UNL A   1      43.234  27.488  32.908  1.00  0.00     0.031 C 
ATOM     44  C   UNL A   1      38.120  30.691  29.550  1.00  0.00     0.029 A 
ATOM     45  C   UNL A   1      38.440  31.216  30.873  1.00  0.00     0.049 A 
ATOM     46  H   UNL A   1      39.927  30.551  32.173  1.00  0.00     0.167 HD
ATOM     47  C   UNL A   1      43.043  29.020  34.842  1.00  0.00     0.037 A 
ATOM     48  C   UNL A   1      37.810  32.242  31.479  1.00  0.00     0.037 A 
ATOM     49  C   UNL A   1      42.464  30.135  35.543  1.00  0.00     0.049 A 
ATOM     50  C   UNL A   1      38.265  32.680  32.847  1.00  0.00     0.074 A 
ATOM     51  C   UNL A   1      42.818  30.656  36.776  1.00  0.00     0.029 A 
ATOM     52  N   UNL A   1      41.414  30.908  35.070  1.00  0.00    -0.354 N 
ATOM     53  N   UNL A   1      39.236  32.200  33.587  1.00  0.00    -0.248 NA
ATOM     54  C   UNL A   1      37.543  33.804  33.459  1.00  0.00     0.031 C 
ATOM     55  C   UNL A   1      41.963  31.726  37.061  1.00  0.00     0.029 A 
ATOM     56  C   UNL A   1      41.104  31.898  35.989  1.00  0.00     0.049 A 
ATOM     57  H   UNL A   1      40.957  30.774  34.209  1.00  0.00     0.167 HD
ATOM     58  C   UNL A   1      39.262  32.986  34.736  1.00  0.00     0.074 A 
ATOM     59  C   UNL A   1      38.217  33.977  34.587  1.00  0.00     0.031 C 
ATOM     60  C   UNL A   1      40.076  32.892  35.816  1.00  0.00     0.037 A 
BRANCH  47  61
ATOM     61  C   UNL A   1      44.188  28.289  35.490  1.00  0.00     0.058 A 
ATOM     62  C   UNL A   1      43.966  27.207  36.359  1.00  0.00     0.135 A 
ATOM     63  C   UNL A   1      45.518  28.639  35.210  1.00  0.00     0.135 A 
ATOM     64  F   UNL A   1      42.714  26.840  36.674  1.00  0.00    -0.206 F 
ATOM     65  C   UNL A   1      45.020  26.516  36.945  1.00  0.00     0.059 A 
ATOM     66  C   UNL A   1      46.589  27.943  35.764  1.00  0.00     0.059 A 
ATOM     67  F   UNL A   1      45.789  29.664  34.387  1.00  0.00    -0.206 F 
ATOM     68  C   UNL A   1      46.330  26.890  36.641  1.00  0.00     0.060 A 
BRANCH  68  69
ATOM     69  S   UNL A   1      47.685  25.970  37.400  1.00  0.00     0.124 S 
ATOM     70  O   UNL A   1      48.413  27.034  38.083  1.00  0.00    -0.237 OA
ATOM     71  O   UNL A   1      46.980  25.029  38.263  1.00  0.00    -0.237 OA
ATOM     72  O   UNL A   1      48.373  25.373  36.257  1.00  0.00    -0.744 OA
ENDBRANCH  68  69
ENDBRANCH  47  61
BRANCH  48  73
ATOM     73  C   UNL A   1      36.689  32.945  30.798  1.00  0.00     0.058 A 
ATOM     74  C   UNL A   1      36.936  33.879  29.780  1.00  0.00     0.135 A 
ATOM     75  C   UNL A   1      35.354  32.720  31.167  1.00  0.00     0.135 A 
ATOM     76  F   UNL A   1      38.196  34.133  29.395  1.00  0.00    -0.206 F 
ATOM     77  C   UNL A   1      35.904  34.590  29.177  1.00  0.00     0.059 A 
ATOM     78  C   UNL A   1      34.303  33.400  30.559  1.00  0.00     0.059 A 
ATOM     79  F   UNL A   1      35.062  31.824  32.123  1.00  0.00    -0.206 F 
ATOM     80  C   UNL A   1      34.590  34.346  29.577  1.00  0.00     0.060 A 
BRANCH  80  81
ATOM     81  S   UNL A   1      33.255  35.269  28.783  1.00  0.00     0.124 S 
ATOM     82  O   UNL A   1      32.601  34.224  28.005  1.00  0.00    -0.237 OA
ATOM     83  O   UNL A   1      32.507  35.777  29.929  1.00  0.00    -0.237 OA
ATOM     84  O   UNL A   1      33.965  36.283  28.008  1.00  0.00    -0.744 OA
ENDBRANCH  80  81
ENDBRANCH  48  73
BRANCH  60  85
ATOM     85  C   UNL A   1      39.907  33.919  36.901  1.00  0.00     0.058 A 
ATOM     86  C   UNL A   1      40.523  35.179  36.830  1.00  0.00     0.135 A 
ATOM     87  C   UNL A   1      39.077  33.657  38.003  1.00  0.00     0.135 A 
ATOM     88  F   UNL A   1      41.332  35.478  35.801  1.00  0.00    -0.206 F 
ATOM     89  C   UNL A   1      40.342  36.132  37.826  1.00  0.00     0.059 A 
ATOM     90  C   UNL A   1      38.859  34.605  38.997  1.00  0.00     0.059 A 
ATOM     91  F   UNL A   1      38.455  32.471  38.113  1.00  0.00    -0.206 F 
ATOM     92  C   UNL A   1      39.506  35.837  38.906  1.00  0.00     0.060 A 
BRANCH  92  93
ATOM     93  S   UNL A   1      39.251  37.096  40.174  1.00  0.00     0.124 S 
ATOM     94  O   UNL A   1      40.624  37.432  40.535  1.00  0.00    -0.237 OA
ATOM     95  O   UNL A   1      38.515  38.127  39.449  1.00  0.00    -0.237 OA
ATOM     96  O   UNL A   1      38.485  36.394  41.200  1.00  0.00    -0.744 OA
ENDBRANCH  92  93
ENDBRANCH  60  85
ENDBRANCH  34  35
ENDBRANCH  26  29
ENDBRANCH  24  25
ENDBRANCH  23  24
ENDBRANCH   1  23
TORSDOF 18
ENDMDL
MODEL 3
REMARK VINA RESULT:     -10.4      3.589      5.263
REMARK SMILES CCC1(CC)CCN(C(=O)NC(=O)CCC(=O)NCCCNC(=O)c2ccc(-c3c4nc(c(-c5c(F)cc(S(=O)(=O)[O-])cc5F)c5ccc([nH]5)c(-c5c(F)cc(S(=O)(=O)[O-])cc5F)c5nc(c(-c6c(F)cc(S(=O)(=O)[O-])cc6F)c6ccc3[nH]6)C=C5)C=C4)cc2)C1
REMARK SMILES IDX 19 1 18 2 16 3 17 4 15 6 14 7 12 8 9 9 10 10 11 11 13 13
REMARK SMILES IDX 8 14 3 15 6 16 91 17 7 18 2 19 1 20 4 21 5 22 20 23 21 24
REMARK SMILES IDX 22 25 23 26 24 28 25 29 26 30 90 31 27 32 89 33 28 34 29 35
REMARK SMILES IDX 30 36 83 37 31 38 88 39 82 40 84 41 32 42 87 43 81 44 80 45
REMARK SMILES IDX 33 47 67 48 46 49 66 50 47 51 50 52 65 53 85 54 48 55 49 56
REMARK SMILES IDX 64 58 86 59 51 60 34 61 35 62 44 63 36 64 37 65 43 66 45 67
REMARK SMILES IDX 38 68 39 69 40 70 41 71 42 72 68 73 69 74 78 75 70 76 71 77
REMARK SMILES IDX 77 78 79 79 72 80 73 81 74 82 75 83 76 84 52 85 53 86 62 87
REMARK SMILES IDX 54 88 55 89 61 90 63 91 56 92 57 93 58 94 59 95 60 96
REMARK H PARENT 18 5 11 12 22 27 84 46 50 57
REMARK Flexibility Score: inf
ROOT
ATOM      1  C   UNL A   1      37.986  22.657  25.985  1.00  0.00     0.117 C 
ENDROOT
BRANCH   1   2
ATOM      2  N   UNL A   1      37.500  22.541  24.619  1.00  0.00    -0.356 N 
ATOM      3  C   UNL A   1      36.539  23.241  23.967  1.00  0.00     0.220 C 
ATOM      4  O   UNL A   1      36.395  23.066  22.758  1.00  0.00    -0.275 OA
ATOM      5  H   UNL A   1      37.939  21.842  24.081  1.00  0.00     0.163 HD
BRANCH   3   6
ATOM      6  C   UNL A   1      35.694  24.240  24.711  1.00  0.00     0.110 C 
BRANCH   6   7
ATOM      7  C   UNL A   1      34.239  24.380  24.300  1.00  0.00     0.110 C 
BRANCH   7   8
ATOM      8  C   UNL A   1      33.200  24.730  25.332  1.00  0.00     0.228 C 
ATOM      9  C   UNL A   1      32.798  22.624  26.850  1.00  0.00     0.324 C 
ATOM     10  O   UNL A   1      32.553  22.573  28.059  1.00  0.00    -0.248 OA
ATOM     11  N   UNL A   1      32.646  23.855  26.247  1.00  0.00    -0.278 N 
ATOM     12  H   UNL A   1      31.829  24.270  26.605  1.00  0.00     0.174 HD
ATOM     13  O   UNL A   1      32.822  25.908  25.399  1.00  0.00    -0.275 OA
BRANCH   9  14
ATOM     14  N   UNL A   1      33.124  21.516  26.139  1.00  0.00    -0.324 N 
ATOM     15  C   UNL A   1      32.791  19.625  24.687  1.00  0.00    -0.011 C 
ATOM     16  C   UNL A   1      34.278  20.047  24.705  1.00  0.00     0.030 C 
ATOM     17  C   UNL A   1      32.114  20.868  25.310  1.00  0.00     0.128 C 
ATOM     18  C   UNL A   1      34.420  20.940  25.914  1.00  0.00     0.122 C 
BRANCH  15  19
ATOM     19  C   UNL A   1      32.568  18.340  25.532  1.00  0.00     0.005 C 
ATOM     20  C   UNL A   1      33.245  17.080  24.999  1.00  0.00     0.004 C 
ENDBRANCH  15  19
BRANCH  15  21
ATOM     21  C   UNL A   1      32.360  19.421  23.211  1.00  0.00     0.005 C 
ATOM     22  C   UNL A   1      32.081  20.718  22.446  1.00  0.00     0.004 C 
ENDBRANCH  15  21
ENDBRANCH   9  14
ENDBRANCH   7   8
ENDBRANCH   6   7
ENDBRANCH   3   6
ENDBRANCH   1   2
BRANCH   1  23
ATOM     23  C   UNL A   1      39.380  22.069  26.172  1.00  0.00     0.042 C 
BRANCH  23  24
ATOM     24  C   UNL A   1      40.315  22.928  27.010  1.00  0.00     0.118 C 
BRANCH  24  25
ATOM     25  N   UNL A   1      41.423  23.426  26.215  1.00  0.00    -0.352 N 
ATOM     26  C   UNL A   1      41.957  24.692  26.180  1.00  0.00     0.251 C 
ATOM     27  H   UNL A   1      41.850  22.768  25.622  1.00  0.00     0.163 HD
ATOM     28  O   UNL A   1      42.660  25.018  25.227  1.00  0.00    -0.269 OA
BRANCH  26  29
ATOM     29  C   UNL A   1      41.683  25.661  27.268  1.00  0.00     0.039 A 
ATOM     30  C   UNL A   1      42.478  26.807  27.367  1.00  0.00     0.014 A 
ATOM     31  C   UNL A   1      40.702  25.416  28.233  1.00  0.00     0.014 A 
ATOM     32  C   UNL A   1      42.272  27.711  28.414  1.00  0.00     0.010 A 
ATOM     33  C   UNL A   1      40.440  26.361  29.225  1.00  0.00     0.010 A 
ATOM     34  C   UNL A   1      41.241  27.505  29.346  1.00  0.00    -0.014 A 
BRANCH  34  35
ATOM     35  C   UNL A   1      41.032  28.441  30.484  1.00  0.00     0.031 A 
ATOM     36  C   UNL A   1      41.901  28.339  31.714  1.00  0.00     0.074 A 
ATOM     37  C   UNL A   1      40.054  29.368  30.427  1.00  0.00     0.049 A 
ATOM     38  N   UNL A   1      41.846  29.027  32.825  1.00  0.00    -0.248 NA
ATOM     39  C   UNL A   1      42.958  27.313  31.698  1.00  0.00     0.031 C 
ATOM     40  C   UNL A   1      39.126  29.553  29.310  1.00  0.00     0.029 A 
ATOM     41  N   UNL A   1      39.678  30.329  31.332  1.00  0.00    -0.354 N 
ATOM     42  C   UNL A   1      42.854  28.517  33.639  1.00  0.00     0.074 A 
ATOM     43  C   UNL A   1      43.462  27.421  32.919  1.00  0.00     0.031 C 
ATOM     44  C   UNL A   1      38.307  30.582  29.583  1.00  0.00     0.029 A 
ATOM     45  C   UNL A   1      38.624  31.106  30.908  1.00  0.00     0.049 A 
ATOM     46  H   UNL A   1      40.120  30.452  32.203  1.00  0.00     0.167 HD
ATOM     47  C   UNL A   1      43.258  28.943  34.860  1.00  0.00     0.037 A 
ATOM     48  C   UNL A   1      37.984  32.123  31.520  1.00  0.00     0.037 A 
ATOM     49  C   UNL A   1      42.668  30.049  35.567  1.00  0.00     0.049 A 
ATOM     50  C   UNL A   1      38.438  32.560  32.889  1.00  0.00     0.074 A 
ATOM     51  C   UNL A   1      43.019  30.569  36.801  1.00  0.00     0.029 A 
ATOM     52  N   UNL A   1      41.609  30.813  35.099  1.00  0.00    -0.354 N 
ATOM     53  N   UNL A   1      39.415  32.087  33.625  1.00  0.00    -0.248 NA
ATOM     54  C   UNL A   1      37.704  33.674  33.507  1.00  0.00     0.031 C 
ATOM     55  C   UNL A   1      42.153  31.628  37.092  1.00  0.00     0.029 A 
ATOM     56  C   UNL A   1      41.291  31.795  36.022  1.00  0.00     0.049 A 
ATOM     57  H   UNL A   1      41.152  30.677  34.238  1.00  0.00     0.167 HD
ATOM     58  C   UNL A   1      39.435  32.868  34.777  1.00  0.00     0.074 A 
ATOM     59  C   UNL A   1      38.379  33.849  34.634  1.00  0.00     0.031 C 
ATOM     60  C   UNL A   1      40.252  32.779  35.855  1.00  0.00     0.037 A 
BRANCH  47  61
ATOM     61  C   UNL A   1      44.412  28.222  35.503  1.00  0.00     0.058 A 
ATOM     62  C   UNL A   1      45.739  28.635  35.294  1.00  0.00     0.135 A 
ATOM     63  C   UNL A   1      44.194  27.138  36.368  1.00  0.00     0.135 A 
ATOM     64  F   UNL A   1      46.007  29.655  34.463  1.00  0.00    -0.206 F 
ATOM     65  C   UNL A   1      46.808  27.984  35.900  1.00  0.00     0.059 A 
ATOM     66  C   UNL A   1      45.248  26.490  37.007  1.00  0.00     0.059 A 
ATOM     67  F   UNL A   1      42.947  26.702  36.603  1.00  0.00    -0.206 F 
ATOM     68  C   UNL A   1      46.552  26.913  36.757  1.00  0.00     0.060 A 
BRANCH  68  69
ATOM     69  S   UNL A   1      47.953  26.091  37.546  1.00  0.00     0.124 S 
ATOM     70  O   UNL A   1      48.895  25.989  36.437  1.00  0.00    -0.237 OA
ATOM     71  O   UNL A   1      48.314  27.031  38.601  1.00  0.00    -0.237 OA
ATOM     72  O   UNL A   1      47.388  24.824  38.006  1.00  0.00    -0.744 OA
ENDBRANCH  68  69
ENDBRANCH  47  61
BRANCH  48  73
ATOM     73  C   UNL A   1      36.855  32.817  30.843  1.00  0.00     0.058 A 
ATOM     74  C   UNL A   1      35.525  32.533  31.189  1.00  0.00     0.135 A 
ATOM     75  C   UNL A   1      37.080  33.753  29.824  1.00  0.00     0.135 A 
ATOM     76  F   UNL A   1      35.258  31.641  32.154  1.00  0.00    -0.206 F 
ATOM     77  C   UNL A   1      34.457  33.127  30.524  1.00  0.00     0.059 A 
ATOM     78  C   UNL A   1      36.027  34.381  29.162  1.00  0.00     0.059 A 
ATOM     79  F   UNL A   1      38.333  34.073  29.467  1.00  0.00    -0.206 F 
ATOM     80  C   UNL A   1      34.719  34.047  29.508  1.00  0.00     0.060 A 
BRANCH  80  81
ATOM     81  S   UNL A   1      33.326  34.819  28.655  1.00  0.00     0.124 S 
ATOM     82  O   UNL A   1      32.422  35.096  29.764  1.00  0.00    -0.237 OA
ATOM     83  O   UNL A   1      33.952  35.981  28.033  1.00  0.00    -0.237 OA
ATOM     84  O   UNL A   1      32.887  33.781  27.726  1.00  0.00    -0.744 OA
ENDBRANCH  80  81
ENDBRANCH  48  73
BRANCH  60  85
ATOM     85  C   UNL A   1      40.074  33.800  36.945  1.00  0.00     0.058 A 
ATOM     86  C   UNL A   1      40.811  34.994  36.967  1.00  0.00     0.135 A 
ATOM     87  C   UNL A   1      39.117  33.601  37.954  1.00  0.00     0.135 A 
ATOM     88  F   UNL A   1      41.743  35.230  36.030  1.00  0.00    -0.206 F 
ATOM     89  C   UNL A   1      40.623  35.945  37.965  1.00  0.00     0.059 A 
ATOM     90  C   UNL A   1      38.892  34.550  38.946  1.00  0.00     0.059 A 
ATOM     91  F   UNL A   1      38.377  32.480  37.971  1.00  0.00    -0.206 F 
ATOM     92  C   UNL A   1      39.659  35.714  38.950  1.00  0.00     0.060 A 
BRANCH  92  93
ATOM     93  S   UNL A   1      39.400  36.971  40.219  1.00  0.00     0.124 S 
ATOM     94  O   UNL A   1      38.775  38.042  39.451  1.00  0.00    -0.237 OA
ATOM     95  O   UNL A   1      38.532  36.283  41.170  1.00  0.00    -0.237 OA
ATOM     96  O   UNL A   1      40.750  37.249  40.702  1.00  0.00    -0.744 OA
ENDBRANCH  92  93
ENDBRANCH  60  85
ENDBRANCH  34  35
ENDBRANCH  26  29
ENDBRANCH  24  25
ENDBRANCH  23  24
ENDBRANCH   1  23
TORSDOF 18
ENDMDL
