MODEL 1
REMARK VINA RESULT:     -12.6      0.000      0.000
REMARK SMILES Cc1oc(C)c(S(=O)(=O)Nn2c(C)ccc2C)c1C(=O)NCCCNC(=O)c1ccc(-c2c3nc(c(-c4c(F)cc(S(=O)(=O)[O-])cc4F)c4ccc([nH]4)c(-c4c(F)cc(S(=O)(=O)[O-])cc4F)c4nc(c(-c5c(F)cc(S(=O)(=O)[O-])cc5F)c5ccc2[nH]5)C=C4)C=C3)cc1
REMARK SMILES IDX 23 1 22 2 21 3 19 4 20 5 18 7 1 8 2 9 3 10 4 11 6 12 5 13
REMARK SMILES IDX 7 14 8 15 9 16 10 17 11 19 12 20 16 21 13 22 14 23 15 24
REMARK SMILES IDX 17 25 24 26 25 27 26 28 27 30 28 31 29 32 93 33 30 34 92 35
REMARK SMILES IDX 31 36 32 37 33 38 86 39 34 40 91 41 85 42 87 43 35 44 90 45
REMARK SMILES IDX 84 46 83 47 36 49 70 50 49 51 69 52 50 53 53 54 68 55 88 56
REMARK SMILES IDX 51 57 52 58 67 60 89 61 54 62 37 63 38 64 47 65 39 66 40 67
REMARK SMILES IDX 46 68 48 69 41 70 42 71 43 72 44 73 45 74 71 75 72 76 81 77
REMARK SMILES IDX 73 78 74 79 80 80 82 81 75 82 76 83 77 84 78 85 79 86 55 87
REMARK SMILES IDX 56 88 65 89 57 90 58 91 64 92 66 93 59 94 60 95 61 96 62 97
REMARK SMILES IDX 63 98
REMARK H PARENT 21 6 10 18 25 29 87 48 53 59
REMARK Flexibility Score: inf
ROOT
ATOM      1  C   UNL A   1      39.013  22.852  26.025  1.00  0.00     0.042 C 
ENDROOT
BRANCH   1   2
ATOM      2  C   UNL A   1      37.563  23.363  25.824  1.00  0.00     0.118 C 
BRANCH   2   3
ATOM      3  N   UNL A   1      36.884  23.115  24.556  1.00  0.00    -0.352 N 
ATOM      4  C   UNL A   1      35.645  23.439  24.039  1.00  0.00     0.256 C 
ATOM      5  O   UNL A   1      35.510  23.388  22.816  1.00  0.00    -0.269 OA
ATOM      6  H   UNL A   1      37.436  22.600  23.924  1.00  0.00     0.163 HD
BRANCH   4   7
ATOM      7  C   UNL A   1      34.487  23.782  24.848  1.00  0.00     0.101 A 
ATOM      8  C   UNL A   1      33.902  26.293  24.198  1.00  0.00     0.088 C 
ATOM      9  C   UNL A   1      33.781  24.981  24.868  1.00  0.00     0.115 A 
ATOM     10  O   UNL A   1      32.655  24.871  25.626  1.00  0.00    -0.464 OA
ATOM     11  C   UNL A   1      32.564  23.588  26.047  1.00  0.00     0.122 A 
ATOM     12  C   UNL A   1      33.667  22.872  25.618  1.00  0.00     0.143 A 
ATOM     13  C   UNL A   1      31.331  23.240  26.791  1.00  0.00     0.089 C 
BRANCH  12  14
ATOM     14  S   UNL A   1      33.808  21.192  25.968  1.00  0.00     0.279 S 
ATOM     15  O   UNL A   1      35.008  20.786  25.260  1.00  0.00    -0.200 OA
ATOM     16  O   UNL A   1      33.803  21.182  27.418  1.00  0.00    -0.200 OA
BRANCH  14  17
ATOM     17  N   UNL A   1      32.596  20.176  25.552  1.00  0.00    -0.216 N 
ATOM     18  H   UNL A   1      31.780  20.247  26.097  1.00  0.00     0.202 HD
BRANCH  17  19
ATOM     19  N   UNL A   1      32.555  19.229  24.543  1.00  0.00    -0.256 N 
ATOM     20  C   UNL A   1      32.705  17.863  24.587  1.00  0.00     0.038 A 
ATOM     21  C   UNL A   1      32.307  19.635  23.245  1.00  0.00     0.038 A 
ATOM     22  C   UNL A   1      32.869  17.000  25.786  1.00  0.00     0.067 C 
ATOM     23  C   UNL A   1      32.598  17.416  23.280  1.00  0.00     0.025 A 
ATOM     24  C   UNL A   1      32.415  18.525  22.436  1.00  0.00     0.025 A 
ATOM     25  C   UNL A   1      32.053  21.043  22.829  1.00  0.00     0.067 C 
ENDBRANCH  17  19
ENDBRANCH  14  17
ENDBRANCH  12  14
ENDBRANCH   4   7
ENDBRANCH   2   3
ENDBRANCH   1   2
BRANCH   1  26
ATOM     26  C   UNL A   1      39.288  21.371  26.377  1.00  0.00     0.118 C 
BRANCH  26  27
ATOM     27  N   UNL A   1      40.596  20.876  25.977  1.00  0.00    -0.352 N 
ATOM     28  C   UNL A   1      41.890  21.345  26.130  1.00  0.00     0.251 C 
ATOM     29  H   UNL A   1      40.551  20.022  25.491  1.00  0.00     0.163 HD
ATOM     30  O   UNL A   1      42.758  20.640  25.604  1.00  0.00    -0.269 OA
BRANCH  28  31
ATOM     31  C   UNL A   1      42.320  22.678  26.713  1.00  0.00     0.039 A 
ATOM     32  C   UNL A   1      41.928  22.897  28.029  1.00  0.00     0.014 A 
ATOM     33  C   UNL A   1      42.781  23.823  26.033  1.00  0.00     0.014 A 
ATOM     34  C   UNL A   1      42.042  24.176  28.647  1.00  0.00     0.010 A 
ATOM     35  C   UNL A   1      42.805  25.165  26.650  1.00  0.00     0.010 A 
ATOM     36  C   UNL A   1      42.408  25.398  27.984  1.00  0.00    -0.014 A 
BRANCH  36  37
ATOM     37  C   UNL A   1      41.847  26.752  28.674  1.00  0.00     0.031 A 
ATOM     38  C   UNL A   1      43.094  27.530  28.942  1.00  0.00     0.074 A 
ATOM     39  C   UNL A   1      40.719  27.408  29.168  1.00  0.00     0.049 A 
ATOM     40  N   UNL A   1      44.070  26.993  29.619  1.00  0.00    -0.248 NA
ATOM     41  C   UNL A   1      43.462  28.720  28.169  1.00  0.00     0.031 C 
ATOM     42  C   UNL A   1      39.336  26.919  29.277  1.00  0.00     0.029 A 
ATOM     43  N   UNL A   1      40.544  28.728  29.702  1.00  0.00    -0.354 N 
ATOM     44  C   UNL A   1      45.085  27.911  29.606  1.00  0.00     0.074 A 
ATOM     45  C   UNL A   1      44.744  28.830  28.531  1.00  0.00     0.031 C 
ATOM     46  C   UNL A   1      38.479  27.905  29.685  1.00  0.00     0.029 A 
ATOM     47  C   UNL A   1      39.192  29.153  29.962  1.00  0.00     0.049 A 
ATOM     48  H   UNL A   1      41.313  29.317  29.882  1.00  0.00     0.167 HD
ATOM     49  C   UNL A   1      45.686  28.170  30.801  1.00  0.00     0.037 A 
ATOM     50  C   UNL A   1      38.689  30.368  30.429  1.00  0.00     0.037 A 
ATOM     51  C   UNL A   1      45.330  29.465  31.306  1.00  0.00     0.049 A 
ATOM     52  C   UNL A   1      39.783  31.005  31.176  1.00  0.00     0.074 A 
ATOM     53  C   UNL A   1      45.262  30.719  30.733  1.00  0.00     0.029 A 
ATOM     54  N   UNL A   1      44.505  29.490  32.414  1.00  0.00    -0.354 N 
ATOM     55  N   UNL A   1      40.110  30.605  32.365  1.00  0.00    -0.248 NA
ATOM     56  C   UNL A   1      40.462  32.213  30.713  1.00  0.00     0.031 C 
ATOM     57  C   UNL A   1      44.033  31.254  31.190  1.00  0.00     0.029 A 
ATOM     58  C   UNL A   1      43.561  30.480  32.245  1.00  0.00     0.049 A 
ATOM     59  H   UNL A   1      44.580  28.898  33.197  1.00  0.00     0.167 HD
ATOM     60  C   UNL A   1      41.314  31.188  32.584  1.00  0.00     0.074 A 
ATOM     61  C   UNL A   1      41.342  32.343  31.708  1.00  0.00     0.031 C 
ATOM     62  C   UNL A   1      42.317  30.368  32.976  1.00  0.00     0.037 A 
BRANCH  49  63
ATOM     63  C   UNL A   1      45.898  26.942  31.640  1.00  0.00     0.058 A 
ATOM     64  C   UNL A   1      44.804  26.379  32.304  1.00  0.00     0.135 A 
ATOM     65  C   UNL A   1      47.178  26.431  31.947  1.00  0.00     0.135 A 
ATOM     66  F   UNL A   1      43.559  26.809  32.035  1.00  0.00    -0.206 F 
ATOM     67  C   UNL A   1      44.971  25.389  33.269  1.00  0.00     0.059 A 
ATOM     68  C   UNL A   1      47.373  25.472  32.935  1.00  0.00     0.059 A 
ATOM     69  F   UNL A   1      48.261  26.894  31.302  1.00  0.00    -0.206 F 
ATOM     70  C   UNL A   1      46.260  24.963  33.599  1.00  0.00     0.060 A 
BRANCH  70  71
ATOM     71  S   UNL A   1      46.462  23.788  34.955  1.00  0.00     0.124 S 
ATOM     72  O   UNL A   1      47.817  24.071  35.425  1.00  0.00    -0.237 OA
ATOM     73  O   UNL A   1      45.394  24.195  35.862  1.00  0.00    -0.237 OA
ATOM     74  O   UNL A   1      46.298  22.486  34.316  1.00  0.00    -0.744 OA
ENDBRANCH  70  71
ENDBRANCH  49  63
BRANCH  50  75
ATOM     75  C   UNL A   1      37.398  31.224  30.628  1.00  0.00     0.058 A 
ATOM     76  C   UNL A   1      36.586  31.069  31.808  1.00  0.00     0.135 A 
ATOM     77  C   UNL A   1      37.172  32.439  29.966  1.00  0.00     0.135 A 
ATOM     78  F   UNL A   1      36.610  29.938  32.529  1.00  0.00    -0.206 F 
ATOM     79  C   UNL A   1      35.786  32.077  32.370  1.00  0.00     0.059 A 
ATOM     80  C   UNL A   1      36.328  33.459  30.492  1.00  0.00     0.059 A 
ATOM     81  F   UNL A   1      37.837  32.715  28.834  1.00  0.00    -0.206 F 
ATOM     82  C   UNL A   1      35.693  33.295  31.727  1.00  0.00     0.060 A 
BRANCH  82  83
ATOM     83  S   UNL A   1      34.866  34.664  32.596  1.00  0.00     0.124 S 
ATOM     84  O   UNL A   1      34.021  33.969  33.560  1.00  0.00    -0.237 OA
ATOM     85  O   UNL A   1      35.995  35.398  33.162  1.00  0.00    -0.237 OA
ATOM     86  O   UNL A   1      34.154  35.362  31.528  1.00  0.00    -0.744 OA
ENDBRANCH  82  83
ENDBRANCH  50  75
BRANCH  62  87
ATOM     87  C   UNL A   1      41.975  29.300  34.017  1.00  0.00     0.058 A 
ATOM     88  C   UNL A   1      42.115  29.394  35.425  1.00  0.00     0.135 A 
ATOM     89  C   UNL A   1      41.571  28.043  33.536  1.00  0.00     0.135 A 
ATOM     90  F   UNL A   1      42.335  30.561  36.050  1.00  0.00    -0.206 F 
ATOM     91  C   UNL A   1      42.010  28.281  36.268  1.00  0.00     0.059 A 
ATOM     92  C   UNL A   1      41.391  26.935  34.368  1.00  0.00     0.059 A 
ATOM     93  F   UNL A   1      41.352  27.869  32.223  1.00  0.00    -0.206 F 
ATOM     94  C   UNL A   1      41.671  27.049  35.726  1.00  0.00     0.060 A 
BRANCH  94  95
ATOM     95  S   UNL A   1      41.591  25.601  36.801  1.00  0.00     0.124 S 
ATOM     96  O   UNL A   1      40.472  25.939  37.676  1.00  0.00    -0.237 OA
ATOM     97  O   UNL A   1      41.349  24.509  35.864  1.00  0.00    -0.237 OA
ATOM     98  O   UNL A   1      42.899  25.591  37.449  1.00  0.00    -0.744 OA
ENDBRANCH  94  95
ENDBRANCH  62  87
ENDBRANCH  36  37
ENDBRANCH  28  31
ENDBRANCH  26  27
ENDBRANCH   1  26
TORSDOF 16
ENDMDL
MODEL 2
REMARK VINA RESULT:     -12.6      4.896      9.914
REMARK SMILES Cc1oc(C)c(S(=O)(=O)Nn2c(C)ccc2C)c1C(=O)NCCCNC(=O)c1ccc(-c2c3nc(c(-c4c(F)cc(S(=O)(=O)[O-])cc4F)c4ccc([nH]4)c(-c4c(F)cc(S(=O)(=O)[O-])cc4F)c4nc(c(-c5c(F)cc(S(=O)(=O)[O-])cc5F)c5ccc2[nH]5)C=C4)C=C3)cc1
REMARK SMILES IDX 23 1 22 2 21 3 19 4 20 5 18 7 1 8 2 9 3 10 4 11 6 12 5 13
REMARK SMILES IDX 7 14 8 15 9 16 10 17 11 19 12 20 16 21 13 22 14 23 15 24
REMARK SMILES IDX 17 25 24 26 25 27 26 28 27 30 28 31 29 32 93 33 30 34 92 35
REMARK SMILES IDX 31 36 32 37 33 38 86 39 34 40 91 41 85 42 87 43 35 44 90 45
REMARK SMILES IDX 84 46 83 47 36 49 70 50 49 51 69 52 50 53 53 54 68 55 88 56
REMARK SMILES IDX 51 57 52 58 67 60 89 61 54 62 37 63 38 64 47 65 39 66 40 67
REMARK SMILES IDX 46 68 48 69 41 70 42 71 43 72 44 73 45 74 71 75 72 76 81 77
REMARK SMILES IDX 73 78 74 79 80 80 82 81 75 82 76 83 77 84 78 85 79 86 55 87
REMARK SMILES IDX 56 88 65 89 57 90 58 91 64 92 66 93 59 94 60 95 61 96 62 97
REMARK SMILES IDX 63 98
REMARK H PARENT 21 6 10 18 25 29 87 48 53 59
REMARK Flexibility Score: inf
ROOT
ATOM      1  C   UNL A   1      34.691  30.223  27.915  1.00  0.00     0.042 C 
ENDROOT
BRANCH   1   2
ATOM      2  C   UNL A   1      34.311  29.045  26.982  1.00  0.00     0.118 C 
BRANCH   2   3
ATOM      3  N   UNL A   1      32.995  28.425  27.109  1.00  0.00    -0.352 N 
ATOM      4  C   UNL A   1      32.403  27.291  26.590  1.00  0.00     0.256 C 
ATOM      5  O   UNL A   1      31.403  26.861  27.165  1.00  0.00    -0.269 OA
ATOM      6  H   UNL A   1      32.393  28.932  27.701  1.00  0.00     0.163 HD
BRANCH   4   7
ATOM      7  C   UNL A   1      32.853  26.613  25.386  1.00  0.00     0.101 A 
ATOM      8  C   UNL A   1      33.667  24.217  26.200  1.00  0.00     0.088 C 
ATOM      9  C   UNL A   1      33.357  25.321  25.269  1.00  0.00     0.115 A 
ATOM     10  O   UNL A   1      33.513  24.975  23.961  1.00  0.00    -0.464 OA
ATOM     11  C   UNL A   1      33.044  25.996  23.205  1.00  0.00     0.122 A 
ATOM     12  C   UNL A   1      32.640  27.039  24.020  1.00  0.00     0.143 A 
ATOM     13  C   UNL A   1      33.015  25.755  21.743  1.00  0.00     0.089 C 
BRANCH  12  14
ATOM     14  S   UNL A   1      31.956  28.464  23.339  1.00  0.00     0.279 S 
ATOM     15  O   UNL A   1      31.552  29.244  24.494  1.00  0.00    -0.200 OA
ATOM     16  O   UNL A   1      33.033  28.948  22.499  1.00  0.00    -0.200 OA
BRANCH  14  17
ATOM     17  N   UNL A   1      30.677  28.342  22.327  1.00  0.00    -0.216 N 
ATOM     18  H   UNL A   1      30.881  27.997  21.429  1.00  0.00     0.202 HD
BRANCH  17  19
ATOM     19  N   UNL A   1      29.347  28.657  22.554  1.00  0.00    -0.256 N 
ATOM     20  C   UNL A   1      28.602  29.742  22.157  1.00  0.00     0.038 A 
ATOM     21  C   UNL A   1      28.558  27.780  23.274  1.00  0.00     0.038 A 
ATOM     22  C   UNL A   1      29.018  30.862  21.273  1.00  0.00     0.067 C 
ATOM     23  C   UNL A   1      27.334  29.558  22.685  1.00  0.00     0.025 A 
ATOM     24  C   UNL A   1      27.324  28.370  23.435  1.00  0.00     0.025 A 
ATOM     25  C   UNL A   1      29.024  26.476  23.827  1.00  0.00     0.067 C 
ENDBRANCH  17  19
ENDBRANCH  14  17
ENDBRANCH  12  14
ENDBRANCH   4   7
ENDBRANCH   2   3
ENDBRANCH   1   2
BRANCH   1  26
ATOM     26  C   UNL A   1      34.214  31.662  27.608  1.00  0.00     0.118 C 
BRANCH  26  27
ATOM     27  N   UNL A   1      33.949  32.486  28.777  1.00  0.00    -0.352 N 
ATOM     28  C   UNL A   1      34.651  32.763  29.938  1.00  0.00     0.251 C 
ATOM     29  H   UNL A   1      33.080  32.946  28.733  1.00  0.00     0.163 HD
ATOM     30  O   UNL A   1      34.059  33.503  30.732  1.00  0.00    -0.269 OA
BRANCH  28  31
ATOM     31  C   UNL A   1      35.956  32.137  30.392  1.00  0.00     0.039 A 
ATOM     32  C   UNL A   1      37.047  32.396  29.571  1.00  0.00     0.014 A 
ATOM     33  C   UNL A   1      36.152  31.107  31.334  1.00  0.00     0.014 A 
ATOM     34  C   UNL A   1      38.283  31.701  29.717  1.00  0.00     0.010 A 
ATOM     35  C   UNL A   1      37.403  30.326  31.415  1.00  0.00     0.010 A 
ATOM     36  C   UNL A   1      38.515  30.578  30.586  1.00  0.00    -0.014 A 
BRANCH  36  37
ATOM     37  C   UNL A   1      39.706  29.582  30.122  1.00  0.00     0.031 A 
ATOM     38  C   UNL A   1      40.740  29.783  31.182  1.00  0.00     0.074 A 
ATOM     39  C   UNL A   1      40.157  28.717  29.124  1.00  0.00     0.049 A 
ATOM     40  N   UNL A   1      41.171  30.981  31.460  1.00  0.00    -0.248 NA
ATOM     41  C   UNL A   1      41.025  28.772  32.205  1.00  0.00     0.031 C 
ATOM     42  C   UNL A   1      39.541  28.394  27.828  1.00  0.00     0.029 A 
ATOM     43  N   UNL A   1      41.322  27.882  29.045  1.00  0.00    -0.354 N 
ATOM     44  C   UNL A   1      42.022  30.836  32.522  1.00  0.00     0.074 A 
ATOM     45  C   UNL A   1      41.719  29.521  33.067  1.00  0.00     0.031 C 
ATOM     46  C   UNL A   1      40.213  27.392  27.182  1.00  0.00     0.029 A 
ATOM     47  C   UNL A   1      41.396  26.969  27.933  1.00  0.00     0.049 A 
ATOM     48  H   UNL A   1      42.038  27.932  29.719  1.00  0.00     0.167 HD
ATOM     49  C   UNL A   1      43.223  31.472  32.430  1.00  0.00     0.037 A 
ATOM     50  C   UNL A   1      42.354  26.011  27.598  1.00  0.00     0.037 A 
ATOM     51  C   UNL A   1      44.301  30.549  32.214  1.00  0.00     0.049 A 
ATOM     52  C   UNL A   1      43.605  26.438  28.242  1.00  0.00     0.074 A 
ATOM     53  C   UNL A   1      44.648  29.347  32.797  1.00  0.00     0.029 A 
ATOM     54  N   UNL A   1      44.889  30.569  30.965  1.00  0.00    -0.354 N 
ATOM     55  N   UNL A   1      44.311  27.413  27.761  1.00  0.00    -0.248 NA
ATOM     56  C   UNL A   1      44.214  25.711  29.352  1.00  0.00     0.031 C 
ATOM     57  C   UNL A   1      44.969  28.501  31.707  1.00  0.00     0.029 A 
ATOM     58  C   UNL A   1      45.120  29.272  30.559  1.00  0.00     0.049 A 
ATOM     59  H   UNL A   1      45.110  31.377  30.449  1.00  0.00     0.167 HD
ATOM     60  C   UNL A   1      45.175  27.712  28.762  1.00  0.00     0.074 A 
ATOM     61  C   UNL A   1      45.268  26.505  29.558  1.00  0.00     0.031 C 
ATOM     62  C   UNL A   1      45.230  29.011  29.140  1.00  0.00     0.037 A 
BRANCH  49  63
ATOM     63  C   UNL A   1      43.125  32.845  31.827  1.00  0.00     0.058 A 
ATOM     64  C   UNL A   1      42.991  32.966  30.440  1.00  0.00     0.135 A 
ATOM     65  C   UNL A   1      43.350  34.027  32.565  1.00  0.00     0.135 A 
ATOM     66  F   UNL A   1      42.752  31.878  29.689  1.00  0.00    -0.206 F 
ATOM     67  C   UNL A   1      43.124  34.197  29.803  1.00  0.00     0.059 A 
ATOM     68  C   UNL A   1      43.527  35.260  31.946  1.00  0.00     0.059 A 
ATOM     69  F   UNL A   1      43.434  33.981  33.904  1.00  0.00    -0.206 F 
ATOM     70  C   UNL A   1      43.422  35.333  30.560  1.00  0.00     0.060 A 
BRANCH  70  71
ATOM     71  S   UNL A   1      43.736  36.889  29.699  1.00  0.00     0.124 S 
ATOM     72  O   UNL A   1      43.945  37.827  30.800  1.00  0.00    -0.237 OA
ATOM     73  O   UNL A   1      44.930  36.564  28.925  1.00  0.00    -0.237 OA
ATOM     74  O   UNL A   1      42.516  37.114  28.930  1.00  0.00    -0.744 OA
ENDBRANCH  70  71
ENDBRANCH  49  63
BRANCH  50  75
ATOM     75  C   UNL A   1      42.669  24.787  26.682  1.00  0.00     0.058 A 
ATOM     76  C   UNL A   1      43.274  24.972  25.388  1.00  0.00     0.135 A 
ATOM     77  C   UNL A   1      42.811  23.479  27.168  1.00  0.00     0.135 A 
ATOM     78  F   UNL A   1      43.175  26.137  24.731  1.00  0.00    -0.206 F 
ATOM     79  C   UNL A   1      44.086  24.028  24.738  1.00  0.00     0.059 A 
ATOM     80  C   UNL A   1      43.591  22.489  26.504  1.00  0.00     0.059 A 
ATOM     81  F   UNL A   1      42.276  23.147  28.352  1.00  0.00    -0.206 F 
ATOM     82  C   UNL A   1      44.279  22.793  25.325  1.00  0.00     0.060 A 
BRANCH  82  83
ATOM     83  S   UNL A   1      45.531  21.686  24.603  1.00  0.00     0.124 S 
ATOM     84  O   UNL A   1      44.736  20.825  23.734  1.00  0.00    -0.237 OA
ATOM     85  O   UNL A   1      46.416  22.626  23.920  1.00  0.00    -0.237 OA
ATOM     86  O   UNL A   1      46.116  21.030  25.770  1.00  0.00    -0.744 OA
ENDBRANCH  82  83
ENDBRANCH  50  75
BRANCH  62  87
ATOM     87  C   UNL A   1      45.223  30.060  28.026  1.00  0.00     0.058 A 
ATOM     88  C   UNL A   1      46.342  30.723  27.460  1.00  0.00     0.135 A 
ATOM     89  C   UNL A   1      43.970  30.502  27.570  1.00  0.00     0.135 A 
ATOM     90  F   UNL A   1      47.602  30.311  27.667  1.00  0.00    -0.206 F 
ATOM     91  C   UNL A   1      46.213  31.839  26.626  1.00  0.00     0.059 A 
ATOM     92  C   UNL A   1      43.819  31.569  26.682  1.00  0.00     0.059 A 
ATOM     93  F   UNL A   1      42.851  29.897  28.000  1.00  0.00    -0.206 F 
ATOM     94  C   UNL A   1      44.944  32.270  26.261  1.00  0.00     0.060 A 
BRANCH  94  95
ATOM     95  S   UNL A   1      44.773  33.745  25.232  1.00  0.00     0.124 S 
ATOM     96  O   UNL A   1      44.290  33.178  23.976  1.00  0.00    -0.237 OA
ATOM     97  O   UNL A   1      43.807  34.550  25.971  1.00  0.00    -0.237 OA
ATOM     98  O   UNL A   1      46.130  34.282  25.185  1.00  0.00    -0.744 OA
ENDBRANCH  94  95
ENDBRANCH  62  87
ENDBRANCH  36  37
ENDBRANCH  28  31
ENDBRANCH  26  27
ENDBRANCH   1  26
TORSDOF 16
ENDMDL
MODEL 3
REMARK VINA RESULT:     -12.6      1.768      3.411
REMARK SMILES Cc1oc(C)c(S(=O)(=O)Nn2c(C)ccc2C)c1C(=O)NCCCNC(=O)c1ccc(-c2c3nc(c(-c4c(F)cc(S(=O)(=O)[O-])cc4F)c4ccc([nH]4)c(-c4c(F)cc(S(=O)(=O)[O-])cc4F)c4nc(c(-c5c(F)cc(S(=O)(=O)[O-])cc5F)c5ccc2[nH]5)C=C4)C=C3)cc1
REMARK SMILES IDX 23 1 22 2 21 3 19 4 20 5 18 7 1 8 2 9 3 10 4 11 6 12 5 13
REMARK SMILES IDX 7 14 8 15 9 16 10 17 11 19 12 20 16 21 13 22 14 23 15 24
REMARK SMILES IDX 17 25 24 26 25 27 26 28 27 30 28 31 29 32 93 33 30 34 92 35
REMARK SMILES IDX 31 36 32 37 33 38 86 39 34 40 91 41 85 42 87 43 35 44 90 45
REMARK SMILES IDX 84 46 83 47 36 49 70 50 49 51 69 52 50 53 53 54 68 55 88 56
REMARK SMILES IDX 51 57 52 58 67 60 89 61 54 62 37 63 38 64 47 65 39 66 40 67
REMARK SMILES IDX 46 68 48 69 41 70 42 71 43 72 44 73 45 74 71 75 72 76 81 77
REMARK SMILES IDX 73 78 74 79 80 80 82 81 75 82 76 83 77 84 78 85 79 86 55 87
REMARK SMILES IDX 56 88 65 89 57 90 58 91 64 92 66 93 59 94 60 95 61 96 62 97
REMARK SMILES IDX 63 98
REMARK H PARENT 21 6 10 18 25 29 87 48 53 59
REMARK Flexibility Score: inf
ROOT
ATOM      1  C   UNL A   1      37.858  21.643  24.957  1.00  0.00     0.042 C 
ENDROOT
BRANCH   1   2
ATOM      2  C   UNL A   1      36.529  20.922  25.302  1.00  0.00     0.118 C 
BRANCH   2   3
ATOM      3  N   UNL A   1      35.694  21.435  26.384  1.00  0.00    -0.352 N 
ATOM      4  C   UNL A   1      34.349  21.720  26.519  1.00  0.00     0.256 C 
ATOM      5  O   UNL A   1      33.902  21.806  27.663  1.00  0.00    -0.269 OA
ATOM      6  H   UNL A   1      36.206  21.620  27.204  1.00  0.00     0.163 HD
BRANCH   4   7
ATOM      7  C   UNL A   1      33.452  21.974  25.405  1.00  0.00     0.101 A 
ATOM      8  C   UNL A   1      33.238  19.648  24.137  1.00  0.00     0.088 C 
ATOM      9  C   UNL A   1      33.001  21.073  24.446  1.00  0.00     0.115 A 
ATOM     10  O   UNL A   1      32.040  21.635  23.662  1.00  0.00    -0.464 OA
ATOM     11  C   UNL A   1      31.790  22.877  24.141  1.00  0.00     0.122 A 
ATOM     12  C   UNL A   1      32.637  23.152  25.200  1.00  0.00     0.143 A 
ATOM     13  C   UNL A   1      30.677  23.607  23.489  1.00  0.00     0.089 C 
BRANCH  12  14
ATOM     14  S   UNL A   1      32.522  24.649  26.043  1.00  0.00     0.279 S 
ATOM     15  O   UNL A   1      31.709  24.335  27.204  1.00  0.00    -0.200 OA
ATOM     16  O   UNL A   1      33.915  25.002  26.228  1.00  0.00    -0.200 OA
BRANCH  14  17
ATOM     17  N   UNL A   1      31.871  25.949  25.295  1.00  0.00    -0.216 N 
ATOM     18  H   UNL A   1      30.892  25.933  25.198  1.00  0.00     0.202 HD
BRANCH  17  19
ATOM     19  N   UNL A   1      32.500  27.068  24.777  1.00  0.00    -0.256 N 
ATOM     20  C   UNL A   1      33.229  27.234  23.623  1.00  0.00     0.038 A 
ATOM     21  C   UNL A   1      32.416  28.267  25.459  1.00  0.00     0.038 A 
ATOM     22  C   UNL A   1      33.469  26.243  22.542  1.00  0.00     0.067 C 
ATOM     23  C   UNL A   1      33.650  28.555  23.614  1.00  0.00     0.025 A 
ATOM     24  C   UNL A   1      33.199  29.181  24.789  1.00  0.00     0.025 A 
ATOM     25  C   UNL A   1      31.668  28.470  26.732  1.00  0.00     0.067 C 
ENDBRANCH  17  19
ENDBRANCH  14  17
ENDBRANCH  12  14
ENDBRANCH   4   7
ENDBRANCH   2   3
ENDBRANCH   1   2
BRANCH   1  26
ATOM     26  C   UNL A   1      38.882  21.987  26.064  1.00  0.00     0.118 C 
BRANCH  26  27
ATOM     27  N   UNL A   1      40.232  21.499  25.827  1.00  0.00    -0.352 N 
ATOM     28  C   UNL A   1      41.494  22.051  25.972  1.00  0.00     0.251 C 
ATOM     29  H   UNL A   1      40.251  20.576  25.487  1.00  0.00     0.163 HD
ATOM     30  O   UNL A   1      42.420  21.313  25.621  1.00  0.00    -0.269 OA
BRANCH  28  31
ATOM     31  C   UNL A   1      41.831  23.481  26.350  1.00  0.00     0.039 A 
ATOM     32  C   UNL A   1      41.685  23.782  27.699  1.00  0.00     0.014 A 
ATOM     33  C   UNL A   1      41.974  24.599  25.504  1.00  0.00     0.014 A 
ATOM     34  C   UNL A   1      41.732  25.122  28.182  1.00  0.00     0.010 A 
ATOM     35  C   UNL A   1      41.925  25.988  26.001  1.00  0.00     0.010 A 
ATOM     36  C   UNL A   1      41.774  26.305  27.367  1.00  0.00    -0.014 A 
BRANCH  36  37
ATOM     37  C   UNL A   1      41.172  27.641  28.058  1.00  0.00     0.031 A 
ATOM     38  C   UNL A   1      42.373  28.519  28.191  1.00  0.00     0.074 A 
ATOM     39  C   UNL A   1      40.041  28.231  28.627  1.00  0.00     0.049 A 
ATOM     40  N   UNL A   1      43.441  28.082  28.797  1.00  0.00    -0.248 NA
ATOM     41  C   UNL A   1      42.582  29.701  27.350  1.00  0.00     0.031 C 
ATOM     42  C   UNL A   1      38.714  27.646  28.873  1.00  0.00     0.029 A 
ATOM     43  N   UNL A   1      39.811  29.555  29.130  1.00  0.00    -0.354 N 
ATOM     44  C   UNL A   1      44.378  29.071  28.665  1.00  0.00     0.074 A 
ATOM     45  C   UNL A   1      43.877  29.919  27.595  1.00  0.00     0.031 C 
ATOM     46  C   UNL A   1      37.822  28.581  29.321  1.00  0.00     0.029 A 
ATOM     47  C   UNL A   1      38.458  29.888  29.493  1.00  0.00     0.049 A 
ATOM     48  H   UNL A   1      40.545  30.205  29.223  1.00  0.00     0.167 HD
ATOM     49  C   UNL A   1      45.056  29.421  29.794  1.00  0.00     0.037 A 
ATOM     50  C   UNL A   1      37.904  31.080  29.963  1.00  0.00     0.037 A 
ATOM     51  C   UNL A   1      44.645  30.706  30.286  1.00  0.00     0.049 A 
ATOM     52  C   UNL A   1      39.006  31.826  30.590  1.00  0.00     0.074 A 
ATOM     53  C   UNL A   1      44.433  31.927  29.679  1.00  0.00     0.029 A 
ATOM     54  N   UNL A   1      43.918  30.714  31.459  1.00  0.00    -0.354 N 
ATOM     55  N   UNL A   1      39.462  31.498  31.757  1.00  0.00    -0.248 NA
ATOM     56  C   UNL A   1      39.548  33.061  30.029  1.00  0.00     0.031 C 
ATOM     57  C   UNL A   1      43.210  32.388  30.224  1.00  0.00     0.029 A 
ATOM     58  C   UNL A   1      42.890  31.624  31.341  1.00  0.00     0.049 A 
ATOM     59  H   UNL A   1      44.104  30.160  32.252  1.00  0.00     0.167 HD
ATOM     60  C   UNL A   1      40.632  32.177  31.851  1.00  0.00     0.074 A 
ATOM     61  C   UNL A   1      40.496  33.295  30.939  1.00  0.00     0.031 C 
ATOM     62  C   UNL A   1      41.725  31.449  32.181  1.00  0.00     0.037 A 
BRANCH  49  63
ATOM     63  C   UNL A   1      45.432  28.246  30.651  1.00  0.00     0.058 A 
ATOM     64  C   UNL A   1      44.454  27.659  31.461  1.00  0.00     0.135 A 
ATOM     65  C   UNL A   1      46.766  27.817  30.826  1.00  0.00     0.135 A 
ATOM     66  F   UNL A   1      43.165  28.011  31.322  1.00  0.00    -0.206 F 
ATOM     67  C   UNL A   1      44.787  26.726  32.440  1.00  0.00     0.059 A 
ATOM     68  C   UNL A   1      47.126  26.916  31.823  1.00  0.00     0.059 A 
ATOM     69  F   UNL A   1      47.740  28.305  30.041  1.00  0.00    -0.206 F 
ATOM     70  C   UNL A   1      46.128  26.382  32.633  1.00  0.00     0.060 A 
BRANCH  70  71
ATOM     71  S   UNL A   1      46.550  25.284  34.002  1.00  0.00     0.124 S 
ATOM     72  O   UNL A   1      45.801  24.070  33.681  1.00  0.00    -0.237 OA
ATOM     73  O   UNL A   1      47.999  25.175  33.860  1.00  0.00    -0.237 OA
ATOM     74  O   UNL A   1      46.074  25.998  35.182  1.00  0.00    -0.744 OA
ENDBRANCH  70  71
ENDBRANCH  49  63
BRANCH  50  75
ATOM     75  C   UNL A   1      36.573  31.846  30.245  1.00  0.00     0.058 A 
ATOM     76  C   UNL A   1      35.956  31.796  31.546  1.00  0.00     0.135 A 
ATOM     77  C   UNL A   1      36.132  32.931  29.473  1.00  0.00     0.135 A 
ATOM     78  F   UNL A   1      36.199  30.786  32.395  1.00  0.00    -0.206 F 
ATOM     79  C   UNL A   1      35.144  32.805  32.088  1.00  0.00     0.059 A 
ATOM     80  C   UNL A   1      35.270  33.943  29.987  1.00  0.00     0.059 A 
ATOM     81  F   UNL A   1      36.599  33.095  28.227  1.00  0.00    -0.206 F 
ATOM     82  C   UNL A   1      34.836  33.906  31.315  1.00  0.00     0.060 A 
BRANCH  82  83
ATOM     83  S   UNL A   1      34.002  35.312  32.117  1.00  0.00     0.124 S 
ATOM     84  O   UNL A   1      35.034  35.833  33.006  1.00  0.00    -0.237 OA
ATOM     85  O   UNL A   1      33.664  36.161  30.977  1.00  0.00    -0.237 OA
ATOM     86  O   UNL A   1      32.857  34.693  32.780  1.00  0.00    -0.744 OA
ENDBRANCH  82  83
ENDBRANCH  50  75
BRANCH  62  87
ATOM     87  C   UNL A   1      41.555  30.400  33.283  1.00  0.00     0.058 A 
ATOM     88  C   UNL A   1      41.882  30.534  34.656  1.00  0.00     0.135 A 
ATOM     89  C   UNL A   1      41.121  29.123  32.890  1.00  0.00     0.135 A 
ATOM     90  F   UNL A   1      42.154  31.722  35.218  1.00  0.00    -0.206 F 
ATOM     91  C   UNL A   1      41.922  29.441  35.530  1.00  0.00     0.059 A 
ATOM     92  C   UNL A   1      41.085  28.033  33.763  1.00  0.00     0.059 A 
ATOM     93  F   UNL A   1      40.730  28.910  31.623  1.00  0.00    -0.206 F 
ATOM     94  C   UNL A   1      41.544  28.188  35.067  1.00  0.00     0.060 A 
BRANCH  94  95
ATOM     95  S   UNL A   1      41.649  26.766  36.176  1.00  0.00     0.124 S 
ATOM     96  O   UNL A   1      43.082  26.708  36.452  1.00  0.00    -0.237 OA
ATOM     97  O   UNL A   1      40.808  27.165  37.300  1.00  0.00    -0.237 OA
ATOM     98  O   UNL A   1      41.132  25.668  35.365  1.00  0.00    -0.744 OA
ENDBRANCH  94  95
ENDBRANCH  62  87
ENDBRANCH  36  37
ENDBRANCH  28  31
ENDBRANCH  26  27
ENDBRANCH   1  26
TORSDOF 16
ENDMDL
