MODEL 1
REMARK VINA RESULT:     -11.6      0.000      0.000
REMARK SMILES CSc1ncccc1C(=O)N1CSC[C@H]1C(=O)NCCCNC(=O)c1ccc(-c2c3nc(c(-c4c(F)cc(S(=O)(=O)[O-])cc4F)c4ccc([nH]4)c(-c4c(F)cc(S(=O)(=O)[O-])cc4F)c4nc(c(-c5c(F)cc(S(=O)(=O)[O-])cc5F)c5ccc2[nH]5)C=C4)C=C3)cc1
REMARK SMILES IDX 20 1 19 2 18 3 16 4 17 5 15 7 11 8 12 9 13 10 14 11 9 12
REMARK SMILES IDX 10 13 8 14 3 15 4 16 5 17 7 18 6 19 2 20 1 21 21 22 22 23
REMARK SMILES IDX 23 24 24 26 25 27 26 28 90 29 27 30 89 31 28 32 29 33 30 34
REMARK SMILES IDX 83 35 31 36 88 37 82 38 84 39 32 40 87 41 81 42 80 43 33 45
REMARK SMILES IDX 67 46 46 47 66 48 47 49 50 50 65 51 85 52 48 53 49 54 64 56
REMARK SMILES IDX 86 57 51 58 34 59 35 60 44 61 36 62 37 63 43 64 45 65 38 66
REMARK SMILES IDX 39 67 40 68 41 69 42 70 68 71 69 72 78 73 70 74 71 75 77 76
REMARK SMILES IDX 79 77 72 78 73 79 74 80 75 81 76 82 52 83 53 84 62 85 54 86
REMARK SMILES IDX 55 87 61 88 63 89 56 90 57 91 58 92 59 93 60 94
REMARK H PARENT 18 6 22 25 84 44 50 55
REMARK Flexibility Score: inf
ROOT
ATOM      1  C   UNL A   1      37.678  23.100  25.804  1.00  0.00     0.042 C 
ENDROOT
BRANCH   1   2
ATOM      2  C   UNL A   1      36.223  23.523  25.676  1.00  0.00     0.117 C 
BRANCH   2   3
ATOM      3  N   UNL A   1      35.421  23.114  26.806  1.00  0.00    -0.354 N 
ATOM      4  C   UNL A   1      34.087  22.873  26.912  1.00  0.00     0.243 C 
ATOM      5  O   UNL A   1      33.729  22.233  27.909  1.00  0.00    -0.273 OA
ATOM      6  H   UNL A   1      35.926  22.989  27.641  1.00  0.00     0.163 HD
BRANCH   4   7
ATOM      7  C   UNL A   1      33.070  23.213  25.801  1.00  0.00     0.185 C 
ATOM      8  N   UNL A   1      32.987  24.609  25.344  1.00  0.00    -0.316 N 
ATOM      9  C   UNL A   1      33.502  24.849  24.014  1.00  0.00     0.190 C 
ATOM     10  S   UNL A   1      33.218  23.315  23.104  1.00  0.00    -0.138 SA
ATOM     11  C   UNL A   1      33.189  22.275  24.600  1.00  0.00     0.106 C 
BRANCH   8  12
ATOM     12  C   UNL A   1      32.248  25.475  26.152  1.00  0.00     0.257 C 
ATOM     13  O   UNL A   1      31.389  25.014  26.899  1.00  0.00    -0.269 OA
BRANCH  12  14
ATOM     14  C   UNL A   1      32.362  26.955  25.994  1.00  0.00     0.072 A 
ATOM     15  C   UNL A   1      31.538  27.708  25.147  1.00  0.00     0.108 A 
ATOM     16  N   UNL A   1      31.706  29.053  24.978  1.00  0.00    -0.249 NA
ATOM     17  C   UNL A   1      32.730  29.660  25.611  1.00  0.00     0.112 A 
ATOM     18  C   UNL A   1      33.455  27.621  26.578  1.00  0.00     0.018 A 
ATOM     19  C   UNL A   1      33.632  28.989  26.408  1.00  0.00     0.021 A 
BRANCH  15  20
ATOM     20  S   UNL A   1      30.277  27.032  24.080  1.00  0.00    -0.109 SA
ATOM     21  C   UNL A   1      31.023  27.380  22.476  1.00  0.00     0.092 C 
ENDBRANCH  15  20
ENDBRANCH  12  14
ENDBRANCH   8  12
ENDBRANCH   4   7
ENDBRANCH   2   3
ENDBRANCH   1   2
BRANCH   1  22
ATOM     22  C   UNL A   1      38.538  24.110  26.553  1.00  0.00     0.118 C 
BRANCH  22  23
ATOM     23  N   UNL A   1      39.941  24.031  26.165  1.00  0.00    -0.352 N 
ATOM     24  C   UNL A   1      41.006  24.816  26.521  1.00  0.00     0.251 C 
ATOM     25  H   UNL A   1      40.159  23.296  25.548  1.00  0.00     0.163 HD
ATOM     26  O   UNL A   1      42.061  24.717  25.886  1.00  0.00    -0.269 OA
BRANCH  24  27
ATOM     27  C   UNL A   1      40.904  25.772  27.641  1.00  0.00     0.039 A 
ATOM     28  C   UNL A   1      41.917  26.720  27.819  1.00  0.00     0.014 A 
ATOM     29  C   UNL A   1      39.841  25.712  28.546  1.00  0.00     0.014 A 
ATOM     30  C   UNL A   1      41.834  27.637  28.869  1.00  0.00     0.010 A 
ATOM     31  C   UNL A   1      39.713  26.681  29.535  1.00  0.00     0.010 A 
ATOM     32  C   UNL A   1      40.713  27.645  29.716  1.00  0.00    -0.014 A 
BRANCH  32  33
ATOM     33  C   UNL A   1      40.581  28.643  30.808  1.00  0.00     0.031 A 
ATOM     34  C   UNL A   1      41.438  28.532  32.040  1.00  0.00     0.074 A 
ATOM     35  C   UNL A   1      39.647  29.610  30.712  1.00  0.00     0.049 A 
ATOM     36  N   UNL A   1      41.427  29.269  33.120  1.00  0.00    -0.248 NA
ATOM     37  C   UNL A   1      42.417  27.433  32.076  1.00  0.00     0.031 C 
ATOM     38  C   UNL A   1      38.722  29.784  29.588  1.00  0.00     0.029 A 
ATOM     39  N   UNL A   1      39.314  30.623  31.574  1.00  0.00    -0.354 N 
ATOM     40  C   UNL A   1      42.381  28.716  33.967  1.00  0.00     0.074 A 
ATOM     41  C   UNL A   1      42.912  27.548  33.299  1.00  0.00     0.031 C 
ATOM     42  C   UNL A   1      37.945  30.854  29.820  1.00  0.00     0.029 A 
ATOM     43  C   UNL A   1      38.288  31.418  31.121  1.00  0.00     0.049 A 
ATOM     44  H   UNL A   1      39.766  30.767  32.436  1.00  0.00     0.167 HD
ATOM     45  C   UNL A   1      42.797  29.156  35.178  1.00  0.00     0.037 A 
ATOM     46  C   UNL A   1      37.686  32.480  31.693  1.00  0.00     0.037 A 
ATOM     47  C   UNL A   1      42.281  30.336  35.823  1.00  0.00     0.049 A 
ATOM     48  C   UNL A   1      38.168  32.954  33.038  1.00  0.00     0.074 A 
ATOM     49  C   UNL A   1      42.673  30.902  37.022  1.00  0.00     0.029 A 
ATOM     50  N   UNL A   1      41.259  31.129  35.322  1.00  0.00    -0.354 N 
ATOM     51  N   UNL A   1      39.119  32.457  33.793  1.00  0.00    -0.248 NA
ATOM     52  C   UNL A   1      37.503  34.135  33.604  1.00  0.00     0.031 C 
ATOM     53  C   UNL A   1      41.858  32.012  37.269  1.00  0.00     0.029 A 
ATOM     54  C   UNL A   1      40.993  32.168  36.197  1.00  0.00     0.049 A 
ATOM     55  H   UNL A   1      40.790  30.975  34.470  1.00  0.00     0.167 HD
ATOM     56  C   UNL A   1      39.185  33.282  34.911  1.00  0.00     0.074 A 
ATOM     57  C   UNL A   1      38.186  34.315  34.725  1.00  0.00     0.031 C 
ATOM     58  C   UNL A   1      39.999  33.193  35.992  1.00  0.00     0.037 A 
BRANCH  45  59
ATOM     59  C   UNL A   1      43.866  28.364  35.882  1.00  0.00     0.058 A 
ATOM     60  C   UNL A   1      43.549  27.310  36.754  1.00  0.00     0.135 A 
ATOM     61  C   UNL A   1      45.224  28.639  35.658  1.00  0.00     0.135 A 
ATOM     62  F   UNL A   1      42.266  27.013  37.018  1.00  0.00    -0.206 F 
ATOM     63  C   UNL A   1      44.539  26.578  37.403  1.00  0.00     0.059 A 
ATOM     64  C   UNL A   1      46.232  27.900  36.272  1.00  0.00     0.059 A 
ATOM     65  F   UNL A   1      45.586  29.636  34.835  1.00  0.00    -0.206 F 
ATOM     66  C   UNL A   1      45.878  26.881  37.155  1.00  0.00     0.060 A 
BRANCH  66  67
ATOM     67  S   UNL A   1      47.148  25.916  38.000  1.00  0.00     0.124 S 
ATOM     68  O   UNL A   1      46.607  25.844  39.354  1.00  0.00    -0.237 OA
ATOM     69  O   UNL A   1      47.142  24.665  37.248  1.00  0.00    -0.237 OA
ATOM     70  O   UNL A   1      48.351  26.728  37.846  1.00  0.00    -0.744 OA
ENDBRANCH  66  67
ENDBRANCH  45  59
BRANCH  46  71
ATOM     71  C   UNL A   1      36.583  33.179  30.983  1.00  0.00     0.058 A 
ATOM     72  C   UNL A   1      36.835  33.954  29.843  1.00  0.00     0.135 A 
ATOM     73  C   UNL A   1      35.252  33.070  31.419  1.00  0.00     0.135 A 
ATOM     74  F   UNL A   1      38.090  34.092  29.389  1.00  0.00    -0.206 F 
ATOM     75  C   UNL A   1      35.812  34.612  29.166  1.00  0.00     0.059 A 
ATOM     76  C   UNL A   1      34.209  33.697  30.744  1.00  0.00     0.059 A 
ATOM     77  F   UNL A   1      34.954  32.325  32.493  1.00  0.00    -0.206 F 
ATOM     78  C   UNL A   1      34.500  34.474  29.623  1.00  0.00     0.060 A 
BRANCH  78  79
ATOM     79  S   UNL A   1      33.173  35.288  28.708  1.00  0.00     0.124 S 
ATOM     80  O   UNL A   1      32.356  35.823  29.790  1.00  0.00    -0.237 OA
ATOM     81  O   UNL A   1      33.907  36.269  27.914  1.00  0.00    -0.237 OA
ATOM     82  O   UNL A   1      32.575  34.197  27.944  1.00  0.00    -0.744 OA
ENDBRANCH  78  79
ENDBRANCH  46  71
BRANCH  58  83
ATOM     83  C   UNL A   1      39.871  34.259  37.044  1.00  0.00     0.058 A 
ATOM     84  C   UNL A   1      40.516  35.499  36.921  1.00  0.00     0.135 A 
ATOM     85  C   UNL A   1      39.050  34.055  38.165  1.00  0.00     0.135 A 
ATOM     86  F   UNL A   1      41.318  35.743  35.873  1.00  0.00    -0.206 F 
ATOM     87  C   UNL A   1      40.369  36.493  37.884  1.00  0.00     0.059 A 
ATOM     88  C   UNL A   1      38.865  35.044  39.125  1.00  0.00     0.059 A 
ATOM     89  F   UNL A   1      38.402  32.890  38.326  1.00  0.00    -0.206 F 
ATOM     90  C   UNL A   1      39.539  36.256  38.982  1.00  0.00     0.060 A 
BRANCH  90  91
ATOM     91  S   UNL A   1      39.329  37.566  40.205  1.00  0.00     0.124 S 
ATOM     92  O   UNL A   1      40.673  38.133  40.262  1.00  0.00    -0.237 OA
ATOM     93  O   UNL A   1      38.311  38.409  39.589  1.00  0.00    -0.237 OA
ATOM     94  O   UNL A   1      38.900  36.848  41.402  1.00  0.00    -0.744 OA
ENDBRANCH  90  91
ENDBRANCH  58  83
ENDBRANCH  32  33
ENDBRANCH  24  27
ENDBRANCH  22  23
ENDBRANCH   1  22
TORSDOF 16
ENDMDL
MODEL 2
REMARK VINA RESULT:     -11.4      1.394      2.285
REMARK SMILES CSc1ncccc1C(=O)N1CSC[C@H]1C(=O)NCCCNC(=O)c1ccc(-c2c3nc(c(-c4c(F)cc(S(=O)(=O)[O-])cc4F)c4ccc([nH]4)c(-c4c(F)cc(S(=O)(=O)[O-])cc4F)c4nc(c(-c5c(F)cc(S(=O)(=O)[O-])cc5F)c5ccc2[nH]5)C=C4)C=C3)cc1
REMARK SMILES IDX 20 1 19 2 18 3 16 4 17 5 15 7 11 8 12 9 13 10 14 11 9 12
REMARK SMILES IDX 10 13 8 14 3 15 4 16 5 17 7 18 6 19 2 20 1 21 21 22 22 23
REMARK SMILES IDX 23 24 24 26 25 27 26 28 90 29 27 30 89 31 28 32 29 33 30 34
REMARK SMILES IDX 83 35 31 36 88 37 82 38 84 39 32 40 87 41 81 42 80 43 33 45
REMARK SMILES IDX 67 46 46 47 66 48 47 49 50 50 65 51 85 52 48 53 49 54 64 56
REMARK SMILES IDX 86 57 51 58 34 59 35 60 44 61 36 62 37 63 43 64 45 65 38 66
REMARK SMILES IDX 39 67 40 68 41 69 42 70 68 71 69 72 78 73 70 74 71 75 77 76
REMARK SMILES IDX 79 77 72 78 73 79 74 80 75 81 76 82 52 83 53 84 62 85 54 86
REMARK SMILES IDX 55 87 61 88 63 89 56 90 57 91 58 92 59 93 60 94
REMARK H PARENT 18 6 22 25 84 44 50 55
REMARK Flexibility Score: inf
ROOT
ATOM      1  C   UNL A   1      38.989  22.257  26.219  1.00  0.00     0.042 C 
ENDROOT
BRANCH   1   2
ATOM      2  C   UNL A   1      37.708  22.936  25.763  1.00  0.00     0.117 C 
BRANCH   2   3
ATOM      3  N   UNL A   1      37.489  22.818  24.340  1.00  0.00    -0.354 N 
ATOM      4  C   UNL A   1      36.340  22.812  23.612  1.00  0.00     0.243 C 
ATOM      5  O   UNL A   1      36.466  23.018  22.398  1.00  0.00    -0.273 OA
ATOM      6  H   UNL A   1      38.311  22.727  23.806  1.00  0.00     0.163 HD
BRANCH   4   7
ATOM      7  C   UNL A   1      34.934  22.720  24.243  1.00  0.00     0.185 C 
ATOM      8  N   UNL A   1      33.779  23.111  23.419  1.00  0.00    -0.316 N 
ATOM      9  C   UNL A   1      32.927  22.019  23.004  1.00  0.00     0.190 C 
ATOM     10  S   UNL A   1      33.046  20.788  24.320  1.00  0.00    -0.138 SA
ATOM     11  C   UNL A   1      34.678  21.360  24.892  1.00  0.00     0.106 C 
BRANCH   8  12
ATOM     12  C   UNL A   1      33.537  24.482  23.314  1.00  0.00     0.257 C 
ATOM     13  O   UNL A   1      33.720  25.043  22.236  1.00  0.00    -0.269 OA
BRANCH  12  14
ATOM     14  C   UNL A   1      33.234  25.301  24.524  1.00  0.00     0.072 A 
ATOM     15  C   UNL A   1      32.038  25.199  25.247  1.00  0.00     0.108 A 
ATOM     16  N   UNL A   1      31.764  26.005  26.315  1.00  0.00    -0.249 NA
ATOM     17  C   UNL A   1      32.655  26.960  26.647  1.00  0.00     0.112 A 
ATOM     18  C   UNL A   1      34.099  26.355  24.868  1.00  0.00     0.018 A 
ATOM     19  C   UNL A   1      33.824  27.180  25.953  1.00  0.00     0.021 A 
BRANCH  15  20
ATOM     20  S   UNL A   1      30.669  24.138  24.814  1.00  0.00    -0.109 SA
ATOM     21  C   UNL A   1      30.645  23.072  26.267  1.00  0.00     0.092 C 
ENDBRANCH  15  20
ENDBRANCH  12  14
ENDBRANCH   8  12
ENDBRANCH   4   7
ENDBRANCH   2   3
ENDBRANCH   1   2
BRANCH   1  22
ATOM     22  C   UNL A   1      39.905  23.169  27.025  1.00  0.00     0.118 C 
BRANCH  22  23
ATOM     23  N   UNL A   1      41.064  23.605  26.255  1.00  0.00    -0.352 N 
ATOM     24  C   UNL A   1      41.742  24.794  26.269  1.00  0.00     0.251 C 
ATOM     25  H   UNL A   1      41.415  22.937  25.622  1.00  0.00     0.163 HD
ATOM     26  O   UNL A   1      42.545  25.036  25.362  1.00  0.00    -0.269 OA
BRANCH  24  27
ATOM     27  C   UNL A   1      41.522  25.783  27.343  1.00  0.00     0.039 A 
ATOM     28  C   UNL A   1      40.369  25.687  28.128  1.00  0.00     0.014 A 
ATOM     29  C   UNL A   1      42.421  26.832  27.552  1.00  0.00     0.014 A 
ATOM     30  C   UNL A   1      40.148  26.608  29.153  1.00  0.00     0.010 A 
ATOM     31  C   UNL A   1      42.246  27.694  28.630  1.00  0.00     0.010 A 
ATOM     32  C   UNL A   1      41.102  27.601  29.433  1.00  0.00    -0.014 A 
BRANCH  32  33
ATOM     33  C   UNL A   1      40.910  28.561  30.549  1.00  0.00     0.031 A 
ATOM     34  C   UNL A   1      41.751  28.449  31.793  1.00  0.00     0.074 A 
ATOM     35  C   UNL A   1      39.941  29.492  30.464  1.00  0.00     0.049 A 
ATOM     36  N   UNL A   1      41.691  29.152  32.894  1.00  0.00    -0.248 NA
ATOM     37  C   UNL A   1      42.772  27.388  31.816  1.00  0.00     0.031 C 
ATOM     38  C   UNL A   1      39.029  29.662  29.329  1.00  0.00     0.029 A 
ATOM     39  N   UNL A   1      39.552  30.466  31.349  1.00  0.00    -0.354 N 
ATOM     40  C   UNL A   1      42.652  28.613  33.742  1.00  0.00     0.074 A 
ATOM     41  C   UNL A   1      43.241  27.488  33.051  1.00  0.00     0.031 C 
ATOM     42  C   UNL A   1      38.205  30.693  29.577  1.00  0.00     0.029 A 
ATOM     43  C   UNL A   1      38.503  31.233  30.900  1.00  0.00     0.049 A 
ATOM     44  H   UNL A   1      39.984  30.602  32.222  1.00  0.00     0.167 HD
ATOM     45  C   UNL A   1      43.029  29.034  34.972  1.00  0.00     0.037 A 
ATOM     46  C   UNL A   1      37.850  32.253  31.490  1.00  0.00     0.037 A 
ATOM     47  C   UNL A   1      42.455  30.173  35.641  1.00  0.00     0.049 A 
ATOM     48  C   UNL A   1      38.289  32.706  32.857  1.00  0.00     0.074 A 
ATOM     49  C   UNL A   1      42.804  30.719  36.863  1.00  0.00     0.029 A 
ATOM     50  N   UNL A   1      41.411  30.939  35.144  1.00  0.00    -0.354 N 
ATOM     51  N   UNL A   1      39.246  32.226  33.615  1.00  0.00    -0.248 NA
ATOM     52  C   UNL A   1      37.568  33.843  33.444  1.00  0.00     0.031 C 
ATOM     53  C   UNL A   1      41.941  31.789  37.126  1.00  0.00     0.029 A 
ATOM     54  C   UNL A   1      41.089  31.942  36.044  1.00  0.00     0.049 A 
ATOM     55  H   UNL A   1      40.964  30.792  34.279  1.00  0.00     0.167 HD
ATOM     56  C   UNL A   1      39.260  33.020  34.757  1.00  0.00     0.074 A 
ATOM     57  C   UNL A   1      38.224  34.017  34.582  1.00  0.00     0.031 C 
ATOM     58  C   UNL A   1      40.058  32.931  35.849  1.00  0.00     0.037 A 
BRANCH  45  59
ATOM     59  C   UNL A   1      44.117  28.265  35.673  1.00  0.00     0.058 A 
ATOM     60  C   UNL A   1      45.474  28.566  35.478  1.00  0.00     0.135 A 
ATOM     61  C   UNL A   1      43.799  27.237  36.575  1.00  0.00     0.135 A 
ATOM     62  F   UNL A   1      45.838  29.528  34.615  1.00  0.00    -0.206 F 
ATOM     63  C   UNL A   1      46.479  27.854  36.128  1.00  0.00     0.059 A 
ATOM     64  C   UNL A   1      44.786  26.532  37.259  1.00  0.00     0.059 A 
ATOM     65  F   UNL A   1      42.517  26.906  36.799  1.00  0.00    -0.206 F 
ATOM     66  C   UNL A   1      46.124  26.839  37.017  1.00  0.00     0.060 A 
BRANCH  66  67
ATOM     67  S   UNL A   1      47.440  25.932  37.856  1.00  0.00     0.124 S 
ATOM     68  O   UNL A   1      47.266  26.377  39.235  1.00  0.00    -0.237 OA
ATOM     69  O   UNL A   1      47.079  24.542  37.589  1.00  0.00    -0.237 OA
ATOM     70  O   UNL A   1      48.653  26.398  37.192  1.00  0.00    -0.744 OA
ENDBRANCH  66  67
ENDBRANCH  45  59
BRANCH  46  71
ATOM     71  C   UNL A   1      36.731  32.928  30.781  1.00  0.00     0.058 A 
ATOM     72  C   UNL A   1      35.397  32.665  31.121  1.00  0.00     0.135 A 
ATOM     73  C   UNL A   1      36.974  33.863  29.762  1.00  0.00     0.135 A 
ATOM     74  F   UNL A   1      35.113  31.776  32.086  1.00  0.00    -0.206 F 
ATOM     75  C   UNL A   1      34.339  33.291  30.468  1.00  0.00     0.059 A 
ATOM     76  C   UNL A   1      35.934  34.522  29.113  1.00  0.00     0.059 A 
ATOM     77  F   UNL A   1      38.232  34.166  29.411  1.00  0.00    -0.206 F 
ATOM     78  C   UNL A   1      34.619  34.222  29.467  1.00  0.00     0.060 A 
BRANCH  78  79
ATOM     79  S   UNL A   1      33.242  35.069  28.661  1.00  0.00     0.124 S 
ATOM     80  O   UNL A   1      32.452  35.500  29.808  1.00  0.00    -0.237 OA
ATOM     81  O   UNL A   1      33.925  36.126  27.920  1.00  0.00    -0.237 OA
ATOM     82  O   UNL A   1      32.643  34.024  27.837  1.00  0.00    -0.744 OA
ENDBRANCH  78  79
ENDBRANCH  46  71
BRANCH  58  83
ATOM     83  C   UNL A   1      39.870  33.961  36.929  1.00  0.00     0.058 A 
ATOM     84  C   UNL A   1      39.120  33.691  38.084  1.00  0.00     0.135 A 
ATOM     85  C   UNL A   1      40.492  35.216  36.828  1.00  0.00     0.135 A 
ATOM     86  F   UNL A   1      38.499  32.510  38.226  1.00  0.00    -0.206 F 
ATOM     87  C   UNL A   1      38.975  34.637  39.093  1.00  0.00     0.059 A 
ATOM     88  C   UNL A   1      40.385  36.167  37.838  1.00  0.00     0.059 A 
ATOM     89  F   UNL A   1      41.229  35.521  35.749  1.00  0.00    -0.206 F 
ATOM     90  C   UNL A   1      39.614  35.873  38.962  1.00  0.00     0.060 A 
BRANCH  90  91
ATOM     91  S   UNL A   1      39.446  37.079  40.293  1.00  0.00     0.124 S 
ATOM     92  O   UNL A   1      40.804  37.119  40.827  1.00  0.00    -0.237 OA
ATOM     93  O   UNL A   1      39.010  38.274  39.579  1.00  0.00    -0.237 OA
ATOM     94  O   UNL A   1      38.445  36.480  41.171  1.00  0.00    -0.744 OA
ENDBRANCH  90  91
ENDBRANCH  58  83
ENDBRANCH  32  33
ENDBRANCH  24  27
ENDBRANCH  22  23
ENDBRANCH   1  22
TORSDOF 16
ENDMDL
MODEL 3
REMARK VINA RESULT:     -11.4      6.480     12.054
REMARK SMILES CSc1ncccc1C(=O)N1CSC[C@H]1C(=O)NCCCNC(=O)c1ccc(-c2c3nc(c(-c4c(F)cc(S(=O)(=O)[O-])cc4F)c4ccc([nH]4)c(-c4c(F)cc(S(=O)(=O)[O-])cc4F)c4nc(c(-c5c(F)cc(S(=O)(=O)[O-])cc5F)c5ccc2[nH]5)C=C4)C=C3)cc1
REMARK SMILES IDX 20 1 19 2 18 3 16 4 17 5 15 7 11 8 12 9 13 10 14 11 9 12
REMARK SMILES IDX 10 13 8 14 3 15 4 16 5 17 7 18 6 19 2 20 1 21 21 22 22 23
REMARK SMILES IDX 23 24 24 26 25 27 26 28 90 29 27 30 89 31 28 32 29 33 30 34
REMARK SMILES IDX 83 35 31 36 88 37 82 38 84 39 32 40 87 41 81 42 80 43 33 45
REMARK SMILES IDX 67 46 46 47 66 48 47 49 50 50 65 51 85 52 48 53 49 54 64 56
REMARK SMILES IDX 86 57 51 58 34 59 35 60 44 61 36 62 37 63 43 64 45 65 38 66
REMARK SMILES IDX 39 67 40 68 41 69 42 70 68 71 69 72 78 73 70 74 71 75 77 76
REMARK SMILES IDX 79 77 72 78 73 79 74 80 75 81 76 82 52 83 53 84 62 85 54 86
REMARK SMILES IDX 55 87 61 88 63 89 56 90 57 91 58 92 59 93 60 94
REMARK H PARENT 18 6 22 25 84 44 50 55
REMARK Flexibility Score: inf
ROOT
ATOM      1  C   UNL A   1      34.752  29.776  27.541  1.00  0.00     0.042 C 
ENDROOT
BRANCH   1   2
ATOM      2  C   UNL A   1      33.366  30.206  27.090  1.00  0.00     0.117 C 
BRANCH   2   3
ATOM      3  N   UNL A   1      32.330  29.301  27.529  1.00  0.00    -0.354 N 
ATOM      4  C   UNL A   1      31.792  28.203  26.932  1.00  0.00     0.243 C 
ATOM      5  O   UNL A   1      31.152  27.444  27.670  1.00  0.00    -0.273 OA
ATOM      6  H   UNL A   1      31.947  29.515  28.411  1.00  0.00     0.163 HD
BRANCH   4   7
ATOM      7  C   UNL A   1      32.075  27.808  25.467  1.00  0.00     0.185 C 
ATOM      8  N   UNL A   1      32.146  26.376  25.138  1.00  0.00    -0.316 N 
ATOM      9  C   UNL A   1      31.041  25.872  24.353  1.00  0.00     0.190 C 
ATOM     10  S   UNL A   1      30.494  27.265  23.343  1.00  0.00    -0.138 SA
ATOM     11  C   UNL A   1      31.147  28.525  24.485  1.00  0.00     0.106 C 
BRANCH   8  12
ATOM     12  C   UNL A   1      33.350  25.738  25.441  1.00  0.00     0.257 C 
ATOM     13  O   UNL A   1      34.409  26.327  25.244  1.00  0.00    -0.269 OA
BRANCH  12  14
ATOM     14  C   UNL A   1      33.376  24.297  25.832  1.00  0.00     0.072 A 
ATOM     15  C   UNL A   1      33.886  23.282  25.011  1.00  0.00     0.108 A 
ATOM     16  N   UNL A   1      33.842  21.966  25.371  1.00  0.00    -0.249 NA
ATOM     17  C   UNL A   1      33.242  21.634  26.532  1.00  0.00     0.112 A 
ATOM     18  C   UNL A   1      32.702  23.895  26.999  1.00  0.00     0.018 A 
ATOM     19  C   UNL A   1      32.652  22.555  27.369  1.00  0.00     0.021 A 
BRANCH  15  20
ATOM     20  S   UNL A   1      34.519  23.524  23.360  1.00  0.00    -0.109 SA
ATOM     21  C   UNL A   1      33.002  23.276  22.418  1.00  0.00     0.092 C 
ENDBRANCH  15  20
ENDBRANCH  12  14
ENDBRANCH   8  12
ENDBRANCH   4   7
ENDBRANCH   2   3
ENDBRANCH   1   2
BRANCH   1  22
ATOM     22  C   UNL A   1      35.559  30.901  28.177  1.00  0.00     0.118 C 
BRANCH  22  23
ATOM     23  N   UNL A   1      35.512  30.856  29.634  1.00  0.00    -0.352 N 
ATOM     24  C   UNL A   1      36.419  30.367  30.536  1.00  0.00     0.251 C 
ATOM     25  H   UNL A   1      34.697  31.238  30.033  1.00  0.00     0.163 HD
ATOM     26  O   UNL A   1      36.070  30.212  31.711  1.00  0.00    -0.269 OA
BRANCH  24  27
ATOM     27  C   UNL A   1      37.793  30.022  30.122  1.00  0.00     0.039 A 
ATOM     28  C   UNL A   1      38.722  29.645  31.097  1.00  0.00     0.014 A 
ATOM     29  C   UNL A   1      38.186  30.113  28.784  1.00  0.00     0.014 A 
ATOM     30  C   UNL A   1      40.024  29.308  30.722  1.00  0.00     0.010 A 
ATOM     31  C   UNL A   1      39.456  29.691  28.402  1.00  0.00     0.010 A 
ATOM     32  C   UNL A   1      40.392  29.298  29.367  1.00  0.00    -0.014 A 
BRANCH  32  33
ATOM     33  C   UNL A   1      41.757  28.896  28.942  1.00  0.00     0.031 A 
ATOM     34  C   UNL A   1      42.864  29.914  28.896  1.00  0.00     0.074 A 
ATOM     35  C   UNL A   1      41.980  27.628  28.544  1.00  0.00     0.049 A 
ATOM     36  N   UNL A   1      44.101  29.769  28.497  1.00  0.00    -0.248 NA
ATOM     37  C   UNL A   1      42.531  31.282  29.325  1.00  0.00     0.031 C 
ATOM     38  C   UNL A   1      40.971  26.566  28.496  1.00  0.00     0.029 A 
ATOM     39  N   UNL A   1      43.123  27.017  28.094  1.00  0.00    -0.354 N 
ATOM     40  C   UNL A   1      44.687  31.024  28.613  1.00  0.00     0.074 A 
ATOM     41  C   UNL A   1      43.655  31.932  29.064  1.00  0.00     0.031 C 
ATOM     42  C   UNL A   1      41.546  25.431  28.067  1.00  0.00     0.029 A 
ATOM     43  C   UNL A   1      42.952  25.692  27.773  1.00  0.00     0.049 A 
ATOM     44  H   UNL A   1      43.985  27.485  28.010  1.00  0.00     0.167 HD
ATOM     45  C   UNL A   1      45.974  31.383  28.391  1.00  0.00     0.037 A 
ATOM     46  C   UNL A   1      43.827  24.789  27.290  1.00  0.00     0.037 A 
ATOM     47  C   UNL A   1      47.000  30.466  27.967  1.00  0.00     0.049 A 
ATOM     48  C   UNL A   1      45.252  25.209  27.054  1.00  0.00     0.074 A 
ATOM     49  C   UNL A   1      48.346  30.714  27.769  1.00  0.00     0.029 A 
ATOM     50  N   UNL A   1      46.793  29.126  27.675  1.00  0.00    -0.354 N 
ATOM     51  N   UNL A   1      45.804  26.385  27.234  1.00  0.00    -0.248 NA
ATOM     52  C   UNL A   1      46.176  24.180  26.559  1.00  0.00     0.031 C 
ATOM     53  C   UNL A   1      48.945  29.534  27.313  1.00  0.00     0.029 A 
ATOM     54  C   UNL A   1      47.982  28.537  27.278  1.00  0.00     0.049 A 
ATOM     55  H   UNL A   1      45.927  28.661  27.739  1.00  0.00     0.167 HD
ATOM     56  C   UNL A   1      47.146  26.231  26.901  1.00  0.00     0.074 A 
ATOM     57  C   UNL A   1      47.322  24.844  26.520  1.00  0.00     0.031 C 
ATOM     58  C   UNL A   1      48.140  27.152  26.910  1.00  0.00     0.037 A 
BRANCH  45  59
ATOM     59  C   UNL A   1      46.346  32.825  28.607  1.00  0.00     0.058 A 
ATOM     60  C   UNL A   1      46.272  33.769  27.570  1.00  0.00     0.135 A 
ATOM     61  C   UNL A   1      46.751  33.277  29.874  1.00  0.00     0.135 A 
ATOM     62  F   UNL A   1      45.907  33.390  26.335  1.00  0.00    -0.206 F 
ATOM     63  C   UNL A   1      46.615  35.103  27.773  1.00  0.00     0.059 A 
ATOM     64  C   UNL A   1      47.069  34.612  30.107  1.00  0.00     0.059 A 
ATOM     65  F   UNL A   1      46.841  32.418  30.902  1.00  0.00    -0.206 F 
ATOM     66  C   UNL A   1      47.013  35.514  29.045  1.00  0.00     0.060 A 
BRANCH  66  67
ATOM     67  S   UNL A   1      47.448  37.249  29.292  1.00  0.00     0.124 S 
ATOM     68  O   UNL A   1      47.906  37.240  30.678  1.00  0.00    -0.237 OA
ATOM     69  O   UNL A   1      48.484  37.457  28.284  1.00  0.00    -0.237 OA
ATOM     70  O   UNL A   1      46.193  37.953  29.049  1.00  0.00    -0.744 OA
ENDBRANCH  66  67
ENDBRANCH  45  59
BRANCH  46  71
ATOM     71  C   UNL A   1      43.384  23.395  27.023  1.00  0.00     0.058 A 
ATOM     72  C   UNL A   1      43.153  22.948  25.714  1.00  0.00     0.135 A 
ATOM     73  C   UNL A   1      43.201  22.475  28.068  1.00  0.00     0.135 A 
ATOM     74  F   UNL A   1      43.310  23.791  24.680  1.00  0.00    -0.206 F 
ATOM     75  C   UNL A   1      42.741  21.646  25.448  1.00  0.00     0.059 A 
ATOM     76  C   UNL A   1      42.815  21.161  27.826  1.00  0.00     0.059 A 
ATOM     77  F   UNL A   1      43.427  22.845  29.337  1.00  0.00    -0.206 F 
ATOM     78  C   UNL A   1      42.578  20.758  26.512  1.00  0.00     0.060 A 
BRANCH  78  79
ATOM     79  S   UNL A   1      42.094  19.055  26.153  1.00  0.00     0.124 S 
ATOM     80  O   UNL A   1      40.688  19.217  25.805  1.00  0.00    -0.237 OA
ATOM     81  O   UNL A   1      42.990  18.708  25.054  1.00  0.00    -0.237 OA
ATOM     82  O   UNL A   1      42.359  18.361  27.410  1.00  0.00    -0.744 OA
ENDBRANCH  78  79
ENDBRANCH  46  71
BRANCH  58  83
ATOM     83  C   UNL A   1      49.518  26.687  26.531  1.00  0.00     0.058 A 
ATOM     84  C   UNL A   1      50.390  26.115  27.471  1.00  0.00     0.135 A 
ATOM     85  C   UNL A   1      49.952  26.766  25.197  1.00  0.00     0.135 A 
ATOM     86  F   UNL A   1      50.027  26.023  28.760  1.00  0.00    -0.206 F 
ATOM     87  C   UNL A   1      51.653  25.659  27.108  1.00  0.00     0.059 A 
ATOM     88  C   UNL A   1      51.198  26.289  24.805  1.00  0.00     0.059 A 
ATOM     89  F   UNL A   1      49.153  27.293  24.257  1.00  0.00    -0.206 F 
ATOM     90  C   UNL A   1      52.047  25.748  25.770  1.00  0.00     0.060 A 
BRANCH  90  91
ATOM     91  S   UNL A   1      53.674  25.120  25.305  1.00  0.00     0.124 S 
ATOM     92  O   UNL A   1      54.499  25.596  26.410  1.00  0.00    -0.237 OA
ATOM     93  O   UNL A   1      53.450  23.679  25.255  1.00  0.00    -0.237 OA
ATOM     94  O   UNL A   1      53.926  25.754  24.014  1.00  0.00    -0.744 OA
ENDBRANCH  90  91
ENDBRANCH  58  83
ENDBRANCH  32  33
ENDBRANCH  24  27
ENDBRANCH  22  23
ENDBRANCH   1  22
TORSDOF 16
ENDMDL
