MODEL 1
REMARK VINA RESULT:     -12.8      0.000      0.000
REMARK SMILES CC1(C)[C@H](C(=O)NCCCNC(=O)c2ccc(-c3c4nc(c(-c5c(F)cc(S(=O)(=O)[O-])cc5F)c5ccc([nH]5)c(-c5c(F)cc(S(=O)(=O)[O-])cc5F)c5nc(c(-c6c(F)cc(S(=O)(=O)[O-])cc6F)c6ccc3[nH]6)C=C5)C=C4)cc2)[C@H]1C(=O)Nc1ccc(C(=O)NCCc2ccccc2)cc1
REMARK SMILES IDX 5 1 6 2 7 3 4 5 1 6 2 7 3 8 80 9 81 10 82 11 83 12 84 14
REMARK SMILES IDX 85 15 100 16 86 17 99 18 87 19 88 20 89 21 90 22 91 24 92 25
REMARK SMILES IDX 93 26 94 27 98 28 95 29 97 30 96 31 8 32 9 33 10 34 11 35
REMARK SMILES IDX 12 36 13 38 14 39 15 40 79 41 16 42 78 43 17 44 18 45 19 46
REMARK SMILES IDX 72 47 20 48 77 49 71 50 73 51 21 52 76 53 70 54 69 55 22 57
REMARK SMILES IDX 56 58 35 59 55 60 36 61 39 62 54 63 74 64 37 65 38 66 53 68
REMARK SMILES IDX 75 69 40 70 23 71 24 72 33 73 25 74 26 75 32 76 34 77 27 78
REMARK SMILES IDX 28 79 29 80 30 81 31 82 57 83 58 84 67 85 59 86 60 87 66 88
REMARK SMILES IDX 68 89 61 90 62 91 63 92 64 93 65 94 41 95 42 96 51 97 43 98
REMARK SMILES IDX 44 99 50 100 52 101 45 102 46 103 47 104 48 105 49 106
REMARK H PARENT 7 4 83 13 90 23 11 37 73 56 39 67
REMARK Flexibility Score: inf
ROOT
ATOM      1  C   UNL A   1      34.531  21.905  26.783  1.00  0.00     0.224 C 
ATOM      2  O   UNL A   1      34.251  21.663  27.959  1.00  0.00    -0.275 OA
ATOM      3  N   UNL A   1      35.866  21.925  26.503  1.00  0.00    -0.356 N 
ATOM      4  H   UNL A   1      36.413  21.662  27.278  1.00  0.00     0.163 HD
ENDROOT
BRANCH   1   5
ATOM      5  C   UNL A   1      33.386  22.073  25.851  1.00  0.00     0.098 C 
ATOM      6  C   UNL A   1      32.469  21.752  23.478  1.00  0.00     0.013 C 
ATOM      7  C   UNL A   1      32.726  21.141  24.838  1.00  0.00    -0.011 C 
ATOM      8  C   UNL A   1      33.009  19.673  24.693  1.00  0.00     0.013 C 
ATOM      9  C   UNL A   1      31.989  21.596  26.110  1.00  0.00     0.098 C 
BRANCH   9  10
ATOM     10  C   UNL A   1      30.766  22.465  26.155  1.00  0.00     0.228 C 
ATOM     11  O   UNL A   1      29.686  21.939  26.411  1.00  0.00    -0.274 OA
ATOM     12  N   UNL A   1      30.941  23.827  26.263  1.00  0.00    -0.326 N 
ATOM     13  H   UNL A   1      30.743  24.241  27.135  1.00  0.00     0.169 HD
BRANCH  12  14
ATOM     14  C   UNL A   1      31.380  24.671  25.236  1.00  0.00     0.041 A 
ATOM     15  C   UNL A   1      32.652  25.234  25.314  1.00  0.00     0.027 A 
ATOM     16  C   UNL A   1      30.575  24.925  24.125  1.00  0.00     0.027 A 
ATOM     17  C   UNL A   1      33.191  25.861  24.187  1.00  0.00     0.016 A 
ATOM     18  C   UNL A   1      31.102  25.570  23.007  1.00  0.00     0.016 A 
ATOM     19  C   UNL A   1      32.441  25.955  23.009  1.00  0.00     0.039 A 
BRANCH  19  20
ATOM     20  C   UNL A   1      33.097  26.456  21.783  1.00  0.00     0.251 C 
ATOM     21  O   UNL A   1      33.387  25.663  20.890  1.00  0.00    -0.269 OA
ATOM     22  N   UNL A   1      33.335  27.798  21.622  1.00  0.00    -0.352 N 
ATOM     23  H   UNL A   1      33.843  28.030  20.811  1.00  0.00     0.163 HD
BRANCH  22  24
ATOM     24  C   UNL A   1      32.961  28.941  22.454  1.00  0.00     0.121 C 
BRANCH  24  25
ATOM     25  C   UNL A   1      33.991  29.219  23.558  1.00  0.00     0.057 C 
BRANCH  25  26
ATOM     26  C   UNL A   1      33.408  29.057  24.942  1.00  0.00    -0.046 A 
ATOM     27  C   UNL A   1      32.021  29.001  25.135  1.00  0.00     0.004 A 
ATOM     28  C   UNL A   1      34.254  28.922  26.053  1.00  0.00     0.004 A 
ATOM     29  C   UNL A   1      31.491  28.799  26.410  1.00  0.00     0.000 A 
ATOM     30  C   UNL A   1      33.721  28.726  27.328  1.00  0.00     0.000 A 
ATOM     31  C   UNL A   1      32.341  28.660  27.506  1.00  0.00     0.000 A 
ENDBRANCH  25  26
ENDBRANCH  24  25
ENDBRANCH  22  24
ENDBRANCH  19  20
ENDBRANCH  12  14
ENDBRANCH   9  10
ENDBRANCH   1   5
BRANCH   3  32
ATOM     32  C   UNL A   1      36.674  22.240  25.345  1.00  0.00     0.117 C 
BRANCH  32  33
ATOM     33  C   UNL A   1      37.104  23.705  25.352  1.00  0.00     0.042 C 
BRANCH  33  34
ATOM     34  C   UNL A   1      38.041  24.070  26.497  1.00  0.00     0.118 C 
BRANCH  34  35
ATOM     35  N   UNL A   1      39.439  23.915  26.131  1.00  0.00    -0.352 N 
ATOM     36  C   UNL A   1      40.537  24.675  26.454  1.00  0.00     0.251 C 
ATOM     37  H   UNL A   1      39.630  23.138  25.556  1.00  0.00     0.163 HD
ATOM     38  O   UNL A   1      41.583  24.494  25.839  1.00  0.00    -0.269 OA
BRANCH  36  39
ATOM     39  C   UNL A   1      40.476  25.712  27.515  1.00  0.00     0.039 A 
ATOM     40  C   UNL A   1      39.544  25.564  28.548  1.00  0.00     0.014 A 
ATOM     41  C   UNL A   1      41.274  26.858  27.471  1.00  0.00     0.014 A 
ATOM     42  C   UNL A   1      39.449  26.530  29.556  1.00  0.00     0.010 A 
ATOM     43  C   UNL A   1      41.235  27.781  28.517  1.00  0.00     0.010 A 
ATOM     44  C   UNL A   1      40.315  27.635  29.565  1.00  0.00    -0.014 A 
BRANCH  44  45
ATOM     45  C   UNL A   1      40.253  28.668  30.635  1.00  0.00     0.031 A 
ATOM     46  C   UNL A   1      41.155  28.558  31.837  1.00  0.00     0.074 A 
ATOM     47  C   UNL A   1      39.351  29.666  30.560  1.00  0.00     0.049 A 
ATOM     48  N   UNL A   1      41.168  29.276  32.932  1.00  0.00    -0.248 NA
ATOM     49  C   UNL A   1      42.159  27.481  31.818  1.00  0.00     0.031 C 
ATOM     50  C   UNL A   1      38.400  29.871  29.465  1.00  0.00     0.029 A 
ATOM     51  N   UNL A   1      39.074  30.691  31.432  1.00  0.00    -0.354 N 
ATOM     52  C   UNL A   1      42.161  28.728  33.735  1.00  0.00     0.074 A 
ATOM     53  C   UNL A   1      42.699  27.589  33.024  1.00  0.00     0.031 C 
ATOM     54  C   UNL A   1      37.657  30.959  29.723  1.00  0.00     0.029 A 
ATOM     55  C   UNL A   1      38.048  31.508  31.017  1.00  0.00     0.049 A 
ATOM     56  H   UNL A   1      39.563  30.826  32.275  1.00  0.00     0.167 HD
ATOM     57  C   UNL A   1      42.602  29.146  34.946  1.00  0.00     0.037 A 
ATOM     58  C   UNL A   1      37.480  32.573  31.617  1.00  0.00     0.037 A 
ATOM     59  C   UNL A   1      42.094  30.303  35.635  1.00  0.00     0.049 A 
ATOM     60  C   UNL A   1      37.991  33.022  32.961  1.00  0.00     0.074 A 
ATOM     61  C   UNL A   1      42.499  30.829  36.851  1.00  0.00     0.029 A 
ATOM     62  N   UNL A   1      41.082  31.124  35.163  1.00  0.00    -0.354 N 
ATOM     63  N   UNL A   1      38.946  32.502  33.694  1.00  0.00    -0.248 NA
ATOM     64  C   UNL A   1      37.349  34.202  33.557  1.00  0.00     0.031 C 
ATOM     65  C   UNL A   1      41.716  31.954  37.124  1.00  0.00     0.029 A 
ATOM     66  C   UNL A   1      40.847  32.151  36.062  1.00  0.00     0.049 A 
ATOM     67  H   UNL A   1      40.601  30.996  34.313  1.00  0.00     0.167 HD
ATOM     68  C   UNL A   1      39.041  33.311  34.821  1.00  0.00     0.074 A 
ATOM     69  C   UNL A   1      38.051  34.357  34.672  1.00  0.00     0.031 C 
ATOM     70  C   UNL A   1      39.874  33.197  35.884  1.00  0.00     0.037 A 
BRANCH  57  71
ATOM     71  C   UNL A   1      43.704  28.359  35.599  1.00  0.00     0.058 A 
ATOM     72  C   UNL A   1      43.425  27.320  36.502  1.00  0.00     0.135 A 
ATOM     73  C   UNL A   1      45.050  28.614  35.289  1.00  0.00     0.135 A 
ATOM     74  F   UNL A   1      42.157  27.047  36.847  1.00  0.00    -0.206 F 
ATOM     75  C   UNL A   1      44.442  26.576  37.091  1.00  0.00     0.059 A 
ATOM     76  C   UNL A   1      46.082  27.863  35.846  1.00  0.00     0.059 A 
ATOM     77  F   UNL A   1      45.371  29.595  34.432  1.00  0.00    -0.206 F 
ATOM     78  C   UNL A   1      45.767  26.854  36.756  1.00  0.00     0.060 A 
BRANCH  78  79
ATOM     79  S   UNL A   1      47.075  25.870  37.517  1.00  0.00     0.124 S 
ATOM     80  O   UNL A   1      46.525  24.522  37.405  1.00  0.00    -0.237 OA
ATOM     81  O   UNL A   1      48.222  26.159  36.662  1.00  0.00    -0.237 OA
ATOM     82  O   UNL A   1      47.157  26.404  38.873  1.00  0.00    -0.744 OA
ENDBRANCH  78  79
ENDBRANCH  57  71
BRANCH  58  83
ATOM     83  C   UNL A   1      36.370  33.304  30.951  1.00  0.00     0.058 A 
ATOM     84  C   UNL A   1      36.616  34.135  29.848  1.00  0.00     0.135 A 
ATOM     85  C   UNL A   1      35.048  33.200  31.410  1.00  0.00     0.135 A 
ATOM     86  F   UNL A   1      37.865  34.271  29.378  1.00  0.00    -0.206 F 
ATOM     87  C   UNL A   1      35.597  34.859  29.238  1.00  0.00     0.059 A 
ATOM     88  C   UNL A   1      34.007  33.895  30.802  1.00  0.00     0.059 A 
ATOM     89  F   UNL A   1      34.757  32.404  32.451  1.00  0.00    -0.206 F 
ATOM     90  C   UNL A   1      34.294  34.735  29.726  1.00  0.00     0.060 A 
BRANCH  90  91
ATOM     91  S   UNL A   1      32.970  35.657  28.914  1.00  0.00     0.124 S 
ATOM     92  O   UNL A   1      32.404  34.642  28.033  1.00  0.00    -0.237 OA
ATOM     93  O   UNL A   1      32.138  36.062  30.043  1.00  0.00    -0.237 OA
ATOM     94  O   UNL A   1      33.683  36.745  28.250  1.00  0.00    -0.744 OA
ENDBRANCH  90  91
ENDBRANCH  58  83
BRANCH  70  95
ATOM     95  C   UNL A   1      39.790  34.256  36.947  1.00  0.00     0.058 A 
ATOM     96  C   UNL A   1      40.372  35.520  36.775  1.00  0.00     0.135 A 
ATOM     97  C   UNL A   1      39.064  34.019  38.125  1.00  0.00     0.135 A 
ATOM     98  F   UNL A   1      41.080  35.793  35.668  1.00  0.00    -0.206 F 
ATOM     99  C   UNL A   1      40.248  36.512  37.743  1.00  0.00     0.059 A 
ATOM    100  C   UNL A   1      38.911  35.002  39.097  1.00  0.00     0.059 A 
ATOM    101  F   UNL A   1      38.482  32.827  38.333  1.00  0.00    -0.206 F 
ATOM    102  C   UNL A   1      39.514  36.243  38.900  1.00  0.00     0.060 A 
BRANCH 102 103
ATOM    103  S   UNL A   1      39.322  37.552  40.128  1.00  0.00     0.124 S 
ATOM    104  O   UNL A   1      38.910  36.793  41.305  1.00  0.00    -0.237 OA
ATOM    105  O   UNL A   1      40.661  38.131  40.184  1.00  0.00    -0.237 OA
ATOM    106  O   UNL A   1      38.298  38.415  39.547  1.00  0.00    -0.744 OA
ENDBRANCH 102 103
ENDBRANCH  70  95
ENDBRANCH  44  45
ENDBRANCH  36  39
ENDBRANCH  34  35
ENDBRANCH  33  34
ENDBRANCH  32  33
ENDBRANCH   3  32
TORSDOF 19
ENDMDL
MODEL 2
REMARK VINA RESULT:     -12.6      6.570     11.502
REMARK SMILES CC1(C)[C@H](C(=O)NCCCNC(=O)c2ccc(-c3c4nc(c(-c5c(F)cc(S(=O)(=O)[O-])cc5F)c5ccc([nH]5)c(-c5c(F)cc(S(=O)(=O)[O-])cc5F)c5nc(c(-c6c(F)cc(S(=O)(=O)[O-])cc6F)c6ccc3[nH]6)C=C5)C=C4)cc2)[C@H]1C(=O)Nc1ccc(C(=O)NCCc2ccccc2)cc1
REMARK SMILES IDX 5 1 6 2 7 3 4 5 1 6 2 7 3 8 80 9 81 10 82 11 83 12 84 14
REMARK SMILES IDX 85 15 100 16 86 17 99 18 87 19 88 20 89 21 90 22 91 24 92 25
REMARK SMILES IDX 93 26 94 27 98 28 95 29 97 30 96 31 8 32 9 33 10 34 11 35
REMARK SMILES IDX 12 36 13 38 14 39 15 40 79 41 16 42 78 43 17 44 18 45 19 46
REMARK SMILES IDX 72 47 20 48 77 49 71 50 73 51 21 52 76 53 70 54 69 55 22 57
REMARK SMILES IDX 56 58 35 59 55 60 36 61 39 62 54 63 74 64 37 65 38 66 53 68
REMARK SMILES IDX 75 69 40 70 23 71 24 72 33 73 25 74 26 75 32 76 34 77 27 78
REMARK SMILES IDX 28 79 29 80 30 81 31 82 57 83 58 84 67 85 59 86 60 87 66 88
REMARK SMILES IDX 68 89 61 90 62 91 63 92 64 93 65 94 41 95 42 96 51 97 43 98
REMARK SMILES IDX 44 99 50 100 52 101 45 102 46 103 47 104 48 105 49 106
REMARK H PARENT 7 4 83 13 90 23 11 37 73 56 39 67
REMARK Flexibility Score: inf
ROOT
ATOM      1  C   UNL A   1      32.133  28.632  27.179  1.00  0.00     0.224 C 
ATOM      2  O   UNL A   1      31.285  28.194  27.960  1.00  0.00    -0.275 OA
ATOM      3  N   UNL A   1      33.262  29.115  27.771  1.00  0.00    -0.356 N 
ATOM      4  H   UNL A   1      33.265  28.968  28.744  1.00  0.00     0.163 HD
ENDROOT
BRANCH   1   5
ATOM      5  C   UNL A   1      31.823  28.510  25.731  1.00  0.00     0.098 C 
ATOM      6  C   UNL A   1      30.091  28.794  23.863  1.00  0.00     0.013 C 
ATOM      7  C   UNL A   1      31.146  29.443  24.731  1.00  0.00    -0.011 C 
ATOM      8  C   UNL A   1      30.784  30.878  24.987  1.00  0.00     0.013 C 
ATOM      9  C   UNL A   1      32.643  29.100  24.623  1.00  0.00     0.098 C 
BRANCH   9  10
ATOM     10  C   UNL A   1      33.290  28.327  23.511  1.00  0.00     0.228 C 
ATOM     11  O   UNL A   1      33.397  28.866  22.413  1.00  0.00    -0.274 OA
ATOM     12  N   UNL A   1      34.042  27.221  23.842  1.00  0.00    -0.326 N 
ATOM     13  H   UNL A   1      35.021  27.304  23.778  1.00  0.00     0.169 HD
BRANCH  12  14
ATOM     14  C   UNL A   1      33.527  25.989  24.263  1.00  0.00     0.041 A 
ATOM     15  C   UNL A   1      33.909  25.480  25.502  1.00  0.00     0.027 A 
ATOM     16  C   UNL A   1      32.614  25.287  23.475  1.00  0.00     0.027 A 
ATOM     17  C   UNL A   1      33.213  24.392  26.037  1.00  0.00     0.016 A 
ATOM     18  C   UNL A   1      31.934  24.188  23.996  1.00  0.00     0.016 A 
ATOM     19  C   UNL A   1      32.171  23.800  25.314  1.00  0.00     0.039 A 
BRANCH  19  20
ATOM     20  C   UNL A   1      31.334  22.777  25.974  1.00  0.00     0.251 C 
ATOM     21  O   UNL A   1      30.442  23.133  26.740  1.00  0.00    -0.269 OA
ATOM     22  N   UNL A   1      31.519  21.444  25.697  1.00  0.00    -0.352 N 
ATOM     23  H   UNL A   1      30.970  20.833  26.239  1.00  0.00     0.163 HD
BRANCH  22  24
ATOM     24  C   UNL A   1      32.396  20.782  24.732  1.00  0.00     0.121 C 
BRANCH  24  25
ATOM     25  C   UNL A   1      33.756  20.412  25.340  1.00  0.00     0.057 C 
BRANCH  25  26
ATOM     26  C   UNL A   1      34.825  21.431  25.024  1.00  0.00    -0.046 A 
ATOM     27  C   UNL A   1      35.819  21.743  25.962  1.00  0.00     0.004 A 
ATOM     28  C   UNL A   1      34.859  22.053  23.767  1.00  0.00     0.004 A 
ATOM     29  C   UNL A   1      36.833  22.647  25.644  1.00  0.00     0.000 A 
ATOM     30  C   UNL A   1      35.872  22.961  23.454  1.00  0.00     0.000 A 
ATOM     31  C   UNL A   1      36.861  23.253  24.389  1.00  0.00     0.000 A 
ENDBRANCH  25  26
ENDBRANCH  24  25
ENDBRANCH  22  24
ENDBRANCH  19  20
ENDBRANCH  12  14
ENDBRANCH   9  10
ENDBRANCH   1   5
BRANCH   3  32
ATOM     32  C   UNL A   1      34.458  29.792  27.316  1.00  0.00     0.117 C 
BRANCH  32  33
ATOM     33  C   UNL A   1      34.498  31.236  27.810  1.00  0.00     0.042 C 
BRANCH  33  34
ATOM     34  C   UNL A   1      35.738  31.575  28.629  1.00  0.00     0.118 C 
BRANCH  34  35
ATOM     35  N   UNL A   1      35.681  31.011  29.967  1.00  0.00    -0.352 N 
ATOM     36  C   UNL A   1      36.546  30.163  30.617  1.00  0.00     0.251 C 
ATOM     37  H   UNL A   1      34.893  31.279  30.493  1.00  0.00     0.163 HD
ATOM     38  O   UNL A   1      36.177  29.628  31.658  1.00  0.00    -0.269 OA
BRANCH  36  39
ATOM     39  C   UNL A   1      37.900  29.877  30.081  1.00  0.00     0.039 A 
ATOM     40  C   UNL A   1      38.967  29.757  30.979  1.00  0.00     0.014 A 
ATOM     41  C   UNL A   1      38.146  29.795  28.709  1.00  0.00     0.014 A 
ATOM     42  C   UNL A   1      40.260  29.504  30.506  1.00  0.00     0.010 A 
ATOM     43  C   UNL A   1      39.420  29.464  28.242  1.00  0.00     0.010 A 
ATOM     44  C   UNL A   1      40.493  29.327  29.133  1.00  0.00    -0.014 A 
BRANCH  44  45
ATOM     45  C   UNL A   1      41.853  29.034  28.603  1.00  0.00     0.031 A 
ATOM     46  C   UNL A   1      42.200  27.638  28.155  1.00  0.00     0.074 A 
ATOM     47  C   UNL A   1      42.791  30.001  28.579  1.00  0.00     0.049 A 
ATOM     48  N   UNL A   1      43.357  27.150  27.786  1.00  0.00    -0.248 NA
ATOM     49  C   UNL A   1      41.106  26.652  28.148  1.00  0.00     0.031 C 
ATOM     50  C   UNL A   1      42.594  31.387  29.010  1.00  0.00     0.029 A 
ATOM     51  N   UNL A   1      44.108  29.963  28.188  1.00  0.00    -0.354 N 
ATOM     52  C   UNL A   1      43.136  25.803  27.523  1.00  0.00     0.074 A 
ATOM     53  C   UNL A   1      41.745  25.538  27.818  1.00  0.00     0.031 C 
ATOM     54  C   UNL A   1      43.740  32.068  28.846  1.00  0.00     0.029 A 
ATOM     55  C   UNL A   1      44.765  31.162  28.337  1.00  0.00     0.049 A 
ATOM     56  H   UNL A   1      44.540  29.152  27.836  1.00  0.00     0.167 HD
ATOM     57  C   UNL A   1      44.005  24.874  27.056  1.00  0.00     0.037 A 
ATOM     58  C   UNL A   1      46.050  31.491  28.102  1.00  0.00     0.037 A 
ATOM     59  C   UNL A   1      45.378  25.148  26.724  1.00  0.00     0.049 A 
ATOM     60  C   UNL A   1      46.996  30.443  27.578  1.00  0.00     0.074 A 
ATOM     61  C   UNL A   1      46.330  24.283  26.212  1.00  0.00     0.029 A 
ATOM     62  N   UNL A   1      45.993  26.384  26.854  1.00  0.00    -0.354 N 
ATOM     63  N   UNL A   1      46.761  29.180  27.316  1.00  0.00    -0.248 NA
ATOM     64  C   UNL A   1      48.380  30.865  27.318  1.00  0.00     0.031 C 
ATOM     65  C   UNL A   1      47.526  24.990  26.054  1.00  0.00     0.029 A 
ATOM     66  C   UNL A   1      47.310  26.304  26.435  1.00  0.00     0.049 A 
ATOM     67  H   UNL A   1      45.557  27.199  27.195  1.00  0.00     0.167 HD
ATOM     68  C   UNL A   1      47.957  28.666  26.828  1.00  0.00     0.074 A 
ATOM     69  C   UNL A   1      48.913  29.753  26.828  1.00  0.00     0.031 C 
ATOM     70  C   UNL A   1      48.239  27.405  26.418  1.00  0.00     0.037 A 
BRANCH  57  71
ATOM     71  C   UNL A   1      43.494  23.475  26.858  1.00  0.00     0.058 A 
ATOM     72  C   UNL A   1      43.294  22.944  25.573  1.00  0.00     0.135 A 
ATOM     73  C   UNL A   1      43.243  22.639  27.958  1.00  0.00     0.135 A 
ATOM     74  F   UNL A   1      43.502  23.706  24.487  1.00  0.00    -0.206 F 
ATOM     75  C   UNL A   1      42.844  21.642  25.386  1.00  0.00     0.059 A 
ATOM     76  C   UNL A   1      42.816  21.323  27.793  1.00  0.00     0.059 A 
ATOM     77  F   UNL A   1      43.418  23.096  29.208  1.00  0.00    -0.206 F 
ATOM     78  C   UNL A   1      42.608  20.839  26.502  1.00  0.00     0.060 A 
BRANCH  78  79
ATOM     79  S   UNL A   1      42.037  19.146  26.242  1.00  0.00     0.124 S 
ATOM     80  O   UNL A   1      42.331  18.539  27.537  1.00  0.00    -0.237 OA
ATOM     81  O   UNL A   1      40.621  19.336  25.939  1.00  0.00    -0.237 OA
ATOM     82  O   UNL A   1      42.855  18.679  25.129  1.00  0.00    -0.744 OA
ENDBRANCH  78  79
ENDBRANCH  57  71
BRANCH  58  83
ATOM     83  C   UNL A   1      46.524  32.880  28.342  1.00  0.00     0.058 A 
ATOM     84  C   UNL A   1      46.485  33.841  27.321  1.00  0.00     0.135 A 
ATOM     85  C   UNL A   1      47.037  33.271  29.588  1.00  0.00     0.135 A 
ATOM     86  F   UNL A   1      46.008  33.511  26.111  1.00  0.00    -0.206 F 
ATOM     87  C   UNL A   1      46.962  35.132  27.515  1.00  0.00     0.059 A 
ATOM     88  C   UNL A   1      47.499  34.564  29.815  1.00  0.00     0.059 A 
ATOM     89  F   UNL A   1      47.080  32.395  30.603  1.00  0.00    -0.206 F 
ATOM     90  C   UNL A   1      47.471  35.484  28.767  1.00  0.00     0.060 A 
BRANCH  90  91
ATOM     91  S   UNL A   1      48.066  37.170  29.021  1.00  0.00     0.124 S 
ATOM     92  O   UNL A   1      48.951  36.998  30.168  1.00  0.00    -0.237 OA
ATOM     93  O   UNL A   1      48.717  37.464  27.749  1.00  0.00    -0.237 OA
ATOM     94  O   UNL A   1      46.839  37.920  29.275  1.00  0.00    -0.744 OA
ENDBRANCH  90  91
ENDBRANCH  58  83
BRANCH  70  95
ATOM     95  C   UNL A   1      49.619  27.141  25.885  1.00  0.00     0.058 A 
ATOM     96  C   UNL A   1      50.669  26.744  26.726  1.00  0.00     0.135 A 
ATOM     97  C   UNL A   1      49.874  27.227  24.507  1.00  0.00     0.135 A 
ATOM     98  F   UNL A   1      50.476  26.653  28.051  1.00  0.00    -0.206 F 
ATOM     99  C   UNL A   1      51.932  26.454  26.219  1.00  0.00     0.059 A 
ATOM    100  C   UNL A   1      51.123  26.922  23.977  1.00  0.00     0.059 A 
ATOM    101  F   UNL A   1      48.899  27.595  23.661  1.00  0.00    -0.206 F 
ATOM    102  C   UNL A   1      52.148  26.545  24.843  1.00  0.00     0.060 A 
BRANCH 102 103
ATOM    103  S   UNL A   1      53.778  26.122  24.192  1.00  0.00     0.124 S 
ATOM    104  O   UNL A   1      53.544  26.180  22.752  1.00  0.00    -0.237 OA
ATOM    105  O   UNL A   1      54.621  27.181  24.740  1.00  0.00    -0.237 OA
ATOM    106  O   UNL A   1      54.026  24.790  24.735  1.00  0.00    -0.744 OA
ENDBRANCH 102 103
ENDBRANCH  70  95
ENDBRANCH  44  45
ENDBRANCH  36  39
ENDBRANCH  34  35
ENDBRANCH  33  34
ENDBRANCH  32  33
ENDBRANCH   3  32
TORSDOF 19
ENDMDL
MODEL 3
REMARK VINA RESULT:     -12.5      1.163      8.064
REMARK SMILES CC1(C)[C@H](C(=O)NCCCNC(=O)c2ccc(-c3c4nc(c(-c5c(F)cc(S(=O)(=O)[O-])cc5F)c5ccc([nH]5)c(-c5c(F)cc(S(=O)(=O)[O-])cc5F)c5nc(c(-c6c(F)cc(S(=O)(=O)[O-])cc6F)c6ccc3[nH]6)C=C5)C=C4)cc2)[C@H]1C(=O)Nc1ccc(C(=O)NCCc2ccccc2)cc1
REMARK SMILES IDX 5 1 6 2 7 3 4 5 1 6 2 7 3 8 80 9 81 10 82 11 83 12 84 14
REMARK SMILES IDX 85 15 100 16 86 17 99 18 87 19 88 20 89 21 90 22 91 24 92 25
REMARK SMILES IDX 93 26 94 27 98 28 95 29 97 30 96 31 8 32 9 33 10 34 11 35
REMARK SMILES IDX 12 36 13 38 14 39 15 40 79 41 16 42 78 43 17 44 18 45 19 46
REMARK SMILES IDX 72 47 20 48 77 49 71 50 73 51 21 52 76 53 70 54 69 55 22 57
REMARK SMILES IDX 56 58 35 59 55 60 36 61 39 62 54 63 74 64 37 65 38 66 53 68
REMARK SMILES IDX 75 69 40 70 23 71 24 72 33 73 25 74 26 75 32 76 34 77 27 78
REMARK SMILES IDX 28 79 29 80 30 81 31 82 57 83 58 84 67 85 59 86 60 87 66 88
REMARK SMILES IDX 68 89 61 90 62 91 63 92 64 93 65 94 41 95 42 96 51 97 43 98
REMARK SMILES IDX 44 99 50 100 52 101 45 102 46 103 47 104 48 105 49 106
REMARK H PARENT 7 4 83 13 90 23 11 37 73 56 39 67
REMARK Flexibility Score: inf
ROOT
ATOM      1  C   UNL A   1      36.720  22.257  24.102  1.00  0.00     0.224 C 
ATOM      2  O   UNL A   1      36.808  22.659  22.940  1.00  0.00    -0.275 OA
ATOM      3  N   UNL A   1      37.886  22.284  24.809  1.00  0.00    -0.356 N 
ATOM      4  H   UNL A   1      38.619  22.700  24.301  1.00  0.00     0.163 HD
ENDROOT
BRANCH   1   5
ATOM      5  C   UNL A   1      35.362  21.870  24.567  1.00  0.00     0.098 C 
ATOM      6  C   UNL A   1      33.343  20.318  24.276  1.00  0.00     0.013 C 
ATOM      7  C   UNL A   1      34.716  20.523  24.878  1.00  0.00    -0.011 C 
ATOM      8  C   UNL A   1      35.439  19.209  24.961  1.00  0.00     0.013 C 
ATOM      9  C   UNL A   1      34.996  21.554  25.986  1.00  0.00     0.098 C 
BRANCH   9  10
ATOM     10  C   UNL A   1      33.961  22.276  26.799  1.00  0.00     0.228 C 
ATOM     11  O   UNL A   1      33.412  21.668  27.714  1.00  0.00    -0.274 OA
ATOM     12  N   UNL A   1      33.923  23.651  26.730  1.00  0.00    -0.326 N 
ATOM     13  H   UNL A   1      34.263  24.152  27.506  1.00  0.00     0.169 HD
BRANCH  12  14
ATOM     14  C   UNL A   1      33.442  24.394  25.645  1.00  0.00     0.041 A 
ATOM     15  C   UNL A   1      34.121  25.546  25.256  1.00  0.00     0.027 A 
ATOM     16  C   UNL A   1      32.317  23.976  24.933  1.00  0.00     0.027 A 
ATOM     17  C   UNL A   1      33.804  26.145  24.033  1.00  0.00     0.016 A 
ATOM     18  C   UNL A   1      31.984  24.585  23.724  1.00  0.00     0.016 A 
ATOM     19  C   UNL A   1      32.788  25.611  23.232  1.00  0.00     0.039 A 
BRANCH  19  20
ATOM     20  C   UNL A   1      32.597  26.148  21.868  1.00  0.00     0.251 C 
ATOM     21  O   UNL A   1      33.273  25.699  20.946  1.00  0.00    -0.269 OA
ATOM     22  N   UNL A   1      31.641  27.103  21.626  1.00  0.00    -0.352 N 
ATOM     23  H   UNL A   1      31.637  27.455  20.706  1.00  0.00     0.163 HD
BRANCH  22  24
ATOM     24  C   UNL A   1      30.627  27.684  22.504  1.00  0.00     0.121 C 
BRANCH  24  25
ATOM     25  C   UNL A   1      31.125  28.953  23.208  1.00  0.00     0.057 C 
BRANCH  25  26
ATOM     26  C   UNL A   1      31.382  28.732  24.680  1.00  0.00    -0.046 A 
ATOM     27  C   UNL A   1      32.050  29.700  25.445  1.00  0.00     0.004 A 
ATOM     28  C   UNL A   1      30.921  27.568  25.312  1.00  0.00     0.004 A 
ATOM     29  C   UNL A   1      32.239  29.512  26.815  1.00  0.00     0.000 A 
ATOM     30  C   UNL A   1      31.117  27.381  26.681  1.00  0.00     0.000 A 
ATOM     31  C   UNL A   1      31.770  28.354  27.432  1.00  0.00     0.000 A 
ENDBRANCH  25  26
ENDBRANCH  24  25
ENDBRANCH  22  24
ENDBRANCH  19  20
ENDBRANCH  12  14
ENDBRANCH   9  10
ENDBRANCH   1   5
BRANCH   3  32
ATOM     32  C   UNL A   1      38.308  21.848  26.123  1.00  0.00     0.117 C 
BRANCH  32  33
ATOM     33  C   UNL A   1      39.784  22.159  26.361  1.00  0.00     0.042 C 
BRANCH  33  34
ATOM     34  C   UNL A   1      40.044  23.572  26.871  1.00  0.00     0.118 C 
BRANCH  34  35
ATOM     35  N   UNL A   1      40.866  24.342  25.951  1.00  0.00    -0.352 N 
ATOM     36  C   UNL A   1      41.262  25.657  25.994  1.00  0.00     0.251 C 
ATOM     37  H   UNL A   1      41.189  23.839  25.169  1.00  0.00     0.163 HD
ATOM     38  O   UNL A   1      41.757  26.158  24.990  1.00  0.00    -0.269 OA
BRANCH  36  39
ATOM     39  C   UNL A   1      41.093  26.478  27.220  1.00  0.00     0.039 A 
ATOM     40  C   UNL A   1      40.160  26.069  28.180  1.00  0.00     0.014 A 
ATOM     41  C   UNL A   1      41.786  27.676  27.404  1.00  0.00     0.014 A 
ATOM     42  C   UNL A   1      39.964  26.828  29.339  1.00  0.00     0.010 A 
ATOM     43  C   UNL A   1      41.648  28.391  28.595  1.00  0.00     0.010 A 
ATOM     44  C   UNL A   1      40.728  27.983  29.571  1.00  0.00    -0.014 A 
BRANCH  44  45
ATOM     45  C   UNL A   1      40.557  28.798  30.804  1.00  0.00     0.031 A 
ATOM     46  C   UNL A   1      39.521  29.891  30.844  1.00  0.00     0.074 A 
ATOM     47  C   UNL A   1      41.367  28.601  31.863  1.00  0.00     0.049 A 
ATOM     48  N   UNL A   1      39.302  30.792  31.769  1.00  0.00    -0.248 NA
ATOM     49  C   UNL A   1      38.629  30.004  29.677  1.00  0.00     0.031 C 
ATOM     50  C   UNL A   1      42.429  27.594  31.943  1.00  0.00     0.029 A 
ATOM     51  N   UNL A   1      41.436  29.248  33.073  1.00  0.00    -0.354 N 
ATOM     52  C   UNL A   1      38.267  31.586  31.289  1.00  0.00     0.074 A 
ATOM     53  C   UNL A   1      37.931  31.092  29.972  1.00  0.00     0.031 C 
ATOM     54  C   UNL A   1      43.031  27.683  33.141  1.00  0.00     0.029 A 
ATOM     55  C   UNL A   1      42.428  28.773  33.899  1.00  0.00     0.049 A 
ATOM     56  H   UNL A   1      40.831  29.983  33.323  1.00  0.00     0.167 HD
ATOM     57  C   UNL A   1      37.637  32.620  31.897  1.00  0.00     0.037 A 
ATOM     58  C   UNL A   1      42.815  29.180  35.124  1.00  0.00     0.037 A 
ATOM     59  C   UNL A   1      37.944  33.085  33.224  1.00  0.00     0.049 A 
ATOM     60  C   UNL A   1      42.096  30.328  35.782  1.00  0.00     0.074 A 
ATOM     61  C   UNL A   1      37.340  34.104  33.942  1.00  0.00     0.029 A 
ATOM     62  N   UNL A   1      38.931  32.553  34.040  1.00  0.00    -0.354 N 
ATOM     63  N   UNL A   1      41.105  31.052  35.319  1.00  0.00    -0.248 NA
ATOM     64  C   UNL A   1      42.546  30.713  37.127  1.00  0.00     0.031 C 
ATOM     65  C   UNL A   1      37.977  34.203  35.183  1.00  0.00     0.029 A 
ATOM     66  C   UNL A   1      38.953  33.223  35.253  1.00  0.00     0.049 A 
ATOM     67  H   UNL A   1      39.528  31.810  33.795  1.00  0.00     0.167 HD
ATOM     68  C   UNL A   1      40.792  31.955  36.330  1.00  0.00     0.074 A 
ATOM     69  C   UNL A   1      41.695  31.684  37.429  1.00  0.00     0.031 C 
ATOM     70  C   UNL A   1      39.843  32.921  36.345  1.00  0.00     0.037 A 
BRANCH  57  71
ATOM     71  C   UNL A   1      36.536  33.311  31.142  1.00  0.00     0.058 A 
ATOM     72  C   UNL A   1      36.811  34.140  30.043  1.00  0.00     0.135 A 
ATOM     73  C   UNL A   1      35.190  33.108  31.489  1.00  0.00     0.135 A 
ATOM     74  F   UNL A   1      38.080  34.381  29.679  1.00  0.00    -0.206 F 
ATOM     75  C   UNL A   1      35.792  34.761  29.328  1.00  0.00     0.059 A 
ATOM     76  C   UNL A   1      34.154  33.699  30.772  1.00  0.00     0.059 A 
ATOM     77  F   UNL A   1      34.872  32.324  32.532  1.00  0.00    -0.206 F 
ATOM     78  C   UNL A   1      34.467  34.535  29.700  1.00  0.00     0.060 A 
BRANCH  78  79
ATOM     79  S   UNL A   1      33.155  35.337  28.753  1.00  0.00     0.124 S 
ATOM     80  O   UNL A   1      32.579  34.203  28.037  1.00  0.00    -0.237 OA
ATOM     81  O   UNL A   1      32.320  35.914  29.802  1.00  0.00    -0.237 OA
ATOM     82  O   UNL A   1      33.875  36.302  27.927  1.00  0.00    -0.744 OA
ENDBRANCH  78  79
ENDBRANCH  57  71
BRANCH  58  83
ATOM     83  C   UNL A   1      43.931  28.491  35.824  1.00  0.00     0.058 A 
ATOM     84  C   UNL A   1      43.680  27.433  36.711  1.00  0.00     0.135 A 
ATOM     85  C   UNL A   1      45.265  28.882  35.634  1.00  0.00     0.135 A 
ATOM     86  F   UNL A   1      42.420  27.027  36.929  1.00  0.00    -0.206 F 
ATOM     87  C   UNL A   1      44.707  26.803  37.405  1.00  0.00     0.059 A 
ATOM     88  C   UNL A   1      46.313  28.253  36.299  1.00  0.00     0.059 A 
ATOM     89  F   UNL A   1      45.560  29.877  34.783  1.00  0.00    -0.206 F 
ATOM     90  C   UNL A   1      46.022  27.224  37.195  1.00  0.00     0.060 A 
BRANCH  90  91
ATOM     91  S   UNL A   1      47.355  26.386  38.081  1.00  0.00     0.124 S 
ATOM     92  O   UNL A   1      47.564  27.285  39.211  1.00  0.00    -0.237 OA
ATOM     93  O   UNL A   1      46.754  25.094  38.395  1.00  0.00    -0.237 OA
ATOM     94  O   UNL A   1      48.433  26.345  37.097  1.00  0.00    -0.744 OA
ENDBRANCH  90  91
ENDBRANCH  58  83
BRANCH  70  95
ATOM     95  C   UNL A   1      39.692  33.726  37.605  1.00  0.00     0.058 A 
ATOM     96  C   UNL A   1      40.274  34.995  37.742  1.00  0.00     0.135 A 
ATOM     97  C   UNL A   1      38.904  33.245  38.662  1.00  0.00     0.135 A 
ATOM     98  F   UNL A   1      41.041  35.496  36.762  1.00  0.00    -0.206 F 
ATOM     99  C   UNL A   1      40.090  35.755  38.892  1.00  0.00     0.059 A 
ATOM    100  C   UNL A   1      38.690  33.996  39.812  1.00  0.00     0.059 A 
ATOM    101  F   UNL A   1      38.319  32.039  38.575  1.00  0.00    -0.206 F 
ATOM    102  C   UNL A   1      39.295  35.247  39.922  1.00  0.00     0.060 A 
BRANCH 102 103
ATOM    103  S   UNL A   1      39.025  36.262  41.391  1.00  0.00     0.124 S 
ATOM    104  O   UNL A   1      37.781  35.703  41.910  1.00  0.00    -0.237 OA
ATOM    105  O   UNL A   1      40.221  35.991  42.184  1.00  0.00    -0.237 OA
ATOM    106  O   UNL A   1      38.931  37.616  40.855  1.00  0.00    -0.744 OA
ENDBRANCH 102 103
ENDBRANCH  70  95
ENDBRANCH  44  45
ENDBRANCH  36  39
ENDBRANCH  34  35
ENDBRANCH  33  34
ENDBRANCH  32  33
ENDBRANCH   3  32
TORSDOF 19
ENDMDL
