MODEL 1
REMARK VINA RESULT:     -13.2      0.000      0.000
REMARK SMILES O=C(C/C(=C/c1ccc(N2CCOCC2)c(F)c1)c1nc2ccccc2s1)NCCCNC(=O)c1ccc(-c2c3nc(c(-c4c(F)cc(S(=O)(=O)[O-])cc4F)c4ccc([nH]4)c(-c4c(F)cc(S(=O)(=O)[O-])cc4F)c4nc(c(-c5c(F)cc(S(=O)(=O)[O-])cc5F)c5ccc2[nH]5)C=C4)C=C3)cc1
REMARK SMILES IDX 30 1 29 2 28 3 1 4 2 5 3 7 4 8 5 9 19 10 20 11 27 12 21 13
REMARK SMILES IDX 26 14 22 15 25 16 23 17 24 18 6 19 7 20 18 21 8 22 16 23
REMARK SMILES IDX 9 24 17 25 10 26 11 27 15 28 12 29 14 30 13 31 31 32 32 33
REMARK SMILES IDX 33 34 34 36 35 37 36 38 100 39 37 40 99 41 38 42 39 43 40 44
REMARK SMILES IDX 93 45 41 46 98 47 92 48 94 49 42 50 97 51 91 52 90 53 43 55
REMARK SMILES IDX 77 56 56 57 76 58 57 59 60 60 75 61 95 62 58 63 59 64 74 66
REMARK SMILES IDX 96 67 61 68 44 69 45 70 54 71 46 72 47 73 53 74 55 75 48 76
REMARK SMILES IDX 49 77 50 78 51 79 52 80 78 81 79 82 88 83 80 84 81 85 87 86
REMARK SMILES IDX 89 87 82 88 83 89 84 90 85 91 86 92 62 93 63 94 72 95 64 96
REMARK SMILES IDX 65 97 71 98 73 99 66 100 67 101 68 102 69 103 70 104
REMARK H PARENT 28 6 32 35 94 54 60 65
REMARK Flexibility Score: inf
ROOT
ATOM      1  C   UNL A   1      36.092  23.098  23.868  1.00  0.00     0.042 C 
ENDROOT
BRANCH   1   2
ATOM      2  C   UNL A   1      35.063  22.156  24.471  1.00  0.00     0.117 C 
BRANCH   2   3
ATOM      3  N   UNL A   1      33.955  22.857  25.090  1.00  0.00    -0.356 N 
ATOM      4  O   UNL A   1      32.543  22.701  23.287  1.00  0.00    -0.275 OA
ATOM      5  C   UNL A   1      32.739  23.008  24.460  1.00  0.00     0.224 C 
ATOM      6  H   UNL A   1      34.076  23.238  25.990  1.00  0.00     0.163 HD
BRANCH   5   7
ATOM      7  C   UNL A   1      31.639  23.611  25.322  1.00  0.00     0.138 C 
BRANCH   7   8
ATOM      8  C   UNL A   1      31.283  25.043  24.939  1.00  0.00    -0.002 C 
ATOM      9  C   UNL A   1      30.303  25.220  24.019  1.00  0.00     0.015 C 
BRANCH   8  10
ATOM     10  C   UNL A   1      31.885  26.206  25.552  1.00  0.00     0.121 A 
ATOM     11  N   UNL A   1      31.243  27.191  26.152  1.00  0.00    -0.236 NA
ATOM     12  S   UNL A   1      33.599  26.440  25.480  1.00  0.00    -0.114 S 
ATOM     13  C   UNL A   1      32.106  28.220  26.486  1.00  0.00     0.082 A 
ATOM     14  C   UNL A   1      33.448  27.988  26.197  1.00  0.00     0.055 A 
ATOM     15  C   UNL A   1      31.744  29.452  27.067  1.00  0.00     0.030 A 
ATOM     16  C   UNL A   1      34.448  28.934  26.476  1.00  0.00     0.021 A 
ATOM     17  C   UNL A   1      32.729  30.408  27.339  1.00  0.00     0.002 A 
ATOM     18  C   UNL A   1      34.065  30.149  27.049  1.00  0.00     0.002 A 
ENDBRANCH   8  10
BRANCH   9  19
ATOM     19  C   UNL A   1      29.747  26.498  23.547  1.00  0.00    -0.022 A 
ATOM     20  C   UNL A   1      30.522  27.444  22.869  1.00  0.00     0.010 A 
ATOM     21  C   UNL A   1      28.409  26.783  23.810  1.00  0.00     0.049 A 
ATOM     22  C   UNL A   1      29.976  28.687  22.518  1.00  0.00     0.029 A 
ATOM     23  C   UNL A   1      27.883  28.027  23.466  1.00  0.00     0.147 A 
ATOM     24  C   UNL A   1      28.652  29.022  22.834  1.00  0.00     0.073 A 
ATOM     25  F   UNL A   1      26.587  28.252  23.739  1.00  0.00    -0.205 F 
BRANCH  24  26
ATOM     26  N   UNL A   1      28.152  30.275  22.554  1.00  0.00    -0.365 N 
ATOM     27  C   UNL A   1      27.842  30.692  21.183  1.00  0.00     0.145 C 
ATOM     28  C   UNL A   1      27.938  31.295  23.582  1.00  0.00     0.145 C 
ATOM     29  C   UNL A   1      28.563  32.009  20.868  1.00  0.00     0.181 C 
ATOM     30  C   UNL A   1      28.643  32.598  23.154  1.00  0.00     0.181 C 
ATOM     31  O   UNL A   1      28.240  33.023  21.839  1.00  0.00    -0.378 OA
ENDBRANCH  24  26
ENDBRANCH   9  19
ENDBRANCH   7   8
ENDBRANCH   5   7
ENDBRANCH   2   3
ENDBRANCH   1   2
BRANCH   1  32
ATOM     32  C   UNL A   1      37.102  23.649  24.869  1.00  0.00     0.118 C 
BRANCH  32  33
ATOM     33  N   UNL A   1      38.155  22.702  25.214  1.00  0.00    -0.352 N 
ATOM     34  C   UNL A   1      39.266  22.884  26.004  1.00  0.00     0.251 C 
ATOM     35  H   UNL A   1      38.056  21.803  24.825  1.00  0.00     0.163 HD
ATOM     36  O   UNL A   1      40.108  21.993  26.087  1.00  0.00    -0.269 OA
BRANCH  34  37
ATOM     37  C   UNL A   1      39.460  24.161  26.724  1.00  0.00     0.039 A 
ATOM     38  C   UNL A   1      38.912  24.308  28.001  1.00  0.00     0.014 A 
ATOM     39  C   UNL A   1      40.200  25.199  26.152  1.00  0.00     0.014 A 
ATOM     40  C   UNL A   1      39.179  25.464  28.741  1.00  0.00     0.010 A 
ATOM     41  C   UNL A   1      40.518  26.320  26.914  1.00  0.00     0.010 A 
ATOM     42  C   UNL A   1      40.021  26.458  28.220  1.00  0.00    -0.014 A 
BRANCH  42  43
ATOM     43  C   UNL A   1      40.420  27.647  29.017  1.00  0.00     0.031 A 
ATOM     44  C   UNL A   1      41.708  27.630  29.792  1.00  0.00     0.074 A 
ATOM     45  C   UNL A   1      39.583  28.698  29.120  1.00  0.00     0.049 A 
ATOM     46  N   UNL A   1      42.147  28.483  30.681  1.00  0.00    -0.248 NA
ATOM     47  C   UNL A   1      42.607  26.489  29.556  1.00  0.00     0.031 C 
ATOM     48  C   UNL A   1      38.296  28.828  28.432  1.00  0.00     0.029 A 
ATOM     49  N   UNL A   1      39.679  29.852  29.860  1.00  0.00    -0.354 N 
ATOM     50  C   UNL A   1      43.360  27.973  31.127  1.00  0.00     0.074 A 
ATOM     51  C   UNL A   1      43.571  26.719  30.437  1.00  0.00     0.031 C 
ATOM     52  C   UNL A   1      37.731  29.998  28.770  1.00  0.00     0.029 A 
ATOM     53  C   UNL A   1      38.588  30.680  29.736  1.00  0.00     0.049 A 
ATOM     54  H   UNL A   1      40.456  30.064  30.426  1.00  0.00     0.167 HD
ATOM     55  C   UNL A   1      44.225  28.511  32.017  1.00  0.00     0.037 A 
ATOM     56  C   UNL A   1      38.298  31.847  30.347  1.00  0.00     0.037 A 
ATOM     57  C   UNL A   1      44.027  29.777  32.673  1.00  0.00     0.049 A 
ATOM     58  C   UNL A   1      39.267  32.417  31.347  1.00  0.00     0.074 A 
ATOM     59  C   UNL A   1      44.869  30.424  33.560  1.00  0.00     0.029 A 
ATOM     60  N   UNL A   1      42.916  30.590  32.509  1.00  0.00    -0.354 N 
ATOM     61  N   UNL A   1      40.416  31.929  31.745  1.00  0.00    -0.248 NA
ATOM     62  C   UNL A   1      38.899  33.688  31.986  1.00  0.00     0.031 C 
ATOM     63  C   UNL A   1      44.253  31.615  33.956  1.00  0.00     0.029 A 
ATOM     64  C   UNL A   1      43.046  31.728  33.286  1.00  0.00     0.049 A 
ATOM     65  H   UNL A   1      42.150  30.388  31.924  1.00  0.00     0.167 HD
ATOM     66  C   UNL A   1      40.920  32.844  32.663  1.00  0.00     0.074 A 
ATOM     67  C   UNL A   1      39.952  33.916  32.760  1.00  0.00     0.031 C 
ATOM     68  C   UNL A   1      42.081  32.797  33.360  1.00  0.00     0.037 A 
BRANCH  55  69
ATOM     69  C   UNL A   1      45.476  27.741  32.331  1.00  0.00     0.058 A 
ATOM     70  C   UNL A   1      46.668  27.997  31.634  1.00  0.00     0.135 A 
ATOM     71  C   UNL A   1      45.482  26.709  33.284  1.00  0.00     0.135 A 
ATOM     72  F   UNL A   1      46.718  28.977  30.717  1.00  0.00    -0.206 F 
ATOM     73  C   UNL A   1      47.818  27.251  31.864  1.00  0.00     0.059 A 
ATOM     74  C   UNL A   1      46.628  25.966  33.547  1.00  0.00     0.059 A 
ATOM     75  F   UNL A   1      44.374  26.440  33.993  1.00  0.00    -0.206 F 
ATOM     76  C   UNL A   1      47.789  26.236  32.821  1.00  0.00     0.060 A 
BRANCH  76  77
ATOM     77  S   UNL A   1      49.302  25.304  33.141  1.00  0.00     0.124 S 
ATOM     78  O   UNL A   1      50.122  26.292  33.832  1.00  0.00    -0.237 OA
ATOM     79  O   UNL A   1      48.813  24.198  33.960  1.00  0.00    -0.237 OA
ATOM     80  O   UNL A   1      49.755  24.928  31.806  1.00  0.00    -0.744 OA
ENDBRANCH  76  77
ENDBRANCH  55  69
BRANCH  56  81
ATOM     81  C   UNL A   1      37.039  32.559  30.009  1.00  0.00     0.058 A 
ATOM     82  C   UNL A   1      37.001  33.560  29.027  1.00  0.00     0.135 A 
ATOM     83  C   UNL A   1      35.851  32.276  30.700  1.00  0.00     0.135 A 
ATOM     84  F   UNL A   1      38.113  33.874  28.344  1.00  0.00    -0.206 F 
ATOM     85  C   UNL A   1      35.840  34.275  28.760  1.00  0.00     0.059 A 
ATOM     86  C   UNL A   1      34.669  32.963  30.436  1.00  0.00     0.059 A 
ATOM     87  F   UNL A   1      35.834  31.317  31.638  1.00  0.00    -0.206 F 
ATOM     88  C   UNL A   1      34.679  33.974  29.476  1.00  0.00     0.060 A 
BRANCH  88  89
ATOM     89  S   UNL A   1      33.185  34.929  29.132  1.00  0.00     0.124 S 
ATOM     90  O   UNL A   1      32.551  34.115  28.099  1.00  0.00    -0.237 OA
ATOM     91  O   UNL A   1      32.522  34.939  30.431  1.00  0.00    -0.237 OA
ATOM     92  O   UNL A   1      33.705  36.218  28.685  1.00  0.00    -0.744 OA
ENDBRANCH  88  89
ENDBRANCH  56  81
BRANCH  68  93
ATOM     93  C   UNL A   1      42.404  33.944  34.274  1.00  0.00     0.058 A 
ATOM     94  C   UNL A   1      43.025  35.097  33.770  1.00  0.00     0.135 A 
ATOM     95  C   UNL A   1      42.215  33.850  35.660  1.00  0.00     0.135 A 
ATOM     96  F   UNL A   1      43.230  35.234  32.450  1.00  0.00    -0.206 F 
ATOM     97  C   UNL A   1      43.483  36.102  34.613  1.00  0.00     0.059 A 
ATOM     98  C   UNL A   1      42.647  34.854  36.522  1.00  0.00     0.059 A 
ATOM     99  F   UNL A   1      41.613  32.772  36.188  1.00  0.00    -0.206 F 
ATOM    100  C   UNL A   1      43.301  35.964  35.990  1.00  0.00     0.060 A 
BRANCH 100 101
ATOM    101  S   UNL A   1      43.939  37.260  37.074  1.00  0.00     0.124 S 
ATOM    102  O   UNL A   1      45.052  36.581  37.730  1.00  0.00    -0.237 OA
ATOM    103  O   UNL A   1      44.304  38.306  36.125  1.00  0.00    -0.237 OA
ATOM    104  O   UNL A   1      42.801  37.574  37.933  1.00  0.00    -0.744 OA
ENDBRANCH 100 101
ENDBRANCH  68  93
ENDBRANCH  42  43
ENDBRANCH  34  37
ENDBRANCH  32  33
ENDBRANCH   1  32
TORSDOF 17
ENDMDL
MODEL 2
REMARK VINA RESULT:     -12.7      3.573      9.997
REMARK SMILES O=C(C/C(=C/c1ccc(N2CCOCC2)c(F)c1)c1nc2ccccc2s1)NCCCNC(=O)c1ccc(-c2c3nc(c(-c4c(F)cc(S(=O)(=O)[O-])cc4F)c4ccc([nH]4)c(-c4c(F)cc(S(=O)(=O)[O-])cc4F)c4nc(c(-c5c(F)cc(S(=O)(=O)[O-])cc5F)c5ccc2[nH]5)C=C4)C=C3)cc1
REMARK SMILES IDX 30 1 29 2 28 3 1 4 2 5 3 7 4 8 5 9 19 10 20 11 27 12 21 13
REMARK SMILES IDX 26 14 22 15 25 16 23 17 24 18 6 19 7 20 18 21 8 22 16 23
REMARK SMILES IDX 9 24 17 25 10 26 11 27 15 28 12 29 14 30 13 31 31 32 32 33
REMARK SMILES IDX 33 34 34 36 35 37 36 38 100 39 37 40 99 41 38 42 39 43 40 44
REMARK SMILES IDX 93 45 41 46 98 47 92 48 94 49 42 50 97 51 91 52 90 53 43 55
REMARK SMILES IDX 77 56 56 57 76 58 57 59 60 60 75 61 95 62 58 63 59 64 74 66
REMARK SMILES IDX 96 67 61 68 44 69 45 70 54 71 46 72 47 73 53 74 55 75 48 76
REMARK SMILES IDX 49 77 50 78 51 79 52 80 78 81 79 82 88 83 80 84 81 85 87 86
REMARK SMILES IDX 89 87 82 88 83 89 84 90 85 91 86 92 62 93 63 94 72 95 64 96
REMARK SMILES IDX 65 97 71 98 73 99 66 100 67 101 68 102 69 103 70 104
REMARK H PARENT 28 6 32 35 94 54 60 65
REMARK Flexibility Score: inf
ROOT
ATOM      1  C   UNL A   1      32.163  28.107  26.400  1.00  0.00     0.042 C 
ENDROOT
BRANCH   1   2
ATOM      2  C   UNL A   1      32.298  28.347  24.905  1.00  0.00     0.117 C 
BRANCH   2   3
ATOM      3  N   UNL A   1      31.821  27.231  24.112  1.00  0.00    -0.356 N 
ATOM      4  O   UNL A   1      33.523  27.294  22.572  1.00  0.00    -0.275 OA
ATOM      5  C   UNL A   1      32.528  26.742  23.034  1.00  0.00     0.224 C 
ATOM      6  H   UNL A   1      30.964  26.808  24.351  1.00  0.00     0.163 HD
BRANCH   5   7
ATOM      7  C   UNL A   1      31.972  25.460  22.430  1.00  0.00     0.138 C 
BRANCH   7   8
ATOM      8  C   UNL A   1      32.488  24.196  23.110  1.00  0.00    -0.002 C 
ATOM      9  C   UNL A   1      31.682  23.105  23.098  1.00  0.00     0.015 C 
BRANCH   8  10
ATOM     10  C   UNL A   1      33.804  24.086  23.699  1.00  0.00     0.121 A 
ATOM     11  N   UNL A   1      34.829  23.424  23.196  1.00  0.00    -0.236 NA
ATOM     12  S   UNL A   1      34.133  24.807  25.239  1.00  0.00    -0.114 S 
ATOM     13  C   UNL A   1      35.888  23.392  24.088  1.00  0.00     0.082 A 
ATOM     14  C   UNL A   1      35.692  24.101  25.269  1.00  0.00     0.055 A 
ATOM     15  C   UNL A   1      37.106  22.707  23.905  1.00  0.00     0.030 A 
ATOM     16  C   UNL A   1      36.671  24.166  26.274  1.00  0.00     0.021 A 
ATOM     17  C   UNL A   1      38.085  22.753  24.903  1.00  0.00     0.002 A 
ATOM     18  C   UNL A   1      37.870  23.476  26.072  1.00  0.00     0.002 A 
ENDBRANCH   8  10
BRANCH   9  19
ATOM     19  C   UNL A   1      31.990  21.767  23.624  1.00  0.00    -0.022 A 
ATOM     20  C   UNL A   1      32.223  21.535  24.983  1.00  0.00     0.010 A 
ATOM     21  C   UNL A   1      32.079  20.700  22.732  1.00  0.00     0.049 A 
ATOM     22  C   UNL A   1      32.604  20.261  25.431  1.00  0.00     0.029 A 
ATOM     23  C   UNL A   1      32.469  19.443  23.189  1.00  0.00     0.147 A 
ATOM     24  C   UNL A   1      32.766  19.190  24.541  1.00  0.00     0.073 A 
ATOM     25  F   UNL A   1      32.537  18.447  22.289  1.00  0.00    -0.205 F 
BRANCH  24  26
ATOM     26  N   UNL A   1      33.217  17.965  24.982  1.00  0.00    -0.365 N 
ATOM     27  C   UNL A   1      34.506  17.417  24.549  1.00  0.00     0.145 C 
ATOM     28  C   UNL A   1      32.434  17.100  25.866  1.00  0.00     0.145 C 
ATOM     29  C   UNL A   1      34.303  16.011  23.972  1.00  0.00     0.181 C 
ATOM     30  C   UNL A   1      32.334  15.695  25.238  1.00  0.00     0.181 C 
ATOM     31  O   UNL A   1      33.629  15.154  24.915  1.00  0.00    -0.378 OA
ENDBRANCH  24  26
ENDBRANCH   9  19
ENDBRANCH   7   8
ENDBRANCH   5   7
ENDBRANCH   2   3
ENDBRANCH   1   2
BRANCH   1  32
ATOM     32  C   UNL A   1      33.379  28.530  27.217  1.00  0.00     0.118 C 
BRANCH  32  33
ATOM     33  N   UNL A   1      33.359  29.936  27.603  1.00  0.00    -0.352 N 
ATOM     34  C   UNL A   1      34.355  30.699  28.165  1.00  0.00     0.251 C 
ATOM     35  H   UNL A   1      32.510  30.406  27.437  1.00  0.00     0.163 HD
ATOM     36  O   UNL A   1      34.113  31.847  28.529  1.00  0.00    -0.269 OA
BRANCH  34  37
ATOM     37  C   UNL A   1      35.705  30.126  28.361  1.00  0.00     0.039 A 
ATOM     38  C   UNL A   1      36.599  30.117  27.287  1.00  0.00     0.014 A 
ATOM     39  C   UNL A   1      36.094  29.620  29.604  1.00  0.00     0.014 A 
ATOM     40  C   UNL A   1      37.913  29.682  27.483  1.00  0.00     0.010 A 
ATOM     41  C   UNL A   1      37.419  29.249  29.813  1.00  0.00     0.010 A 
ATOM     42  C   UNL A   1      38.346  29.288  28.759  1.00  0.00    -0.014 A 
BRANCH  42  43
ATOM     43  C   UNL A   1      39.760  28.927  29.033  1.00  0.00     0.031 A 
ATOM     44  C   UNL A   1      40.705  29.962  29.575  1.00  0.00     0.074 A 
ATOM     45  C   UNL A   1      40.216  27.702  28.705  1.00  0.00     0.049 A 
ATOM     46  N   UNL A   1      42.004  29.903  29.713  1.00  0.00    -0.248 NA
ATOM     47  C   UNL A   1      40.112  31.243  29.994  1.00  0.00     0.031 C 
ATOM     48  C   UNL A   1      39.405  26.615  28.153  1.00  0.00     0.029 A 
ATOM     49  N   UNL A   1      41.481  27.170  28.768  1.00  0.00    -0.354 N 
ATOM     50  C   UNL A   1      42.388  31.142  30.211  1.00  0.00     0.074 A 
ATOM     51  C   UNL A   1      41.189  31.945  30.318  1.00  0.00     0.031 C 
ATOM     52  C   UNL A   1      40.187  25.543  27.943  1.00  0.00     0.029 A 
ATOM     53  C   UNL A   1      41.563  25.880  28.296  1.00  0.00     0.049 A 
ATOM     54  H   UNL A   1      42.256  27.665  29.118  1.00  0.00     0.167 HD
ATOM     55  C   UNL A   1      43.625  31.563  30.562  1.00  0.00     0.037 A 
ATOM     56  C   UNL A   1      42.628  25.067  28.142  1.00  0.00     0.037 A 
ATOM     57  C   UNL A   1      44.808  30.747  30.487  1.00  0.00     0.049 A 
ATOM     58  C   UNL A   1      43.996  25.564  28.522  1.00  0.00     0.074 A 
ATOM     59  C   UNL A   1      46.100  31.074  30.860  1.00  0.00     0.029 A 
ATOM     60  N   UNL A   1      44.844  29.443  30.017  1.00  0.00    -0.354 N 
ATOM     61  N   UNL A   1      44.339  26.733  29.005  1.00  0.00    -0.248 NA
ATOM     62  C   UNL A   1      45.121  24.639  28.330  1.00  0.00     0.031 C 
ATOM     63  C   UNL A   1      46.923  29.978  30.586  1.00  0.00     0.029 A 
ATOM     64  C   UNL A   1      46.138  28.956  30.080  1.00  0.00     0.049 A 
ATOM     65  H   UNL A   1      44.065  28.940  29.688  1.00  0.00     0.167 HD
ATOM     66  C   UNL A   1      45.715  26.676  29.197  1.00  0.00     0.074 A 
ATOM     67  C   UNL A   1      46.142  25.357  28.780  1.00  0.00     0.031 C 
ATOM     68  C   UNL A   1      46.546  27.632  29.677  1.00  0.00     0.037 A 
BRANCH  55  69
ATOM     69  C   UNL A   1      43.768  32.969  31.071  1.00  0.00     0.058 A 
ATOM     70  C   UNL A   1      44.065  34.023  30.192  1.00  0.00     0.135 A 
ATOM     71  C   UNL A   1      43.664  33.267  32.440  1.00  0.00     0.135 A 
ATOM     72  F   UNL A   1      44.168  33.793  28.872  1.00  0.00    -0.206 F 
ATOM     73  C   UNL A   1      44.265  35.319  30.652  1.00  0.00     0.059 A 
ATOM     74  C   UNL A   1      43.837  34.561  32.920  1.00  0.00     0.059 A 
ATOM     75  F   UNL A   1      43.360  32.300  33.319  1.00  0.00    -0.206 F 
ATOM     76  C   UNL A   1      44.151  35.579  32.018  1.00  0.00     0.060 A 
BRANCH  76  77
ATOM     77  S   UNL A   1      44.370  37.275  32.598  1.00  0.00     0.124 S 
ATOM     78  O   UNL A   1      45.773  37.277  32.995  1.00  0.00    -0.237 OA
ATOM     79  O   UNL A   1      44.044  38.051  31.405  1.00  0.00    -0.237 OA
ATOM     80  O   UNL A   1      43.405  37.386  33.688  1.00  0.00    -0.744 OA
ENDBRANCH  76  77
ENDBRANCH  55  69
BRANCH  56  81
ATOM     81  C   UNL A   1      42.431  23.691  27.620  1.00  0.00     0.058 A 
ATOM     82  C   UNL A   1      42.342  22.585  28.478  1.00  0.00     0.135 A 
ATOM     83  C   UNL A   1      42.369  23.453  26.238  1.00  0.00     0.135 A 
ATOM     84  F   UNL A   1      42.404  22.759  29.808  1.00  0.00    -0.206 F 
ATOM     85  C   UNL A   1      42.229  21.289  27.988  1.00  0.00     0.059 A 
ATOM     86  C   UNL A   1      42.235  22.167  25.722  1.00  0.00     0.059 A 
ATOM     87  F   UNL A   1      42.436  24.481  25.378  1.00  0.00    -0.206 F 
ATOM     88  C   UNL A   1      42.183  21.089  26.606  1.00  0.00     0.060 A 
BRANCH  88  89
ATOM     89  S   UNL A   1      42.059  19.398  25.986  1.00  0.00     0.124 S 
ATOM     90  O   UNL A   1      42.915  19.459  24.804  1.00  0.00    -0.237 OA
ATOM     91  O   UNL A   1      42.576  18.621  27.107  1.00  0.00    -0.237 OA
ATOM     92  O   UNL A   1      40.632  19.240  25.720  1.00  0.00    -0.744 OA
ENDBRANCH  88  89
ENDBRANCH  56  81
BRANCH  68  93
ATOM     93  C   UNL A   1      48.004  27.298  29.814  1.00  0.00     0.058 A 
ATOM     94  C   UNL A   1      48.514  26.848  31.042  1.00  0.00     0.135 A 
ATOM     95  C   UNL A   1      48.911  27.543  28.774  1.00  0.00     0.135 A 
ATOM     96  F   UNL A   1      47.685  26.600  32.069  1.00  0.00    -0.206 F 
ATOM     97  C   UNL A   1      49.879  26.688  31.246  1.00  0.00     0.059 A 
ATOM     98  C   UNL A   1      50.281  27.370  28.949  1.00  0.00     0.059 A 
ATOM     99  F   UNL A   1      48.470  27.963  27.577  1.00  0.00    -0.206 F 
ATOM    100  C   UNL A   1      50.756  26.965  30.196  1.00  0.00     0.060 A 
BRANCH 100 101
ATOM    101  S   UNL A   1      52.529  26.792  30.491  1.00  0.00     0.124 S 
ATOM    102  O   UNL A   1      52.589  25.535  31.228  1.00  0.00    -0.237 OA
ATOM    103  O   UNL A   1      53.067  26.759  29.134  1.00  0.00    -0.237 OA
ATOM    104  O   UNL A   1      52.863  27.989  31.259  1.00  0.00    -0.744 OA
ENDBRANCH 100 101
ENDBRANCH  68  93
ENDBRANCH  42  43
ENDBRANCH  34  37
ENDBRANCH  32  33
ENDBRANCH   1  32
TORSDOF 17
ENDMDL
MODEL 3
REMARK VINA RESULT:     -12.0      2.593      3.252
REMARK SMILES O=C(C/C(=C/c1ccc(N2CCOCC2)c(F)c1)c1nc2ccccc2s1)NCCCNC(=O)c1ccc(-c2c3nc(c(-c4c(F)cc(S(=O)(=O)[O-])cc4F)c4ccc([nH]4)c(-c4c(F)cc(S(=O)(=O)[O-])cc4F)c4nc(c(-c5c(F)cc(S(=O)(=O)[O-])cc5F)c5ccc2[nH]5)C=C4)C=C3)cc1
REMARK SMILES IDX 30 1 29 2 28 3 1 4 2 5 3 7 4 8 5 9 19 10 20 11 27 12 21 13
REMARK SMILES IDX 26 14 22 15 25 16 23 17 24 18 6 19 7 20 18 21 8 22 16 23
REMARK SMILES IDX 9 24 17 25 10 26 11 27 15 28 12 29 14 30 13 31 31 32 32 33
REMARK SMILES IDX 33 34 34 36 35 37 36 38 100 39 37 40 99 41 38 42 39 43 40 44
REMARK SMILES IDX 93 45 41 46 98 47 92 48 94 49 42 50 97 51 91 52 90 53 43 55
REMARK SMILES IDX 77 56 56 57 76 58 57 59 60 60 75 61 95 62 58 63 59 64 74 66
REMARK SMILES IDX 96 67 61 68 44 69 45 70 54 71 46 72 47 73 53 74 55 75 48 76
REMARK SMILES IDX 49 77 50 78 51 79 52 80 78 81 79 82 88 83 80 84 81 85 87 86
REMARK SMILES IDX 89 87 82 88 83 89 84 90 85 91 86 92 62 93 63 94 72 95 64 96
REMARK SMILES IDX 65 97 71 98 73 99 66 100 67 101 68 102 69 103 70 104
REMARK H PARENT 28 6 32 35 94 54 60 65
REMARK Flexibility Score: inf
ROOT
ATOM      1  C   UNL A   1      36.135  23.737  26.008  1.00  0.00     0.042 C 
ENDROOT
BRANCH   1   2
ATOM      2  C   UNL A   1      35.108  22.623  26.136  1.00  0.00     0.117 C 
BRANCH   2   3
ATOM      3  N   UNL A   1      33.746  23.118  26.176  1.00  0.00    -0.356 N 
ATOM      4  O   UNL A   1      33.384  22.993  23.912  1.00  0.00    -0.275 OA
ATOM      5  C   UNL A   1      32.959  23.192  25.047  1.00  0.00     0.224 C 
ATOM      6  H   UNL A   1      33.371  23.412  27.039  1.00  0.00     0.163 HD
BRANCH   5   7
ATOM      7  C   UNL A   1      31.504  23.564  25.301  1.00  0.00     0.138 C 
BRANCH   7   8
ATOM      8  C   UNL A   1      31.168  24.999  24.909  1.00  0.00    -0.002 C 
ATOM      9  C   UNL A   1      30.176  25.184  24.003  1.00  0.00     0.015 C 
BRANCH   8  10
ATOM     10  C   UNL A   1      31.800  26.157  25.500  1.00  0.00     0.121 A 
ATOM     11  N   UNL A   1      31.213  27.061  26.263  1.00  0.00    -0.236 NA
ATOM     12  S   UNL A   1      33.466  26.501  25.175  1.00  0.00    -0.114 S 
ATOM     13  C   UNL A   1      32.065  28.119  26.528  1.00  0.00     0.082 A 
ATOM     14  C   UNL A   1      33.352  27.990  26.015  1.00  0.00     0.055 A 
ATOM     15  C   UNL A   1      31.739  29.288  27.245  1.00  0.00     0.030 A 
ATOM     16  C   UNL A   1      34.334  28.977  26.199  1.00  0.00     0.021 A 
ATOM     17  C   UNL A   1      32.703  30.285  27.425  1.00  0.00     0.002 A 
ATOM     18  C   UNL A   1      33.986  30.128  26.910  1.00  0.00     0.002 A 
ENDBRANCH   8  10
BRANCH   9  19
ATOM     19  C   UNL A   1      29.635  26.466  23.528  1.00  0.00    -0.022 A 
ATOM     20  C   UNL A   1      30.420  27.401  22.846  1.00  0.00     0.010 A 
ATOM     21  C   UNL A   1      28.300  26.768  23.791  1.00  0.00     0.049 A 
ATOM     22  C   UNL A   1      29.888  28.649  22.491  1.00  0.00     0.029 A 
ATOM     23  C   UNL A   1      27.789  28.017  23.443  1.00  0.00     0.147 A 
ATOM     24  C   UNL A   1      28.569  29.001  22.807  1.00  0.00     0.073 A 
ATOM     25  F   UNL A   1      26.495  28.258  23.716  1.00  0.00    -0.205 F 
BRANCH  24  26
ATOM     26  N   UNL A   1      28.083  30.259  22.523  1.00  0.00    -0.365 N 
ATOM     27  C   UNL A   1      27.836  30.697  21.145  1.00  0.00     0.145 C 
ATOM     28  C   UNL A   1      27.824  31.265  23.555  1.00  0.00     0.145 C 
ATOM     29  C   UNL A   1      28.572  32.016  20.883  1.00  0.00     0.181 C 
ATOM     30  C   UNL A   1      28.549  32.572  23.178  1.00  0.00     0.181 C 
ATOM     31  O   UNL A   1      28.206  33.017  21.853  1.00  0.00    -0.378 OA
ENDBRANCH  24  26
ENDBRANCH   9  19
ENDBRANCH   7   8
ENDBRANCH   5   7
ENDBRANCH   2   3
ENDBRANCH   1   2
BRANCH   1  32
ATOM     32  C   UNL A   1      37.324  23.395  25.116  1.00  0.00     0.118 C 
BRANCH  32  33
ATOM     33  N   UNL A   1      38.240  22.432  25.714  1.00  0.00    -0.352 N 
ATOM     34  C   UNL A   1      39.360  22.656  26.480  1.00  0.00     0.251 C 
ATOM     35  H   UNL A   1      38.027  21.486  25.545  1.00  0.00     0.163 HD
ATOM     36  O   UNL A   1      40.077  21.711  26.803  1.00  0.00    -0.269 OA
BRANCH  34  37
ATOM     37  C   UNL A   1      39.717  24.032  26.885  1.00  0.00     0.039 A 
ATOM     38  C   UNL A   1      39.673  24.372  28.241  1.00  0.00     0.014 A 
ATOM     39  C   UNL A   1      40.116  24.978  25.937  1.00  0.00     0.014 A 
ATOM     40  C   UNL A   1      40.112  25.633  28.653  1.00  0.00     0.010 A 
ATOM     41  C   UNL A   1      40.613  26.208  26.356  1.00  0.00     0.010 A 
ATOM     42  C   UNL A   1      40.629  26.544  27.719  1.00  0.00    -0.014 A 
BRANCH  42  43
ATOM     43  C   UNL A   1      41.209  27.848  28.130  1.00  0.00     0.031 A 
ATOM     44  C   UNL A   1      42.696  28.059  28.066  1.00  0.00     0.074 A 
ATOM     45  C   UNL A   1      40.413  28.804  28.648  1.00  0.00     0.049 A 
ATOM     46  N   UNL A   1      43.411  29.046  28.540  1.00  0.00    -0.248 NA
ATOM     47  C   UNL A   1      43.485  27.007  27.404  1.00  0.00     0.031 C 
ATOM     48  C   UNL A   1      38.957  28.715  28.781  1.00  0.00     0.029 A 
ATOM     49  N   UNL A   1      40.718  30.034  29.179  1.00  0.00    -0.354 N 
ATOM     50  C   UNL A   1      44.732  28.725  28.257  1.00  0.00     0.074 A 
ATOM     51  C   UNL A   1      44.724  27.436  27.600  1.00  0.00     0.031 C 
ATOM     52  C   UNL A   1      38.495  29.844  29.342  1.00  0.00     0.029 A 
ATOM     53  C   UNL A   1      39.623  30.717  29.655  1.00  0.00     0.049 A 
ATOM     54  H   UNL A   1      41.633  30.392  29.217  1.00  0.00     0.167 HD
ATOM     55  C   UNL A   1      45.848  29.449  28.506  1.00  0.00     0.037 A 
ATOM     56  C   UNL A   1      39.536  31.903  30.292  1.00  0.00     0.037 A 
ATOM     57  C   UNL A   1      45.847  30.748  29.127  1.00  0.00     0.049 A 
ATOM     58  C   UNL A   1      40.792  32.681  30.575  1.00  0.00     0.074 A 
ATOM     59  C   UNL A   1      46.925  31.576  29.384  1.00  0.00     0.029 A 
ATOM     60  N   UNL A   1      44.716  31.409  29.580  1.00  0.00    -0.354 N 
ATOM     61  N   UNL A   1      42.032  32.371  30.286  1.00  0.00    -0.248 NA
ATOM     62  C   UNL A   1      40.641  33.965  31.275  1.00  0.00     0.031 C 
ATOM     63  C   UNL A   1      46.449  32.726  30.020  1.00  0.00     0.029 A 
ATOM     64  C   UNL A   1      45.072  32.631  30.125  1.00  0.00     0.049 A 
ATOM     65  H   UNL A   1      43.797  31.061  29.522  1.00  0.00     0.167 HD
ATOM     66  C   UNL A   1      42.806  33.429  30.747  1.00  0.00     0.074 A 
ATOM     67  C   UNL A   1      41.896  34.390  31.333  1.00  0.00     0.031 C 
ATOM     68  C   UNL A   1      44.151  33.588  30.689  1.00  0.00     0.037 A 
BRANCH  55  69
ATOM     69  C   UNL A   1      47.169  28.862  28.099  1.00  0.00     0.058 A 
ATOM     70  C   UNL A   1      47.971  28.186  29.033  1.00  0.00     0.135 A 
ATOM     71  C   UNL A   1      47.669  29.016  26.796  1.00  0.00     0.135 A 
ATOM     72  F   UNL A   1      47.537  28.006  30.291  1.00  0.00    -0.206 F 
ATOM     73  C   UNL A   1      49.225  27.693  28.692  1.00  0.00     0.059 A 
ATOM     74  C   UNL A   1      48.911  28.509  26.426  1.00  0.00     0.059 A 
ATOM     75  F   UNL A   1      46.932  29.634  25.859  1.00  0.00    -0.206 F 
ATOM     76  C   UNL A   1      49.687  27.860  27.386  1.00  0.00     0.060 A 
BRANCH  76  77
ATOM     77  S   UNL A   1      51.299  27.176  26.945  1.00  0.00     0.124 S 
ATOM     78  O   UNL A   1      51.231  27.165  25.488  1.00  0.00    -0.237 OA
ATOM     79  O   UNL A   1      52.216  28.149  27.532  1.00  0.00    -0.237 OA
ATOM     80  O   UNL A   1      51.297  25.866  27.588  1.00  0.00    -0.744 OA
ENDBRANCH  76  77
ENDBRANCH  55  69
BRANCH  56  81
ATOM     81  C   UNL A   1      38.204  32.430  30.685  1.00  0.00     0.058 A 
ATOM     82  C   UNL A   1      37.401  33.144  29.784  1.00  0.00     0.135 A 
ATOM     83  C   UNL A   1      37.727  32.261  31.994  1.00  0.00     0.135 A 
ATOM     84  F   UNL A   1      37.815  33.339  28.522  1.00  0.00    -0.206 F 
ATOM     85  C   UNL A   1      36.186  33.697  30.171  1.00  0.00     0.059 A 
ATOM     86  C   UNL A   1      36.505  32.787  32.401  1.00  0.00     0.059 A 
ATOM     87  F   UNL A   1      38.455  31.574  32.888  1.00  0.00    -0.206 F 
ATOM     88  C   UNL A   1      35.749  33.519  31.486  1.00  0.00     0.060 A 
BRANCH  88  89
ATOM     89  S   UNL A   1      34.180  34.265  31.978  1.00  0.00     0.124 S 
ATOM     90  O   UNL A   1      33.564  34.529  30.681  1.00  0.00    -0.237 OA
ATOM     91  O   UNL A   1      33.569  33.201  32.768  1.00  0.00    -0.237 OA
ATOM     92  O   UNL A   1      34.590  35.447  32.731  1.00  0.00    -0.744 OA
ENDBRANCH  88  89
ENDBRANCH  56  81
BRANCH  68  93
ATOM     93  C   UNL A   1      44.739  34.854  31.240  1.00  0.00     0.058 A 
ATOM     94  C   UNL A   1      45.083  34.942  32.598  1.00  0.00     0.135 A 
ATOM     95  C   UNL A   1      44.841  36.014  30.459  1.00  0.00     0.135 A 
ATOM     96  F   UNL A   1      45.000  33.859  33.389  1.00  0.00    -0.206 F 
ATOM     97  C   UNL A   1      45.473  36.146  33.172  1.00  0.00     0.059 A 
ATOM     98  C   UNL A   1      45.250  37.226  31.008  1.00  0.00     0.059 A 
ATOM     99  F   UNL A   1      44.535  35.977  29.152  1.00  0.00    -0.206 F 
ATOM    100  C   UNL A   1      45.540  37.286  32.370  1.00  0.00     0.060 A 
BRANCH 100 101
ATOM    101  S   UNL A   1      46.009  38.851  33.141  1.00  0.00     0.124 S 
ATOM    102  O   UNL A   1      47.108  38.440  34.008  1.00  0.00    -0.237 OA
ATOM    103  O   UNL A   1      46.380  39.665  31.987  1.00  0.00    -0.237 OA
ATOM    104  O   UNL A   1      44.789  39.269  33.827  1.00  0.00    -0.744 OA
ENDBRANCH 100 101
ENDBRANCH  68  93
ENDBRANCH  42  43
ENDBRANCH  34  37
ENDBRANCH  32  33
ENDBRANCH   1  32
TORSDOF 17
ENDMDL
