MODEL 1
REMARK VINA RESULT:     -13.3      0.000      0.000
REMARK SMILES Cc1ccc(C)c(S(=O)(=O)N[C@H](CC2=c3ccccc3=NC2)C(=O)NCCCNC(=O)c2ccc(-c3c4nc(c(-c5c(F)cc(S(=O)(=O)[O-])cc5F)c5ccc([nH]5)c(-c5c(F)cc(S(=O)(=O)[O-])cc5F)c5nc(c(-c6c(F)cc(S(=O)(=O)[O-])cc6F)c6ccc3[nH]6)C=C5)C=C4)cc2)c1
REMARK SMILES IDX 27 1 26 2 25 3 23 4 24 5 12 7 11 8 8 10 9 11 10 12 7 13 1 14
REMARK SMILES IDX 2 15 3 16 98 17 4 18 5 19 6 20 13 21 14 22 15 23 22 24 16 25
REMARK SMILES IDX 20 26 21 27 17 28 19 29 18 30 28 31 29 32 30 33 31 35 32 36
REMARK SMILES IDX 33 37 97 38 34 39 96 40 35 41 36 42 37 43 90 44 38 45 95 46
REMARK SMILES IDX 89 47 91 48 39 49 94 50 88 51 87 52 40 54 74 55 53 56 73 57
REMARK SMILES IDX 54 58 57 59 72 60 92 61 55 62 56 63 71 65 93 66 58 67 41 68
REMARK SMILES IDX 42 69 51 70 43 71 44 72 50 73 52 74 45 75 46 76 47 77 48 78
REMARK SMILES IDX 49 79 75 80 76 81 85 82 77 83 78 84 84 85 86 86 79 87 80 88
REMARK SMILES IDX 81 89 82 90 83 91 59 92 60 93 69 94 61 95 62 96 68 97 70 98
REMARK SMILES IDX 63 99 64 100 65 101 66 102 67 103
REMARK H PARENT 25 6 11 9 29 34 91 53 57 64
REMARK Flexibility Score: inf
ROOT
ATOM      1  C   UNL A   1      38.617  23.785  26.333  1.00  0.00     0.042 C 
ENDROOT
BRANCH   1   2
ATOM      2  C   UNL A   1      37.342  23.068  25.878  1.00  0.00     0.117 C 
BRANCH   2   3
ATOM      3  N   UNL A   1      37.129  22.901  24.446  1.00  0.00    -0.355 N 
ATOM      4  C   UNL A   1      36.189  23.276  23.530  1.00  0.00     0.238 C 
ATOM      5  O   UNL A   1      36.431  22.963  22.360  1.00  0.00    -0.273 OA
ATOM      6  H   UNL A   1      37.854  22.381  24.030  1.00  0.00     0.163 HD
BRANCH   4   7
ATOM      7  C   UNL A   1      34.867  23.969  23.871  1.00  0.00     0.163 C 
BRANCH   7   8
ATOM      8  N   UNL A   1      34.450  24.892  22.779  1.00  0.00    -0.198 NA
ATOM      9  H   UNL A   1      34.470  25.833  23.173  1.00  0.00     0.142 HD
BRANCH   8  10
ATOM     10  S   UNL A   1      32.965  24.729  22.017  1.00  0.00     0.241 S 
ATOM     11  O   UNL A   1      32.376  23.467  22.416  1.00  0.00    -0.207 OA
ATOM     12  O   UNL A   1      33.245  25.050  20.640  1.00  0.00    -0.207 OA
BRANCH  10  13
ATOM     13  C   UNL A   1      31.981  26.057  22.666  1.00  0.00     0.085 A 
ATOM     14  C   UNL A   1      28.461  26.455  24.062  1.00  0.00     0.044 C 
ATOM     15  C   UNL A   1      29.847  26.780  23.592  1.00  0.00    -0.050 A 
ATOM     16  C   UNL A   1      30.296  28.100  23.542  1.00  0.00     0.004 A 
ATOM     17  C   UNL A   1      30.707  25.765  23.176  1.00  0.00     0.025 A 
ATOM     18  C   UNL A   1      31.588  28.393  23.092  1.00  0.00     0.005 A 
ATOM     19  C   UNL A   1      32.456  27.378  22.652  1.00  0.00    -0.031 A 
ATOM     20  C   UNL A   1      33.832  27.782  22.200  1.00  0.00     0.046 C 
ENDBRANCH  10  13
ENDBRANCH   8  10
ENDBRANCH   7   8
BRANCH   7  21
ATOM     21  C   UNL A   1      34.823  24.728  25.235  1.00  0.00     0.063 C 
BRANCH  21  22
ATOM     22  C   UNL A   1      33.571  25.389  25.753  1.00  0.00    -0.037 C 
ATOM     23  C   UNL A   1      33.332  26.657  26.101  1.00  0.00     0.001 A 
ATOM     24  C   UNL A   1      32.396  24.546  26.140  1.00  0.00     0.174 C 
ATOM     25  C   UNL A   1      34.059  27.887  26.095  1.00  0.00     0.010 A 
ATOM     26  C   UNL A   1      31.981  26.590  26.702  1.00  0.00     0.065 A 
ATOM     27  N   UNL A   1      31.417  25.426  26.800  1.00  0.00    -0.280 NA
ATOM     28  C   UNL A   1      33.472  28.992  26.593  1.00  0.00     0.001 A 
ATOM     29  C   UNL A   1      31.386  27.848  27.185  1.00  0.00     0.028 A 
ATOM     30  C   UNL A   1      32.116  28.971  27.118  1.00  0.00     0.002 A 
ENDBRANCH  21  22
ENDBRANCH   7  21
ENDBRANCH   4   7
ENDBRANCH   2   3
ENDBRANCH   1   2
BRANCH   1  31
ATOM     31  C   UNL A   1      39.659  22.955  27.057  1.00  0.00     0.118 C 
BRANCH  31  32
ATOM     32  N   UNL A   1      40.777  22.522  26.237  1.00  0.00    -0.352 N 
ATOM     33  C   UNL A   1      41.887  23.274  25.897  1.00  0.00     0.251 C 
ATOM     34  H   UNL A   1      40.741  21.602  25.889  1.00  0.00     0.163 HD
ATOM     35  O   UNL A   1      42.785  22.791  25.217  1.00  0.00    -0.269 OA
BRANCH  33  36
ATOM     36  C   UNL A   1      42.013  24.631  26.476  1.00  0.00     0.039 A 
ATOM     37  C   UNL A   1      42.447  24.737  27.799  1.00  0.00     0.014 A 
ATOM     38  C   UNL A   1      41.525  25.748  25.792  1.00  0.00     0.014 A 
ATOM     39  C   UNL A   1      42.238  25.928  28.481  1.00  0.00     0.010 A 
ATOM     40  C   UNL A   1      41.224  26.897  26.497  1.00  0.00     0.010 A 
ATOM     41  C   UNL A   1      41.562  26.979  27.846  1.00  0.00    -0.014 A 
BRANCH  41  42
ATOM     42  C   UNL A   1      41.396  28.239  28.554  1.00  0.00     0.031 A 
ATOM     43  C   UNL A   1      42.450  29.235  28.254  1.00  0.00     0.074 A 
ATOM     44  C   UNL A   1      40.321  28.592  29.281  1.00  0.00     0.049 A 
ATOM     45  N   UNL A   1      43.469  29.558  28.979  1.00  0.00    -0.248 NA
ATOM     46  C   UNL A   1      42.445  29.842  26.914  1.00  0.00     0.031 C 
ATOM     47  C   UNL A   1      39.020  27.927  29.339  1.00  0.00     0.029 A 
ATOM     48  N   UNL A   1      40.149  29.703  30.058  1.00  0.00    -0.354 N 
ATOM     49  C   UNL A   1      44.112  30.566  28.270  1.00  0.00     0.074 A 
ATOM     50  C   UNL A   1      43.589  30.527  26.930  1.00  0.00     0.031 C 
ATOM     51  C   UNL A   1      38.136  28.745  29.959  1.00  0.00     0.029 A 
ATOM     52  C   UNL A   1      38.837  29.919  30.458  1.00  0.00     0.049 A 
ATOM     53  H   UNL A   1      40.890  30.298  30.313  1.00  0.00     0.167 HD
ATOM     54  C   UNL A   1      44.802  31.558  28.896  1.00  0.00     0.037 A 
ATOM     55  C   UNL A   1      38.367  31.015  31.103  1.00  0.00     0.037 A 
ATOM     56  C   UNL A   1      44.963  31.291  30.300  1.00  0.00     0.049 A 
ATOM     57  C   UNL A   1      39.512  31.677  31.782  1.00  0.00     0.074 A 
ATOM     58  C   UNL A   1      45.724  30.452  31.082  1.00  0.00     0.029 A 
ATOM     59  N   UNL A   1      43.939  31.760  31.081  1.00  0.00    -0.354 N 
ATOM     60  N   UNL A   1      40.191  31.145  32.761  1.00  0.00    -0.248 NA
ATOM     61  C   UNL A   1      40.114  32.869  31.190  1.00  0.00     0.031 C 
ATOM     62  C   UNL A   1      44.999  30.275  32.299  1.00  0.00     0.029 A 
ATOM     63  C   UNL A   1      43.819  31.015  32.225  1.00  0.00     0.049 A 
ATOM     64  H   UNL A   1      43.367  32.528  30.851  1.00  0.00     0.167 HD
ATOM     65  C   UNL A   1      41.463  31.667  32.629  1.00  0.00     0.074 A 
ATOM     66  C   UNL A   1      41.311  32.839  31.782  1.00  0.00     0.031 C 
ATOM     67  C   UNL A   1      42.562  30.925  32.943  1.00  0.00     0.037 A 
BRANCH  54  68
ATOM     68  C   UNL A   1      44.946  32.956  28.350  1.00  0.00     0.058 A 
ATOM     69  C   UNL A   1      46.221  33.443  28.003  1.00  0.00     0.135 A 
ATOM     70  C   UNL A   1      43.915  33.922  28.401  1.00  0.00     0.135 A 
ATOM     71  F   UNL A   1      47.278  32.615  27.969  1.00  0.00    -0.206 F 
ATOM     72  C   UNL A   1      46.456  34.794  27.742  1.00  0.00     0.059 A 
ATOM     73  C   UNL A   1      44.114  35.259  28.080  1.00  0.00     0.059 A 
ATOM     74  F   UNL A   1      42.692  33.632  28.862  1.00  0.00    -0.206 F 
ATOM     75  C   UNL A   1      45.395  35.694  27.786  1.00  0.00     0.060 A 
BRANCH  75  76
ATOM     76  S   UNL A   1      45.701  37.449  27.517  1.00  0.00     0.124 S 
ATOM     77  O   UNL A   1      45.945  37.914  28.877  1.00  0.00    -0.237 OA
ATOM     78  O   UNL A   1      46.859  37.425  26.629  1.00  0.00    -0.237 OA
ATOM     79  O   UNL A   1      44.460  37.914  26.902  1.00  0.00    -0.744 OA
ENDBRANCH  75  76
ENDBRANCH  54  68
BRANCH  55  80
ATOM     80  C   UNL A   1      37.049  31.685  30.964  1.00  0.00     0.058 A 
ATOM     81  C   UNL A   1      36.108  31.642  32.009  1.00  0.00     0.135 A 
ATOM     82  C   UNL A   1      36.809  32.632  29.950  1.00  0.00     0.135 A 
ATOM     83  F   UNL A   1      36.259  30.775  33.023  1.00  0.00    -0.206 F 
ATOM     84  C   UNL A   1      35.043  32.543  32.091  1.00  0.00     0.059 A 
ATOM     85  C   UNL A   1      35.744  33.530  30.001  1.00  0.00     0.059 A 
ATOM     86  F   UNL A   1      37.665  32.788  28.929  1.00  0.00    -0.206 F 
ATOM     87  C   UNL A   1      34.889  33.506  31.095  1.00  0.00     0.060 A 
BRANCH  87  88
ATOM     88  S   UNL A   1      33.661  34.814  31.314  1.00  0.00     0.124 S 
ATOM     89  O   UNL A   1      34.499  35.993  31.495  1.00  0.00    -0.237 OA
ATOM     90  O   UNL A   1      32.916  34.746  30.061  1.00  0.00    -0.237 OA
ATOM     91  O   UNL A   1      32.919  34.387  32.498  1.00  0.00    -0.744 OA
ENDBRANCH  87  88
ENDBRANCH  55  80
BRANCH  67  92
ATOM     92  C   UNL A   1      42.394  29.838  33.963  1.00  0.00     0.058 A 
ATOM     93  C   UNL A   1      42.406  30.034  35.354  1.00  0.00     0.135 A 
ATOM     94  C   UNL A   1      42.154  28.536  33.498  1.00  0.00     0.135 A 
ATOM     95  F   UNL A   1      42.543  31.261  35.876  1.00  0.00    -0.206 F 
ATOM     96  C   UNL A   1      42.231  28.971  36.242  1.00  0.00     0.059 A 
ATOM     97  C   UNL A   1      41.943  27.468  34.363  1.00  0.00     0.059 A 
ATOM     98  F   UNL A   1      42.087  28.295  32.177  1.00  0.00    -0.206 F 
ATOM     99  C   UNL A   1      42.000  27.691  35.737  1.00  0.00     0.060 A 
BRANCH  99 100
ATOM    100  S   UNL A   1      41.711  26.328  36.887  1.00  0.00     0.124 S 
ATOM    101  O   UNL A   1      40.485  26.744  37.557  1.00  0.00    -0.237 OA
ATOM    102  O   UNL A   1      41.589  25.180  35.993  1.00  0.00    -0.237 OA
ATOM    103  O   UNL A   1      42.910  26.328  37.723  1.00  0.00    -0.744 OA
ENDBRANCH  99 100
ENDBRANCH  67  92
ENDBRANCH  41  42
ENDBRANCH  33  36
ENDBRANCH  31  32
ENDBRANCH   1  31
TORSDOF 18
ENDMDL
MODEL 2
REMARK VINA RESULT:     -13.2      2.921      9.354
REMARK SMILES Cc1ccc(C)c(S(=O)(=O)N[C@H](CC2=c3ccccc3=NC2)C(=O)NCCCNC(=O)c2ccc(-c3c4nc(c(-c5c(F)cc(S(=O)(=O)[O-])cc5F)c5ccc([nH]5)c(-c5c(F)cc(S(=O)(=O)[O-])cc5F)c5nc(c(-c6c(F)cc(S(=O)(=O)[O-])cc6F)c6ccc3[nH]6)C=C5)C=C4)cc2)c1
REMARK SMILES IDX 27 1 26 2 25 3 23 4 24 5 12 7 11 8 8 10 9 11 10 12 7 13 1 14
REMARK SMILES IDX 2 15 3 16 98 17 4 18 5 19 6 20 13 21 14 22 15 23 22 24 16 25
REMARK SMILES IDX 20 26 21 27 17 28 19 29 18 30 28 31 29 32 30 33 31 35 32 36
REMARK SMILES IDX 33 37 97 38 34 39 96 40 35 41 36 42 37 43 90 44 38 45 95 46
REMARK SMILES IDX 89 47 91 48 39 49 94 50 88 51 87 52 40 54 74 55 53 56 73 57
REMARK SMILES IDX 54 58 57 59 72 60 92 61 55 62 56 63 71 65 93 66 58 67 41 68
REMARK SMILES IDX 42 69 51 70 43 71 44 72 50 73 52 74 45 75 46 76 47 77 48 78
REMARK SMILES IDX 49 79 75 80 76 81 85 82 77 83 78 84 84 85 86 86 79 87 80 88
REMARK SMILES IDX 81 89 82 90 83 91 59 92 60 93 69 94 61 95 62 96 68 97 70 98
REMARK SMILES IDX 63 99 64 100 65 101 66 102 67 103
REMARK H PARENT 25 6 11 9 29 34 91 53 57 64
REMARK Flexibility Score: inf
ROOT
ATOM      1  C   UNL A   1      34.938  29.960  27.479  1.00  0.00     0.042 C 
ENDROOT
BRANCH   1   2
ATOM      2  C   UNL A   1      33.755  29.551  26.594  1.00  0.00     0.117 C 
BRANCH   2   3
ATOM      3  N   UNL A   1      32.572  29.007  27.248  1.00  0.00    -0.355 N 
ATOM      4  C   UNL A   1      31.875  27.833  27.224  1.00  0.00     0.238 C 
ATOM      5  O   UNL A   1      30.924  27.764  28.009  1.00  0.00    -0.273 OA
ATOM      6  H   UNL A   1      32.171  29.655  27.869  1.00  0.00     0.163 HD
BRANCH   4   7
ATOM      7  C   UNL A   1      32.150  26.674  26.263  1.00  0.00     0.163 C 
BRANCH   7   8
ATOM      8  N   UNL A   1      31.791  25.368  26.883  1.00  0.00    -0.198 NA
ATOM      9  H   UNL A   1      32.662  24.848  26.987  1.00  0.00     0.142 HD
BRANCH   8  10
ATOM     10  S   UNL A   1      30.701  24.325  26.151  1.00  0.00     0.241 S 
ATOM     11  O   UNL A   1      30.073  25.014  25.042  1.00  0.00    -0.207 OA
ATOM     12  O   UNL A   1      29.946  23.784  27.253  1.00  0.00    -0.207 OA
BRANCH  10  13
ATOM     13  C   UNL A   1      31.704  23.004  25.516  1.00  0.00     0.085 A 
ATOM     14  C   UNL A   1      32.060  21.157  22.205  1.00  0.00     0.044 C 
ATOM     15  C   UNL A   1      32.261  21.558  23.636  1.00  0.00    -0.050 A 
ATOM     16  C   UNL A   1      33.107  20.830  24.474  1.00  0.00     0.004 A 
ATOM     17  C   UNL A   1      31.584  22.658  24.162  1.00  0.00     0.025 A 
ATOM     18  C   UNL A   1      33.278  21.207  25.810  1.00  0.00     0.005 A 
ATOM     19  C   UNL A   1      32.586  22.303  26.354  1.00  0.00    -0.031 A 
ATOM     20  C   UNL A   1      32.842  22.646  27.796  1.00  0.00     0.046 C 
ENDBRANCH  10  13
ENDBRANCH   8  10
ENDBRANCH   7   8
BRANCH   7  21
ATOM     21  C   UNL A   1      33.599  26.592  25.686  1.00  0.00     0.063 C 
BRANCH  21  22
ATOM     22  C   UNL A   1      34.019  25.530  24.701  1.00  0.00    -0.037 C 
ATOM     23  C   UNL A   1      34.927  24.555  24.803  1.00  0.00     0.001 A 
ATOM     24  C   UNL A   1      33.524  25.593  23.291  1.00  0.00     0.174 C 
ATOM     25  C   UNL A   1      35.809  24.061  25.813  1.00  0.00     0.010 A 
ATOM     26  C   UNL A   1      34.980  24.004  23.430  1.00  0.00     0.065 A 
ATOM     27  N   UNL A   1      34.252  24.572  22.519  1.00  0.00    -0.280 NA
ATOM     28  C   UNL A   1      36.646  23.051  25.509  1.00  0.00     0.001 A 
ATOM     29  C   UNL A   1      35.888  22.870  23.185  1.00  0.00     0.028 A 
ATOM     30  C   UNL A   1      36.663  22.439  24.191  1.00  0.00     0.002 A 
ENDBRANCH  21  22
ENDBRANCH   7  21
ENDBRANCH   4   7
ENDBRANCH   2   3
ENDBRANCH   1   2
BRANCH   1  31
ATOM     31  C   UNL A   1      35.210  31.444  27.631  1.00  0.00     0.118 C 
BRANCH  31  32
ATOM     32  N   UNL A   1      34.576  32.070  28.778  1.00  0.00    -0.352 N 
ATOM     33  C   UNL A   1      35.038  32.056  30.082  1.00  0.00     0.251 C 
ATOM     34  H   UNL A   1      33.733  32.551  28.612  1.00  0.00     0.163 HD
ATOM     35  O   UNL A   1      34.429  32.645  30.967  1.00  0.00    -0.269 OA
BRANCH  33  36
ATOM     36  C   UNL A   1      36.346  31.417  30.351  1.00  0.00     0.039 A 
ATOM     37  C   UNL A   1      37.501  32.139  30.041  1.00  0.00     0.014 A 
ATOM     38  C   UNL A   1      36.421  30.068  30.710  1.00  0.00     0.014 A 
ATOM     39  C   UNL A   1      38.709  31.461  29.937  1.00  0.00     0.010 A 
ATOM     40  C   UNL A   1      37.600  29.376  30.507  1.00  0.00     0.010 A 
ATOM     41  C   UNL A   1      38.738  30.070  30.101  1.00  0.00    -0.014 A 
BRANCH  41  42
ATOM     42  C   UNL A   1      40.017  29.381  30.041  1.00  0.00     0.031 A 
ATOM     43  C   UNL A   1      40.612  29.111  31.369  1.00  0.00     0.074 A 
ATOM     44  C   UNL A   1      40.571  28.854  28.934  1.00  0.00     0.049 A 
ATOM     45  N   UNL A   1      41.571  29.749  31.957  1.00  0.00    -0.248 NA
ATOM     46  C   UNL A   1      39.961  28.094  32.209  1.00  0.00     0.031 C 
ATOM     47  C   UNL A   1      39.944  28.646  27.629  1.00  0.00     0.029 A 
ATOM     48  N   UNL A   1      41.810  28.298  28.786  1.00  0.00    -0.354 N 
ATOM     49  C   UNL A   1      41.778  29.069  33.151  1.00  0.00     0.074 A 
ATOM     50  C   UNL A   1      40.625  28.234  33.356  1.00  0.00     0.031 C 
ATOM     51  C   UNL A   1      40.739  27.844  26.882  1.00  0.00     0.029 A 
ATOM     52  C   UNL A   1      41.983  27.600  27.599  1.00  0.00     0.049 A 
ATOM     53  H   UNL A   1      42.520  28.386  29.463  1.00  0.00     0.167 HD
ATOM     54  C   UNL A   1      43.004  29.005  33.738  1.00  0.00     0.037 A 
ATOM     55  C   UNL A   1      43.052  26.835  27.268  1.00  0.00     0.037 A 
ATOM     56  C   UNL A   1      43.945  29.890  33.107  1.00  0.00     0.049 A 
ATOM     57  C   UNL A   1      44.209  27.278  28.091  1.00  0.00     0.074 A 
ATOM     58  C   UNL A   1      44.181  31.246  33.074  1.00  0.00     0.029 A 
ATOM     59  N   UNL A   1      44.621  29.332  32.054  1.00  0.00    -0.354 N 
ATOM     60  N   UNL A   1      44.767  28.454  27.998  1.00  0.00    -0.248 NA
ATOM     61  C   UNL A   1      44.610  26.495  29.257  1.00  0.00     0.031 C 
ATOM     62  C   UNL A   1      44.855  31.503  31.841  1.00  0.00     0.029 A 
ATOM     63  C   UNL A   1      45.013  30.296  31.161  1.00  0.00     0.049 A 
ATOM     64  H   UNL A   1      44.801  28.369  31.952  1.00  0.00     0.167 HD
ATOM     65  C   UNL A   1      45.244  28.716  29.267  1.00  0.00     0.074 A 
ATOM     66  C   UNL A   1      45.286  27.426  29.936  1.00  0.00     0.031 C 
ATOM     67  C   UNL A   1      45.252  29.984  29.766  1.00  0.00     0.037 A 
BRANCH  54  68
ATOM     68  C   UNL A   1      43.474  27.844  34.578  1.00  0.00     0.058 A 
ATOM     69  C   UNL A   1      43.860  28.059  35.915  1.00  0.00     0.135 A 
ATOM     70  C   UNL A   1      43.806  26.578  34.041  1.00  0.00     0.135 A 
ATOM     71  F   UNL A   1      43.631  29.243  36.506  1.00  0.00    -0.206 F 
ATOM     72  C   UNL A   1      44.541  27.093  36.658  1.00  0.00     0.059 A 
ATOM     73  C   UNL A   1      44.424  25.579  34.784  1.00  0.00     0.059 A 
ATOM     74  F   UNL A   1      43.638  26.290  32.745  1.00  0.00    -0.206 F 
ATOM     75  C   UNL A   1      44.819  25.857  36.081  1.00  0.00     0.060 A 
BRANCH  75  76
ATOM     76  S   UNL A   1      45.756  24.630  37.009  1.00  0.00     0.124 S 
ATOM     77  O   UNL A   1      45.035  24.608  38.275  1.00  0.00    -0.237 OA
ATOM     78  O   UNL A   1      45.618  23.442  36.171  1.00  0.00    -0.237 OA
ATOM     79  O   UNL A   1      47.100  25.200  37.055  1.00  0.00    -0.744 OA
ENDBRANCH  75  76
ENDBRANCH  54  68
BRANCH  55  80
ATOM     80  C   UNL A   1      43.089  25.574  26.484  1.00  0.00     0.058 A 
ATOM     81  C   UNL A   1      43.959  25.438  25.386  1.00  0.00     0.135 A 
ATOM     82  C   UNL A   1      42.516  24.386  26.975  1.00  0.00     0.135 A 
ATOM     83  F   UNL A   1      44.557  26.516  24.856  1.00  0.00    -0.206 F 
ATOM     84  C   UNL A   1      44.309  24.190  24.864  1.00  0.00     0.059 A 
ATOM     85  C   UNL A   1      42.837  23.131  26.459  1.00  0.00     0.059 A 
ATOM     86  F   UNL A   1      41.708  24.395  28.045  1.00  0.00    -0.206 F 
ATOM     87  C   UNL A   1      43.766  23.038  25.430  1.00  0.00     0.060 A 
BRANCH  87  88
ATOM     88  S   UNL A   1      44.390  21.422  24.916  1.00  0.00     0.124 S 
ATOM     89  O   UNL A   1      45.630  21.318  25.675  1.00  0.00    -0.237 OA
ATOM     90  O   UNL A   1      43.310  20.532  25.331  1.00  0.00    -0.237 OA
ATOM     91  O   UNL A   1      44.552  21.565  23.471  1.00  0.00    -0.744 OA
ENDBRANCH  87  88
ENDBRANCH  55  80
BRANCH  67  92
ATOM     92  C   UNL A   1      45.329  31.114  28.781  1.00  0.00     0.058 A 
ATOM     93  C   UNL A   1      46.519  31.620  28.233  1.00  0.00     0.135 A 
ATOM     94  C   UNL A   1      44.124  31.673  28.331  1.00  0.00     0.135 A 
ATOM     95  F   UNL A   1      47.706  31.082  28.547  1.00  0.00    -0.206 F 
ATOM     96  C   UNL A   1      46.510  32.669  27.311  1.00  0.00     0.059 A 
ATOM     97  C   UNL A   1      44.089  32.695  27.388  1.00  0.00     0.059 A 
ATOM     98  F   UNL A   1      42.951  31.199  28.785  1.00  0.00    -0.206 F 
ATOM     99  C   UNL A   1      45.289  33.199  26.894  1.00  0.00     0.060 A 
BRANCH  99 100
ATOM    100  S   UNL A   1      45.276  34.513  25.655  1.00  0.00     0.124 S 
ATOM    101  O   UNL A   1      44.852  35.670  26.435  1.00  0.00    -0.237 OA
ATOM    102  O   UNL A   1      46.663  34.530  25.198  1.00  0.00    -0.237 OA
ATOM    103  O   UNL A   1      44.311  34.040  24.665  1.00  0.00    -0.744 OA
ENDBRANCH  99 100
ENDBRANCH  67  92
ENDBRANCH  41  42
ENDBRANCH  33  36
ENDBRANCH  31  32
ENDBRANCH   1  31
TORSDOF 18
ENDMDL
MODEL 3
REMARK VINA RESULT:     -13.1      1.508      2.348
REMARK SMILES Cc1ccc(C)c(S(=O)(=O)N[C@H](CC2=c3ccccc3=NC2)C(=O)NCCCNC(=O)c2ccc(-c3c4nc(c(-c5c(F)cc(S(=O)(=O)[O-])cc5F)c5ccc([nH]5)c(-c5c(F)cc(S(=O)(=O)[O-])cc5F)c5nc(c(-c6c(F)cc(S(=O)(=O)[O-])cc6F)c6ccc3[nH]6)C=C5)C=C4)cc2)c1
REMARK SMILES IDX 27 1 26 2 25 3 23 4 24 5 12 7 11 8 8 10 9 11 10 12 7 13 1 14
REMARK SMILES IDX 2 15 3 16 98 17 4 18 5 19 6 20 13 21 14 22 15 23 22 24 16 25
REMARK SMILES IDX 20 26 21 27 17 28 19 29 18 30 28 31 29 32 30 33 31 35 32 36
REMARK SMILES IDX 33 37 97 38 34 39 96 40 35 41 36 42 37 43 90 44 38 45 95 46
REMARK SMILES IDX 89 47 91 48 39 49 94 50 88 51 87 52 40 54 74 55 53 56 73 57
REMARK SMILES IDX 54 58 57 59 72 60 92 61 55 62 56 63 71 65 93 66 58 67 41 68
REMARK SMILES IDX 42 69 51 70 43 71 44 72 50 73 52 74 45 75 46 76 47 77 48 78
REMARK SMILES IDX 49 79 75 80 76 81 85 82 77 83 78 84 84 85 86 86 79 87 80 88
REMARK SMILES IDX 81 89 82 90 83 91 59 92 60 93 69 94 61 95 62 96 68 97 70 98
REMARK SMILES IDX 63 99 64 100 65 101 66 102 67 103
REMARK H PARENT 25 6 11 9 29 34 91 53 57 64
REMARK Flexibility Score: inf
ROOT
ATOM      1  C   UNL A   1      38.289  21.798  25.410  1.00  0.00     0.042 C 
ENDROOT
BRANCH   1   2
ATOM      2  C   UNL A   1      36.997  22.576  25.683  1.00  0.00     0.117 C 
BRANCH   2   3
ATOM      3  N   UNL A   1      35.920  21.884  26.380  1.00  0.00    -0.355 N 
ATOM      4  C   UNL A   1      34.558  21.829  26.300  1.00  0.00     0.238 C 
ATOM      5  O   UNL A   1      34.012  21.037  27.074  1.00  0.00    -0.273 OA
ATOM      6  H   UNL A   1      36.266  21.303  27.095  1.00  0.00     0.163 HD
BRANCH   4   7
ATOM      7  C   UNL A   1      33.701  22.715  25.392  1.00  0.00     0.163 C 
BRANCH   7   8
ATOM      8  N   UNL A   1      32.269  22.309  25.446  1.00  0.00    -0.198 NA
ATOM      9  H   UNL A   1      31.896  22.442  24.506  1.00  0.00     0.142 HD
BRANCH   8  10
ATOM     10  S   UNL A   1      31.190  23.051  26.494  1.00  0.00     0.241 S 
ATOM     11  O   UNL A   1      31.772  23.071  27.820  1.00  0.00    -0.207 OA
ATOM     12  O   UNL A   1      29.933  22.405  26.210  1.00  0.00    -0.207 OA
BRANCH  10  13
ATOM     13  C   UNL A   1      31.060  24.717  25.895  1.00  0.00     0.085 A 
ATOM     14  C   UNL A   1      31.448  28.212  27.356  1.00  0.00     0.044 C 
ATOM     15  C   UNL A   1      31.180  27.101  26.386  1.00  0.00    -0.050 A 
ATOM     16  C   UNL A   1      30.715  27.369  25.099  1.00  0.00     0.004 A 
ATOM     17  C   UNL A   1      31.374  25.772  26.765  1.00  0.00     0.025 A 
ATOM     18  C   UNL A   1      30.458  26.322  24.205  1.00  0.00     0.005 A 
ATOM     19  C   UNL A   1      30.632  24.980  24.584  1.00  0.00    -0.031 A 
ATOM     20  C   UNL A   1      30.347  23.921  23.554  1.00  0.00     0.046 C 
ENDBRANCH  10  13
ENDBRANCH   8  10
ENDBRANCH   7   8
BRANCH   7  21
ATOM     21  C   UNL A   1      34.156  22.811  23.901  1.00  0.00     0.063 C 
BRANCH  21  22
ATOM     22  C   UNL A   1      33.955  24.055  23.073  1.00  0.00    -0.037 C 
ATOM     23  C   UNL A   1      33.993  25.347  23.413  1.00  0.00     0.001 A 
ATOM     24  C   UNL A   1      33.458  23.934  21.666  1.00  0.00     0.174 C 
ATOM     25  C   UNL A   1      34.273  26.099  24.595  1.00  0.00     0.010 A 
ATOM     26  C   UNL A   1      33.521  26.029  22.187  1.00  0.00     0.065 A 
ATOM     27  N   UNL A   1      33.157  25.292  21.183  1.00  0.00    -0.280 NA
ATOM     28  C   UNL A   1      34.154  27.440  24.556  1.00  0.00     0.001 A 
ATOM     29  C   UNL A   1      33.459  27.501  22.207  1.00  0.00     0.028 A 
ATOM     30  C   UNL A   1      33.768  28.141  23.343  1.00  0.00     0.002 A 
ENDBRANCH  21  22
ENDBRANCH   7  21
ENDBRANCH   4   7
ENDBRANCH   2   3
ENDBRANCH   1   2
BRANCH   1  31
ATOM     31  C   UNL A   1      39.417  21.953  26.411  1.00  0.00     0.118 C 
BRANCH  31  32
ATOM     32  N   UNL A   1      40.750  21.963  25.836  1.00  0.00    -0.352 N 
ATOM     33  C   UNL A   1      41.686  22.976  25.948  1.00  0.00     0.251 C 
ATOM     34  H   UNL A   1      41.015  21.171  25.315  1.00  0.00     0.163 HD
ATOM     35  O   UNL A   1      42.795  22.861  25.440  1.00  0.00    -0.269 OA
BRANCH  33  36
ATOM     36  C   UNL A   1      41.353  24.141  26.798  1.00  0.00     0.039 A 
ATOM     37  C   UNL A   1      40.665  25.203  26.207  1.00  0.00     0.014 A 
ATOM     38  C   UNL A   1      41.883  24.262  28.085  1.00  0.00     0.014 A 
ATOM     39  C   UNL A   1      40.652  26.435  26.848  1.00  0.00     0.010 A 
ATOM     40  C   UNL A   1      41.959  25.509  28.675  1.00  0.00     0.010 A 
ATOM     41  C   UNL A   1      41.361  26.599  28.046  1.00  0.00    -0.014 A 
BRANCH  41  42
ATOM     42  C   UNL A   1      41.296  27.879  28.733  1.00  0.00     0.031 A 
ATOM     43  C   UNL A   1      42.383  28.813  28.359  1.00  0.00     0.074 A 
ATOM     44  C   UNL A   1      40.280  28.302  29.505  1.00  0.00     0.049 A 
ATOM     45  N   UNL A   1      43.454  29.096  29.025  1.00  0.00    -0.248 NA
ATOM     46  C   UNL A   1      42.341  29.394  27.008  1.00  0.00     0.031 C 
ATOM     47  C   UNL A   1      38.950  27.708  29.643  1.00  0.00     0.029 A 
ATOM     48  N   UNL A   1      40.205  29.435  30.266  1.00  0.00    -0.354 N 
ATOM     49  C   UNL A   1      44.110  30.055  28.263  1.00  0.00     0.074 A 
ATOM     50  C   UNL A   1      43.518  30.017  26.953  1.00  0.00     0.031 C 
ATOM     51  C   UNL A   1      38.143  28.582  30.288  1.00  0.00     0.029 A 
ATOM     52  C   UNL A   1      38.928  29.727  30.726  1.00  0.00     0.049 A 
ATOM     53  H   UNL A   1      40.988  29.995  30.470  1.00  0.00     0.167 HD
ATOM     54  C   UNL A   1      44.882  31.020  28.832  1.00  0.00     0.037 A 
ATOM     55  C   UNL A   1      38.549  30.858  31.370  1.00  0.00     0.037 A 
ATOM     56  C   UNL A   1      45.100  30.773  30.232  1.00  0.00     0.049 A 
ATOM     57  C   UNL A   1      39.760  31.473  31.977  1.00  0.00     0.074 A 
ATOM     58  C   UNL A   1      45.856  29.910  30.993  1.00  0.00     0.029 A 
ATOM     59  N   UNL A   1      44.144  31.310  31.053  1.00  0.00    -0.354 N 
ATOM     60  N   UNL A   1      40.460  30.923  32.931  1.00  0.00    -0.248 NA
ATOM     61  C   UNL A   1      40.391  32.620  31.329  1.00  0.00     0.031 C 
ATOM     62  C   UNL A   1      45.186  29.794  32.248  1.00  0.00     0.029 A 
ATOM     63  C   UNL A   1      44.044  30.593  32.218  1.00  0.00     0.049 A 
ATOM     64  H   UNL A   1      43.600  32.102  30.835  1.00  0.00     0.167 HD
ATOM     65  C   UNL A   1      41.748  31.376  32.724  1.00  0.00     0.074 A 
ATOM     66  C   UNL A   1      41.614  32.538  31.861  1.00  0.00     0.031 C 
ATOM     67  C   UNL A   1      42.822  30.584  32.999  1.00  0.00     0.037 A 
BRANCH  54  68
ATOM     68  C   UNL A   1      45.070  32.399  28.250  1.00  0.00     0.058 A 
ATOM     69  C   UNL A   1      46.350  32.816  27.841  1.00  0.00     0.135 A 
ATOM     70  C   UNL A   1      44.089  33.415  28.321  1.00  0.00     0.135 A 
ATOM     71  F   UNL A   1      47.365  31.937  27.782  1.00  0.00    -0.206 F 
ATOM     72  C   UNL A   1      46.639  34.148  27.540  1.00  0.00     0.059 A 
ATOM     73  C   UNL A   1      44.337  34.734  27.962  1.00  0.00     0.059 A 
ATOM     74  F   UNL A   1      42.873  33.193  28.837  1.00  0.00    -0.206 F 
ATOM     75  C   UNL A   1      45.624  35.099  27.607  1.00  0.00     0.060 A 
BRANCH  75  76
ATOM     76  S   UNL A   1      46.002  36.831  27.287  1.00  0.00     0.124 S 
ATOM     77  O   UNL A   1      44.690  37.355  26.927  1.00  0.00    -0.237 OA
ATOM     78  O   UNL A   1      46.538  37.271  28.572  1.00  0.00    -0.237 OA
ATOM     79  O   UNL A   1      46.977  36.766  26.201  1.00  0.00    -0.744 OA
ENDBRANCH  75  76
ENDBRANCH  54  68
BRANCH  55  80
ATOM     80  C   UNL A   1      37.261  31.594  31.282  1.00  0.00     0.058 A 
ATOM     81  C   UNL A   1      36.355  31.585  32.359  1.00  0.00     0.135 A 
ATOM     82  C   UNL A   1      37.035  32.564  30.287  1.00  0.00     0.135 A 
ATOM     83  F   UNL A   1      36.497  30.700  33.358  1.00  0.00    -0.206 F 
ATOM     84  C   UNL A   1      35.340  32.537  32.486  1.00  0.00     0.059 A 
ATOM     85  C   UNL A   1      36.018  33.512  30.383  1.00  0.00     0.059 A 
ATOM     86  F   UNL A   1      37.863  32.689  29.239  1.00  0.00    -0.206 F 
ATOM     87  C   UNL A   1      35.200  33.518  31.505  1.00  0.00     0.060 A 
BRANCH  87  88
ATOM     88  S   UNL A   1      34.046  34.881  31.779  1.00  0.00     0.124 S 
ATOM     89  O   UNL A   1      34.883  35.855  32.471  1.00  0.00    -0.237 OA
ATOM     90  O   UNL A   1      33.656  35.229  30.417  1.00  0.00    -0.237 OA
ATOM     91  O   UNL A   1      32.992  34.276  32.590  1.00  0.00    -0.744 OA
ENDBRANCH  87  88
ENDBRANCH  55  80
BRANCH  67  92
ATOM     92  C   UNL A   1      42.651  29.526  34.049  1.00  0.00     0.058 A 
ATOM     93  C   UNL A   1      42.763  29.743  35.433  1.00  0.00     0.135 A 
ATOM     94  C   UNL A   1      42.299  28.235  33.627  1.00  0.00     0.135 A 
ATOM     95  F   UNL A   1      43.010  30.967  35.920  1.00  0.00    -0.206 F 
ATOM     96  C   UNL A   1      42.578  28.708  36.351  1.00  0.00     0.059 A 
ATOM     97  C   UNL A   1      42.077  27.197  34.525  1.00  0.00     0.059 A 
ATOM     98  F   UNL A   1      42.134  27.977  32.318  1.00  0.00    -0.206 F 
ATOM     99  C   UNL A   1      42.234  27.438  35.888  1.00  0.00     0.060 A 
BRANCH  99 100
ATOM    100  S   UNL A   1      41.934  26.116  37.081  1.00  0.00     0.124 S 
ATOM    101  O   UNL A   1      42.208  24.920  36.293  1.00  0.00    -0.237 OA
ATOM    102  O   UNL A   1      42.899  26.417  38.135  1.00  0.00    -0.237 OA
ATOM    103  O   UNL A   1      40.536  26.307  37.458  1.00  0.00    -0.744 OA
ENDBRANCH  99 100
ENDBRANCH  67  92
ENDBRANCH  41  42
ENDBRANCH  33  36
ENDBRANCH  31  32
ENDBRANCH   1  31
TORSDOF 18
ENDMDL
