MODEL 1
REMARK VINA RESULT:     -12.8      0.000      0.000
REMARK SMILES CCOC(=O)c1cccc(Nc2c(-c3ccc(C(=O)NCCCNC(=O)c4ccc(-c5c6nc(c(-c7c(F)cc(S(=O)(=O)[O-])cc7F)c7ccc([nH]7)c(-c7c(F)cc(S(=O)(=O)[O-])cc7F)c7nc(c(-c8c(F)cc(S(=O)(=O)[O-])cc8F)c8ccc5[nH]8)C=C7)C=C6)cc4)cc3)nc3cnccn23)c1
REMARK SMILES IDX 18 1 19 2 20 3 17 5 14 6 15 7 94 8 16 9 93 10 13 11 12 12
REMARK SMILES IDX 101 13 95 14 96 15 100 16 97 17 99 18 98 19 11 20 10 22 6 23
REMARK SMILES IDX 7 24 102 25 8 26 9 27 4 28 5 29 3 30 2 31 1 32 21 33 22 34
REMARK SMILES IDX 23 35 24 36 25 37 26 39 27 40 28 41 92 42 29 43 91 44 30 45
REMARK SMILES IDX 31 46 32 47 85 48 33 49 90 50 84 51 86 52 34 53 89 54 83 55
REMARK SMILES IDX 82 56 35 58 69 59 48 60 68 61 49 62 52 63 67 64 87 65 50 66
REMARK SMILES IDX 51 67 66 69 88 70 53 71 36 72 37 73 46 74 38 75 39 76 45 77
REMARK SMILES IDX 47 78 40 79 41 80 42 81 43 82 44 83 70 84 71 85 80 86 72 87
REMARK SMILES IDX 73 88 79 89 81 90 74 91 75 92 76 93 77 94 78 95 54 96 55 97
REMARK SMILES IDX 64 98 56 99 57 100 63 101 65 102 58 103 59 104 60 105 61 106
REMARK SMILES IDX 62 107
REMARK H PARENT 20 4 11 21 24 38 86 57 52 68
REMARK Flexibility Score: inf
ROOT
ATOM      1  C   UNL A   1      32.483  30.889  26.920  1.00  0.00     0.251 C 
ATOM      2  O   UNL A   1      31.409  31.429  26.656  1.00  0.00    -0.269 OA
ATOM      3  N   UNL A   1      33.443  31.641  27.550  1.00  0.00    -0.352 N 
ATOM      4  H   UNL A   1      33.202  32.590  27.657  1.00  0.00     0.163 HD
ENDROOT
BRANCH   1   5
ATOM      5  C   UNL A   1      32.667  29.451  26.586  1.00  0.00     0.039 A 
ATOM      6  C   UNL A   1      32.843  26.705  26.004  1.00  0.00     0.004 A 
ATOM      7  C   UNL A   1      31.787  27.190  26.783  1.00  0.00     0.011 A 
ATOM      8  C   UNL A   1      33.798  27.592  25.507  1.00  0.00     0.011 A 
ATOM      9  C   UNL A   1      31.704  28.554  27.073  1.00  0.00     0.014 A 
ATOM     10  C   UNL A   1      33.692  28.961  25.771  1.00  0.00     0.014 A 
BRANCH   6  11
ATOM     11  C   UNL A   1      32.938  25.303  25.670  1.00  0.00     0.114 A 
ATOM     12  C   UNL A   1      32.523  24.748  24.466  1.00  0.00     0.143 A 
ATOM     13  N   UNL A   1      32.872  23.419  24.570  1.00  0.00    -0.283 N 
ATOM     14  N   UNL A   1      33.458  24.357  26.522  1.00  0.00    -0.225 NA
ATOM     15  C   UNL A   1      33.383  23.241  25.832  1.00  0.00     0.157 A 
ATOM     16  C   UNL A   1      32.817  22.349  23.693  1.00  0.00     0.115 A 
ATOM     17  C   UNL A   1      33.785  21.921  26.227  1.00  0.00     0.158 A 
ATOM     18  C   UNL A   1      33.232  21.145  24.130  1.00  0.00     0.129 A 
ATOM     19  N   UNL A   1      33.705  20.902  25.411  1.00  0.00    -0.259 NA
BRANCH  12  20
ATOM     20  N   UNL A   1      31.973  25.313  23.355  1.00  0.00    -0.339 N 
ATOM     21  H   UNL A   1      32.426  25.169  22.492  1.00  0.00     0.168 HD
BRANCH  20  22
ATOM     22  C   UNL A   1      30.788  26.093  23.363  1.00  0.00     0.040 A 
ATOM     23  C   UNL A   1      29.689  28.207  22.856  1.00  0.00     0.062 A 
ATOM     24  C   UNL A   1      28.504  27.744  23.431  1.00  0.00     0.016 A 
ATOM     25  C   UNL A   1      30.818  27.379  22.796  1.00  0.00     0.041 A 
ATOM     26  C   UNL A   1      28.444  26.451  23.941  1.00  0.00     0.003 A 
ATOM     27  C   UNL A   1      29.579  25.637  23.910  1.00  0.00     0.026 A 
BRANCH  23  28
ATOM     28  C   UNL A   1      29.736  29.616  22.408  1.00  0.00     0.338 C 
ATOM     29  O   UNL A   1      29.903  29.935  21.242  1.00  0.00    -0.246 OA
BRANCH  28  30
ATOM     30  O   UNL A   1      29.614  30.450  23.469  1.00  0.00    -0.462 OA
BRANCH  30  31
ATOM     31  C   UNL A   1      28.809  31.618  23.240  1.00  0.00     0.230 C 
ATOM     32  C   UNL A   1      27.399  31.452  23.782  1.00  0.00     0.049 C 
ENDBRANCH  30  31
ENDBRANCH  28  30
ENDBRANCH  23  28
ENDBRANCH  20  22
ENDBRANCH  12  20
ENDBRANCH   6  11
ENDBRANCH   1   5
BRANCH   3  33
ATOM     33  C   UNL A   1      34.746  31.295  28.088  1.00  0.00     0.118 C 
BRANCH  33  34
ATOM     34  C   UNL A   1      35.712  32.479  28.018  1.00  0.00     0.042 C 
BRANCH  34  35
ATOM     35  C   UNL A   1      36.477  32.720  29.316  1.00  0.00     0.118 C 
BRANCH  35  36
ATOM     36  N   UNL A   1      36.137  31.744  30.338  1.00  0.00    -0.352 N 
ATOM     37  C   UNL A   1      36.760  30.568  30.674  1.00  0.00     0.251 C 
ATOM     38  H   UNL A   1      35.337  31.959  30.871  1.00  0.00     0.163 HD
ATOM     39  O   UNL A   1      36.186  29.779  31.420  1.00  0.00    -0.269 OA
BRANCH  37  40
ATOM     40  C   UNL A   1      38.103  30.240  30.141  1.00  0.00     0.039 A 
ATOM     41  C   UNL A   1      39.177  30.160  31.034  1.00  0.00     0.014 A 
ATOM     42  C   UNL A   1      38.322  30.069  28.771  1.00  0.00     0.014 A 
ATOM     43  C   UNL A   1      40.457  29.866  30.560  1.00  0.00     0.010 A 
ATOM     44  C   UNL A   1      39.588  29.717  28.307  1.00  0.00     0.010 A 
ATOM     45  C   UNL A   1      40.670  29.619  29.195  1.00  0.00    -0.014 A 
BRANCH  45  46
ATOM     46  C   UNL A   1      42.017  29.267  28.678  1.00  0.00     0.031 A 
ATOM     47  C   UNL A   1      42.310  27.862  28.224  1.00  0.00     0.074 A 
ATOM     48  C   UNL A   1      42.992  30.196  28.673  1.00  0.00     0.049 A 
ATOM     49  N   UNL A   1      43.442  27.345  27.818  1.00  0.00    -0.248 NA
ATOM     50  C   UNL A   1      41.189  26.908  28.252  1.00  0.00     0.031 C 
ATOM     51  C   UNL A   1      42.842  31.580  29.130  1.00  0.00     0.029 A 
ATOM     52  N   UNL A   1      44.306  30.115  28.287  1.00  0.00    -0.354 N 
ATOM     53  C   UNL A   1      43.176  26.005  27.562  1.00  0.00     0.074 A 
ATOM     54  C   UNL A   1      41.785  25.780  27.896  1.00  0.00     0.031 C 
ATOM     55  C   UNL A   1      44.014  32.219  28.987  1.00  0.00     0.029 A 
ATOM     56  C   UNL A   1      45.005  31.287  28.460  1.00  0.00     0.049 A 
ATOM     57  H   UNL A   1      44.710  29.295  27.921  1.00  0.00     0.167 HD
ATOM     58  C   UNL A   1      44.010  25.053  27.078  1.00  0.00     0.037 A 
ATOM     59  C   UNL A   1      46.301  31.574  28.228  1.00  0.00     0.037 A 
ATOM     60  C   UNL A   1      45.383  25.290  26.718  1.00  0.00     0.049 A 
ATOM     61  C   UNL A   1      47.202  30.508  27.669  1.00  0.00     0.074 A 
ATOM     62  C   UNL A   1      46.294  24.407  26.164  1.00  0.00     0.029 A 
ATOM     63  N   UNL A   1      46.045  26.499  26.873  1.00  0.00    -0.354 N 
ATOM     64  N   UNL A   1      46.920  29.258  27.385  1.00  0.00    -0.248 NA
ATOM     65  C   UNL A   1      48.593  30.890  27.392  1.00  0.00     0.031 C 
ATOM     66  C   UNL A   1      47.514  25.074  26.013  1.00  0.00     0.029 A 
ATOM     67  C   UNL A   1      47.354  26.383  26.437  1.00  0.00     0.049 A 
ATOM     68  H   UNL A   1      45.643  27.320  27.239  1.00  0.00     0.167 HD
ATOM     69  C   UNL A   1      48.092  28.711  26.876  1.00  0.00     0.074 A 
ATOM     70  C   UNL A   1      49.083  29.768  26.882  1.00  0.00     0.031 C 
ATOM     71  C   UNL A   1      48.326  27.447  26.445  1.00  0.00     0.037 A 
BRANCH  58  72
ATOM     72  C   UNL A   1      43.456  23.666  26.903  1.00  0.00     0.058 A 
ATOM     73  C   UNL A   1      43.100  23.171  25.638  1.00  0.00     0.135 A 
ATOM     74  C   UNL A   1      43.306  22.810  28.006  1.00  0.00     0.135 A 
ATOM     75  F   UNL A   1      43.208  23.952  24.552  1.00  0.00    -0.206 F 
ATOM     76  C   UNL A   1      42.587  21.888  25.478  1.00  0.00     0.059 A 
ATOM     77  C   UNL A   1      42.819  21.514  27.866  1.00  0.00     0.059 A 
ATOM     78  F   UNL A   1      43.632  23.233  29.238  1.00  0.00    -0.206 F 
ATOM     79  C   UNL A   1      42.446  21.068  26.598  1.00  0.00     0.060 A 
BRANCH  79  80
ATOM     80  S   UNL A   1      41.779  19.405  26.375  1.00  0.00     0.124 S 
ATOM     81  O   UNL A   1      42.474  18.975  25.164  1.00  0.00    -0.237 OA
ATOM     82  O   UNL A   1      42.182  18.735  27.607  1.00  0.00    -0.237 OA
ATOM     83  O   UNL A   1      40.345  19.632  26.228  1.00  0.00    -0.744 OA
ENDBRANCH  79  80
ENDBRANCH  58  72
BRANCH  59  84
ATOM     84  C   UNL A   1      46.814  32.941  28.504  1.00  0.00     0.058 A 
ATOM     85  C   UNL A   1      47.330  33.275  29.764  1.00  0.00     0.135 A 
ATOM     86  C   UNL A   1      46.818  33.930  27.510  1.00  0.00     0.135 A 
ATOM     87  F   UNL A   1      47.340  32.361  30.748  1.00  0.00    -0.206 F 
ATOM     88  C   UNL A   1      47.827  34.545  30.034  1.00  0.00     0.059 A 
ATOM     89  C   UNL A   1      47.330  35.202  27.749  1.00  0.00     0.059 A 
ATOM     90  F   UNL A   1      46.351  33.654  26.283  1.00  0.00    -0.206 F 
ATOM     91  C   UNL A   1      47.825  35.502  29.018  1.00  0.00     0.060 A 
BRANCH  91  92
ATOM     92  S   UNL A   1      48.527  37.132  29.358  1.00  0.00     0.124 S 
ATOM     93  O   UNL A   1      48.693  37.084  30.805  1.00  0.00    -0.237 OA
ATOM     94  O   UNL A   1      49.757  37.108  28.572  1.00  0.00    -0.237 OA
ATOM     95  O   UNL A   1      47.500  38.046  28.867  1.00  0.00    -0.744 OA
ENDBRANCH  91  92
ENDBRANCH  59  84
BRANCH  71  96
ATOM     96  C   UNL A   1      49.699  27.144  25.916  1.00  0.00     0.058 A 
ATOM     97  C   UNL A   1      50.720  26.668  26.753  1.00  0.00     0.135 A 
ATOM     98  C   UNL A   1      49.981  27.283  24.547  1.00  0.00     0.135 A 
ATOM     99  F   UNL A   1      50.502  26.525  28.070  1.00  0.00    -0.206 F 
ATOM    100  C   UNL A   1      51.981  26.359  26.255  1.00  0.00     0.059 A 
ATOM    101  C   UNL A   1      51.228  26.958  24.024  1.00  0.00     0.059 A 
ATOM    102  F   UNL A   1      49.035  27.725  23.704  1.00  0.00    -0.206 F 
ATOM    103  C   UNL A   1      52.225  26.507  24.888  1.00  0.00     0.060 A 
BRANCH 103 104
ATOM    104  S   UNL A   1      53.855  26.070  24.245  1.00  0.00     0.124 S 
ATOM    105  O   UNL A   1      54.691  27.111  24.832  1.00  0.00    -0.237 OA
ATOM    106  O   UNL A   1      54.052  24.724  24.776  1.00  0.00    -0.237 OA
ATOM    107  O   UNL A   1      53.679  26.144  22.798  1.00  0.00    -0.744 OA
ENDBRANCH 103 104
ENDBRANCH  71  96
ENDBRANCH  45  46
ENDBRANCH  37  40
ENDBRANCH  35  36
ENDBRANCH  34  35
ENDBRANCH  33  34
ENDBRANCH   3  33
TORSDOF 19
ENDMDL
MODEL 2
REMARK VINA RESULT:     -12.4      4.898      9.907
REMARK SMILES CCOC(=O)c1cccc(Nc2c(-c3ccc(C(=O)NCCCNC(=O)c4ccc(-c5c6nc(c(-c7c(F)cc(S(=O)(=O)[O-])cc7F)c7ccc([nH]7)c(-c7c(F)cc(S(=O)(=O)[O-])cc7F)c7nc(c(-c8c(F)cc(S(=O)(=O)[O-])cc8F)c8ccc5[nH]8)C=C7)C=C6)cc4)cc3)nc3cnccn23)c1
REMARK SMILES IDX 18 1 19 2 20 3 17 5 14 6 15 7 94 8 16 9 93 10 13 11 12 12
REMARK SMILES IDX 101 13 95 14 96 15 100 16 97 17 99 18 98 19 11 20 10 22 6 23
REMARK SMILES IDX 7 24 102 25 8 26 9 27 4 28 5 29 3 30 2 31 1 32 21 33 22 34
REMARK SMILES IDX 23 35 24 36 25 37 26 39 27 40 28 41 92 42 29 43 91 44 30 45
REMARK SMILES IDX 31 46 32 47 85 48 33 49 90 50 84 51 86 52 34 53 89 54 83 55
REMARK SMILES IDX 82 56 35 58 69 59 48 60 68 61 49 62 52 63 67 64 87 65 50 66
REMARK SMILES IDX 51 67 66 69 88 70 53 71 36 72 37 73 46 74 38 75 39 76 45 77
REMARK SMILES IDX 47 78 40 79 41 80 42 81 43 82 44 83 70 84 71 85 80 86 72 87
REMARK SMILES IDX 73 88 79 89 81 90 74 91 75 92 76 93 77 94 78 95 54 96 55 97
REMARK SMILES IDX 64 98 56 99 57 100 63 101 65 102 58 103 59 104 60 105 61 106
REMARK SMILES IDX 62 107
REMARK H PARENT 20 4 11 21 24 38 86 57 52 68
REMARK Flexibility Score: inf
ROOT
ATOM      1  C   UNL A   1      30.921  27.409  22.920  1.00  0.00     0.251 C 
ATOM      2  O   UNL A   1      30.297  27.819  21.941  1.00  0.00    -0.269 OA
ATOM      3  N   UNL A   1      31.175  28.293  23.937  1.00  0.00    -0.352 N 
ATOM      4  H   UNL A   1      30.898  29.219  23.741  1.00  0.00     0.163 HD
ENDROOT
BRANCH   1   5
ATOM      5  C   UNL A   1      31.324  25.977  22.968  1.00  0.00     0.039 A 
ATOM      6  C   UNL A   1      31.915  23.230  23.101  1.00  0.00     0.004 A 
ATOM      7  C   UNL A   1      30.724  23.718  23.647  1.00  0.00     0.011 A 
ATOM      8  C   UNL A   1      32.800  24.111  22.478  1.00  0.00     0.011 A 
ATOM      9  C   UNL A   1      30.434  25.083  23.583  1.00  0.00     0.014 A 
ATOM     10  C   UNL A   1      32.489  25.471  22.385  1.00  0.00     0.014 A 
BRANCH   6  11
ATOM     11  C   UNL A   1      32.226  21.821  23.133  1.00  0.00     0.114 A 
ATOM     12  C   UNL A   1      32.913  21.186  24.159  1.00  0.00     0.143 A 
ATOM     13  N   UNL A   1      32.908  19.857  23.796  1.00  0.00    -0.283 N 
ATOM     14  N   UNL A   1      31.867  20.945  22.134  1.00  0.00    -0.225 NA
ATOM     15  C   UNL A   1      32.311  19.785  22.562  1.00  0.00     0.157 A 
ATOM     16  C   UNL A   1      33.343  18.698  24.418  1.00  0.00     0.115 A 
ATOM     17  C   UNL A   1      32.216  18.504  21.921  1.00  0.00     0.158 A 
ATOM     18  C   UNL A   1      33.202  17.532  23.762  1.00  0.00     0.129 A 
ATOM     19  N   UNL A   1      32.655  17.412  22.493  1.00  0.00    -0.259 NA
BRANCH  12  20
ATOM     20  N   UNL A   1      33.430  21.661  25.327  1.00  0.00    -0.339 N 
ATOM     21  H   UNL A   1      32.892  21.559  26.145  1.00  0.00     0.168 HD
BRANCH  20  22
ATOM     22  C   UNL A   1      34.697  22.292  25.437  1.00  0.00     0.040 A 
ATOM     23  C   UNL A   1      37.122  22.081  25.525  1.00  0.00     0.062 A 
ATOM     24  C   UNL A   1      37.246  23.455  25.747  1.00  0.00     0.016 A 
ATOM     25  C   UNL A   1      35.857  21.505  25.343  1.00  0.00     0.041 A 
ATOM     26  C   UNL A   1      36.108  24.253  25.781  1.00  0.00     0.003 A 
ATOM     27  C   UNL A   1      34.846  23.674  25.631  1.00  0.00     0.026 A 
BRANCH  23  28
ATOM     28  C   UNL A   1      38.349  21.257  25.587  1.00  0.00     0.338 C 
ATOM     29  O   UNL A   1      38.444  20.171  25.040  1.00  0.00    -0.246 OA
BRANCH  28  30
ATOM     30  O   UNL A   1      39.285  21.866  26.356  1.00  0.00    -0.462 OA
BRANCH  30  31
ATOM     31  C   UNL A   1      40.613  21.331  26.241  1.00  0.00     0.230 C 
ATOM     32  C   UNL A   1      40.861  20.207  27.234  1.00  0.00     0.049 C 
ENDBRANCH  30  31
ENDBRANCH  28  30
ENDBRANCH  23  28
ENDBRANCH  20  22
ENDBRANCH  12  20
ENDBRANCH   6  11
ENDBRANCH   1   5
BRANCH   3  33
ATOM     33  C   UNL A   1      31.775  28.118  25.247  1.00  0.00     0.118 C 
BRANCH  33  34
ATOM     34  C   UNL A   1      33.264  27.786  25.140  1.00  0.00     0.042 C 
BRANCH  34  35
ATOM     35  C   UNL A   1      34.097  28.336  26.294  1.00  0.00     0.118 C 
BRANCH  35  36
ATOM     36  N   UNL A   1      33.889  29.762  26.485  1.00  0.00    -0.352 N 
ATOM     37  C   UNL A   1      34.528  30.640  27.325  1.00  0.00     0.251 C 
ATOM     38  H   UNL A   1      33.182  30.160  25.927  1.00  0.00     0.163 HD
ATOM     39  O   UNL A   1      34.053  31.760  27.494  1.00  0.00    -0.269 OA
BRANCH  37  40
ATOM     40  C   UNL A   1      35.770  30.249  28.032  1.00  0.00     0.039 A 
ATOM     41  C   UNL A   1      36.996  30.436  27.385  1.00  0.00     0.014 A 
ATOM     42  C   UNL A   1      35.733  29.651  29.295  1.00  0.00     0.014 A 
ATOM     43  C   UNL A   1      38.183  30.064  28.020  1.00  0.00     0.010 A 
ATOM     44  C   UNL A   1      36.921  29.336  29.952  1.00  0.00     0.010 A 
ATOM     45  C   UNL A   1      38.158  29.532  29.319  1.00  0.00    -0.014 A 
BRANCH  45  46
ATOM     46  C   UNL A   1      39.412  29.168  30.026  1.00  0.00     0.031 A 
ATOM     47  C   UNL A   1      39.822  29.908  31.270  1.00  0.00     0.074 A 
ATOM     48  C   UNL A   1      40.210  28.212  29.514  1.00  0.00     0.049 A 
ATOM     49  N   UNL A   1      40.916  29.790  31.979  1.00  0.00    -0.248 NA
ATOM     50  C   UNL A   1      38.892  30.934  31.769  1.00  0.00     0.031 C 
ATOM     51  C   UNL A   1      39.942  27.453  28.290  1.00  0.00     0.029 A 
ATOM     52  N   UNL A   1      41.417  27.724  29.948  1.00  0.00    -0.354 N 
ATOM     53  C   UNL A   1      40.816  30.735  32.993  1.00  0.00     0.074 A 
ATOM     54  C   UNL A   1      39.572  31.446  32.785  1.00  0.00     0.031 C 
ATOM     55  C   UNL A   1      40.948  26.589  28.079  1.00  0.00     0.029 A 
ATOM     56  C   UNL A   1      41.946  26.753  29.131  1.00  0.00     0.049 A 
ATOM     57  H   UNL A   1      41.862  28.039  30.768  1.00  0.00     0.167 HD
ATOM     58  C   UNL A   1      41.673  30.977  34.014  1.00  0.00     0.037 A 
ATOM     59  C   UNL A   1      43.109  26.077  29.215  1.00  0.00     0.037 A 
ATOM     60  C   UNL A   1      42.893  30.245  34.234  1.00  0.00     0.049 A 
ATOM     61  C   UNL A   1      44.034  26.347  30.369  1.00  0.00     0.074 A 
ATOM     62  C   UNL A   1      43.800  30.374  35.271  1.00  0.00     0.029 A 
ATOM     63  N   UNL A   1      43.377  29.245  33.404  1.00  0.00    -0.354 N 
ATOM     64  N   UNL A   1      43.898  27.209  31.348  1.00  0.00    -0.248 NA
ATOM     65  C   UNL A   1      45.265  25.549  30.435  1.00  0.00     0.031 C 
ATOM     66  C   UNL A   1      44.847  29.473  35.052  1.00  0.00     0.029 A 
ATOM     67  C   UNL A   1      44.574  28.755  33.899  1.00  0.00     0.049 A 
ATOM     68  H   UNL A   1      42.934  28.927  32.584  1.00  0.00     0.167 HD
ATOM     69  C   UNL A   1      45.015  27.043  32.158  1.00  0.00     0.074 A 
ATOM     70  C   UNL A   1      45.811  25.990  31.561  1.00  0.00     0.031 C 
ATOM     71  C   UNL A   1      45.351  27.703  33.294  1.00  0.00     0.037 A 
BRANCH  58  72
ATOM     72  C   UNL A   1      41.317  32.077  34.975  1.00  0.00     0.058 A 
ATOM     73  C   UNL A   1      41.852  33.368  34.845  1.00  0.00     0.135 A 
ATOM     74  C   UNL A   1      40.408  31.847  36.021  1.00  0.00     0.135 A 
ATOM     75  F   UNL A   1      42.737  33.638  33.873  1.00  0.00    -0.206 F 
ATOM     76  C   UNL A   1      41.522  34.385  35.736  1.00  0.00     0.059 A 
ATOM     77  C   UNL A   1      40.045  32.856  36.908  1.00  0.00     0.059 A 
ATOM     78  F   UNL A   1      39.866  30.631  36.190  1.00  0.00    -0.206 F 
ATOM     79  C   UNL A   1      40.621  34.118  36.766  1.00  0.00     0.060 A 
BRANCH  79  80
ATOM     80  S   UNL A   1      40.202  35.448  37.915  1.00  0.00     0.124 S 
ATOM     81  O   UNL A   1      39.087  34.855  38.648  1.00  0.00    -0.237 OA
ATOM     82  O   UNL A   1      41.440  35.614  38.669  1.00  0.00    -0.237 OA
ATOM     83  O   UNL A   1      39.855  36.558  37.035  1.00  0.00    -0.744 OA
ENDBRANCH  79  80
ENDBRANCH  58  72
BRANCH  59  84
ATOM     84  C   UNL A   1      43.448  25.063  28.183  1.00  0.00     0.058 A 
ATOM     85  C   UNL A   1      44.063  25.438  26.980  1.00  0.00     0.135 A 
ATOM     86  C   UNL A   1      43.187  23.701  28.390  1.00  0.00     0.135 A 
ATOM     87  F   UNL A   1      44.326  26.732  26.737  1.00  0.00    -0.206 F 
ATOM     88  C   UNL A   1      44.400  24.499  26.011  1.00  0.00     0.059 A 
ATOM     89  C   UNL A   1      43.534  22.740  27.445  1.00  0.00     0.059 A 
ATOM     90  F   UNL A   1      42.616  23.290  29.533  1.00  0.00    -0.206 F 
ATOM     91  C   UNL A   1      44.133  23.151  26.255  1.00  0.00     0.060 A 
BRANCH  91  92
ATOM     92  S   UNL A   1      44.628  21.930  25.018  1.00  0.00     0.124 S 
ATOM     93  O   UNL A   1      46.079  21.935  25.166  1.00  0.00    -0.237 OA
ATOM     94  O   UNL A   1      43.943  20.727  25.479  1.00  0.00    -0.237 OA
ATOM     95  O   UNL A   1      44.116  22.492  23.772  1.00  0.00    -0.744 OA
ENDBRANCH  91  92
ENDBRANCH  59  84
BRANCH  71  96
ATOM     96  C   UNL A   1      46.621  27.288  33.981  1.00  0.00     0.058 A 
ATOM     97  C   UNL A   1      47.849  27.898  33.685  1.00  0.00     0.135 A 
ATOM     98  C   UNL A   1      46.598  26.304  34.983  1.00  0.00     0.135 A 
ATOM     99  F   UNL A   1      47.924  28.839  32.731  1.00  0.00    -0.206 F 
ATOM    100  C   UNL A   1      49.017  27.533  34.345  1.00  0.00     0.059 A 
ATOM    101  C   UNL A   1      47.750  25.939  35.672  1.00  0.00     0.059 A 
ATOM    102  F   UNL A   1      45.446  25.697  35.309  1.00  0.00    -0.206 F 
ATOM    103  C   UNL A   1      48.958  26.552  35.338  1.00  0.00     0.060 A 
BRANCH 103 104
ATOM    104  S   UNL A   1      50.473  26.109  36.213  1.00  0.00     0.124 S 
ATOM    105  O   UNL A   1      51.480  26.308  35.176  1.00  0.00    -0.237 OA
ATOM    106  O   UNL A   1      50.496  27.071  37.311  1.00  0.00    -0.237 OA
ATOM    107  O   UNL A   1      50.243  24.723  36.610  1.00  0.00    -0.744 OA
ENDBRANCH 103 104
ENDBRANCH  71  96
ENDBRANCH  45  46
ENDBRANCH  37  40
ENDBRANCH  35  36
ENDBRANCH  34  35
ENDBRANCH  33  34
ENDBRANCH   3  33
TORSDOF 19
ENDMDL
MODEL 3
REMARK VINA RESULT:     -12.0      2.811      8.909
REMARK SMILES CCOC(=O)c1cccc(Nc2c(-c3ccc(C(=O)NCCCNC(=O)c4ccc(-c5c6nc(c(-c7c(F)cc(S(=O)(=O)[O-])cc7F)c7ccc([nH]7)c(-c7c(F)cc(S(=O)(=O)[O-])cc7F)c7nc(c(-c8c(F)cc(S(=O)(=O)[O-])cc8F)c8ccc5[nH]8)C=C7)C=C6)cc4)cc3)nc3cnccn23)c1
REMARK SMILES IDX 18 1 19 2 20 3 17 5 14 6 15 7 94 8 16 9 93 10 13 11 12 12
REMARK SMILES IDX 101 13 95 14 96 15 100 16 97 17 99 18 98 19 11 20 10 22 6 23
REMARK SMILES IDX 7 24 102 25 8 26 9 27 4 28 5 29 3 30 2 31 1 32 21 33 22 34
REMARK SMILES IDX 23 35 24 36 25 37 26 39 27 40 28 41 92 42 29 43 91 44 30 45
REMARK SMILES IDX 31 46 32 47 85 48 33 49 90 50 84 51 86 52 34 53 89 54 83 55
REMARK SMILES IDX 82 56 35 58 69 59 48 60 68 61 49 62 52 63 67 64 87 65 50 66
REMARK SMILES IDX 51 67 66 69 88 70 53 71 36 72 37 73 46 74 38 75 39 76 45 77
REMARK SMILES IDX 47 78 40 79 41 80 42 81 43 82 44 83 70 84 71 85 80 86 72 87
REMARK SMILES IDX 73 88 79 89 81 90 74 91 75 92 76 93 77 94 78 95 54 96 55 97
REMARK SMILES IDX 64 98 56 99 57 100 63 101 65 102 58 103 59 104 60 105 61 106
REMARK SMILES IDX 62 107
REMARK H PARENT 20 4 11 21 24 38 86 57 52 68
REMARK Flexibility Score: inf
ROOT
ATOM      1  C   UNL A   1      37.717  23.596  25.477  1.00  0.00     0.251 C 
ATOM      2  O   UNL A   1      38.477  24.373  26.057  1.00  0.00    -0.269 OA
ATOM      3  N   UNL A   1      38.172  22.330  25.214  1.00  0.00    -0.352 N 
ATOM      4  H   UNL A   1      39.119  22.187  25.446  1.00  0.00     0.163 HD
ENDROOT
BRANCH   1   5
ATOM      5  C   UNL A   1      36.343  24.054  25.135  1.00  0.00     0.039 A 
ATOM      6  C   UNL A   1      33.759  25.041  24.624  1.00  0.00     0.004 A 
ATOM      7  C   UNL A   1      34.396  25.339  25.833  1.00  0.00     0.011 A 
ATOM      8  C   UNL A   1      34.418  24.265  23.670  1.00  0.00     0.011 A 
ATOM      9  C   UNL A   1      35.679  24.846  26.086  1.00  0.00     0.014 A 
ATOM     10  C   UNL A   1      35.714  23.802  23.913  1.00  0.00     0.014 A 
BRANCH   6  11
ATOM     11  C   UNL A   1      32.444  25.560  24.329  1.00  0.00     0.114 A 
ATOM     12  C   UNL A   1      31.256  25.016  24.801  1.00  0.00     0.143 A 
ATOM     13  N   UNL A   1      30.284  25.872  24.330  1.00  0.00    -0.283 N 
ATOM     14  N   UNL A   1      32.228  26.664  23.539  1.00  0.00    -0.225 NA
ATOM     15  C   UNL A   1      30.922  26.806  23.550  1.00  0.00     0.157 A 
ATOM     16  C   UNL A   1      28.914  25.950  24.513  1.00  0.00     0.115 A 
ATOM     17  C   UNL A   1      30.128  27.802  22.889  1.00  0.00     0.158 A 
ATOM     18  C   UNL A   1      28.240  26.925  23.876  1.00  0.00     0.129 A 
ATOM     19  N   UNL A   1      28.829  27.858  23.036  1.00  0.00    -0.259 NA
BRANCH  12  20
ATOM     20  N   UNL A   1      31.012  23.949  25.611  1.00  0.00    -0.339 N 
ATOM     21  H   UNL A   1      30.217  23.983  26.192  1.00  0.00     0.168 HD
BRANCH  20  22
ATOM     22  C   UNL A   1      31.830  22.791  25.669  1.00  0.00     0.040 A 
ATOM     23  C   UNL A   1      32.554  20.704  24.641  1.00  0.00     0.062 A 
ATOM     24  C   UNL A   1      33.350  20.418  25.752  1.00  0.00     0.016 A 
ATOM     25  C   UNL A   1      31.819  21.897  24.585  1.00  0.00     0.041 A 
ATOM     26  C   UNL A   1      33.417  21.325  26.805  1.00  0.00     0.003 A 
ATOM     27  C   UNL A   1      32.660  22.497  26.763  1.00  0.00     0.026 A 
BRANCH  23  28
ATOM     28  C   UNL A   1      32.442  19.673  23.586  1.00  0.00     0.338 C 
ATOM     29  O   UNL A   1      32.153  19.937  22.431  1.00  0.00    -0.246 OA
BRANCH  28  30
ATOM     30  O   UNL A   1      32.659  18.442  24.109  1.00  0.00    -0.462 OA
BRANCH  30  31
ATOM     31  C   UNL A   1      32.917  17.405  23.148  1.00  0.00     0.230 C 
ATOM     32  C   UNL A   1      34.154  16.596  23.504  1.00  0.00     0.049 C 
ENDBRANCH  30  31
ENDBRANCH  28  30
ENDBRANCH  23  28
ENDBRANCH  20  22
ENDBRANCH  12  20
ENDBRANCH   6  11
ENDBRANCH   1   5
BRANCH   3  33
ATOM     33  C   UNL A   1      37.515  21.161  24.656  1.00  0.00     0.118 C 
BRANCH  33  34
ATOM     34  C   UNL A   1      38.269  19.877  25.004  1.00  0.00     0.042 C 
BRANCH  34  35
ATOM     35  C   UNL A   1      39.227  20.030  26.182  1.00  0.00     0.118 C 
BRANCH  35  36
ATOM     36  N   UNL A   1      40.345  19.105  26.099  1.00  0.00    -0.352 N 
ATOM     37  C   UNL A   1      41.693  19.357  26.037  1.00  0.00     0.251 C 
ATOM     38  H   UNL A   1      40.098  18.152  26.086  1.00  0.00     0.163 HD
ATOM     39  O   UNL A   1      42.460  18.442  25.749  1.00  0.00    -0.269 OA
BRANCH  37  40
ATOM     40  C   UNL A   1      42.226  20.714  26.302  1.00  0.00     0.039 A 
ATOM     41  C   UNL A   1      42.401  21.118  27.629  1.00  0.00     0.014 A 
ATOM     42  C   UNL A   1      42.498  21.606  25.260  1.00  0.00     0.014 A 
ATOM     43  C   UNL A   1      42.890  22.396  27.911  1.00  0.00     0.010 A 
ATOM     44  C   UNL A   1      43.042  22.859  25.540  1.00  0.00     0.010 A 
ATOM     45  C   UNL A   1      43.236  23.270  26.868  1.00  0.00    -0.014 A 
BRANCH  45  46
ATOM     46  C   UNL A   1      43.793  24.618  27.147  1.00  0.00     0.031 A 
ATOM     47  C   UNL A   1      42.885  25.740  27.571  1.00  0.00     0.074 A 
ATOM     48  C   UNL A   1      45.107  24.846  26.959  1.00  0.00     0.049 A 
ATOM     49  N   UNL A   1      43.170  27.000  27.781  1.00  0.00    -0.248 NA
ATOM     50  C   UNL A   1      41.463  25.407  27.761  1.00  0.00     0.031 C 
ATOM     51  C   UNL A   1      46.082  23.850  26.508  1.00  0.00     0.029 A 
ATOM     52  N   UNL A   1      45.848  25.991  27.108  1.00  0.00    -0.354 N 
ATOM     53  C   UNL A   1      41.966  27.612  28.108  1.00  0.00     0.074 A 
ATOM     54  C   UNL A   1      40.940  26.594  28.030  1.00  0.00     0.031 C 
ATOM     55  C   UNL A   1      47.292  24.425  26.428  1.00  0.00     0.029 A 
ATOM     56  C   UNL A   1      47.177  25.833  26.791  1.00  0.00     0.049 A 
ATOM     57  H   UNL A   1      45.465  26.844  27.415  1.00  0.00     0.167 HD
ATOM     58  C   UNL A   1      41.740  28.902  28.457  1.00  0.00     0.037 A 
ATOM     59  C   UNL A   1      48.187  26.726  26.784  1.00  0.00     0.037 A 
ATOM     60  C   UNL A   1      42.769  29.903  28.564  1.00  0.00     0.049 A 
ATOM     61  C   UNL A   1      47.915  28.146  27.196  1.00  0.00     0.074 A 
ATOM     62  C   UNL A   1      42.650  31.222  28.966  1.00  0.00     0.029 A 
ATOM     63  N   UNL A   1      44.108  29.695  28.268  1.00  0.00    -0.354 N 
ATOM     64  N   UNL A   1      46.778  28.696  27.552  1.00  0.00    -0.248 NA
ATOM     65  C   UNL A   1      49.061  29.064  27.215  1.00  0.00     0.031 C 
ATOM     66  C   UNL A   1      43.912  31.819  28.885  1.00  0.00     0.029 A 
ATOM     67  C   UNL A   1      44.825  30.864  28.468  1.00  0.00     0.049 A 
ATOM     68  H   UNL A   1      44.494  28.842  27.962  1.00  0.00     0.167 HD
ATOM     69  C   UNL A   1      47.076  30.019  27.857  1.00  0.00     0.074 A 
ATOM     70  C   UNL A   1      48.502  30.183  27.654  1.00  0.00     0.031 C 
ATOM     71  C   UNL A   1      46.244  31.008  28.266  1.00  0.00     0.037 A 
BRANCH  58  72
ATOM     72  C   UNL A   1      40.321  29.302  28.756  1.00  0.00     0.058 A 
ATOM     73  C   UNL A   1      39.376  29.476  27.733  1.00  0.00     0.135 A 
ATOM     74  C   UNL A   1      39.893  29.486  30.081  1.00  0.00     0.135 A 
ATOM     75  F   UNL A   1      39.735  29.328  26.448  1.00  0.00    -0.206 F 
ATOM     76  C   UNL A   1      38.064  29.846  28.010  1.00  0.00     0.059 A 
ATOM     77  C   UNL A   1      38.579  29.832  30.383  1.00  0.00     0.059 A 
ATOM     78  F   UNL A   1      40.756  29.332  31.097  1.00  0.00    -0.206 F 
ATOM     79  C   UNL A   1      37.676  30.026  29.338  1.00  0.00     0.060 A 
BRANCH  79  80
ATOM     80  S   UNL A   1      35.970  30.508  29.683  1.00  0.00     0.124 S 
ATOM     81  O   UNL A   1      35.842  30.131  31.089  1.00  0.00    -0.237 OA
ATOM     82  O   UNL A   1      35.986  31.941  29.411  1.00  0.00    -0.237 OA
ATOM     83  O   UNL A   1      35.195  29.703  28.745  1.00  0.00    -0.744 OA
ENDBRANCH  79  80
ENDBRANCH  58  72
BRANCH  59  84
ATOM     84  C   UNL A   1      49.552  26.291  26.392  1.00  0.00     0.058 A 
ATOM     85  C   UNL A   1      50.386  25.629  27.304  1.00  0.00     0.135 A 
ATOM     86  C   UNL A   1      50.039  26.506  25.095  1.00  0.00     0.135 A 
ATOM     87  F   UNL A   1      49.964  25.407  28.559  1.00  0.00    -0.206 F 
ATOM     88  C   UNL A   1      51.661  25.202  26.949  1.00  0.00     0.059 A 
ATOM     89  C   UNL A   1      51.302  26.069  24.708  1.00  0.00     0.059 A 
ATOM     90  F   UNL A   1      49.272  27.119  24.180  1.00  0.00    -0.206 F 
ATOM     91  C   UNL A   1      52.109  25.425  25.645  1.00  0.00     0.060 A 
BRANCH  91  92
ATOM     92  S   UNL A   1      53.742  24.814  25.172  1.00  0.00     0.124 S 
ATOM     93  O   UNL A   1      53.994  25.567  23.949  1.00  0.00    -0.237 OA
ATOM     94  O   UNL A   1      54.556  25.181  26.327  1.00  0.00    -0.237 OA
ATOM     95  O   UNL A   1      53.525  23.381  25.001  1.00  0.00    -0.744 OA
ENDBRANCH  91  92
ENDBRANCH  59  84
BRANCH  71  96
ATOM     96  C   UNL A   1      46.858  32.350  28.550  1.00  0.00     0.058 A 
ATOM     97  C   UNL A   1      46.948  33.340  27.560  1.00  0.00     0.135 A 
ATOM     98  C   UNL A   1      47.314  32.665  29.841  1.00  0.00     0.135 A 
ATOM     99  F   UNL A   1      46.532  33.085  26.310  1.00  0.00    -0.206 F 
ATOM    100  C   UNL A   1      47.488  34.591  27.834  1.00  0.00     0.059 A 
ATOM    101  C   UNL A   1      47.837  33.918  30.143  1.00  0.00     0.059 A 
ATOM    102  F   UNL A   1      47.240  31.754  30.824  1.00  0.00    -0.206 F 
ATOM    103  C   UNL A   1      47.930  34.871  29.130  1.00  0.00     0.060 A 
BRANCH 103 104
ATOM    104  S   UNL A   1      48.597  36.511  29.484  1.00  0.00     0.124 S 
ATOM    105  O   UNL A   1      48.785  37.048  28.140  1.00  0.00    -0.237 OA
ATOM    106  O   UNL A   1      47.529  37.124  30.268  1.00  0.00    -0.237 OA
ATOM    107  O   UNL A   1      49.822  36.225  30.225  1.00  0.00    -0.744 OA
ENDBRANCH 103 104
ENDBRANCH  71  96
ENDBRANCH  45  46
ENDBRANCH  37  40
ENDBRANCH  35  36
ENDBRANCH  34  35
ENDBRANCH  33  34
ENDBRANCH   3  33
TORSDOF 19
ENDMDL
