MODEL 1
REMARK VINA RESULT:     -11.8      0.000      0.000
REMARK SMILES C[C@@H](C(=O)NCCCNC(=O)c1ccc(-c2c3nc(c(-c4c(F)cc(S(=O)(=O)[O-])cc4F)c4ccc([nH]4)c(-c4c(F)cc(S(=O)(=O)[O-])cc4F)c4nc(c(-c5c(F)cc(S(=O)(=O)[O-])cc5F)c5ccc2[nH]5)C=C4)C=C3)cc1)c1ccc(C[C@H]2CCCC2=O)cc1Br
REMARK SMILES IDX 7 1 6 2 5 3 3 4 4 5 2 7 1 8 78 9 79 10 90 11 80 12 89 13
REMARK SMILES IDX 91 14 81 15 82 16 83 17 84 18 87 19 85 20 86 21 88 22 8 23
REMARK SMILES IDX 9 24 10 25 11 27 12 28 13 29 77 30 14 31 76 32 15 33 16 34
REMARK SMILES IDX 17 35 70 36 18 37 75 38 69 39 71 40 19 41 74 42 68 43 67 44
REMARK SMILES IDX 20 46 54 47 33 48 53 49 34 50 37 51 52 52 72 53 35 54 36 55
REMARK SMILES IDX 51 57 73 58 38 59 21 60 22 61 31 62 23 63 24 64 30 65 32 66
REMARK SMILES IDX 25 67 26 68 27 69 28 70 29 71 55 72 56 73 65 74 57 75 58 76
REMARK SMILES IDX 64 77 66 78 59 79 60 80 61 81 62 82 63 83 39 84 40 85 49 86
REMARK SMILES IDX 41 87 42 88 48 89 50 90 43 91 44 92 45 93 46 94 47 95
REMARK H PARENT 5 6 9 26 71 45 37 56
REMARK Flexibility Score: inf
ROOT
ATOM      1  C   UNL A   1      33.100  27.737  26.851  1.00  0.00     0.042 C 
ENDROOT
BRANCH   1   2
ATOM      2  C   UNL A   1      31.878  27.278  26.060  1.00  0.00     0.117 C 
BRANCH   2   3
ATOM      3  N   UNL A   1      31.313  26.067  26.618  1.00  0.00    -0.356 N 
ATOM      4  C   UNL A   1      31.101  24.849  26.041  1.00  0.00     0.227 C 
ATOM      5  O   UNL A   1      30.528  24.003  26.731  1.00  0.00    -0.274 OA
ATOM      6  H   UNL A   1      31.038  26.132  27.561  1.00  0.00     0.163 HD
BRANCH   4   7
ATOM      7  C   UNL A   1      31.601  24.572  24.612  1.00  0.00     0.106 C 
ATOM      8  C   UNL A   1      30.461  24.570  23.585  1.00  0.00     0.023 C 
BRANCH   7   9
ATOM      9  C   UNL A   1      32.388  23.263  24.552  1.00  0.00    -0.022 A 
ATOM     10  C   UNL A   1      31.702  22.076  24.227  1.00  0.00     0.006 A 
ATOM     11  C   UNL A   1      33.754  23.163  24.858  1.00  0.00     0.022 A 
ATOM     12  C   UNL A   1      32.352  20.845  24.189  1.00  0.00     0.004 A 
ATOM     13  C   UNL A   1      34.402  21.918  24.843  1.00  0.00     0.019 A 
ATOM     14  Br  UNL A   1      34.823  24.666  25.325  1.00  0.00    -0.051 Br
ATOM     15  C   UNL A   1      33.702  20.747  24.526  1.00  0.00    -0.046 A 
BRANCH  15  16
ATOM     16  C   UNL A   1      34.383  19.401  24.568  1.00  0.00     0.047 C 
BRANCH  16  17
ATOM     17  C   UNL A   1      33.527  18.194  24.164  1.00  0.00     0.060 C 
ATOM     18  C   UNL A   1      34.231  17.093  23.366  1.00  0.00     0.012 C 
ATOM     19  C   UNL A   1      32.989  17.428  25.350  1.00  0.00     0.136 C 
ATOM     20  C   UNL A   1      34.612  16.009  24.366  1.00  0.00     0.009 C 
ATOM     21  C   UNL A   1      33.524  16.023  25.431  1.00  0.00     0.076 C 
ATOM     22  O   UNL A   1      32.189  17.898  26.152  1.00  0.00    -0.299 OA
ENDBRANCH  16  17
ENDBRANCH  15  16
ENDBRANCH   7   9
ENDBRANCH   4   7
ENDBRANCH   2   3
ENDBRANCH   1   2
BRANCH   1  23
ATOM     23  C   UNL A   1      34.017  28.675  26.073  1.00  0.00     0.118 C 
BRANCH  23  24
ATOM     24  N   UNL A   1      33.816  30.072  26.431  1.00  0.00    -0.352 N 
ATOM     25  C   UNL A   1      34.475  30.837  27.362  1.00  0.00     0.251 C 
ATOM     26  H   UNL A   1      33.106  30.535  25.933  1.00  0.00     0.163 HD
ATOM     27  O   UNL A   1      34.030  31.939  27.670  1.00  0.00    -0.269 OA
BRANCH  25  28
ATOM     28  C   UNL A   1      35.705  30.324  28.001  1.00  0.00     0.039 A 
ATOM     29  C   UNL A   1      36.934  30.502  27.360  1.00  0.00     0.014 A 
ATOM     30  C   UNL A   1      35.644  29.661  29.230  1.00  0.00     0.014 A 
ATOM     31  C   UNL A   1      38.108  30.069  27.981  1.00  0.00     0.010 A 
ATOM     32  C   UNL A   1      36.817  29.309  29.883  1.00  0.00     0.010 A 
ATOM     33  C   UNL A   1      38.062  29.499  29.263  1.00  0.00    -0.014 A 
BRANCH  33  34
ATOM     34  C   UNL A   1      39.289  29.059  29.974  1.00  0.00     0.031 A 
ATOM     35  C   UNL A   1      39.746  29.806  31.197  1.00  0.00     0.074 A 
ATOM     36  C   UNL A   1      40.041  28.061  29.469  1.00  0.00     0.049 A 
ATOM     37  N   UNL A   1      40.859  29.690  31.872  1.00  0.00    -0.248 NA
ATOM     38  C   UNL A   1      38.840  30.849  31.707  1.00  0.00     0.031 C 
ATOM     39  C   UNL A   1      39.723  27.283  28.270  1.00  0.00     0.029 A 
ATOM     40  N   UNL A   1      41.244  27.547  29.888  1.00  0.00    -0.354 N 
ATOM     41  C   UNL A   1      40.801  30.659  32.866  1.00  0.00     0.074 A 
ATOM     42  C   UNL A   1      39.568  31.390  32.671  1.00  0.00     0.031 C 
ATOM     43  C   UNL A   1      40.700  26.388  28.055  1.00  0.00     0.029 A 
ATOM     44  C   UNL A   1      41.737  26.560  29.069  1.00  0.00     0.049 A 
ATOM     45  H   UNL A   1      41.709  27.858  30.697  1.00  0.00     0.167 HD
ATOM     46  C   UNL A   1      41.684  30.905  33.864  1.00  0.00     0.037 A 
ATOM     47  C   UNL A   1      42.902  25.883  29.115  1.00  0.00     0.037 A 
ATOM     48  C   UNL A   1      42.899  30.158  34.059  1.00  0.00     0.049 A 
ATOM     49  C   UNL A   1      43.877  26.176  30.224  1.00  0.00     0.074 A 
ATOM     50  C   UNL A   1      43.838  30.292  35.065  1.00  0.00     0.029 A 
ATOM     51  N   UNL A   1      43.345  29.139  33.228  1.00  0.00    -0.354 N 
ATOM     52  N   UNL A   1      43.786  27.063  31.187  1.00  0.00    -0.248 NA
ATOM     53  C   UNL A   1      45.107  25.374  30.260  1.00  0.00     0.031 C 
ATOM     54  C   UNL A   1      44.877  29.390  34.815  1.00  0.00     0.029 A 
ATOM     55  C   UNL A   1      44.555  28.650  33.687  1.00  0.00     0.049 A 
ATOM     56  H   UNL A   1      42.871  28.814  32.429  1.00  0.00     0.167 HD
ATOM     57  C   UNL A   1      44.928  26.902  31.963  1.00  0.00     0.074 A 
ATOM     58  C   UNL A   1      45.695  25.832  31.357  1.00  0.00     0.031 C 
ATOM     59  C   UNL A   1      45.301  27.572  33.082  1.00  0.00     0.037 A 
BRANCH  46  60
ATOM     60  C   UNL A   1      41.369  32.037  34.806  1.00  0.00     0.058 A 
ATOM     61  C   UNL A   1      40.601  31.842  35.968  1.00  0.00     0.135 A 
ATOM     62  C   UNL A   1      41.838  33.334  34.544  1.00  0.00     0.135 A 
ATOM     63  F   UNL A   1      40.115  30.627  36.262  1.00  0.00    -0.206 F 
ATOM     64  C   UNL A   1      40.268  32.902  36.806  1.00  0.00     0.059 A 
ATOM     65  C   UNL A   1      41.547  34.402  35.389  1.00  0.00     0.059 A 
ATOM     66  F   UNL A   1      42.578  33.578  33.453  1.00  0.00    -0.206 F 
ATOM     67  C   UNL A   1      40.740  34.180  36.504  1.00  0.00     0.060 A 
BRANCH  67  68
ATOM     68  S   UNL A   1      40.274  35.547  37.585  1.00  0.00     0.124 S 
ATOM     69  O   UNL A   1      41.440  35.636  38.460  1.00  0.00    -0.237 OA
ATOM     70  O   UNL A   1      40.104  36.648  36.643  1.00  0.00    -0.237 OA
ATOM     71  O   UNL A   1      39.048  35.075  38.221  1.00  0.00    -0.744 OA
ENDBRANCH  67  68
ENDBRANCH  46  60
BRANCH  47  72
ATOM     72  C   UNL A   1      43.192  24.850  28.085  1.00  0.00     0.058 A 
ATOM     73  C   UNL A   1      43.833  25.188  26.885  1.00  0.00     0.135 A 
ATOM     74  C   UNL A   1      42.878  23.498  28.299  1.00  0.00     0.135 A 
ATOM     75  F   UNL A   1      44.146  26.468  26.630  1.00  0.00    -0.206 F 
ATOM     76  C   UNL A   1      44.153  24.227  25.932  1.00  0.00     0.059 A 
ATOM     77  C   UNL A   1      43.211  22.514  27.374  1.00  0.00     0.059 A 
ATOM     78  F   UNL A   1      42.280  23.119  29.439  1.00  0.00    -0.206 F 
ATOM     79  C   UNL A   1      43.847  22.890  26.191  1.00  0.00     0.060 A 
BRANCH  79  80
ATOM     80  S   UNL A   1      44.340  21.641  24.982  1.00  0.00     0.124 S 
ATOM     81  O   UNL A   1      45.695  21.326  25.419  1.00  0.00    -0.237 OA
ATOM     82  O   UNL A   1      43.340  20.598  25.198  1.00  0.00    -0.237 OA
ATOM     83  O   UNL A   1      44.234  22.345  23.708  1.00  0.00    -0.744 OA
ENDBRANCH  79  80
ENDBRANCH  47  72
BRANCH  59  84
ATOM     84  C   UNL A   1      46.568  27.140  33.769  1.00  0.00     0.058 A 
ATOM     85  C   UNL A   1      47.803  27.756  33.512  1.00  0.00     0.135 A 
ATOM     86  C   UNL A   1      46.524  26.149  34.764  1.00  0.00     0.135 A 
ATOM     87  F   UNL A   1      47.902  28.702  32.566  1.00  0.00    -0.206 F 
ATOM     88  C   UNL A   1      48.952  27.397  34.210  1.00  0.00     0.059 A 
ATOM     89  C   UNL A   1      47.653  25.795  35.494  1.00  0.00     0.059 A 
ATOM     90  F   UNL A   1      45.367  25.535  35.055  1.00  0.00    -0.206 F 
ATOM     91  C   UNL A   1      48.864  26.420  35.206  1.00  0.00     0.060 A 
BRANCH  91  92
ATOM     92  S   UNL A   1      50.351  26.007  36.145  1.00  0.00     0.124 S 
ATOM     93  O   UNL A   1      51.241  25.532  35.092  1.00  0.00    -0.237 OA
ATOM     94  O   UNL A   1      50.706  27.289  36.746  1.00  0.00    -0.237 OA
ATOM     95  O   UNL A   1      49.888  24.989  37.083  1.00  0.00    -0.744 OA
ENDBRANCH  91  92
ENDBRANCH  59  84
ENDBRANCH  33  34
ENDBRANCH  25  28
ENDBRANCH  23  24
ENDBRANCH   1  23
TORSDOF 16
ENDMDL
MODEL 2
REMARK VINA RESULT:     -11.6      1.948      2.607
REMARK SMILES C[C@@H](C(=O)NCCCNC(=O)c1ccc(-c2c3nc(c(-c4c(F)cc(S(=O)(=O)[O-])cc4F)c4ccc([nH]4)c(-c4c(F)cc(S(=O)(=O)[O-])cc4F)c4nc(c(-c5c(F)cc(S(=O)(=O)[O-])cc5F)c5ccc2[nH]5)C=C4)C=C3)cc1)c1ccc(C[C@H]2CCCC2=O)cc1Br
REMARK SMILES IDX 7 1 6 2 5 3 3 4 4 5 2 7 1 8 78 9 79 10 90 11 80 12 89 13
REMARK SMILES IDX 91 14 81 15 82 16 83 17 84 18 87 19 85 20 86 21 88 22 8 23
REMARK SMILES IDX 9 24 10 25 11 27 12 28 13 29 77 30 14 31 76 32 15 33 16 34
REMARK SMILES IDX 17 35 70 36 18 37 75 38 69 39 71 40 19 41 74 42 68 43 67 44
REMARK SMILES IDX 20 46 54 47 33 48 53 49 34 50 37 51 52 52 72 53 35 54 36 55
REMARK SMILES IDX 51 57 73 58 38 59 21 60 22 61 31 62 23 63 24 64 30 65 32 66
REMARK SMILES IDX 25 67 26 68 27 69 28 70 29 71 55 72 56 73 65 74 57 75 58 76
REMARK SMILES IDX 64 77 66 78 59 79 60 80 61 81 62 82 63 83 39 84 40 85 49 86
REMARK SMILES IDX 41 87 42 88 48 89 50 90 43 91 44 92 45 93 46 94 47 95
REMARK H PARENT 5 6 9 26 71 45 37 56
REMARK Flexibility Score: inf
ROOT
ATOM      1  C   UNL A   1      33.085  27.686  26.887  1.00  0.00     0.042 C 
ENDROOT
BRANCH   1   2
ATOM      2  C   UNL A   1      31.689  28.041  26.386  1.00  0.00     0.117 C 
BRANCH   2   3
ATOM      3  N   UNL A   1      30.732  27.002  26.710  1.00  0.00    -0.356 N 
ATOM      4  C   UNL A   1      30.408  25.863  26.033  1.00  0.00     0.227 C 
ATOM      5  O   UNL A   1      29.492  25.183  26.502  1.00  0.00    -0.274 OA
ATOM      6  H   UNL A   1      30.238  27.140  27.550  1.00  0.00     0.163 HD
BRANCH   4   7
ATOM      7  C   UNL A   1      31.194  25.462  24.772  1.00  0.00     0.106 C 
ATOM      8  C   UNL A   1      30.359  24.606  23.810  1.00  0.00     0.023 C 
BRANCH   7   9
ATOM      9  C   UNL A   1      32.495  24.750  25.142  1.00  0.00    -0.022 A 
ATOM     10  C   UNL A   1      32.510  23.916  26.277  1.00  0.00     0.006 A 
ATOM     11  C   UNL A   1      33.701  24.922  24.444  1.00  0.00     0.022 A 
ATOM     12  C   UNL A   1      33.670  23.266  26.689  1.00  0.00     0.004 A 
ATOM     13  C   UNL A   1      34.875  24.286  24.875  1.00  0.00     0.019 A 
ATOM     14  Br  UNL A   1      33.854  26.021  22.899  1.00  0.00    -0.051 Br
ATOM     15  C   UNL A   1      34.873  23.466  26.010  1.00  0.00    -0.046 A 
BRANCH  15  16
ATOM     16  C   UNL A   1      36.146  22.829  26.510  1.00  0.00     0.047 C 
BRANCH  16  17
ATOM     17  C   UNL A   1      37.406  23.080  25.673  1.00  0.00     0.060 C 
ATOM     18  C   UNL A   1      38.407  24.095  26.231  1.00  0.00     0.012 C 
ATOM     19  C   UNL A   1      38.265  21.846  25.513  1.00  0.00     0.136 C 
ATOM     20  C   UNL A   1      39.494  23.291  26.935  1.00  0.00     0.009 C 
ATOM     21  C   UNL A   1      39.619  21.989  26.156  1.00  0.00     0.076 C 
ATOM     22  O   UNL A   1      37.901  20.842  24.911  1.00  0.00    -0.299 OA
ENDBRANCH  16  17
ENDBRANCH  15  16
ENDBRANCH   7   9
ENDBRANCH   4   7
ENDBRANCH   2   3
ENDBRANCH   1   2
BRANCH   1  23
ATOM     23  C   UNL A   1      34.183  28.589  26.334  1.00  0.00     0.118 C 
BRANCH  23  24
ATOM     24  N   UNL A   1      33.894  30.002  26.536  1.00  0.00    -0.352 N 
ATOM     25  C   UNL A   1      34.463  30.891  27.415  1.00  0.00     0.251 C 
ATOM     26  H   UNL A   1      33.190  30.374  25.959  1.00  0.00     0.163 HD
ATOM     27  O   UNL A   1      33.948  31.993  27.585  1.00  0.00    -0.269 OA
BRANCH  25  28
ATOM     28  C   UNL A   1      35.680  30.513  28.163  1.00  0.00     0.039 A 
ATOM     29  C   UNL A   1      35.561  29.719  29.307  1.00  0.00     0.014 A 
ATOM     30  C   UNL A   1      36.938  30.948  27.738  1.00  0.00     0.014 A 
ATOM     31  C   UNL A   1      36.709  29.311  29.989  1.00  0.00     0.010 A 
ATOM     32  C   UNL A   1      38.082  30.473  28.366  1.00  0.00     0.010 A 
ATOM     33  C   UNL A   1      37.981  29.658  29.505  1.00  0.00    -0.014 A 
BRANCH  33  34
ATOM     34  C   UNL A   1      39.228  29.215  30.179  1.00  0.00     0.031 A 
ATOM     35  C   UNL A   1      39.725  29.964  31.386  1.00  0.00     0.074 A 
ATOM     36  C   UNL A   1      39.959  28.212  29.656  1.00  0.00     0.049 A 
ATOM     37  N   UNL A   1      40.858  29.845  32.026  1.00  0.00    -0.248 NA
ATOM     38  C   UNL A   1      38.841  31.013  31.919  1.00  0.00     0.031 C 
ATOM     39  C   UNL A   1      39.600  27.431  28.470  1.00  0.00     0.029 A 
ATOM     40  N   UNL A   1      41.171  27.694  30.039  1.00  0.00    -0.354 N 
ATOM     41  C   UNL A   1      40.835  30.818  33.019  1.00  0.00     0.074 A 
ATOM     42  C   UNL A   1      39.600  31.554  32.859  1.00  0.00     0.031 C 
ATOM     43  C   UNL A   1      40.566  26.531  28.228  1.00  0.00     0.029 A 
ATOM     44  C   UNL A   1      41.635  26.701  29.209  1.00  0.00     0.049 A 
ATOM     45  H   UNL A   1      41.663  28.005  30.833  1.00  0.00     0.167 HD
ATOM     46  C   UNL A   1      41.750  31.063  33.988  1.00  0.00     0.037 A 
ATOM     47  C   UNL A   1      42.797  26.019  29.221  1.00  0.00     0.037 A 
ATOM     48  C   UNL A   1      42.966  30.311  34.148  1.00  0.00     0.049 A 
ATOM     49  C   UNL A   1      43.807  26.311  30.299  1.00  0.00     0.074 A 
ATOM     50  C   UNL A   1      43.936  30.443  35.124  1.00  0.00     0.029 A 
ATOM     51  N   UNL A   1      43.381  29.287  33.307  1.00  0.00    -0.354 N 
ATOM     52  N   UNL A   1      43.750  27.202  31.261  1.00  0.00    -0.248 NA
ATOM     53  C   UNL A   1      45.034  25.502  30.300  1.00  0.00     0.031 C 
ATOM     54  C   UNL A   1      44.964  29.536  34.845  1.00  0.00     0.029 A 
ATOM     55  C   UNL A   1      44.603  28.793  33.731  1.00  0.00     0.049 A 
ATOM     56  H   UNL A   1      42.882  28.961  32.524  1.00  0.00     0.167 HD
ATOM     57  C   UNL A   1      44.915  27.037  32.003  1.00  0.00     0.074 A 
ATOM     58  C   UNL A   1      45.658  25.962  31.377  1.00  0.00     0.031 C 
ATOM     59  C   UNL A   1      45.325  27.710  33.107  1.00  0.00     0.037 A 
BRANCH  46  60
ATOM     60  C   UNL A   1      41.469  32.199  34.935  1.00  0.00     0.058 A 
ATOM     61  C   UNL A   1      41.988  33.488  34.720  1.00  0.00     0.135 A 
ATOM     62  C   UNL A   1      40.672  31.999  36.074  1.00  0.00     0.135 A 
ATOM     63  F   UNL A   1      42.767  33.735  33.656  1.00  0.00    -0.206 F 
ATOM     64  C   UNL A   1      41.770  34.521  35.627  1.00  0.00     0.059 A 
ATOM     65  C   UNL A   1      40.411  33.028  36.974  1.00  0.00     0.059 A 
ATOM     66  F   UNL A   1      40.146  30.791  36.327  1.00  0.00    -0.206 F 
ATOM     67  C   UNL A   1      40.985  34.278  36.755  1.00  0.00     0.060 A 
BRANCH  67  68
ATOM     68  S   UNL A   1      40.737  35.621  37.935  1.00  0.00     0.124 S 
ATOM     69  O   UNL A   1      42.065  35.733  38.530  1.00  0.00    -0.237 OA
ATOM     70  O   UNL A   1      40.334  36.726  37.072  1.00  0.00    -0.237 OA
ATOM     71  O   UNL A   1      39.695  35.108  38.820  1.00  0.00    -0.744 OA
ENDBRANCH  67  68
ENDBRANCH  46  60
BRANCH  47  72
ATOM     72  C   UNL A   1      43.050  24.981  28.187  1.00  0.00     0.058 A 
ATOM     73  C   UNL A   1      43.575  25.325  26.933  1.00  0.00     0.135 A 
ATOM     74  C   UNL A   1      42.819  23.620  28.446  1.00  0.00     0.135 A 
ATOM     75  F   UNL A   1      43.806  26.613  26.634  1.00  0.00    -0.206 F 
ATOM     76  C   UNL A   1      43.861  24.361  25.972  1.00  0.00     0.059 A 
ATOM     77  C   UNL A   1      43.121  22.635  27.511  1.00  0.00     0.059 A 
ATOM     78  F   UNL A   1      42.333  23.236  29.637  1.00  0.00    -0.206 F 
ATOM     79  C   UNL A   1      43.640  23.017  26.275  1.00  0.00     0.060 A 
BRANCH  79  80
ATOM     80  S   UNL A   1      44.091  21.769  25.049  1.00  0.00     0.124 S 
ATOM     81  O   UNL A   1      45.465  21.464  25.430  1.00  0.00    -0.237 OA
ATOM     82  O   UNL A   1      43.108  20.721  25.306  1.00  0.00    -0.237 OA
ATOM     83  O   UNL A   1      43.928  22.471  23.779  1.00  0.00    -0.744 OA
ENDBRANCH  79  80
ENDBRANCH  47  72
BRANCH  59  84
ATOM     84  C   UNL A   1      46.610  27.274  33.756  1.00  0.00     0.058 A 
ATOM     85  C   UNL A   1      46.651  26.254  34.719  1.00  0.00     0.135 A 
ATOM     86  C   UNL A   1      47.832  27.832  33.341  1.00  0.00     0.135 A 
ATOM     87  F   UNL A   1      45.513  25.692  35.156  1.00  0.00    -0.206 F 
ATOM     88  C   UNL A   1      47.856  25.810  35.255  1.00  0.00     0.059 A 
ATOM     89  C   UNL A   1      49.049  27.384  33.841  1.00  0.00     0.059 A 
ATOM     90  F   UNL A   1      47.850  28.806  32.417  1.00  0.00    -0.206 F 
ATOM     91  C   UNL A   1      49.050  26.376  34.803  1.00  0.00     0.060 A 
BRANCH  91  92
ATOM     92  S   UNL A   1      50.610  25.748  35.463  1.00  0.00     0.124 S 
ATOM     93  O   UNL A   1      51.560  26.733  34.960  1.00  0.00    -0.237 OA
ATOM     94  O   UNL A   1      50.371  25.775  36.904  1.00  0.00    -0.237 OA
ATOM     95  O   UNL A   1      50.715  24.416  34.878  1.00  0.00    -0.744 OA
ENDBRANCH  91  92
ENDBRANCH  59  84
ENDBRANCH  33  34
ENDBRANCH  25  28
ENDBRANCH  23  24
ENDBRANCH   1  23
TORSDOF 16
ENDMDL
MODEL 3
REMARK VINA RESULT:     -11.4      3.481      9.665
REMARK SMILES C[C@@H](C(=O)NCCCNC(=O)c1ccc(-c2c3nc(c(-c4c(F)cc(S(=O)(=O)[O-])cc4F)c4ccc([nH]4)c(-c4c(F)cc(S(=O)(=O)[O-])cc4F)c4nc(c(-c5c(F)cc(S(=O)(=O)[O-])cc5F)c5ccc2[nH]5)C=C4)C=C3)cc1)c1ccc(C[C@H]2CCCC2=O)cc1Br
REMARK SMILES IDX 7 1 6 2 5 3 3 4 4 5 2 7 1 8 78 9 79 10 90 11 80 12 89 13
REMARK SMILES IDX 91 14 81 15 82 16 83 17 84 18 87 19 85 20 86 21 88 22 8 23
REMARK SMILES IDX 9 24 10 25 11 27 12 28 13 29 77 30 14 31 76 32 15 33 16 34
REMARK SMILES IDX 17 35 70 36 18 37 75 38 69 39 71 40 19 41 74 42 68 43 67 44
REMARK SMILES IDX 20 46 54 47 33 48 53 49 34 50 37 51 52 52 72 53 35 54 36 55
REMARK SMILES IDX 51 57 73 58 38 59 21 60 22 61 31 62 23 63 24 64 30 65 32 66
REMARK SMILES IDX 25 67 26 68 27 69 28 70 29 71 55 72 56 73 65 74 57 75 58 76
REMARK SMILES IDX 64 77 66 78 59 79 60 80 61 81 62 82 63 83 39 84 40 85 49 86
REMARK SMILES IDX 41 87 42 88 48 89 50 90 43 91 44 92 45 93 46 94 47 95
REMARK H PARENT 5 6 9 26 71 45 37 56
REMARK Flexibility Score: inf
ROOT
ATOM      1  C   UNL A   1      35.139  23.644  25.765  1.00  0.00     0.042 C 
ENDROOT
BRANCH   1   2
ATOM      2  C   UNL A   1      34.552  22.983  24.522  1.00  0.00     0.117 C 
BRANCH   2   3
ATOM      3  N   UNL A   1      34.423  23.929  23.432  1.00  0.00    -0.356 N 
ATOM      4  C   UNL A   1      33.365  24.708  23.064  1.00  0.00     0.227 C 
ATOM      5  O   UNL A   1      33.503  25.376  22.037  1.00  0.00    -0.274 OA
ATOM      6  H   UNL A   1      35.225  24.025  22.869  1.00  0.00     0.163 HD
BRANCH   4   7
ATOM      7  C   UNL A   1      32.096  24.750  23.934  1.00  0.00     0.106 C 
ATOM      8  C   UNL A   1      31.017  23.777  23.440  1.00  0.00     0.023 C 
BRANCH   7   9
ATOM      9  C   UNL A   1      31.543  26.172  24.024  1.00  0.00    -0.022 A 
ATOM     10  C   UNL A   1      30.419  26.512  23.245  1.00  0.00     0.006 A 
ATOM     11  C   UNL A   1      32.127  27.185  24.802  1.00  0.00     0.022 A 
ATOM     12  C   UNL A   1      29.887  27.799  23.255  1.00  0.00     0.004 A 
ATOM     13  C   UNL A   1      31.604  28.487  24.792  1.00  0.00     0.019 A 
ATOM     14  Br  UNL A   1      33.652  26.896  25.901  1.00  0.00    -0.051 Br
ATOM     15  C   UNL A   1      30.491  28.808  24.005  1.00  0.00    -0.046 A 
BRANCH  15  16
ATOM     16  C   UNL A   1      29.963  30.221  23.946  1.00  0.00     0.047 C 
BRANCH  16  17
ATOM     17  C   UNL A   1      28.663  30.430  23.161  1.00  0.00     0.060 C 
ATOM     18  C   UNL A   1      27.729  31.533  23.665  1.00  0.00     0.012 C 
ATOM     19  C   UNL A   1      28.899  30.846  21.728  1.00  0.00     0.136 C 
ATOM     20  C   UNL A   1      28.002  32.759  22.801  1.00  0.00     0.009 C 
ATOM     21  C   UNL A   1      28.376  32.225  21.426  1.00  0.00     0.076 C 
ATOM     22  O   UNL A   1      29.445  30.129  20.896  1.00  0.00    -0.299 OA
ENDBRANCH  16  17
ENDBRANCH  15  16
ENDBRANCH   7   9
ENDBRANCH   4   7
ENDBRANCH   2   3
ENDBRANCH   1   2
BRANCH   1  23
ATOM     23  C   UNL A   1      36.563  24.156  25.573  1.00  0.00     0.118 C 
BRANCH  23  24
ATOM     24  N   UNL A   1      37.545  23.081  25.573  1.00  0.00    -0.352 N 
ATOM     25  C   UNL A   1      38.848  23.092  26.008  1.00  0.00     0.251 C 
ATOM     26  H   UNL A   1      37.230  22.224  25.208  1.00  0.00     0.163 HD
ATOM     27  O   UNL A   1      39.587  22.148  25.738  1.00  0.00    -0.269 OA
BRANCH  25  28
ATOM     28  C   UNL A   1      39.358  24.242  26.783  1.00  0.00     0.039 A 
ATOM     29  C   UNL A   1      40.167  25.189  26.149  1.00  0.00     0.014 A 
ATOM     30  C   UNL A   1      39.043  24.381  28.137  1.00  0.00     0.014 A 
ATOM     31  C   UNL A   1      40.609  26.308  26.858  1.00  0.00     0.010 A 
ATOM     32  C   UNL A   1      39.412  25.535  28.816  1.00  0.00     0.010 A 
ATOM     33  C   UNL A   1      40.208  26.506  28.189  1.00  0.00    -0.014 A 
BRANCH  33  34
ATOM     34  C   UNL A   1      40.625  27.700  28.967  1.00  0.00     0.031 A 
ATOM     35  C   UNL A   1      41.927  27.675  29.722  1.00  0.00     0.074 A 
ATOM     36  C   UNL A   1      39.799  28.758  29.076  1.00  0.00     0.049 A 
ATOM     37  N   UNL A   1      42.404  28.538  30.580  1.00  0.00    -0.248 NA
ATOM     38  C   UNL A   1      42.789  26.501  29.508  1.00  0.00     0.031 C 
ATOM     39  C   UNL A   1      38.496  28.887  28.420  1.00  0.00     0.029 A 
ATOM     40  N   UNL A   1      39.921  29.918  29.801  1.00  0.00    -0.354 N 
ATOM     41  C   UNL A   1      43.606  28.002  31.027  1.00  0.00     0.074 A 
ATOM     42  C   UNL A   1      43.755  26.713  30.388  1.00  0.00     0.031 C 
ATOM     43  C   UNL A   1      37.944  30.061  28.767  1.00  0.00     0.029 A 
ATOM     44  C   UNL A   1      38.827  30.746  29.706  1.00  0.00     0.049 A 
ATOM     45  H   UNL A   1      40.715  30.135  30.340  1.00  0.00     0.167 HD
ATOM     46  C   UNL A   1      44.511  28.542  31.877  1.00  0.00     0.037 A 
ATOM     47  C   UNL A   1      38.556  31.914  30.321  1.00  0.00     0.037 A 
ATOM     48  C   UNL A   1      44.359  29.834  32.493  1.00  0.00     0.049 A 
ATOM     49  C   UNL A   1      39.569  32.495  31.271  1.00  0.00     0.074 A 
ATOM     50  C   UNL A   1      45.239  30.497  33.330  1.00  0.00     0.029 A 
ATOM     51  N   UNL A   1      43.253  30.659  32.341  1.00  0.00    -0.354 N 
ATOM     52  N   UNL A   1      40.724  31.999  31.648  1.00  0.00    -0.248 NA
ATOM     53  C   UNL A   1      39.248  33.796  31.874  1.00  0.00     0.031 C 
ATOM     54  C   UNL A   1      44.643  31.699  33.726  1.00  0.00     0.029 A 
ATOM     55  C   UNL A   1      43.418  31.815  33.085  1.00  0.00     0.049 A 
ATOM     56  H   UNL A   1      42.466  30.452  31.788  1.00  0.00     0.167 HD
ATOM     57  C   UNL A   1      41.284  32.942  32.502  1.00  0.00     0.074 A 
ATOM     58  C   UNL A   1      40.340  34.038  32.588  1.00  0.00     0.031 C 
ATOM     59  C   UNL A   1      42.476  32.906  33.149  1.00  0.00     0.037 A 
BRANCH  46  60
ATOM     60  C   UNL A   1      45.736  27.725  32.197  1.00  0.00     0.058 A 
ATOM     61  C   UNL A   1      45.731  26.747  33.207  1.00  0.00     0.135 A 
ATOM     62  C   UNL A   1      46.931  27.923  31.487  1.00  0.00     0.135 A 
ATOM     63  F   UNL A   1      44.621  26.523  33.927  1.00  0.00    -0.206 F 
ATOM     64  C   UNL A   1      46.879  26.033  33.534  1.00  0.00     0.059 A 
ATOM     65  C   UNL A   1      48.082  27.194  31.774  1.00  0.00     0.059 A 
ATOM     66  F   UNL A   1      46.993  28.841  30.510  1.00  0.00    -0.206 F 
ATOM     67  C   UNL A   1      48.052  26.269  32.815  1.00  0.00     0.060 A 
BRANCH  67  68
ATOM     68  S   UNL A   1      49.540  25.355  33.273  1.00  0.00     0.124 S 
ATOM     69  O   UNL A   1      49.920  24.762  31.995  1.00  0.00    -0.237 OA
ATOM     70  O   UNL A   1      50.416  26.412  33.766  1.00  0.00    -0.237 OA
ATOM     71  O   UNL A   1      49.064  24.416  34.283  1.00  0.00    -0.744 OA
ENDBRANCH  67  68
ENDBRANCH  46  60
BRANCH  47  72
ATOM     72  C   UNL A   1      37.275  32.614  30.036  1.00  0.00     0.058 A 
ATOM     73  C   UNL A   1      37.209  33.633  29.075  1.00  0.00     0.135 A 
ATOM     74  C   UNL A   1      36.083  32.246  30.681  1.00  0.00     0.135 A 
ATOM     75  F   UNL A   1      38.322  34.026  28.437  1.00  0.00    -0.206 F 
ATOM     76  C   UNL A   1      36.010  34.265  28.763  1.00  0.00     0.059 A 
ATOM     77  C   UNL A   1      34.867  32.845  30.368  1.00  0.00     0.059 A 
ATOM     78  F   UNL A   1      36.089  31.264  31.596  1.00  0.00    -0.206 F 
ATOM     79  C   UNL A   1      34.842  33.857  29.409  1.00  0.00     0.060 A 
BRANCH  79  80
ATOM     80  S   UNL A   1      33.278  34.629  28.937  1.00  0.00     0.124 S 
ATOM     81  O   UNL A   1      32.739  33.654  27.996  1.00  0.00    -0.237 OA
ATOM     82  O   UNL A   1      32.588  34.727  30.220  1.00  0.00    -0.237 OA
ATOM     83  O   UNL A   1      33.693  35.903  28.358  1.00  0.00    -0.744 OA
ENDBRANCH  79  80
ENDBRANCH  47  72
BRANCH  59  84
ATOM     84  C   UNL A   1      42.867  34.107  33.965  1.00  0.00     0.058 A 
ATOM     85  C   UNL A   1      42.662  34.166  35.352  1.00  0.00     0.135 A 
ATOM     86  C   UNL A   1      43.538  35.182  33.356  1.00  0.00     0.135 A 
ATOM     87  F   UNL A   1      42.020  33.170  35.982  1.00  0.00    -0.206 F 
ATOM     88  C   UNL A   1      43.098  35.252  36.105  1.00  0.00     0.059 A 
ATOM     89  C   UNL A   1      44.008  36.264  34.093  1.00  0.00     0.059 A 
ATOM     90  F   UNL A   1      43.767  35.173  32.033  1.00  0.00    -0.206 F 
ATOM     91  C   UNL A   1      43.777  36.292  35.467  1.00  0.00     0.060 A 
BRANCH  91  92
ATOM     92  S   UNL A   1      44.390  37.667  36.465  1.00  0.00     0.124 S 
ATOM     93  O   UNL A   1      43.393  37.726  37.528  1.00  0.00    -0.237 OA
ATOM     94  O   UNL A   1      45.714  37.197  36.862  1.00  0.00    -0.237 OA
ATOM     95  O   UNL A   1      44.384  38.792  35.535  1.00  0.00    -0.744 OA
ENDBRANCH  91  92
ENDBRANCH  59  84
ENDBRANCH  33  34
ENDBRANCH  25  28
ENDBRANCH  23  24
ENDBRANCH   1  23
TORSDOF 16
ENDMDL
