MODEL 1
REMARK VINA RESULT:     -11.5      0.000      0.000
REMARK SMILES CC(C)[C@H](NC(N)=O)C(=O)N[C@H](C)C(=O)NCCCNC(=O)c1ccc(-c2c3nc(c(-c4c(F)cc(S(=O)(=O)[O-])cc4F)c4ccc([nH]4)c(-c4c(F)cc(S(=O)(=O)[O-])cc4F)c4nc(c(-c5c(F)cc(S(=O)(=O)[O-])cc5F)c5ccc2[nH]5)C=C4)C=C3)cc1
REMARK SMILES IDX 18 1 17 2 16 3 14 4 15 5 12 7 13 8 11 9 9 10 10 11 4 13 2 14
REMARK SMILES IDX 1 15 3 16 5 17 6 18 7 20 8 21 19 24 20 25 21 26 22 28 23 29
REMARK SMILES IDX 24 30 88 31 25 32 87 33 26 34 27 35 28 36 81 37 29 38 86 39
REMARK SMILES IDX 80 40 82 41 30 42 85 43 79 44 78 45 31 47 65 48 44 49 64 50
REMARK SMILES IDX 45 51 48 52 63 53 83 54 46 55 47 56 62 58 84 59 49 60 32 61
REMARK SMILES IDX 33 62 42 63 34 64 35 65 41 66 43 67 36 68 37 69 38 70 39 71
REMARK SMILES IDX 40 72 66 73 67 74 76 75 68 76 69 77 75 78 77 79 70 80 71 81
REMARK SMILES IDX 72 82 73 83 74 84 50 85 51 86 60 87 52 88 53 89 59 90 61 91
REMARK SMILES IDX 54 92 55 93 56 94 57 95 58 96
REMARK H PARENT 16 6 11 12 5 19 7 22 7 23 20 27 82 46 48 57
REMARK Flexibility Score: inf
ROOT
ATOM      1  C   UNL A   1      39.303  21.964  26.277  1.00  0.00     0.042 C 
ENDROOT
BRANCH   1   2
ATOM      2  C   UNL A   1      37.817  22.072  25.936  1.00  0.00     0.117 C 
BRANCH   2   3
ATOM      3  N   UNL A   1      37.624  22.474  24.555  1.00  0.00    -0.354 N 
ATOM      4  C   UNL A   1      36.532  22.813  23.827  1.00  0.00     0.242 C 
ATOM      5  O   UNL A   1      36.726  22.932  22.608  1.00  0.00    -0.273 OA
ATOM      6  H   UNL A   1      38.461  22.505  24.038  1.00  0.00     0.163 HD
BRANCH   4   7
ATOM      7  C   UNL A   1      35.083  22.988  24.373  1.00  0.00     0.168 C 
ATOM      8  C   UNL A   1      34.953  24.345  25.059  1.00  0.00     0.041 C 
BRANCH   7   9
ATOM      9  N   UNL A   1      33.924  22.400  23.679  1.00  0.00    -0.343 N 
ATOM     10  C   UNL A   1      32.774  21.719  23.887  1.00  0.00     0.243 C 
ATOM     11  O   UNL A   1      32.143  21.482  22.844  1.00  0.00    -0.273 OA
ATOM     12  H   UNL A   1      34.022  22.562  22.713  1.00  0.00     0.164 HD
BRANCH  10  13
ATOM     13  C   UNL A   1      32.159  21.286  25.241  1.00  0.00     0.175 C 
BRANCH  13  14
ATOM     14  C   UNL A   1      31.987  22.509  26.175  1.00  0.00     0.015 C 
ATOM     15  C   UNL A   1      30.523  22.838  26.485  1.00  0.00     0.010 C 
ATOM     16  C   UNL A   1      32.794  22.461  27.467  1.00  0.00     0.010 C 
ENDBRANCH  13  14
BRANCH  13  17
ATOM     17  N   UNL A   1      32.839  20.115  25.767  1.00  0.00    -0.326 N 
ATOM     18  C   UNL A   1      32.621  18.846  25.335  1.00  0.00     0.312 C 
ATOM     19  H   UNL A   1      33.500  20.250  26.484  1.00  0.00     0.166 HD
ATOM     20  N   UNL A   1      33.220  17.923  26.123  1.00  0.00    -0.352 N 
ATOM     21  O   UNL A   1      31.925  18.517  24.392  1.00  0.00    -0.249 OA
ATOM     22  H   UNL A   1      33.779  18.211  26.881  1.00  0.00     0.161 HD
ATOM     23  H   UNL A   1      33.097  16.964  25.938  1.00  0.00     0.161 HD
ENDBRANCH  13  17
ENDBRANCH  10  13
ENDBRANCH   7   9
ENDBRANCH   4   7
ENDBRANCH   2   3
ENDBRANCH   1   2
BRANCH   1  24
ATOM     24  C   UNL A   1      39.919  23.210  26.896  1.00  0.00     0.118 C 
BRANCH  24  25
ATOM     25  N   UNL A   1      41.026  23.724  26.106  1.00  0.00    -0.352 N 
ATOM     26  C   UNL A   1      41.708  24.917  26.162  1.00  0.00     0.251 C 
ATOM     27  H   UNL A   1      41.344  23.107  25.407  1.00  0.00     0.163 HD
ATOM     28  O   UNL A   1      42.455  25.198  25.226  1.00  0.00    -0.269 OA
BRANCH  26  29
ATOM     29  C   UNL A   1      41.568  25.869  27.297  1.00  0.00     0.039 A 
ATOM     30  C   UNL A   1      40.522  25.672  28.207  1.00  0.00     0.014 A 
ATOM     31  C   UNL A   1      42.379  26.996  27.439  1.00  0.00     0.014 A 
ATOM     32  C   UNL A   1      40.320  26.571  29.262  1.00  0.00     0.010 A 
ATOM     33  C   UNL A   1      42.242  27.834  28.548  1.00  0.00     0.010 A 
ATOM     34  C   UNL A   1      41.194  27.650  29.460  1.00  0.00    -0.014 A 
BRANCH  34  35
ATOM     35  C   UNL A   1      41.001  28.616  30.579  1.00  0.00     0.031 A 
ATOM     36  C   UNL A   1      41.859  28.524  31.819  1.00  0.00     0.074 A 
ATOM     37  C   UNL A   1      40.027  29.547  30.509  1.00  0.00     0.049 A 
ATOM     38  N   UNL A   1      41.800  29.226  32.923  1.00  0.00    -0.248 NA
ATOM     39  C   UNL A   1      42.905  27.488  31.830  1.00  0.00     0.031 C 
ATOM     40  C   UNL A   1      39.100  29.717  29.389  1.00  0.00     0.029 A 
ATOM     41  N   UNL A   1      39.649  30.521  31.400  1.00  0.00    -0.354 N 
ATOM     42  C   UNL A   1      42.779  28.704  33.762  1.00  0.00     0.074 A 
ATOM     43  C   UNL A   1      43.380  27.590  33.063  1.00  0.00     0.031 C 
ATOM     44  C   UNL A   1      38.280  30.749  29.648  1.00  0.00     0.029 A 
ATOM     45  C   UNL A   1      38.592  31.288  30.967  1.00  0.00     0.049 A 
ATOM     46  H   UNL A   1      40.094  30.659  32.268  1.00  0.00     0.167 HD
ATOM     47  C   UNL A   1      43.163  29.127  34.991  1.00  0.00     0.037 A 
ATOM     48  C   UNL A   1      37.939  32.303  31.568  1.00  0.00     0.037 A 
ATOM     49  C   UNL A   1      42.587  30.260  35.669  1.00  0.00     0.049 A 
ATOM     50  C   UNL A   1      38.383  32.758  32.933  1.00  0.00     0.074 A 
ATOM     51  C   UNL A   1      42.946  30.807  36.888  1.00  0.00     0.029 A 
ATOM     52  N   UNL A   1      41.531  31.020  35.187  1.00  0.00    -0.354 N 
ATOM     53  N   UNL A   1      39.351  32.288  33.684  1.00  0.00    -0.248 NA
ATOM     54  C   UNL A   1      37.654  33.885  33.529  1.00  0.00     0.031 C 
ATOM     55  C   UNL A   1      42.076  31.866  37.167  1.00  0.00     0.029 A 
ATOM     56  C   UNL A   1      41.212  32.016  36.095  1.00  0.00     0.049 A 
ATOM     57  H   UNL A   1      41.075  30.873  34.326  1.00  0.00     0.167 HD
ATOM     58  C   UNL A   1      39.364  33.080  34.827  1.00  0.00     0.074 A 
ATOM     59  C   UNL A   1      38.316  34.067  34.662  1.00  0.00     0.031 C 
ATOM     60  C   UNL A   1      40.171  32.999  35.914  1.00  0.00     0.037 A 
BRANCH  47  61
ATOM     61  C   UNL A   1      44.265  28.369  35.683  1.00  0.00     0.058 A 
ATOM     62  C   UNL A   1      45.619  28.694  35.497  1.00  0.00     0.135 A 
ATOM     63  C   UNL A   1      43.964  27.324  36.574  1.00  0.00     0.135 A 
ATOM     64  F   UNL A   1      45.969  29.673  34.648  1.00  0.00    -0.206 F 
ATOM     65  C   UNL A   1      46.634  27.994  36.141  1.00  0.00     0.059 A 
ATOM     66  C   UNL A   1      44.961  26.630  37.254  1.00  0.00     0.059 A 
ATOM     67  F   UNL A   1      42.689  26.969  36.793  1.00  0.00    -0.206 F 
ATOM     68  C   UNL A   1      46.294  26.962  37.019  1.00  0.00     0.060 A 
BRANCH  68  69
ATOM     69  S   UNL A   1      47.624  26.065  37.848  1.00  0.00     0.124 S 
ATOM     70  O   UNL A   1      47.282  24.681  37.533  1.00  0.00    -0.237 OA
ATOM     71  O   UNL A   1      48.814  26.589  37.185  1.00  0.00    -0.237 OA
ATOM     72  O   UNL A   1      47.470  26.446  39.248  1.00  0.00    -0.744 OA
ENDBRANCH  68  69
ENDBRANCH  47  61
BRANCH  48  73
ATOM     73  C   UNL A   1      36.807  32.974  30.872  1.00  0.00     0.058 A 
ATOM     74  C   UNL A   1      37.038  33.931  29.872  1.00  0.00     0.135 A 
ATOM     75  C   UNL A   1      35.473  32.667  31.183  1.00  0.00     0.135 A 
ATOM     76  F   UNL A   1      38.295  34.265  29.543  1.00  0.00    -0.206 F 
ATOM     77  C   UNL A   1      35.991  34.572  29.219  1.00  0.00     0.059 A 
ATOM     78  C   UNL A   1      34.408  33.274  30.523  1.00  0.00     0.059 A 
ATOM     79  F   UNL A   1      35.196  31.748  32.122  1.00  0.00    -0.206 F 
ATOM     80  C   UNL A   1      34.677  34.235  29.550  1.00  0.00     0.060 A 
BRANCH  80  81
ATOM     81  S   UNL A   1      33.327  35.045  28.667  1.00  0.00     0.124 S 
ATOM     82  O   UNL A   1      32.739  33.927  27.939  1.00  0.00    -0.237 OA
ATOM     83  O   UNL A   1      32.526  35.584  29.762  1.00  0.00    -0.237 OA
ATOM     84  O   UNL A   1      34.009  36.042  27.848  1.00  0.00    -0.744 OA
ENDBRANCH  80  81
ENDBRANCH  48  73
BRANCH  60  85
ATOM     85  C   UNL A   1      39.986  34.027  36.997  1.00  0.00     0.058 A 
ATOM     86  C   UNL A   1      40.651  35.263  36.968  1.00  0.00     0.135 A 
ATOM     87  C   UNL A   1      39.087  33.792  38.051  1.00  0.00     0.135 A 
ATOM     88  F   UNL A   1      41.525  35.537  35.986  1.00  0.00    -0.206 F 
ATOM     89  C   UNL A   1      40.451  36.219  37.958  1.00  0.00     0.059 A 
ATOM     90  C   UNL A   1      38.849  34.746  39.036  1.00  0.00     0.059 A 
ATOM     91  F   UNL A   1      38.415  32.632  38.122  1.00  0.00    -0.206 F 
ATOM     92  C   UNL A   1      39.546  35.952  38.987  1.00  0.00     0.060 A 
BRANCH  92  93
ATOM     93  S   UNL A   1      39.271  37.215  40.247  1.00  0.00     0.124 S 
ATOM     94  O   UNL A   1      38.544  36.462  41.265  1.00  0.00    -0.237 OA
ATOM     95  O   UNL A   1      40.633  37.606  40.601  1.00  0.00    -0.237 OA
ATOM     96  O   UNL A   1      38.495  38.234  39.546  1.00  0.00    -0.744 OA
ENDBRANCH  92  93
ENDBRANCH  60  85
ENDBRANCH  34  35
ENDBRANCH  26  29
ENDBRANCH  24  25
ENDBRANCH   1  24
TORSDOF 17
ENDMDL
MODEL 2
REMARK VINA RESULT:     -11.3      5.582     10.805
REMARK SMILES CC(C)[C@H](NC(N)=O)C(=O)N[C@H](C)C(=O)NCCCNC(=O)c1ccc(-c2c3nc(c(-c4c(F)cc(S(=O)(=O)[O-])cc4F)c4ccc([nH]4)c(-c4c(F)cc(S(=O)(=O)[O-])cc4F)c4nc(c(-c5c(F)cc(S(=O)(=O)[O-])cc5F)c5ccc2[nH]5)C=C4)C=C3)cc1
REMARK SMILES IDX 18 1 17 2 16 3 14 4 15 5 12 7 13 8 11 9 9 10 10 11 4 13 2 14
REMARK SMILES IDX 1 15 3 16 5 17 6 18 7 20 8 21 19 24 20 25 21 26 22 28 23 29
REMARK SMILES IDX 24 30 88 31 25 32 87 33 26 34 27 35 28 36 81 37 29 38 86 39
REMARK SMILES IDX 80 40 82 41 30 42 85 43 79 44 78 45 31 47 65 48 44 49 64 50
REMARK SMILES IDX 45 51 48 52 63 53 83 54 46 55 47 56 62 58 84 59 49 60 32 61
REMARK SMILES IDX 33 62 42 63 34 64 35 65 41 66 43 67 36 68 37 69 38 70 39 71
REMARK SMILES IDX 40 72 66 73 67 74 76 75 68 76 69 77 75 78 77 79 70 80 71 81
REMARK SMILES IDX 72 82 73 83 74 84 50 85 51 86 60 87 52 88 53 89 59 90 61 91
REMARK SMILES IDX 54 92 55 93 56 94 57 95 58 96
REMARK H PARENT 16 6 11 12 5 19 7 22 7 23 20 27 82 46 48 57
REMARK Flexibility Score: inf
ROOT
ATOM      1  C   UNL A   1      33.891  27.804  25.676  1.00  0.00     0.042 C 
ENDROOT
BRANCH   1   2
ATOM      2  C   UNL A   1      33.136  26.653  25.014  1.00  0.00     0.117 C 
BRANCH   2   3
ATOM      3  N   UNL A   1      32.023  26.213  25.834  1.00  0.00    -0.354 N 
ATOM      4  C   UNL A   1      30.727  25.920  25.567  1.00  0.00     0.242 C 
ATOM      5  O   UNL A   1      30.010  25.742  26.564  1.00  0.00    -0.273 OA
ATOM      6  H   UNL A   1      32.259  26.106  26.784  1.00  0.00     0.163 HD
BRANCH   4   7
ATOM      7  C   UNL A   1      30.070  25.863  24.156  1.00  0.00     0.168 C 
ATOM      8  C   UNL A   1      30.465  24.564  23.458  1.00  0.00     0.041 C 
BRANCH   7   9
ATOM      9  N   UNL A   1      28.751  26.466  23.896  1.00  0.00    -0.343 N 
ATOM     10  C   UNL A   1      28.139  27.634  23.600  1.00  0.00     0.243 C 
ATOM     11  O   UNL A   1      26.907  27.533  23.480  1.00  0.00    -0.273 OA
ATOM     12  H   UNL A   1      28.066  25.761  23.963  1.00  0.00     0.164 HD
BRANCH  10  13
ATOM     13  C   UNL A   1      28.798  29.012  23.339  1.00  0.00     0.175 C 
BRANCH  13  14
ATOM     14  C   UNL A   1      27.762  30.007  22.760  1.00  0.00     0.015 C 
ATOM     15  C   UNL A   1      27.563  31.253  23.629  1.00  0.00     0.010 C 
ATOM     16  C   UNL A   1      27.991  30.416  21.309  1.00  0.00     0.010 C 
ENDBRANCH  13  14
BRANCH  13  17
ATOM     17  N   UNL A   1      30.061  28.856  22.638  1.00  0.00    -0.326 N 
ATOM     18  C   UNL A   1      31.271  29.174  23.166  1.00  0.00     0.312 C 
ATOM     19  H   UNL A   1      30.038  28.499  21.721  1.00  0.00     0.166 HD
ATOM     20  N   UNL A   1      32.262  29.134  22.246  1.00  0.00    -0.352 N 
ATOM     21  O   UNL A   1      31.487  29.522  24.313  1.00  0.00    -0.249 OA
ATOM     22  H   UNL A   1      32.065  28.850  21.323  1.00  0.00     0.161 HD
ATOM     23  H   UNL A   1      33.178  29.389  22.498  1.00  0.00     0.161 HD
ENDBRANCH  13  17
ENDBRANCH  10  13
ENDBRANCH   7   9
ENDBRANCH   4   7
ENDBRANCH   2   3
ENDBRANCH   1   2
BRANCH   1  24
ATOM     24  C   UNL A   1      33.489  28.102  27.114  1.00  0.00     0.118 C 
BRANCH  24  25
ATOM     25  N   UNL A   1      33.435  29.530  27.382  1.00  0.00    -0.352 N 
ATOM     26  C   UNL A   1      34.356  30.386  27.941  1.00  0.00     0.251 C 
ATOM     27  H   UNL A   1      32.591  29.960  27.115  1.00  0.00     0.163 HD
ATOM     28  O   UNL A   1      33.973  31.508  28.268  1.00  0.00    -0.269 OA
BRANCH  26  29
ATOM     29  C   UNL A   1      35.775  30.002  28.167  1.00  0.00     0.039 A 
ATOM     30  C   UNL A   1      36.149  29.551  29.440  1.00  0.00     0.014 A 
ATOM     31  C   UNL A   1      36.762  30.159  27.193  1.00  0.00     0.014 A 
ATOM     32  C   UNL A   1      37.483  29.227  29.715  1.00  0.00     0.010 A 
ATOM     33  C   UNL A   1      38.072  29.738  27.436  1.00  0.00     0.010 A 
ATOM     34  C   UNL A   1      38.458  29.293  28.708  1.00  0.00    -0.014 A 
BRANCH  34  35
ATOM     35  C   UNL A   1      39.882  28.947  28.977  1.00  0.00     0.031 A 
ATOM     36  C   UNL A   1      40.817  29.977  29.567  1.00  0.00     0.074 A 
ATOM     37  C   UNL A   1      40.355  27.726  28.650  1.00  0.00     0.049 A 
ATOM     38  N   UNL A   1      42.100  29.890  29.810  1.00  0.00    -0.248 NA
ATOM     39  C   UNL A   1      40.237  31.288  29.902  1.00  0.00     0.031 C 
ATOM     40  C   UNL A   1      39.572  26.653  28.034  1.00  0.00     0.029 A 
ATOM     41  N   UNL A   1      41.610  27.183  28.783  1.00  0.00    -0.354 N 
ATOM     42  C   UNL A   1      42.482  31.134  30.303  1.00  0.00     0.074 A 
ATOM     43  C   UNL A   1      41.307  31.976  30.271  1.00  0.00     0.031 C 
ATOM     44  C   UNL A   1      40.355  25.575  27.869  1.00  0.00     0.029 A 
ATOM     45  C   UNL A   1      41.705  25.889  28.325  1.00  0.00     0.049 A 
ATOM     46  H   UNL A   1      42.371  27.674  29.172  1.00  0.00     0.167 HD
ATOM     47  C   UNL A   1      43.692  31.532  30.766  1.00  0.00     0.037 A 
ATOM     48  C   UNL A   1      42.761  25.053  28.269  1.00  0.00     0.037 A 
ATOM     49  C   UNL A   1      44.851  30.680  30.830  1.00  0.00     0.049 A 
ATOM     50  C   UNL A   1      44.096  25.517  28.789  1.00  0.00     0.074 A 
ATOM     51  C   UNL A   1      46.105  30.969  31.338  1.00  0.00     0.029 A 
ATOM     52  N   UNL A   1      44.899  29.371  30.373  1.00  0.00    -0.354 N 
ATOM     53  N   UNL A   1      44.421  26.678  29.306  1.00  0.00    -0.248 NA
ATOM     54  C   UNL A   1      45.205  24.556  28.726  1.00  0.00     0.031 C 
ATOM     55  C   UNL A   1      46.926  29.854  31.143  1.00  0.00     0.029 A 
ATOM     56  C   UNL A   1      46.167  28.848  30.567  1.00  0.00     0.049 A 
ATOM     57  H   UNL A   1      44.143  28.885  29.970  1.00  0.00     0.167 HD
ATOM     58  C   UNL A   1      45.763  26.576  29.656  1.00  0.00     0.074 A 
ATOM     59  C   UNL A   1      46.185  25.236  29.304  1.00  0.00     0.031 C 
ATOM     60  C   UNL A   1      46.572  27.508  30.219  1.00  0.00     0.037 A 
BRANCH  47  61
ATOM     61  C   UNL A   1      43.826  32.954  31.248  1.00  0.00     0.058 A 
ATOM     62  C   UNL A   1      44.284  33.981  30.407  1.00  0.00     0.135 A 
ATOM     63  C   UNL A   1      43.457  33.301  32.559  1.00  0.00     0.135 A 
ATOM     64  F   UNL A   1      44.664  33.706  29.149  1.00  0.00    -0.206 F 
ATOM     65  C   UNL A   1      44.403  35.293  30.855  1.00  0.00     0.059 A 
ATOM     66  C   UNL A   1      43.538  34.614  33.019  1.00  0.00     0.059 A 
ATOM     67  F   UNL A   1      43.011  32.363  33.407  1.00  0.00    -0.206 F 
ATOM     68  C   UNL A   1      44.027  35.600  32.164  1.00  0.00     0.060 A 
BRANCH  68  69
ATOM     69  S   UNL A   1      44.185  37.308  32.727  1.00  0.00     0.124 S 
ATOM     70  O   UNL A   1      45.597  37.364  33.094  1.00  0.00    -0.237 OA
ATOM     71  O   UNL A   1      43.810  38.065  31.537  1.00  0.00    -0.237 OA
ATOM     72  O   UNL A   1      43.244  37.387  33.840  1.00  0.00    -0.744 OA
ENDBRANCH  68  69
ENDBRANCH  47  61
BRANCH  48  73
ATOM     73  C   UNL A   1      42.593  23.681  27.715  1.00  0.00     0.058 A 
ATOM     74  C   UNL A   1      42.657  23.446  26.333  1.00  0.00     0.135 A 
ATOM     75  C   UNL A   1      42.377  22.576  28.554  1.00  0.00     0.135 A 
ATOM     76  F   UNL A   1      42.855  24.469  25.489  1.00  0.00    -0.206 F 
ATOM     77  C   UNL A   1      42.494  22.171  25.801  1.00  0.00     0.059 A 
ATOM     78  C   UNL A   1      42.240  21.287  28.047  1.00  0.00     0.059 A 
ATOM     79  F   UNL A   1      42.322  22.743  29.885  1.00  0.00    -0.206 F 
ATOM     80  C   UNL A   1      42.288  21.096  26.667  1.00  0.00     0.060 A 
BRANCH  80  81
ATOM     81  S   UNL A   1      42.118  19.441  25.967  1.00  0.00     0.124 S 
ATOM     82  O   UNL A   1      42.931  19.546  24.762  1.00  0.00    -0.237 OA
ATOM     83  O   UNL A   1      42.661  18.602  27.031  1.00  0.00    -0.237 OA
ATOM     84  O   UNL A   1      40.681  19.312  25.750  1.00  0.00    -0.744 OA
ENDBRANCH  80  81
ENDBRANCH  48  73
BRANCH  60  85
ATOM     85  C   UNL A   1      47.988  27.103  30.531  1.00  0.00     0.058 A 
ATOM     86  C   UNL A   1      49.042  27.348  29.638  1.00  0.00     0.135 A 
ATOM     87  C   UNL A   1      48.299  26.508  31.765  1.00  0.00     0.135 A 
ATOM     88  F   UNL A   1      48.799  27.910  28.442  1.00  0.00    -0.206 F 
ATOM     89  C   UNL A   1      50.352  26.997  29.946  1.00  0.00     0.059 A 
ATOM     90  C   UNL A   1      49.606  26.175  32.107  1.00  0.00     0.059 A 
ATOM     91  F   UNL A   1      47.331  26.261  32.661  1.00  0.00    -0.206 F 
ATOM     92  C   UNL A   1      50.625  26.413  31.184  1.00  0.00     0.060 A 
BRANCH  92  93
ATOM     93  S   UNL A   1      52.333  25.992  31.586  1.00  0.00     0.124 S 
ATOM     94  O   UNL A   1      52.659  27.004  32.587  1.00  0.00    -0.237 OA
ATOM     95  O   UNL A   1      52.209  24.625  32.086  1.00  0.00    -0.237 OA
ATOM     96  O   UNL A   1      53.028  26.126  30.309  1.00  0.00    -0.744 OA
ENDBRANCH  92  93
ENDBRANCH  60  85
ENDBRANCH  34  35
ENDBRANCH  26  29
ENDBRANCH  24  25
ENDBRANCH   1  24
TORSDOF 17
ENDMDL
MODEL 3
REMARK VINA RESULT:     -11.2      6.809     12.187
REMARK SMILES CC(C)[C@H](NC(N)=O)C(=O)N[C@H](C)C(=O)NCCCNC(=O)c1ccc(-c2c3nc(c(-c4c(F)cc(S(=O)(=O)[O-])cc4F)c4ccc([nH]4)c(-c4c(F)cc(S(=O)(=O)[O-])cc4F)c4nc(c(-c5c(F)cc(S(=O)(=O)[O-])cc5F)c5ccc2[nH]5)C=C4)C=C3)cc1
REMARK SMILES IDX 18 1 17 2 16 3 14 4 15 5 12 7 13 8 11 9 9 10 10 11 4 13 2 14
REMARK SMILES IDX 1 15 3 16 5 17 6 18 7 20 8 21 19 24 20 25 21 26 22 28 23 29
REMARK SMILES IDX 24 30 88 31 25 32 87 33 26 34 27 35 28 36 81 37 29 38 86 39
REMARK SMILES IDX 80 40 82 41 30 42 85 43 79 44 78 45 31 47 65 48 44 49 64 50
REMARK SMILES IDX 45 51 48 52 63 53 83 54 46 55 47 56 62 58 84 59 49 60 32 61
REMARK SMILES IDX 33 62 42 63 34 64 35 65 41 66 43 67 36 68 37 69 38 70 39 71
REMARK SMILES IDX 40 72 66 73 67 74 76 75 68 76 69 77 75 78 77 79 70 80 71 81
REMARK SMILES IDX 72 82 73 83 74 84 50 85 51 86 60 87 52 88 53 89 59 90 61 91
REMARK SMILES IDX 54 92 55 93 56 94 57 95 58 96
REMARK H PARENT 16 6 11 12 5 19 7 22 7 23 20 27 82 46 48 57
REMARK Flexibility Score: inf
ROOT
ATOM      1  C   UNL A   1      33.887  31.437  27.745  1.00  0.00     0.042 C 
ENDROOT
BRANCH   1   2
ATOM      2  C   UNL A   1      33.148  30.580  26.718  1.00  0.00     0.117 C 
BRANCH   2   3
ATOM      3  N   UNL A   1      32.431  29.494  27.358  1.00  0.00    -0.354 N 
ATOM      4  C   UNL A   1      32.329  28.166  27.104  1.00  0.00     0.242 C 
ATOM      5  O   UNL A   1      31.472  27.566  27.769  1.00  0.00    -0.273 OA
ATOM      6  H   UNL A   1      31.908  29.782  28.141  1.00  0.00     0.163 HD
BRANCH   4   7
ATOM      7  C   UNL A   1      33.127  27.375  26.025  1.00  0.00     0.168 C 
ATOM      8  C   UNL A   1      32.891  25.878  26.207  1.00  0.00     0.041 C 
BRANCH   7   9
ATOM      9  N   UNL A   1      33.352  27.925  24.677  1.00  0.00    -0.343 N 
ATOM     10  C   UNL A   1      32.886  27.895  23.408  1.00  0.00     0.243 C 
ATOM     11  O   UNL A   1      33.517  28.628  22.630  1.00  0.00    -0.273 OA
ATOM     12  H   UNL A   1      34.123  28.537  24.713  1.00  0.00     0.164 HD
BRANCH  10  13
ATOM     13  C   UNL A   1      31.655  27.126  22.868  1.00  0.00     0.175 C 
BRANCH  13  14
ATOM     14  C   UNL A   1      30.378  27.532  23.643  1.00  0.00     0.015 C 
ATOM     15  C   UNL A   1      29.461  28.473  22.854  1.00  0.00     0.010 C 
ATOM     16  C   UNL A   1      29.567  26.375  24.216  1.00  0.00     0.010 C 
ENDBRANCH  13  14
BRANCH  13  17
ATOM     17  N   UNL A   1      31.949  25.709  22.731  1.00  0.00    -0.326 N 
ATOM     18  C   UNL A   1      32.679  25.175  21.719  1.00  0.00     0.312 C 
ATOM     19  H   UNL A   1      31.595  25.098  23.417  1.00  0.00     0.166 HD
ATOM     20  N   UNL A   1      32.632  23.822  21.707  1.00  0.00    -0.352 N 
ATOM     21  O   UNL A   1      33.276  25.794  20.857  1.00  0.00    -0.249 OA
ATOM     22  H   UNL A   1      32.143  23.341  22.414  1.00  0.00     0.161 HD
ATOM     23  H   UNL A   1      33.085  23.320  20.992  1.00  0.00     0.161 HD
ENDBRANCH  13  17
ENDBRANCH  10  13
ENDBRANCH   7   9
ENDBRANCH   4   7
ENDBRANCH   2   3
ENDBRANCH   1   2
BRANCH   1  24
ATOM     24  C   UNL A   1      35.170  30.829  28.295  1.00  0.00     0.118 C 
BRANCH  24  25
ATOM     25  N   UNL A   1      35.335  31.093  29.715  1.00  0.00    -0.352 N 
ATOM     26  C   UNL A   1      36.366  30.808  30.580  1.00  0.00     0.251 C 
ATOM     27  H   UNL A   1      34.574  31.559  30.131  1.00  0.00     0.163 HD
ATOM     28  O   UNL A   1      36.157  30.933  31.786  1.00  0.00    -0.269 OA
BRANCH  26  29
ATOM     29  C   UNL A   1      37.703  30.352  30.112  1.00  0.00     0.039 A 
ATOM     30  C   UNL A   1      38.618  29.883  31.065  1.00  0.00     0.014 A 
ATOM     31  C   UNL A   1      38.112  30.456  28.782  1.00  0.00     0.014 A 
ATOM     32  C   UNL A   1      39.906  29.491  30.679  1.00  0.00     0.010 A 
ATOM     33  C   UNL A   1      39.358  29.969  28.382  1.00  0.00     0.010 A 
ATOM     34  C   UNL A   1      40.284  29.506  29.327  1.00  0.00    -0.014 A 
BRANCH  34  35
ATOM     35  C   UNL A   1      41.647  29.087  28.894  1.00  0.00     0.031 A 
ATOM     36  C   UNL A   1      42.770  30.095  28.838  1.00  0.00     0.074 A 
ATOM     37  C   UNL A   1      41.872  27.815  28.505  1.00  0.00     0.049 A 
ATOM     38  N   UNL A   1      44.004  29.942  28.426  1.00  0.00    -0.248 NA
ATOM     39  C   UNL A   1      42.459  31.465  29.280  1.00  0.00     0.031 C 
ATOM     40  C   UNL A   1      40.866  26.752  28.468  1.00  0.00     0.029 A 
ATOM     41  N   UNL A   1      43.016  27.201  28.058  1.00  0.00    -0.354 N 
ATOM     42  C   UNL A   1      44.603  31.193  28.537  1.00  0.00     0.074 A 
ATOM     43  C   UNL A   1      43.584  32.107  29.001  1.00  0.00     0.031 C 
ATOM     44  C   UNL A   1      41.443  25.614  28.050  1.00  0.00     0.029 A 
ATOM     45  C   UNL A   1      42.847  25.871  27.747  1.00  0.00     0.049 A 
ATOM     46  H   UNL A   1      43.879  27.669  27.968  1.00  0.00     0.167 HD
ATOM     47  C   UNL A   1      45.891  31.544  28.301  1.00  0.00     0.037 A 
ATOM     48  C   UNL A   1      43.719  24.964  27.264  1.00  0.00     0.037 A 
ATOM     49  C   UNL A   1      46.912  30.623  27.873  1.00  0.00     0.049 A 
ATOM     50  C   UNL A   1      45.145  25.377  27.009  1.00  0.00     0.074 A 
ATOM     51  C   UNL A   1      48.258  30.867  27.664  1.00  0.00     0.029 A 
ATOM     52  N   UNL A   1      46.702  29.282  27.588  1.00  0.00    -0.354 N 
ATOM     53  N   UNL A   1      45.706  26.552  27.177  1.00  0.00    -0.248 NA
ATOM     54  C   UNL A   1      46.058  24.341  26.508  1.00  0.00     0.031 C 
ATOM     55  C   UNL A   1      48.852  29.687  27.206  1.00  0.00     0.029 A 
ATOM     56  C   UNL A   1      47.889  28.692  27.185  1.00  0.00     0.049 A 
ATOM     57  H   UNL A   1      45.837  28.817  27.662  1.00  0.00     0.167 HD
ATOM     58  C   UNL A   1      47.042  26.387  26.829  1.00  0.00     0.074 A 
ATOM     59  C   UNL A   1      47.208  24.998  26.455  1.00  0.00     0.031 C 
ATOM     60  C   UNL A   1      48.042  27.305  26.823  1.00  0.00     0.037 A 
BRANCH  47  61
ATOM     61  C   UNL A   1      46.273  32.987  28.505  1.00  0.00     0.058 A 
ATOM     62  C   UNL A   1      46.195  33.929  27.466  1.00  0.00     0.135 A 
ATOM     63  C   UNL A   1      46.690  33.444  29.767  1.00  0.00     0.135 A 
ATOM     64  F   UNL A   1      45.817  33.549  26.236  1.00  0.00    -0.206 F 
ATOM     65  C   UNL A   1      46.546  35.261  27.660  1.00  0.00     0.059 A 
ATOM     66  C   UNL A   1      47.016  34.779  29.993  1.00  0.00     0.059 A 
ATOM     67  F   UNL A   1      46.783  32.590  30.798  1.00  0.00    -0.206 F 
ATOM     68  C   UNL A   1      46.955  35.677  28.929  1.00  0.00     0.060 A 
BRANCH  68  69
ATOM     69  S   UNL A   1      47.404  37.410  29.163  1.00  0.00     0.124 S 
ATOM     70  O   UNL A   1      47.582  37.854  27.784  1.00  0.00    -0.237 OA
ATOM     71  O   UNL A   1      46.234  37.945  29.854  1.00  0.00    -0.237 OA
ATOM     72  O   UNL A   1      48.623  37.341  29.962  1.00  0.00    -0.744 OA
ENDBRANCH  68  69
ENDBRANCH  47  61
BRANCH  48  73
ATOM     73  C   UNL A   1      43.273  23.567  27.009  1.00  0.00     0.058 A 
ATOM     74  C   UNL A   1      43.015  23.116  25.705  1.00  0.00     0.135 A 
ATOM     75  C   UNL A   1      43.105  22.650  28.059  1.00  0.00     0.135 A 
ATOM     76  F   UNL A   1      43.154  23.956  24.668  1.00  0.00    -0.206 F 
ATOM     77  C   UNL A   1      42.590  21.817  25.452  1.00  0.00     0.059 A 
ATOM     78  C   UNL A   1      42.708  21.337  27.829  1.00  0.00     0.059 A 
ATOM     79  F   UNL A   1      43.352  23.025  29.325  1.00  0.00    -0.206 F 
ATOM     80  C   UNL A   1      42.441  20.932  26.522  1.00  0.00     0.060 A 
BRANCH  80  81
ATOM     81  S   UNL A   1      41.927  19.236  26.176  1.00  0.00     0.124 S 
ATOM     82  O   UNL A   1      42.758  18.905  25.025  1.00  0.00    -0.237 OA
ATOM     83  O   UNL A   1      42.264  18.555  27.423  1.00  0.00    -0.237 OA
ATOM     84  O   UNL A   1      40.498  19.365  25.907  1.00  0.00    -0.744 OA
ENDBRANCH  80  81
ENDBRANCH  48  73
BRANCH  60  85
ATOM     85  C   UNL A   1      49.417  26.831  26.436  1.00  0.00     0.058 A 
ATOM     86  C   UNL A   1      50.289  26.246  27.368  1.00  0.00     0.135 A 
ATOM     87  C   UNL A   1      49.847  26.917  25.101  1.00  0.00     0.135 A 
ATOM     88  F   UNL A   1      49.930  26.143  28.658  1.00  0.00    -0.206 F 
ATOM     89  C   UNL A   1      51.547  25.784  26.996  1.00  0.00     0.059 A 
ATOM     90  C   UNL A   1      51.089  26.435  24.701  1.00  0.00     0.059 A 
ATOM     91  F   UNL A   1      49.050  27.458  24.167  1.00  0.00    -0.206 F 
ATOM     92  C   UNL A   1      51.938  25.881  25.659  1.00  0.00     0.060 A 
BRANCH  92  93
ATOM     93  S   UNL A   1      53.560  25.248  25.183  1.00  0.00     0.124 S 
ATOM     94  O   UNL A   1      53.657  25.700  23.798  1.00  0.00    -0.237 OA
ATOM     95  O   UNL A   1      54.447  25.918  26.130  1.00  0.00    -0.237 OA
ATOM     96  O   UNL A   1      53.431  23.806  25.365  1.00  0.00    -0.744 OA
ENDBRANCH  92  93
ENDBRANCH  60  85
ENDBRANCH  34  35
ENDBRANCH  26  29
ENDBRANCH  24  25
ENDBRANCH   1  24
TORSDOF 17
ENDMDL
