MODEL 1
REMARK VINA RESULT:      -9.6      0.000      0.000
REMARK SMILES CC[NH2+][C@@]1(C(=O)NCCCNC(=O)c2ccc(-c3c4nc(c(-c5c(F)cc(S(=O)(=O)[O-])cc5F)c5ccc([nH]5)c(-c5c(F)cc(S(=O)(=O)[O-])cc5F)c5nc(c(-c6c(F)cc(S(=O)(=O)[O-])cc6F)c6ccc3[nH]6)C=C5)C=C4)cc2)CC[C@@H](Oc2cccc(OC)c2)C1
REMARK SMILES IDX 9 1 8 2 7 3 5 4 6 5 4 7 80 8 92 9 81 10 82 11 3 12 2 15 1 16
REMARK SMILES IDX 83 17 84 18 85 19 91 20 86 21 88 22 87 23 89 24 90 25 10 26
REMARK SMILES IDX 11 27 12 28 13 30 14 31 15 32 79 33 16 34 78 35 17 36 18 37
REMARK SMILES IDX 19 38 72 39 20 40 77 41 71 42 73 43 21 44 76 45 70 46 69 47
REMARK SMILES IDX 22 49 56 50 35 51 55 52 36 53 39 54 54 55 74 56 37 57 38 58
REMARK SMILES IDX 53 60 75 61 40 62 23 63 24 64 33 65 25 66 26 67 32 68 34 69
REMARK SMILES IDX 27 70 28 71 29 72 30 73 31 74 57 75 58 76 67 77 59 78 60 79
REMARK SMILES IDX 66 80 68 81 61 82 62 83 63 84 64 85 65 86 41 87 42 88 51 89
REMARK SMILES IDX 43 90 44 91 50 92 52 93 45 94 46 95 47 96 48 97 49 98
REMARK H PARENT 7 6 3 13 3 14 11 29 73 48 39 59
REMARK Flexibility Score: inf
ROOT
ATOM      1  C   UNL A   1      34.012  33.847  28.281  1.00  0.00     0.042 C 
ENDROOT
BRANCH   1   2
ATOM      2  C   UNL A   1      34.143  34.651  29.567  1.00  0.00     0.118 C 
BRANCH   2   3
ATOM      3  N   UNL A   1      33.834  33.835  30.717  1.00  0.00    -0.351 N 
ATOM      4  C   UNL A   1      34.588  33.391  31.755  1.00  0.00     0.281 C 
ATOM      5  O   UNL A   1      34.087  32.435  32.361  1.00  0.00    -0.268 OA
ATOM      6  H   UNL A   1      32.895  33.542  30.755  1.00  0.00     0.163 HD
BRANCH   4   7
ATOM      7  C   UNL A   1      35.989  33.997  32.148  1.00  0.00     0.179 C 
ATOM      8  C   UNL A   1      37.080  33.975  31.059  1.00  0.00     0.083 C 
ATOM      9  C   UNL A   1      36.573  33.212  33.343  1.00  0.00     0.124 C 
ATOM     10  C   UNL A   1      38.211  33.059  31.526  1.00  0.00     0.052 C 
ATOM     11  C   UNL A   1      37.726  32.366  32.800  1.00  0.00     0.180 C 
BRANCH   7  12
ATOM     12  N   UNL A   1      35.794  35.414  32.603  1.00  0.00    -0.334 N 
ATOM     13  H   UNL A   1      36.688  35.763  32.947  1.00  0.00     0.347 HD
ATOM     14  H   UNL A   1      35.445  35.930  31.795  1.00  0.00     0.347 HD
BRANCH  12  15
ATOM     15  C   UNL A   1      34.797  35.584  33.665  1.00  0.00     0.257 C 
ATOM     16  C   UNL A   1      33.907  36.775  33.344  1.00  0.00     0.071 C 
ENDBRANCH  12  15
ENDBRANCH   7  12
BRANCH  11  17
ATOM     17  O   UNL A   1      38.714  31.978  33.768  1.00  0.00    -0.490 OA
BRANCH  17  18
ATOM     18  C   UNL A   1      39.326  30.782  33.531  1.00  0.00     0.123 A 
ATOM     19  C   UNL A   1      38.559  29.702  33.102  1.00  0.00     0.047 A 
ATOM     20  C   UNL A   1      40.693  30.640  33.740  1.00  0.00     0.092 A 
ATOM     21  C   UNL A   1      39.189  28.500  32.783  1.00  0.00     0.008 A 
ATOM     22  C   UNL A   1      41.337  29.463  33.370  1.00  0.00     0.122 A 
ATOM     23  C   UNL A   1      40.578  28.391  32.898  1.00  0.00     0.046 A 
BRANCH  22  24
ATOM     24  O   UNL A   1      42.689  29.261  33.428  1.00  0.00    -0.497 OA
ATOM     25  C   UNL A   1      43.243  29.154  34.738  1.00  0.00     0.278 C 
ENDBRANCH  22  24
ENDBRANCH  17  18
ENDBRANCH  11  17
ENDBRANCH   4   7
ENDBRANCH   2   3
ENDBRANCH   1   2
BRANCH   1  26
ATOM     26  C   UNL A   1      34.962  32.663  28.233  1.00  0.00     0.118 C 
BRANCH  26  27
ATOM     27  N   UNL A   1      34.234  31.404  28.144  1.00  0.00    -0.352 N 
ATOM     28  C   UNL A   1      34.714  30.133  27.992  1.00  0.00     0.251 C 
ATOM     29  H   UNL A   1      33.255  31.480  28.202  1.00  0.00     0.163 HD
ATOM     30  O   UNL A   1      33.943  29.236  27.636  1.00  0.00    -0.269 OA
BRANCH  28  31
ATOM     31  C   UNL A   1      36.134  29.834  28.258  1.00  0.00     0.039 A 
ATOM     32  C   UNL A   1      37.068  29.980  27.230  1.00  0.00     0.014 A 
ATOM     33  C   UNL A   1      36.537  29.363  29.511  1.00  0.00     0.014 A 
ATOM     34  C   UNL A   1      38.408  29.674  27.468  1.00  0.00     0.010 A 
ATOM     35  C   UNL A   1      37.883  29.163  29.777  1.00  0.00     0.010 A 
ATOM     36  C   UNL A   1      38.827  29.278  28.749  1.00  0.00    -0.014 A 
BRANCH  36  37
ATOM     37  C   UNL A   1      40.235  28.904  29.024  1.00  0.00     0.031 A 
ATOM     38  C   UNL A   1      41.163  29.919  29.639  1.00  0.00     0.074 A 
ATOM     39  C   UNL A   1      40.688  27.688  28.664  1.00  0.00     0.049 A 
ATOM     40  N   UNL A   1      42.445  29.831  29.879  1.00  0.00    -0.248 NA
ATOM     41  C   UNL A   1      40.578  31.223  29.999  1.00  0.00     0.031 C 
ATOM     42  C   UNL A   1      39.890  26.646  28.011  1.00  0.00     0.029 A 
ATOM     43  N   UNL A   1      41.931  27.126  28.788  1.00  0.00    -0.354 N 
ATOM     44  C   UNL A   1      42.820  31.068  30.389  1.00  0.00     0.074 A 
ATOM     45  C   UNL A   1      41.647  31.912  30.364  1.00  0.00     0.031 C 
ATOM     46  C   UNL A   1      40.659  25.562  27.818  1.00  0.00     0.029 A 
ATOM     47  C   UNL A   1      42.009  25.846  28.295  1.00  0.00     0.049 A 
ATOM     48  H   UNL A   1      42.697  27.595  29.192  1.00  0.00     0.167 HD
ATOM     49  C   UNL A   1      44.026  31.457  30.865  1.00  0.00     0.037 A 
ATOM     50  C   UNL A   1      43.055  24.998  28.233  1.00  0.00     0.037 A 
ATOM     51  C   UNL A   1      45.174  30.591  30.923  1.00  0.00     0.049 A 
ATOM     52  C   UNL A   1      44.381  25.442  28.791  1.00  0.00     0.074 A 
ATOM     53  C   UNL A   1      46.429  30.857  31.440  1.00  0.00     0.029 A 
ATOM     54  N   UNL A   1      45.202  29.285  30.453  1.00  0.00    -0.354 N 
ATOM     55  N   UNL A   1      44.705  26.598  29.324  1.00  0.00    -0.248 NA
ATOM     56  C   UNL A   1      45.477  24.468  28.753  1.00  0.00     0.031 C 
ATOM     57  C   UNL A   1      47.227  29.726  31.246  1.00  0.00     0.029 A 
ATOM     58  C   UNL A   1      46.456  28.735  30.658  1.00  0.00     0.049 A 
ATOM     59  H   UNL A   1      44.442  28.818  30.036  1.00  0.00     0.167 HD
ATOM     60  C   UNL A   1      46.034  26.475  29.716  1.00  0.00     0.074 A 
ATOM     61  C   UNL A   1      46.448  25.132  29.364  1.00  0.00     0.031 C 
ATOM     62  C   UNL A   1      46.838  27.389  30.314  1.00  0.00     0.037 A 
BRANCH  49  63
ATOM     63  C   UNL A   1      44.159  32.869  31.367  1.00  0.00     0.058 A 
ATOM     64  C   UNL A   1      43.944  33.198  32.716  1.00  0.00     0.135 A 
ATOM     65  C   UNL A   1      44.528  33.906  30.495  1.00  0.00     0.135 A 
ATOM     66  F   UNL A   1      43.573  32.251  33.592  1.00  0.00    -0.206 F 
ATOM     67  C   UNL A   1      44.055  34.507  33.174  1.00  0.00     0.059 A 
ATOM     68  C   UNL A   1      44.675  35.218  30.938  1.00  0.00     0.059 A 
ATOM     69  F   UNL A   1      44.744  33.652  29.194  1.00  0.00    -0.206 F 
ATOM     70  C   UNL A   1      44.421  35.510  32.277  1.00  0.00     0.060 A 
BRANCH  70  71
ATOM     71  S   UNL A   1      44.566  37.203  32.889  1.00  0.00     0.124 S 
ATOM     72  O   UNL A   1      44.216  37.033  34.296  1.00  0.00    -0.237 OA
ATOM     73  O   UNL A   1      45.966  37.513  32.618  1.00  0.00    -0.237 OA
ATOM     74  O   UNL A   1      43.596  37.939  32.086  1.00  0.00    -0.744 OA
ENDBRANCH  70  71
ENDBRANCH  49  63
BRANCH  50  75
ATOM     75  C   UNL A   1      42.878  23.640  27.656  1.00  0.00     0.058 A 
ATOM     76  C   UNL A   1      43.112  23.401  26.294  1.00  0.00     0.135 A 
ATOM     77  C   UNL A   1      42.489  22.551  28.452  1.00  0.00     0.135 A 
ATOM     78  F   UNL A   1      43.484  24.409  25.490  1.00  0.00    -0.206 F 
ATOM     79  C   UNL A   1      42.948  22.137  25.735  1.00  0.00     0.059 A 
ATOM     80  C   UNL A   1      42.345  21.272  27.923  1.00  0.00     0.059 A 
ATOM     81  F   UNL A   1      42.274  22.722  29.766  1.00  0.00    -0.206 F 
ATOM     82  C   UNL A   1      42.565  21.077  26.560  1.00  0.00     0.060 A 
BRANCH  82  83
ATOM     83  S   UNL A   1      42.396  19.433  25.833  1.00  0.00     0.124 S 
ATOM     84  O   UNL A   1      42.719  18.576  26.968  1.00  0.00    -0.237 OA
ATOM     85  O   UNL A   1      41.000  19.428  25.406  1.00  0.00    -0.237 OA
ATOM     86  O   UNL A   1      43.375  19.442  24.750  1.00  0.00    -0.744 OA
ENDBRANCH  82  83
ENDBRANCH  50  75
BRANCH  62  87
ATOM     87  C   UNL A   1      48.230  26.952  30.676  1.00  0.00     0.058 A 
ATOM     88  C   UNL A   1      49.329  27.213  29.843  1.00  0.00     0.135 A 
ATOM     89  C   UNL A   1      48.472  26.314  31.903  1.00  0.00     0.135 A 
ATOM     90  F   UNL A   1      49.150  27.817  28.657  1.00  0.00    -0.206 F 
ATOM     91  C   UNL A   1      50.617  26.832  30.202  1.00  0.00     0.059 A 
ATOM     92  C   UNL A   1      49.755  25.951  32.296  1.00  0.00     0.059 A 
ATOM     93  F   UNL A   1      47.457  26.053  32.742  1.00  0.00    -0.206 F 
ATOM     94  C   UNL A   1      50.821  26.203  31.433  1.00  0.00     0.060 A 
BRANCH  94  95
ATOM     95  S   UNL A   1      52.501  25.743  31.902  1.00  0.00     0.124 S 
ATOM     96  O   UNL A   1      52.779  26.698  32.969  1.00  0.00    -0.237 OA
ATOM     97  O   UNL A   1      52.339  24.353  32.320  1.00  0.00    -0.237 OA
ATOM     98  O   UNL A   1      53.262  25.936  30.671  1.00  0.00    -0.744 OA
ENDBRANCH  94  95
ENDBRANCH  62  87
ENDBRANCH  36  37
ENDBRANCH  28  31
ENDBRANCH  26  27
ENDBRANCH   1  26
TORSDOF 18
ENDMDL
MODEL 2
REMARK VINA RESULT:      -9.4      4.438      7.791
REMARK SMILES CC[NH2+][C@@]1(C(=O)NCCCNC(=O)c2ccc(-c3c4nc(c(-c5c(F)cc(S(=O)(=O)[O-])cc5F)c5ccc([nH]5)c(-c5c(F)cc(S(=O)(=O)[O-])cc5F)c5nc(c(-c6c(F)cc(S(=O)(=O)[O-])cc6F)c6ccc3[nH]6)C=C5)C=C4)cc2)CC[C@@H](Oc2cccc(OC)c2)C1
REMARK SMILES IDX 9 1 8 2 7 3 5 4 6 5 4 7 80 8 92 9 81 10 82 11 3 12 2 15 1 16
REMARK SMILES IDX 83 17 84 18 85 19 91 20 86 21 88 22 87 23 89 24 90 25 10 26
REMARK SMILES IDX 11 27 12 28 13 30 14 31 15 32 79 33 16 34 78 35 17 36 18 37
REMARK SMILES IDX 19 38 72 39 20 40 77 41 71 42 73 43 21 44 76 45 70 46 69 47
REMARK SMILES IDX 22 49 56 50 35 51 55 52 36 53 39 54 54 55 74 56 37 57 38 58
REMARK SMILES IDX 53 60 75 61 40 62 23 63 24 64 33 65 25 66 26 67 32 68 34 69
REMARK SMILES IDX 27 70 28 71 29 72 30 73 31 74 57 75 58 76 67 77 59 78 60 79
REMARK SMILES IDX 66 80 68 81 61 82 62 83 63 84 64 85 65 86 41 87 42 88 51 89
REMARK SMILES IDX 43 90 44 91 50 92 52 93 45 94 46 95 47 96 48 97 49 98
REMARK H PARENT 7 6 3 13 3 14 11 29 73 48 39 59
REMARK Flexibility Score: inf
ROOT
ATOM      1  C   UNL A   1      32.891  27.912  26.763  1.00  0.00     0.042 C 
ENDROOT
BRANCH   1   2
ATOM      2  C   UNL A   1      32.911  26.457  26.314  1.00  0.00     0.118 C 
BRANCH   2   3
ATOM      3  N   UNL A   1      31.642  25.821  26.579  1.00  0.00    -0.351 N 
ATOM      4  C   UNL A   1      30.553  25.591  25.802  1.00  0.00     0.281 C 
ATOM      5  O   UNL A   1      29.525  25.341  26.447  1.00  0.00    -0.268 OA
ATOM      6  H   UNL A   1      31.549  25.491  27.501  1.00  0.00     0.163 HD
BRANCH   4   7
ATOM      7  C   UNL A   1      30.562  25.665  24.227  1.00  0.00     0.179 C 
ATOM      8  C   UNL A   1      31.833  26.242  23.571  1.00  0.00     0.083 C 
ATOM      9  C   UNL A   1      29.399  26.560  23.747  1.00  0.00     0.124 C 
ATOM     10  C   UNL A   1      31.462  27.542  22.860  1.00  0.00     0.052 C 
ATOM     11  C   UNL A   1      30.019  27.866  23.247  1.00  0.00     0.180 C 
BRANCH   7  12
ATOM     12  N   UNL A   1      30.320  24.290  23.677  1.00  0.00    -0.334 N 
ATOM     13  H   UNL A   1      29.373  24.008  23.933  1.00  0.00     0.347 HD
ATOM     14  H   UNL A   1      30.460  24.354  22.668  1.00  0.00     0.347 HD
BRANCH  12  15
ATOM     15  C   UNL A   1      31.249  23.264  24.160  1.00  0.00     0.257 C 
ATOM     16  C   UNL A   1      31.942  22.604  22.978  1.00  0.00     0.071 C 
ENDBRANCH  12  15
ENDBRANCH   7  12
BRANCH  11  17
ATOM     17  O   UNL A   1      29.224  28.604  22.305  1.00  0.00    -0.490 OA
BRANCH  17  18
ATOM     18  C   UNL A   1      29.028  29.919  22.610  1.00  0.00     0.123 A 
ATOM     19  C   UNL A   1      29.511  30.414  23.819  1.00  0.00     0.047 A 
ATOM     20  C   UNL A   1      28.333  30.746  21.735  1.00  0.00     0.092 A 
ATOM     21  C   UNL A   1      29.383  31.773  24.101  1.00  0.00     0.008 A 
ATOM     22  C   UNL A   1      28.252  32.113  21.983  1.00  0.00     0.122 A 
ATOM     23  C   UNL A   1      28.772  32.622  23.174  1.00  0.00     0.046 A 
BRANCH  22  24
ATOM     24  O   UNL A   1      27.691  33.029  21.134  1.00  0.00    -0.497 OA
ATOM     25  C   UNL A   1      27.871  32.773  19.742  1.00  0.00     0.278 C 
ENDBRANCH  22  24
ENDBRANCH  17  18
ENDBRANCH  11  17
ENDBRANCH   4   7
ENDBRANCH   2   3
ENDBRANCH   1   2
BRANCH   1  26
ATOM     26  C   UNL A   1      34.010  28.729  26.141  1.00  0.00     0.118 C 
BRANCH  26  27
ATOM     27  N   UNL A   1      33.845  30.150  26.420  1.00  0.00    -0.352 N 
ATOM     28  C   UNL A   1      34.459  30.926  27.365  1.00  0.00     0.251 C 
ATOM     29  H   UNL A   1      33.199  30.619  25.846  1.00  0.00     0.163 HD
ATOM     30  O   UNL A   1      33.975  32.026  27.647  1.00  0.00    -0.269 OA
BRANCH  28  31
ATOM     31  C   UNL A   1      35.688  30.458  28.031  1.00  0.00     0.039 A 
ATOM     32  C   UNL A   1      35.588  29.718  29.212  1.00  0.00     0.014 A 
ATOM     33  C   UNL A   1      36.945  30.790  27.516  1.00  0.00     0.014 A 
ATOM     34  C   UNL A   1      36.749  29.296  29.861  1.00  0.00     0.010 A 
ATOM     35  C   UNL A   1      38.093  30.278  28.102  1.00  0.00     0.010 A 
ATOM     36  C   UNL A   1      38.009  29.560  29.302  1.00  0.00    -0.014 A 
BRANCH  36  37
ATOM     37  C   UNL A   1      39.262  29.162  29.988  1.00  0.00     0.031 A 
ATOM     38  C   UNL A   1      39.688  29.896  31.232  1.00  0.00     0.074 A 
ATOM     39  C   UNL A   1      40.037  28.196  29.460  1.00  0.00     0.049 A 
ATOM     40  N   UNL A   1      40.785  29.771  31.932  1.00  0.00    -0.248 NA
ATOM     41  C   UNL A   1      38.776  30.939  31.735  1.00  0.00     0.031 C 
ATOM     42  C   UNL A   1      39.747  27.456  28.229  1.00  0.00     0.029 A 
ATOM     43  N   UNL A   1      41.230  27.676  29.887  1.00  0.00    -0.354 N 
ATOM     44  C   UNL A   1      40.706  30.730  32.935  1.00  0.00     0.074 A 
ATOM     45  C   UNL A   1      39.486  31.475  32.716  1.00  0.00     0.031 C 
ATOM     46  C   UNL A   1      40.724  26.559  28.017  1.00  0.00     0.029 A 
ATOM     47  C   UNL A   1      41.725  26.688  29.070  1.00  0.00     0.049 A 
ATOM     48  H   UNL A   1      41.691  27.983  30.702  1.00  0.00     0.167 HD
ATOM     49  C   UNL A   1      41.556  30.951  33.965  1.00  0.00     0.037 A 
ATOM     50  C   UNL A   1      42.861  25.969  29.163  1.00  0.00     0.037 A 
ATOM     51  C   UNL A   1      42.744  30.173  34.194  1.00  0.00     0.049 A 
ATOM     52  C   UNL A   1      43.779  26.214  30.330  1.00  0.00     0.074 A 
ATOM     53  C   UNL A   1      43.647  30.267  35.238  1.00  0.00     0.029 A 
ATOM     54  N   UNL A   1      43.189  29.150  33.368  1.00  0.00    -0.354 N 
ATOM     55  N   UNL A   1      43.661  27.087  31.304  1.00  0.00    -0.248 NA
ATOM     56  C   UNL A   1      44.977  25.370  30.421  1.00  0.00     0.031 C 
ATOM     57  C   UNL A   1      44.660  29.328  35.021  1.00  0.00     0.029 A 
ATOM     58  C   UNL A   1      44.361  28.612  33.872  1.00  0.00     0.049 A 
ATOM     59  H   UNL A   1      42.739  28.852  32.546  1.00  0.00     0.167 HD
ATOM     60  C   UNL A   1      44.750  26.872  32.140  1.00  0.00     0.074 A 
ATOM     61  C   UNL A   1      45.511  25.784  31.561  1.00  0.00     0.031 C 
ATOM     62  C   UNL A   1      45.091  27.515  33.286  1.00  0.00     0.037 A 
BRANCH  49  63
ATOM     63  C   UNL A   1      41.225  32.066  34.920  1.00  0.00     0.058 A 
ATOM     64  C   UNL A   1      40.354  31.876  36.005  1.00  0.00     0.135 A 
ATOM     65  C   UNL A   1      41.802  33.337  34.763  1.00  0.00     0.135 A 
ATOM     66  F   UNL A   1      39.759  30.688  36.195  1.00  0.00    -0.206 F 
ATOM     67  C   UNL A   1      40.039  32.912  36.879  1.00  0.00     0.059 A 
ATOM     68  C   UNL A   1      41.527  34.379  35.643  1.00  0.00     0.059 A 
ATOM     69  F   UNL A   1      42.641  33.578  33.743  1.00  0.00    -0.206 F 
ATOM     70  C   UNL A   1      40.632  34.161  36.689  1.00  0.00     0.060 A 
BRANCH  70  71
ATOM     71  S   UNL A   1      40.217  35.493  37.835  1.00  0.00     0.124 S 
ATOM     72  O   UNL A   1      39.110  34.902  38.580  1.00  0.00    -0.237 OA
ATOM     73  O   UNL A   1      41.462  35.662  38.579  1.00  0.00    -0.237 OA
ATOM     74  O   UNL A   1      39.861  36.601  36.955  1.00  0.00    -0.744 OA
ENDBRANCH  70  71
ENDBRANCH  49  63
BRANCH  50  75
ATOM     75  C   UNL A   1      43.169  24.931  28.144  1.00  0.00     0.058 A 
ATOM     76  C   UNL A   1      43.905  25.248  26.994  1.00  0.00     0.135 A 
ATOM     77  C   UNL A   1      42.751  23.601  28.306  1.00  0.00     0.135 A 
ATOM     78  F   UNL A   1      44.326  26.506  26.792  1.00  0.00    -0.206 F 
ATOM     79  C   UNL A   1      44.200  24.291  26.028  1.00  0.00     0.059 A 
ATOM     80  C   UNL A   1      43.057  22.618  27.368  1.00  0.00     0.059 A 
ATOM     81  F   UNL A   1      42.062  23.239  29.399  1.00  0.00    -0.206 F 
ATOM     82  C   UNL A   1      43.771  22.976  26.225  1.00  0.00     0.060 A 
BRANCH  82  83
ATOM     83  S   UNL A   1      44.196  21.733  24.986  1.00  0.00     0.124 S 
ATOM     84  O   UNL A   1      45.576  21.426  25.340  1.00  0.00    -0.237 OA
ATOM     85  O   UNL A   1      43.217  20.684  25.257  1.00  0.00    -0.237 OA
ATOM     86  O   UNL A   1      44.009  22.442  23.723  1.00  0.00    -0.744 OA
ENDBRANCH  82  83
ENDBRANCH  50  75
BRANCH  62  87
ATOM     87  C   UNL A   1      46.309  27.026  34.017  1.00  0.00     0.058 A 
ATOM     88  C   UNL A   1      47.591  27.522  33.737  1.00  0.00     0.135 A 
ATOM     89  C   UNL A   1      46.179  26.088  35.054  1.00  0.00     0.135 A 
ATOM     90  F   UNL A   1      47.769  28.417  32.753  1.00  0.00    -0.206 F 
ATOM     91  C   UNL A   1      48.707  27.084  34.442  1.00  0.00     0.059 A 
ATOM     92  C   UNL A   1      47.276  25.659  35.791  1.00  0.00     0.059 A 
ATOM     93  F   UNL A   1      44.971  25.592  35.371  1.00  0.00    -0.206 F 
ATOM     94  C   UNL A   1      48.539  26.153  35.469  1.00  0.00     0.060 A 
BRANCH  94  95
ATOM     95  S   UNL A   1      49.990  25.618  36.398  1.00  0.00     0.124 S 
ATOM     96  O   UNL A   1      49.800  24.171  36.431  1.00  0.00    -0.237 OA
ATOM     97  O   UNL A   1      51.088  26.094  35.563  1.00  0.00    -0.237 OA
ATOM     98  O   UNL A   1      49.844  26.301  37.680  1.00  0.00    -0.744 OA
ENDBRANCH  94  95
ENDBRANCH  62  87
ENDBRANCH  36  37
ENDBRANCH  28  31
ENDBRANCH  26  27
ENDBRANCH   1  26
TORSDOF 18
ENDMDL
MODEL 3
REMARK VINA RESULT:      -9.3      3.702      7.103
REMARK SMILES CC[NH2+][C@@]1(C(=O)NCCCNC(=O)c2ccc(-c3c4nc(c(-c5c(F)cc(S(=O)(=O)[O-])cc5F)c5ccc([nH]5)c(-c5c(F)cc(S(=O)(=O)[O-])cc5F)c5nc(c(-c6c(F)cc(S(=O)(=O)[O-])cc6F)c6ccc3[nH]6)C=C5)C=C4)cc2)CC[C@@H](Oc2cccc(OC)c2)C1
REMARK SMILES IDX 9 1 8 2 7 3 5 4 6 5 4 7 80 8 92 9 81 10 82 11 3 12 2 15 1 16
REMARK SMILES IDX 83 17 84 18 85 19 91 20 86 21 88 22 87 23 89 24 90 25 10 26
REMARK SMILES IDX 11 27 12 28 13 30 14 31 15 32 79 33 16 34 78 35 17 36 18 37
REMARK SMILES IDX 19 38 72 39 20 40 77 41 71 42 73 43 21 44 76 45 70 46 69 47
REMARK SMILES IDX 22 49 56 50 35 51 55 52 36 53 39 54 54 55 74 56 37 57 38 58
REMARK SMILES IDX 53 60 75 61 40 62 23 63 24 64 33 65 25 66 26 67 32 68 34 69
REMARK SMILES IDX 27 70 28 71 29 72 30 73 31 74 57 75 58 76 67 77 59 78 60 79
REMARK SMILES IDX 66 80 68 81 61 82 62 83 63 84 64 85 65 86 41 87 42 88 51 89
REMARK SMILES IDX 43 90 44 91 50 92 52 93 45 94 46 95 47 96 48 97 49 98
REMARK H PARENT 7 6 3 13 3 14 11 29 73 48 39 59
REMARK Flexibility Score: inf
ROOT
ATOM      1  C   UNL A   1      33.133  27.572  26.588  1.00  0.00     0.042 C 
ENDROOT
BRANCH   1   2
ATOM      2  C   UNL A   1      33.491  26.205  26.018  1.00  0.00     0.118 C 
BRANCH   2   3
ATOM      3  N   UNL A   1      32.340  25.334  26.012  1.00  0.00    -0.351 N 
ATOM      4  C   UNL A   1      31.410  25.052  25.065  1.00  0.00     0.281 C 
ATOM      5  O   UNL A   1      30.379  24.536  25.519  1.00  0.00    -0.268 OA
ATOM      6  H   UNL A   1      32.204  24.852  26.859  1.00  0.00     0.163 HD
BRANCH   4   7
ATOM      7  C   UNL A   1      31.587  25.373  23.532  1.00  0.00     0.179 C 
ATOM      8  C   UNL A   1      32.865  26.138  23.131  1.00  0.00     0.083 C 
ATOM      9  C   UNL A   1      30.408  26.246  23.049  1.00  0.00     0.124 C 
ATOM     10  C   UNL A   1      32.458  27.504  22.579  1.00  0.00     0.052 C 
ATOM     11  C   UNL A   1      30.957  27.656  22.828  1.00  0.00     0.180 C 
BRANCH   7  12
ATOM     12  N   UNL A   1      31.534  24.089  22.759  1.00  0.00    -0.334 N 
ATOM     13  H   UNL A   1      31.033  23.400  23.322  1.00  0.00     0.347 HD
ATOM     14  H   UNL A   1      31.068  24.302  21.877  1.00  0.00     0.347 HD
BRANCH  12  15
ATOM     15  C   UNL A   1      32.843  23.529  22.410  1.00  0.00     0.257 C 
ATOM     16  C   UNL A   1      33.173  22.378  23.350  1.00  0.00     0.071 C 
ENDBRANCH  12  15
ENDBRANCH   7  12
BRANCH  11  17
ATOM     17  O   UNL A   1      30.207  28.473  21.915  1.00  0.00    -0.490 OA
BRANCH  17  18
ATOM     18  C   UNL A   1      29.690  29.618  22.445  1.00  0.00     0.123 A 
ATOM     19  C   UNL A   1      29.985  29.946  23.767  1.00  0.00     0.047 A 
ATOM     20  C   UNL A   1      28.859  30.431  21.683  1.00  0.00     0.092 A 
ATOM     21  C   UNL A   1      29.524  31.153  24.289  1.00  0.00     0.008 A 
ATOM     22  C   UNL A   1      28.443  31.663  22.178  1.00  0.00     0.122 A 
ATOM     23  C   UNL A   1      28.772  32.017  23.488  1.00  0.00     0.046 A 
BRANCH  22  24
ATOM     24  O   UNL A   1      27.720  32.586  21.471  1.00  0.00    -0.497 OA
ATOM     25  C   UNL A   1      27.835  32.505  20.052  1.00  0.00     0.278 C 
ENDBRANCH  22  24
ENDBRANCH  17  18
ENDBRANCH  11  17
ENDBRANCH   4   7
ENDBRANCH   2   3
ENDBRANCH   1   2
BRANCH   1  26
ATOM     26  C   UNL A   1      34.112  28.654  26.165  1.00  0.00     0.118 C 
BRANCH  26  27
ATOM     27  N   UNL A   1      33.862  29.899  26.879  1.00  0.00    -0.352 N 
ATOM     28  C   UNL A   1      34.575  30.477  27.893  1.00  0.00     0.251 C 
ATOM     29  H   UNL A   1      33.065  30.398  26.589  1.00  0.00     0.163 HD
ATOM     30  O   UNL A   1      34.050  31.367  28.568  1.00  0.00    -0.269 OA
BRANCH  28  31
ATOM     31  C   UNL A   1      35.959  30.048  28.171  1.00  0.00     0.039 A 
ATOM     32  C   UNL A   1      36.272  29.517  29.424  1.00  0.00     0.014 A 
ATOM     33  C   UNL A   1      36.959  30.213  27.208  1.00  0.00     0.014 A 
ATOM     34  C   UNL A   1      37.585  29.134  29.702  1.00  0.00     0.010 A 
ATOM     35  C   UNL A   1      38.238  29.733  27.447  1.00  0.00     0.010 A 
ATOM     36  C   UNL A   1      38.574  29.225  28.709  1.00  0.00    -0.014 A 
BRANCH  36  37
ATOM     37  C   UNL A   1      39.986  28.867  28.985  1.00  0.00     0.031 A 
ATOM     38  C   UNL A   1      40.907  29.899  29.582  1.00  0.00     0.074 A 
ATOM     39  C   UNL A   1      40.447  27.649  28.643  1.00  0.00     0.049 A 
ATOM     40  N   UNL A   1      42.191  29.825  29.818  1.00  0.00    -0.248 NA
ATOM     41  C   UNL A   1      40.313  31.204  29.923  1.00  0.00     0.031 C 
ATOM     42  C   UNL A   1      39.655  26.591  28.010  1.00  0.00     0.029 A 
ATOM     43  N   UNL A   1      41.695  27.099  28.771  1.00  0.00    -0.354 N 
ATOM     44  C   UNL A   1      42.558  31.072  30.307  1.00  0.00     0.074 A 
ATOM     45  C   UNL A   1      41.378  31.907  30.274  1.00  0.00     0.031 C 
ATOM     46  C   UNL A   1      40.432  25.510  27.831  1.00  0.00     0.029 A 
ATOM     47  C   UNL A   1      41.781  25.812  28.298  1.00  0.00     0.049 A 
ATOM     48  H   UNL A   1      42.459  27.581  29.165  1.00  0.00     0.167 HD
ATOM     49  C   UNL A   1      43.763  31.478  30.773  1.00  0.00     0.037 A 
ATOM     50  C   UNL A   1      42.834  24.972  28.246  1.00  0.00     0.037 A 
ATOM     51  C   UNL A   1      44.917  30.622  30.841  1.00  0.00     0.049 A 
ATOM     52  C   UNL A   1      44.158  25.435  28.793  1.00  0.00     0.074 A 
ATOM     53  C   UNL A   1      46.172  30.907  31.349  1.00  0.00     0.029 A 
ATOM     54  N   UNL A   1      44.954  29.310  30.391  1.00  0.00    -0.354 N 
ATOM     55  N   UNL A   1      44.475  26.601  29.306  1.00  0.00    -0.248 NA
ATOM     56  C   UNL A   1      45.262  24.469  28.765  1.00  0.00     0.031 C 
ATOM     57  C   UNL A   1      46.979  29.779  31.170  1.00  0.00     0.029 A 
ATOM     58  C   UNL A   1      46.213  28.773  30.600  1.00  0.00     0.049 A 
ATOM     59  H   UNL A   1      44.197  28.831  29.984  1.00  0.00     0.167 HD
ATOM     60  C   UNL A   1      45.806  26.495  29.695  1.00  0.00     0.074 A 
ATOM     61  C   UNL A   1      46.229  25.150  29.363  1.00  0.00     0.031 C 
ATOM     62  C   UNL A   1      46.605  27.424  30.276  1.00  0.00     0.037 A 
BRANCH  49  63
ATOM     63  C   UNL A   1      43.886  32.900  31.252  1.00  0.00     0.058 A 
ATOM     64  C   UNL A   1      43.686  33.246  32.599  1.00  0.00     0.135 A 
ATOM     65  C   UNL A   1      44.231  33.928  30.360  1.00  0.00     0.135 A 
ATOM     66  F   UNL A   1      43.337  32.308  33.494  1.00  0.00    -0.206 F 
ATOM     67  C   UNL A   1      43.787  34.562  33.036  1.00  0.00     0.059 A 
ATOM     68  C   UNL A   1      44.369  35.247  30.781  1.00  0.00     0.059 A 
ATOM     69  F   UNL A   1      44.432  33.657  29.060  1.00  0.00    -0.206 F 
ATOM     70  C   UNL A   1      44.130  35.556  32.119  1.00  0.00     0.060 A 
BRANCH  70  71
ATOM     71  S   UNL A   1      44.263  37.259  32.705  1.00  0.00     0.124 S 
ATOM     72  O   UNL A   1      45.579  37.248  33.335  1.00  0.00    -0.237 OA
ATOM     73  O   UNL A   1      44.162  38.023  31.465  1.00  0.00    -0.237 OA
ATOM     74  O   UNL A   1      43.132  37.396  33.615  1.00  0.00    -0.744 OA
ENDBRANCH  70  71
ENDBRANCH  49  63
BRANCH  50  75
ATOM     75  C   UNL A   1      42.665  23.603  27.691  1.00  0.00     0.058 A 
ATOM     76  C   UNL A   1      42.753  23.371  26.311  1.00  0.00     0.135 A 
ATOM     77  C   UNL A   1      42.431  22.499  28.525  1.00  0.00     0.135 A 
ATOM     78  F   UNL A   1      42.974  24.394  25.471  1.00  0.00    -0.206 F 
ATOM     79  C   UNL A   1      42.595  22.097  25.773  1.00  0.00     0.059 A 
ATOM     80  C   UNL A   1      42.297  21.211  28.014  1.00  0.00     0.059 A 
ATOM     81  F   UNL A   1      42.360  22.663  29.855  1.00  0.00    -0.206 F 
ATOM     82  C   UNL A   1      42.369  21.022  26.635  1.00  0.00     0.060 A 
BRANCH  82  83
ATOM     83  S   UNL A   1      42.207  19.368  25.929  1.00  0.00     0.124 S 
ATOM     84  O   UNL A   1      42.731  18.537  27.007  1.00  0.00    -0.237 OA
ATOM     85  O   UNL A   1      40.769  19.275  25.693  1.00  0.00    -0.237 OA
ATOM     86  O   UNL A   1      43.029  19.434  24.725  1.00  0.00    -0.744 OA
ENDBRANCH  82  83
ENDBRANCH  50  75
BRANCH  62  87
ATOM     87  C   UNL A   1      48.002  27.005  30.640  1.00  0.00     0.058 A 
ATOM     88  C   UNL A   1      49.083  27.192  29.765  1.00  0.00     0.135 A 
ATOM     89  C   UNL A   1      48.267  26.460  31.906  1.00  0.00     0.135 A 
ATOM     90  F   UNL A   1      48.882  27.705  28.541  1.00  0.00    -0.206 F 
ATOM     91  C   UNL A   1      50.376  26.828  30.125  1.00  0.00     0.059 A 
ATOM     92  C   UNL A   1      49.556  26.117  32.298  1.00  0.00     0.059 A 
ATOM     93  F   UNL A   1      47.268  26.272  32.785  1.00  0.00    -0.206 F 
ATOM     94  C   UNL A   1      50.603  26.292  31.395  1.00  0.00     0.060 A 
BRANCH  94  95
ATOM     95  S   UNL A   1      52.290  25.855  31.861  1.00  0.00     0.124 S 
ATOM     96  O   UNL A   1      52.149  24.437  32.175  1.00  0.00    -0.237 OA
ATOM     97  O   UNL A   1      53.040  26.165  30.648  1.00  0.00    -0.237 OA
ATOM     98  O   UNL A   1      52.565  26.726  33.000  1.00  0.00    -0.744 OA
ENDBRANCH  94  95
ENDBRANCH  62  87
ENDBRANCH  36  37
ENDBRANCH  28  31
ENDBRANCH  26  27
ENDBRANCH   1  26
TORSDOF 18
ENDMDL
