MODEL 1
REMARK VINA RESULT:     -10.7      0.000      0.000
REMARK SMILES CCCC[C@@H](C(=O)NCCCNC(=O)c1ccc(-c2c3nc(c(-c4c(F)cc(S(=O)(=O)[O-])cc4F)c4ccc([nH]4)c(-c4c(F)cc(S(=O)(=O)[O-])cc4F)c4nc(c(-c5c(F)cc(S(=O)(=O)[O-])cc5F)c5ccc2[nH]5)C=C4)C=C3)cc1)[C@]1(O)COc2cc(O)ccc21
REMARK SMILES IDX 10 1 9 2 8 3 6 4 7 5 5 7 4 8 3 9 2 10 1 11 81 12 83 13 91 14
REMARK SMILES IDX 84 15 85 16 90 17 86 18 89 19 87 20 82 21 88 23 11 25 12 26
REMARK SMILES IDX 13 27 14 29 15 30 16 31 80 32 17 33 79 34 18 35 19 36 20 37
REMARK SMILES IDX 73 38 21 39 78 40 72 41 74 42 22 43 77 44 71 45 70 46 23 48
REMARK SMILES IDX 57 49 36 50 56 51 37 52 40 53 55 54 75 55 38 56 39 57 54 59
REMARK SMILES IDX 76 60 41 61 24 62 25 63 34 64 26 65 27 66 33 67 35 68 28 69
REMARK SMILES IDX 29 70 30 71 31 72 32 73 58 74 59 75 68 76 60 77 61 78 67 79
REMARK SMILES IDX 69 80 62 81 63 82 64 83 65 84 66 85 42 86 43 87 52 88 44 89
REMARK SMILES IDX 45 90 51 91 53 92 46 93 47 94 48 95 49 96 50 97
REMARK H PARENT 8 6 82 22 88 24 12 28 74 47 40 58
REMARK Flexibility Score: inf
ROOT
ATOM      1  C   UNL A   1      33.181  27.787  25.412  1.00  0.00     0.042 C 
ENDROOT
BRANCH   1   2
ATOM      2  C   UNL A   1      33.954  27.649  24.099  1.00  0.00     0.117 C 
BRANCH   2   3
ATOM      3  N   UNL A   1      33.231  26.793  23.176  1.00  0.00    -0.356 N 
ATOM      4  C   UNL A   1      33.651  25.581  22.697  1.00  0.00     0.226 C 
ATOM      5  O   UNL A   1      33.522  25.380  21.492  1.00  0.00    -0.275 OA
ATOM      6  H   UNL A   1      32.356  27.116  22.864  1.00  0.00     0.163 HD
BRANCH   4   7
ATOM      7  C   UNL A   1      34.191  24.530  23.670  1.00  0.00     0.118 C 
BRANCH   7   8
ATOM      8  C   UNL A   1      34.885  23.347  22.940  1.00  0.00     0.017 C 
BRANCH   8   9
ATOM      9  C   UNL A   1      36.316  22.954  23.307  1.00  0.00     0.001 C 
BRANCH   9  10
ATOM     10  C   UNL A   1      36.781  23.302  24.720  1.00  0.00    -0.003 C 
ATOM     11  C   UNL A   1      37.175  22.074  25.523  1.00  0.00     0.004 C 
ENDBRANCH   9  10
ENDBRANCH   8   9
ENDBRANCH   7   8
BRANCH   7  12
ATOM     12  C   UNL A   1      33.046  23.985  24.612  1.00  0.00     0.139 C 
ATOM     13  C   UNL A   1      33.191  24.297  26.127  1.00  0.00     0.270 C 
ATOM     14  C   UNL A   1      32.913  22.493  24.758  1.00  0.00     0.030 A 
ATOM     15  O   UNL A   1      33.818  23.180  26.784  1.00  0.00    -0.490 OA
ATOM     16  C   UNL A   1      33.431  22.122  26.002  1.00  0.00     0.129 A 
ATOM     17  C   UNL A   1      32.422  21.518  23.905  1.00  0.00     0.014 A 
ATOM     18  C   UNL A   1      33.561  20.809  26.401  1.00  0.00     0.093 A 
ATOM     19  C   UNL A   1      32.501  20.175  24.308  1.00  0.00     0.047 A 
ATOM     20  C   UNL A   1      33.090  19.834  25.535  1.00  0.00     0.119 A 
BRANCH  12  21
ATOM     21  O   UNL A   1      31.812  24.564  24.151  1.00  0.00    -0.381 OA
ATOM     22  H   UNL A   1      31.170  23.860  23.973  1.00  0.00     0.212 HD
ENDBRANCH  12  21
BRANCH  20  23
ATOM     23  O   UNL A   1      33.220  18.532  25.921  1.00  0.00    -0.508 OA
ATOM     24  H   UNL A   1      34.072  18.161  26.042  1.00  0.00     0.293 HD
ENDBRANCH  20  23
ENDBRANCH   7  12
ENDBRANCH   4   7
ENDBRANCH   2   3
ENDBRANCH   1   2
BRANCH   1  25
ATOM     25  C   UNL A   1      34.039  28.203  26.595  1.00  0.00     0.118 C 
BRANCH  25  26
ATOM     26  N   UNL A   1      33.739  29.551  27.040  1.00  0.00    -0.352 N 
ATOM     27  C   UNL A   1      34.485  30.387  27.835  1.00  0.00     0.251 C 
ATOM     28  H   UNL A   1      32.880  29.919  26.727  1.00  0.00     0.163 HD
ATOM     29  O   UNL A   1      33.969  31.400  28.293  1.00  0.00    -0.269 OA
BRANCH  27  30
ATOM     30  C   UNL A   1      35.895  30.056  28.147  1.00  0.00     0.039 A 
ATOM     31  C   UNL A   1      36.214  29.602  29.429  1.00  0.00     0.014 A 
ATOM     32  C   UNL A   1      36.904  30.213  27.193  1.00  0.00     0.014 A 
ATOM     33  C   UNL A   1      37.534  29.269  29.737  1.00  0.00     0.010 A 
ATOM     34  C   UNL A   1      38.198  29.785  27.470  1.00  0.00     0.010 A 
ATOM     35  C   UNL A   1      38.535  29.334  28.753  1.00  0.00    -0.014 A 
BRANCH  35  36
ATOM     36  C   UNL A   1      39.943  28.975  29.058  1.00  0.00     0.031 A 
ATOM     37  C   UNL A   1      40.846  29.979  29.726  1.00  0.00     0.074 A 
ATOM     38  C   UNL A   1      40.421  27.770  28.691  1.00  0.00     0.049 A 
ATOM     39  N   UNL A   1      42.113  29.876  30.034  1.00  0.00    -0.248 NA
ATOM     40  C   UNL A   1      40.254  31.284  30.065  1.00  0.00     0.031 C 
ATOM     41  C   UNL A   1      39.656  26.734  27.993  1.00  0.00     0.029 A 
ATOM     42  N   UNL A   1      41.664  27.212  28.850  1.00  0.00    -0.354 N 
ATOM     43  C   UNL A   1      42.471  31.101  30.585  1.00  0.00     0.074 A 
ATOM     44  C   UNL A   1      41.307  31.955  30.508  1.00  0.00     0.031 C 
ATOM     45  C   UNL A   1      40.436  25.656  27.815  1.00  0.00     0.029 A 
ATOM     46  C   UNL A   1      41.766  25.937  28.348  1.00  0.00     0.049 A 
ATOM     47  H   UNL A   1      42.413  27.681  29.285  1.00  0.00     0.167 HD
ATOM     48  C   UNL A   1      43.653  31.473  31.134  1.00  0.00     0.037 A 
ATOM     49  C   UNL A   1      42.813  25.090  28.317  1.00  0.00     0.037 A 
ATOM     50  C   UNL A   1      44.798  30.606  31.228  1.00  0.00     0.049 A 
ATOM     51  C   UNL A   1      44.118  25.523  28.929  1.00  0.00     0.074 A 
ATOM     52  C   UNL A   1      46.024  30.861  31.813  1.00  0.00     0.029 A 
ATOM     53  N   UNL A   1      44.857  29.317  30.717  1.00  0.00    -0.354 N 
ATOM     54  N   UNL A   1      44.420  26.663  29.507  1.00  0.00    -0.248 NA
ATOM     55  C   UNL A   1      45.222  24.556  28.894  1.00  0.00     0.031 C 
ATOM     56  C   UNL A   1      46.843  29.745  31.612  1.00  0.00     0.029 A 
ATOM     57  C   UNL A   1      46.108  28.771  30.953  1.00  0.00     0.049 A 
ATOM     58  H   UNL A   1      44.119  28.858  30.255  1.00  0.00     0.167 HD
ATOM     59  C   UNL A   1      45.739  26.539  29.928  1.00  0.00     0.074 A 
ATOM     60  C   UNL A   1      46.172  25.209  29.550  1.00  0.00     0.031 C 
ATOM     61  C   UNL A   1      46.520  27.442  30.571  1.00  0.00     0.037 A 
BRANCH  48  62
ATOM     62  C   UNL A   1      43.759  32.876  31.674  1.00  0.00     0.058 A 
ATOM     63  C   UNL A   1      43.316  33.208  32.965  1.00  0.00     0.135 A 
ATOM     64  C   UNL A   1      44.320  33.901  30.895  1.00  0.00     0.135 A 
ATOM     65  F   UNL A   1      42.757  32.273  33.750  1.00  0.00    -0.206 F 
ATOM     66  C   UNL A   1      43.385  34.511  33.448  1.00  0.00     0.059 A 
ATOM     67  C   UNL A   1      44.430  35.206  31.370  1.00  0.00     0.059 A 
ATOM     68  F   UNL A   1      44.762  33.643  29.654  1.00  0.00    -0.206 F 
ATOM     69  C   UNL A   1      43.942  35.504  32.641  1.00  0.00     0.060 A 
BRANCH  69  70
ATOM     70  S   UNL A   1      44.013  37.192  33.278  1.00  0.00     0.124 S 
ATOM     71  O   UNL A   1      43.771  37.971  32.068  1.00  0.00    -0.237 OA
ATOM     72  O   UNL A   1      42.934  37.199  34.262  1.00  0.00    -0.237 OA
ATOM     73  O   UNL A   1      45.360  37.291  33.829  1.00  0.00    -0.744 OA
ENDBRANCH  69  70
ENDBRANCH  48  62
BRANCH  49  74
ATOM     74  C   UNL A   1      42.654  23.737  27.720  1.00  0.00     0.058 A 
ATOM     75  C   UNL A   1      42.776  23.540  26.336  1.00  0.00     0.135 A 
ATOM     76  C   UNL A   1      42.410  22.609  28.520  1.00  0.00     0.135 A 
ATOM     77  F   UNL A   1      43.003  24.587  25.529  1.00  0.00    -0.206 F 
ATOM     78  C   UNL A   1      42.653  22.277  25.764  1.00  0.00     0.059 A 
ATOM     79  C   UNL A   1      42.309  21.333  27.975  1.00  0.00     0.059 A 
ATOM     80  F   UNL A   1      42.300  22.740  29.851  1.00  0.00    -0.206 F 
ATOM     81  C   UNL A   1      42.426  21.178  26.593  1.00  0.00     0.060 A 
BRANCH  81  82
ATOM     82  S   UNL A   1      42.334  19.537  25.846  1.00  0.00     0.124 S 
ATOM     83  O   UNL A   1      42.707  18.681  26.965  1.00  0.00    -0.237 OA
ATOM     84  O   UNL A   1      40.937  19.471  25.428  1.00  0.00    -0.237 OA
ATOM     85  O   UNL A   1      43.302  19.609  24.755  1.00  0.00    -0.744 OA
ENDBRANCH  81  82
ENDBRANCH  49  74
BRANCH  61  86
ATOM     86  C   UNL A   1      47.913  27.013  30.940  1.00  0.00     0.058 A 
ATOM     87  C   UNL A   1      48.179  26.284  32.109  1.00  0.00     0.135 A 
ATOM     88  C   UNL A   1      48.991  27.291  30.082  1.00  0.00     0.135 A 
ATOM     89  F   UNL A   1      47.187  25.996  32.967  1.00  0.00    -0.206 F 
ATOM     90  C   UNL A   1      49.468  25.868  32.428  1.00  0.00     0.059 A 
ATOM     91  C   UNL A   1      50.281  26.859  30.365  1.00  0.00     0.059 A 
ATOM     92  F   UNL A   1      48.790  27.976  28.944  1.00  0.00    -0.206 F 
ATOM     93  C   UNL A   1      50.512  26.158  31.547  1.00  0.00     0.060 A 
BRANCH  93  94
ATOM     94  S   UNL A   1      52.173  25.583  31.957  1.00  0.00     0.124 S 
ATOM     95  O   UNL A   1      52.901  25.887  30.729  1.00  0.00    -0.237 OA
ATOM     96  O   UNL A   1      52.512  26.406  33.115  1.00  0.00    -0.237 OA
ATOM     97  O   UNL A   1      51.983  24.163  32.239  1.00  0.00    -0.744 OA
ENDBRANCH  93  94
ENDBRANCH  61  86
ENDBRANCH  35  36
ENDBRANCH  27  30
ENDBRANCH  25  26
ENDBRANCH   1  25
TORSDOF 19
ENDMDL
MODEL 2
REMARK VINA RESULT:     -10.7      4.702     10.459
REMARK SMILES CCCC[C@@H](C(=O)NCCCNC(=O)c1ccc(-c2c3nc(c(-c4c(F)cc(S(=O)(=O)[O-])cc4F)c4ccc([nH]4)c(-c4c(F)cc(S(=O)(=O)[O-])cc4F)c4nc(c(-c5c(F)cc(S(=O)(=O)[O-])cc5F)c5ccc2[nH]5)C=C4)C=C3)cc1)[C@]1(O)COc2cc(O)ccc21
REMARK SMILES IDX 10 1 9 2 8 3 6 4 7 5 5 7 4 8 3 9 2 10 1 11 81 12 83 13 91 14
REMARK SMILES IDX 84 15 85 16 90 17 86 18 89 19 87 20 82 21 88 23 11 25 12 26
REMARK SMILES IDX 13 27 14 29 15 30 16 31 80 32 17 33 79 34 18 35 19 36 20 37
REMARK SMILES IDX 73 38 21 39 78 40 72 41 74 42 22 43 77 44 71 45 70 46 23 48
REMARK SMILES IDX 57 49 36 50 56 51 37 52 40 53 55 54 75 55 38 56 39 57 54 59
REMARK SMILES IDX 76 60 41 61 24 62 25 63 34 64 26 65 27 66 33 67 35 68 28 69
REMARK SMILES IDX 29 70 30 71 31 72 32 73 58 74 59 75 68 76 60 77 61 78 67 79
REMARK SMILES IDX 69 80 62 81 63 82 64 83 65 84 66 85 42 86 43 87 52 88 44 89
REMARK SMILES IDX 45 90 51 91 53 92 46 93 47 94 48 95 49 96 50 97
REMARK H PARENT 8 6 82 22 88 24 12 28 74 47 40 58
REMARK Flexibility Score: inf
ROOT
ATOM      1  C   UNL A   1      37.708  23.087  25.819  1.00  0.00     0.042 C 
ENDROOT
BRANCH   1   2
ATOM      2  C   UNL A   1      36.663  23.701  24.886  1.00  0.00     0.117 C 
BRANCH   2   3
ATOM      3  N   UNL A   1      35.342  23.191  25.205  1.00  0.00    -0.356 N 
ATOM      4  C   UNL A   1      34.288  23.918  25.691  1.00  0.00     0.226 C 
ATOM      5  O   UNL A   1      33.659  23.434  26.629  1.00  0.00    -0.275 OA
ATOM      6  H   UNL A   1      35.189  22.230  25.057  1.00  0.00     0.163 HD
BRANCH   4   7
ATOM      7  C   UNL A   1      33.911  25.242  25.023  1.00  0.00     0.118 C 
BRANCH   7   8
ATOM      8  C   UNL A   1      33.202  26.220  26.000  1.00  0.00     0.017 C 
BRANCH   8   9
ATOM      9  C   UNL A   1      33.596  27.696  26.025  1.00  0.00     0.001 C 
BRANCH   9  10
ATOM     10  C   UNL A   1      33.051  28.531  27.182  1.00  0.00    -0.003 C 
ATOM     11  C   UNL A   1      31.582  28.256  27.458  1.00  0.00     0.004 C 
ENDBRANCH   9  10
ENDBRANCH   8   9
ENDBRANCH   7   8
BRANCH   7  12
ATOM     12  C   UNL A   1      33.004  24.998  23.752  1.00  0.00     0.139 C 
ATOM     13  C   UNL A   1      33.546  25.542  22.402  1.00  0.00     0.270 C 
ATOM     14  C   UNL A   1      31.675  25.704  23.697  1.00  0.00     0.030 A 
ATOM     15  O   UNL A   1      32.983  26.844  22.152  1.00  0.00    -0.490 OA
ATOM     16  C   UNL A   1      31.778  26.773  22.803  1.00  0.00     0.129 A 
ATOM     17  C   UNL A   1      30.480  25.484  24.364  1.00  0.00     0.014 A 
ATOM     18  C   UNL A   1      30.767  27.690  22.608  1.00  0.00     0.093 A 
ATOM     19  C   UNL A   1      29.419  26.378  24.147  1.00  0.00     0.047 A 
ATOM     20  C   UNL A   1      29.581  27.481  23.295  1.00  0.00     0.119 A 
BRANCH  12  21
ATOM     21  O   UNL A   1      32.831  23.575  23.626  1.00  0.00    -0.381 OA
ATOM     22  H   UNL A   1      33.695  23.154  23.505  1.00  0.00     0.212 HD
ENDBRANCH  12  21
BRANCH  20  23
ATOM     23  O   UNL A   1      28.578  28.387  23.109  1.00  0.00    -0.508 OA
ATOM     24  H   UNL A   1      28.368  29.000  23.786  1.00  0.00     0.293 HD
ENDBRANCH  20  23
ENDBRANCH   7  12
ENDBRANCH   4   7
ENDBRANCH   2   3
ENDBRANCH   1   2
BRANCH   1  25
ATOM     25  C   UNL A   1      38.584  24.108  26.525  1.00  0.00     0.118 C 
BRANCH  25  26
ATOM     26  N   UNL A   1      39.969  24.024  26.102  1.00  0.00    -0.352 N 
ATOM     27  C   UNL A   1      41.030  24.827  26.447  1.00  0.00     0.251 C 
ATOM     28  H   UNL A   1      40.179  23.289  25.481  1.00  0.00     0.163 HD
ATOM     29  O   UNL A   1      42.077  24.745  25.813  1.00  0.00    -0.269 OA
BRANCH  27  30
ATOM     30  C   UNL A   1      40.902  25.792  27.564  1.00  0.00     0.039 A 
ATOM     31  C   UNL A   1      41.826  26.835  27.664  1.00  0.00     0.014 A 
ATOM     32  C   UNL A   1      39.893  25.661  28.522  1.00  0.00     0.014 A 
ATOM     33  C   UNL A   1      41.712  27.764  28.700  1.00  0.00     0.010 A 
ATOM     34  C   UNL A   1      39.721  26.643  29.491  1.00  0.00     0.010 A 
ATOM     35  C   UNL A   1      40.643  27.691  29.609  1.00  0.00    -0.014 A 
BRANCH  35  36
ATOM     36  C   UNL A   1      40.498  28.675  30.711  1.00  0.00     0.031 A 
ATOM     37  C   UNL A   1      41.372  28.568  31.934  1.00  0.00     0.074 A 
ATOM     38  C   UNL A   1      39.552  29.631  30.635  1.00  0.00     0.049 A 
ATOM     39  N   UNL A   1      41.370  29.297  33.019  1.00  0.00    -0.248 NA
ATOM     40  C   UNL A   1      42.359  27.474  31.952  1.00  0.00     0.031 C 
ATOM     41  C   UNL A   1      38.612  29.805  29.525  1.00  0.00     0.029 A 
ATOM     42  N   UNL A   1      39.220  30.635  31.508  1.00  0.00    -0.354 N 
ATOM     43  C   UNL A   1      42.338  28.743  33.851  1.00  0.00     0.074 A 
ATOM     44  C   UNL A   1      42.860  27.578  33.174  1.00  0.00     0.031 C 
ATOM     45  C   UNL A   1      37.836  30.871  29.768  1.00  0.00     0.029 A 
ATOM     46  C   UNL A   1      38.191  31.433  31.068  1.00  0.00     0.049 A 
ATOM     47  H   UNL A   1      39.677  30.773  32.370  1.00  0.00     0.167 HD
ATOM     48  C   UNL A   1      42.774  29.183  35.056  1.00  0.00     0.037 A 
ATOM     49  C   UNL A   1      37.598  32.496  31.647  1.00  0.00     0.037 A 
ATOM     50  C   UNL A   1      42.264  30.359  35.710  1.00  0.00     0.049 A 
ATOM     51  C   UNL A   1      38.095  32.966  32.987  1.00  0.00     0.074 A 
ATOM     52  C   UNL A   1      42.672  30.925  36.904  1.00  0.00     0.029 A 
ATOM     53  N   UNL A   1      41.229  31.147  35.226  1.00  0.00    -0.354 N 
ATOM     54  N   UNL A   1      39.058  32.470  33.730  1.00  0.00    -0.248 NA
ATOM     55  C   UNL A   1      37.435  34.142  33.565  1.00  0.00     0.031 C 
ATOM     56  C   UNL A   1      41.850  32.027  37.167  1.00  0.00     0.029 A 
ATOM     57  C   UNL A   1      40.968  32.182  36.108  1.00  0.00     0.049 A 
ATOM     58  H   UNL A   1      40.750  30.992  34.379  1.00  0.00     0.167 HD
ATOM     59  C   UNL A   1      39.136  33.291  34.849  1.00  0.00     0.074 A 
ATOM     60  C   UNL A   1      38.132  34.321  34.679  1.00  0.00     0.031 C 
ATOM     61  C   UNL A   1      39.964  33.202  35.920  1.00  0.00     0.037 A 
BRANCH  48  62
ATOM     62  C   UNL A   1      43.856  28.386  35.737  1.00  0.00     0.058 A 
ATOM     63  C   UNL A   1      45.218  28.631  35.498  1.00  0.00     0.135 A 
ATOM     64  C   UNL A   1      43.529  27.370  36.650  1.00  0.00     0.135 A 
ATOM     65  F   UNL A   1      45.592  29.580  34.624  1.00  0.00    -0.206 F 
ATOM     66  C   UNL A   1      46.215  27.872  36.104  1.00  0.00     0.059 A 
ATOM     67  C   UNL A   1      44.509  26.619  37.294  1.00  0.00     0.059 A 
ATOM     68  F   UNL A   1      42.244  27.092  36.920  1.00  0.00    -0.206 F 
ATOM     69  C   UNL A   1      45.849  26.865  36.999  1.00  0.00     0.060 A 
BRANCH  69  70
ATOM     70  S   UNL A   1      47.153  25.881  37.767  1.00  0.00     0.124 S 
ATOM     71  O   UNL A   1      46.416  24.690  38.178  1.00  0.00    -0.237 OA
ATOM     72  O   UNL A   1      48.093  25.695  36.665  1.00  0.00    -0.237 OA
ATOM     73  O   UNL A   1      47.626  26.732  38.854  1.00  0.00    -0.744 OA
ENDBRANCH  69  70
ENDBRANCH  48  62
BRANCH  49  74
ATOM     74  C   UNL A   1      36.497  33.204  30.941  1.00  0.00     0.058 A 
ATOM     75  C   UNL A   1      35.166  33.073  31.364  1.00  0.00     0.135 A 
ATOM     76  C   UNL A   1      36.754  34.052  29.853  1.00  0.00     0.135 A 
ATOM     77  F   UNL A   1      34.868  32.269  32.396  1.00  0.00    -0.206 F 
ATOM     78  C   UNL A   1      34.128  33.747  30.729  1.00  0.00     0.059 A 
ATOM     79  C   UNL A   1      35.737  34.759  29.218  1.00  0.00     0.059 A 
ATOM     80  F   UNL A   1      38.012  34.227  29.418  1.00  0.00    -0.206 F 
ATOM     81  C   UNL A   1      34.424  34.594  29.661  1.00  0.00     0.060 A 
BRANCH  81  82
ATOM     82  S   UNL A   1      33.077  35.515  28.888  1.00  0.00     0.124 S 
ATOM     83  O   UNL A   1      32.367  36.031  30.051  1.00  0.00    -0.237 OA
ATOM     84  O   UNL A   1      33.799  36.500  28.089  1.00  0.00    -0.237 OA
ATOM     85  O   UNL A   1      32.371  34.493  28.118  1.00  0.00    -0.744 OA
ENDBRANCH  81  82
ENDBRANCH  49  74
BRANCH  61  86
ATOM     86  C   UNL A   1      39.847  34.265  36.976  1.00  0.00     0.058 A 
ATOM     87  C   UNL A   1      40.462  35.519  36.837  1.00  0.00     0.135 A 
ATOM     88  C   UNL A   1      39.063  34.043  38.121  1.00  0.00     0.135 A 
ATOM     89  F   UNL A   1      41.227  35.782  35.765  1.00  0.00    -0.206 F 
ATOM     90  C   UNL A   1      40.325  36.507  37.807  1.00  0.00     0.059 A 
ATOM     91  C   UNL A   1      38.887  35.026  39.088  1.00  0.00     0.059 A 
ATOM     92  F   UNL A   1      38.443  32.865  38.299  1.00  0.00    -0.206 F 
ATOM     93  C   UNL A   1      39.532  36.251  38.928  1.00  0.00     0.060 A 
BRANCH  93  94
ATOM     94  S   UNL A   1      39.336  37.553  40.163  1.00  0.00     0.124 S 
ATOM     95  O   UNL A   1      38.265  38.355  39.578  1.00  0.00    -0.237 OA
ATOM     96  O   UNL A   1      38.980  36.797  41.360  1.00  0.00    -0.237 OA
ATOM     97  O   UNL A   1      40.649  38.190  40.199  1.00  0.00    -0.744 OA
ENDBRANCH  93  94
ENDBRANCH  61  86
ENDBRANCH  35  36
ENDBRANCH  27  30
ENDBRANCH  25  26
ENDBRANCH   1  25
TORSDOF 19
ENDMDL
MODEL 3
REMARK VINA RESULT:     -10.6      3.760     10.683
REMARK SMILES CCCC[C@@H](C(=O)NCCCNC(=O)c1ccc(-c2c3nc(c(-c4c(F)cc(S(=O)(=O)[O-])cc4F)c4ccc([nH]4)c(-c4c(F)cc(S(=O)(=O)[O-])cc4F)c4nc(c(-c5c(F)cc(S(=O)(=O)[O-])cc5F)c5ccc2[nH]5)C=C4)C=C3)cc1)[C@]1(O)COc2cc(O)ccc21
REMARK SMILES IDX 10 1 9 2 8 3 6 4 7 5 5 7 4 8 3 9 2 10 1 11 81 12 83 13 91 14
REMARK SMILES IDX 84 15 85 16 90 17 86 18 89 19 87 20 82 21 88 23 11 25 12 26
REMARK SMILES IDX 13 27 14 29 15 30 16 31 80 32 17 33 79 34 18 35 19 36 20 37
REMARK SMILES IDX 73 38 21 39 78 40 72 41 74 42 22 43 77 44 71 45 70 46 23 48
REMARK SMILES IDX 57 49 36 50 56 51 37 52 40 53 55 54 75 55 38 56 39 57 54 59
REMARK SMILES IDX 76 60 41 61 24 62 25 63 34 64 26 65 27 66 33 67 35 68 28 69
REMARK SMILES IDX 29 70 30 71 31 72 32 73 58 74 59 75 68 76 60 77 61 78 67 79
REMARK SMILES IDX 69 80 62 81 63 82 64 83 65 84 66 85 42 86 43 87 52 88 44 89
REMARK SMILES IDX 45 90 51 91 53 92 46 93 47 94 48 95 49 96 50 97
REMARK H PARENT 8 6 82 22 88 24 12 28 74 47 40 58
REMARK Flexibility Score: inf
ROOT
ATOM      1  C   UNL A   1      41.849  21.109  25.908  1.00  0.00     0.042 C 
ENDROOT
BRANCH   1   2
ATOM      2  C   UNL A   1      43.039  22.015  25.585  1.00  0.00     0.117 C 
BRANCH   2   3
ATOM      3  N   UNL A   1      44.285  21.334  25.885  1.00  0.00    -0.356 N 
ATOM      4  C   UNL A   1      45.543  21.866  25.789  1.00  0.00     0.226 C 
ATOM      5  O   UNL A   1      46.403  21.179  25.245  1.00  0.00    -0.275 OA
ATOM      6  H   UNL A   1      44.220  20.399  26.185  1.00  0.00     0.163 HD
BRANCH   4   7
ATOM      7  C   UNL A   1      45.832  23.237  26.405  1.00  0.00     0.118 C 
BRANCH   7   8
ATOM      8  C   UNL A   1      44.729  23.685  27.404  1.00  0.00     0.017 C 
BRANCH   8   9
ATOM      9  C   UNL A   1      45.003  23.661  28.908  1.00  0.00     0.001 C 
BRANCH   9  10
ATOM     10  C   UNL A   1      43.972  22.949  29.781  1.00  0.00    -0.003 C 
ATOM     11  C   UNL A   1      42.544  23.261  29.369  1.00  0.00     0.004 C 
ENDBRANCH   9  10
ENDBRANCH   8   9
ENDBRANCH   7   8
BRANCH   7  12
ATOM     12  C   UNL A   1      46.020  24.335  25.285  1.00  0.00     0.139 C 
ATOM     13  C   UNL A   1      47.425  24.992  25.189  1.00  0.00     0.270 C 
ATOM     14  C   UNL A   1      45.244  25.617  25.425  1.00  0.00     0.030 A 
ATOM     15  O   UNL A   1      47.427  26.221  25.939  1.00  0.00    -0.490 OA
ATOM     16  C   UNL A   1      46.117  26.619  25.856  1.00  0.00     0.129 A 
ATOM     17  C   UNL A   1      43.904  25.916  25.234  1.00  0.00     0.014 A 
ATOM     18  C   UNL A   1      45.698  27.890  26.190  1.00  0.00     0.093 A 
ATOM     19  C   UNL A   1      43.461  27.216  25.523  1.00  0.00     0.047 A 
ATOM     20  C   UNL A   1      44.353  28.178  26.019  1.00  0.00     0.119 A 
BRANCH  12  21
ATOM     21  O   UNL A   1      45.734  23.702  24.024  1.00  0.00    -0.381 OA
ATOM     22  H   UNL A   1      44.777  23.578  23.933  1.00  0.00     0.212 HD
ENDBRANCH  12  21
BRANCH  20  23
ATOM     23  O   UNL A   1      43.931  29.432  26.351  1.00  0.00    -0.508 OA
ATOM     24  H   UNL A   1      43.308  29.877  25.810  1.00  0.00     0.293 HD
ENDBRANCH  20  23
ENDBRANCH   7  12
ENDBRANCH   4   7
ENDBRANCH   2   3
ENDBRANCH   1   2
BRANCH   1  25
ATOM     25  C   UNL A   1      40.798  21.760  26.792  1.00  0.00     0.118 C 
BRANCH  25  26
ATOM     26  N   UNL A   1      39.593  22.090  26.054  1.00  0.00    -0.352 N 
ATOM     27  C   UNL A   1      38.817  23.223  26.126  1.00  0.00     0.251 C 
ATOM     28  H   UNL A   1      39.289  21.409  25.412  1.00  0.00     0.163 HD
ATOM     29  O   UNL A   1      37.711  23.228  25.596  1.00  0.00    -0.269 OA
BRANCH  27  30
ATOM     30  C   UNL A   1      39.308  24.418  26.850  1.00  0.00     0.039 A 
ATOM     31  C   UNL A   1      40.067  25.363  26.157  1.00  0.00     0.014 A 
ATOM     32  C   UNL A   1      39.043  24.599  28.211  1.00  0.00     0.014 A 
ATOM     33  C   UNL A   1      40.524  26.505  26.819  1.00  0.00     0.010 A 
ATOM     34  C   UNL A   1      39.411  25.782  28.841  1.00  0.00     0.010 A 
ATOM     35  C   UNL A   1      40.179  26.737  28.161  1.00  0.00    -0.014 A 
BRANCH  35  36
ATOM     36  C   UNL A   1      40.646  27.949  28.880  1.00  0.00     0.031 A 
ATOM     37  C   UNL A   1      42.058  28.016  29.402  1.00  0.00     0.074 A 
ATOM     38  C   UNL A   1      39.791  28.965  29.106  1.00  0.00     0.049 A 
ATOM     39  N   UNL A   1      42.643  28.961  30.091  1.00  0.00    -0.248 NA
ATOM     40  C   UNL A   1      42.919  26.849  29.141  1.00  0.00     0.031 C 
ATOM     41  C   UNL A   1      38.386  28.995  28.693  1.00  0.00     0.029 A 
ATOM     42  N   UNL A   1      39.975  30.168  29.739  1.00  0.00    -0.354 N 
ATOM     43  C   UNL A   1      43.927  28.499  30.358  1.00  0.00     0.074 A 
ATOM     44  C   UNL A   1      44.015  27.162  29.816  1.00  0.00     0.031 C 
ATOM     45  C   UNL A   1      37.846  30.169  29.054  1.00  0.00     0.029 A 
ATOM     46  C   UNL A   1      38.851  30.960  29.759  1.00  0.00     0.049 A 
ATOM     47  H   UNL A   1      40.831  30.439  30.142  1.00  0.00     0.167 HD
ATOM     48  C   UNL A   1      44.950  29.141  30.972  1.00  0.00     0.037 A 
ATOM     49  C   UNL A   1      38.652  32.183  30.287  1.00  0.00     0.037 A 
ATOM     50  C   UNL A   1      44.857  30.482  31.487  1.00  0.00     0.049 A 
ATOM     51  C   UNL A   1      39.800  32.878  30.968  1.00  0.00     0.074 A 
ATOM     52  C   UNL A   1      45.846  31.247  32.077  1.00  0.00     0.029 A 
ATOM     53  N   UNL A   1      43.705  31.255  31.477  1.00  0.00    -0.354 N 
ATOM     54  N   UNL A   1      41.028  32.453  31.153  1.00  0.00    -0.248 NA
ATOM     55  C   UNL A   1      39.541  34.219  31.505  1.00  0.00     0.031 C 
ATOM     56  C   UNL A   1      45.279  32.465  32.470  1.00  0.00     0.029 A 
ATOM     57  C   UNL A   1      43.951  32.481  32.071  1.00  0.00     0.049 A 
ATOM     58  H   UNL A   1      42.839  30.973  31.103  1.00  0.00     0.167 HD
ATOM     59  C   UNL A   1      41.695  33.485  31.803  1.00  0.00     0.074 A 
ATOM     60  C   UNL A   1      40.736  34.559  31.967  1.00  0.00     0.031 C 
ATOM     61  C   UNL A   1      42.983  33.541  32.223  1.00  0.00     0.037 A 
BRANCH  48  62
ATOM     62  C   UNL A   1      46.252  28.397  31.117  1.00  0.00     0.058 A 
ATOM     63  C   UNL A   1      46.525  27.594  32.236  1.00  0.00     0.135 A 
ATOM     64  C   UNL A   1      47.237  28.479  30.119  1.00  0.00     0.135 A 
ATOM     65  F   UNL A   1      45.628  27.489  33.230  1.00  0.00    -0.206 F 
ATOM     66  C   UNL A   1      47.742  26.934  32.383  1.00  0.00     0.059 A 
ATOM     67  C   UNL A   1      48.448  27.801  30.228  1.00  0.00     0.059 A 
ATOM     68  F   UNL A   1      47.031  29.229  29.026  1.00  0.00    -0.206 F 
ATOM     69  C   UNL A   1      48.699  27.047  31.372  1.00  0.00     0.060 A 
BRANCH  69  70
ATOM     70  S   UNL A   1      50.277  26.195  31.584  1.00  0.00     0.124 S 
ATOM     71  O   UNL A   1      50.954  26.522  30.333  1.00  0.00    -0.237 OA
ATOM     72  O   UNL A   1      50.817  26.831  32.781  1.00  0.00    -0.237 OA
ATOM     73  O   UNL A   1      49.890  24.796  31.739  1.00  0.00    -0.744 OA
ENDBRANCH  69  70
ENDBRANCH  48  62
BRANCH  49  74
ATOM     74  C   UNL A   1      37.323  32.839  30.156  1.00  0.00     0.058 A 
ATOM     75  C   UNL A   1      36.341  32.683  31.145  1.00  0.00     0.135 A 
ATOM     76  C   UNL A   1      37.019  33.659  29.058  1.00  0.00     0.135 A 
ATOM     77  F   UNL A   1      36.580  31.904  32.210  1.00  0.00    -0.206 F 
ATOM     78  C   UNL A   1      35.101  33.309  31.048  1.00  0.00     0.059 A 
ATOM     79  C   UNL A   1      35.797  34.317  28.952  1.00  0.00     0.059 A 
ATOM     80  F   UNL A   1      37.930  33.855  28.091  1.00  0.00    -0.206 F 
ATOM     81  C   UNL A   1      34.841  34.130  29.950  1.00  0.00     0.060 A 
BRANCH  81  82
ATOM     82  S   UNL A   1      33.254  34.987  29.869  1.00  0.00     0.124 S 
ATOM     83  O   UNL A   1      32.536  34.187  28.885  1.00  0.00    -0.237 OA
ATOM     84  O   UNL A   1      32.781  34.885  31.246  1.00  0.00    -0.237 OA
ATOM     85  O   UNL A   1      33.622  36.335  29.441  1.00  0.00    -0.744 OA
ENDBRANCH  81  82
ENDBRANCH  49  74
BRANCH  61  86
ATOM     86  C   UNL A   1      43.445  34.817  32.871  1.00  0.00     0.058 A 
ATOM     87  C   UNL A   1      43.438  34.986  34.264  1.00  0.00     0.135 A 
ATOM     88  C   UNL A   1      43.953  35.866  32.086  1.00  0.00     0.135 A 
ATOM     89  F   UNL A   1      42.958  34.017  35.060  1.00  0.00    -0.206 F 
ATOM     90  C   UNL A   1      43.894  36.160  34.856  1.00  0.00     0.059 A 
ATOM     91  C   UNL A   1      44.442  37.036  32.657  1.00  0.00     0.059 A 
ATOM     92  F   UNL A   1      43.993  35.753  30.748  1.00  0.00    -0.206 F 
ATOM     93  C   UNL A   1      44.397  37.178  34.043  1.00  0.00     0.060 A 
BRANCH  93  94
ATOM     94  S   UNL A   1      45.015  38.682  34.825  1.00  0.00     0.124 S 
ATOM     95  O   UNL A   1      44.111  38.814  35.964  1.00  0.00    -0.237 OA
ATOM     96  O   UNL A   1      46.394  38.323  35.148  1.00  0.00    -0.237 OA
ATOM     97  O   UNL A   1      44.866  39.695  33.784  1.00  0.00    -0.744 OA
ENDBRANCH  93  94
ENDBRANCH  61  86
ENDBRANCH  35  36
ENDBRANCH  27  30
ENDBRANCH  25  26
ENDBRANCH   1  25
TORSDOF 19
ENDMDL
