MODEL 1
REMARK VINA RESULT:     -11.6      0.000      0.000
REMARK SMILES Cc1n[nH]c(SCC[C@@H]2CCC[C@]2([NH2+]C(C)C)C(=O)NCCCNC(=O)c2ccc(-c3c4nc(c(-c5c(F)cc(S(=O)(=O)[O-])cc5F)c5ccc([nH]5)c(-c5c(F)cc(S(=O)(=O)[O-])cc5F)c5nc(c(-c6c(F)cc(S(=O)(=O)[O-])cc6F)c6ccc3[nH]6)C=C5)C=C4)cc2)n1
REMARK SMILES IDX 21 1 20 2 18 3 19 4 13 6 9 7 10 8 11 9 12 10 8 11 7 12 6 13
REMARK SMILES IDX 5 14 1 15 2 16 3 17 93 18 4 19 14 21 15 24 16 25 17 26 22 27
REMARK SMILES IDX 23 28 24 29 25 30 26 32 27 33 28 34 92 35 29 36 91 37 30 38
REMARK SMILES IDX 31 39 32 40 85 41 33 42 90 43 84 44 86 45 34 46 89 47 83 48
REMARK SMILES IDX 82 49 35 51 69 52 48 53 68 54 49 55 52 56 67 57 87 58 50 59
REMARK SMILES IDX 51 60 66 62 88 63 53 64 36 65 37 66 46 67 38 68 39 69 45 70
REMARK SMILES IDX 47 71 40 72 41 73 42 74 43 75 44 76 70 77 71 78 80 79 72 80
REMARK SMILES IDX 73 81 79 82 81 83 74 84 75 85 76 86 77 87 78 88 54 89 55 90
REMARK SMILES IDX 64 91 56 92 57 93 63 94 65 95 58 96 59 97 60 98 61 99 62 100
REMARK H PARENT 20 5 4 20 14 22 14 23 24 31 86 50 52 61
REMARK Flexibility Score: inf
ROOT
ATOM      1  C   UNL A   1      35.683  22.958  25.570  1.00  0.00     0.118 C 
ENDROOT
BRANCH   1   2
ATOM      2  N   UNL A   1      34.733  22.886  26.677  1.00  0.00    -0.351 N 
ATOM      3  C   UNL A   1      33.366  22.956  26.735  1.00  0.00     0.281 C 
ATOM      4  O   UNL A   1      32.863  22.690  27.832  1.00  0.00    -0.268 OA
ATOM      5  H   UNL A   1      35.159  22.762  27.556  1.00  0.00     0.163 HD
BRANCH   3   6
ATOM      6  C   UNL A   1      32.470  23.363  25.510  1.00  0.00     0.178 C 
ATOM      7  C   UNL A   1      32.322  24.926  25.397  1.00  0.00     0.061 C 
ATOM      8  C   UNL A   1      31.262  25.254  26.459  1.00  0.00     0.011 C 
ATOM      9  C   UNL A   1      30.216  24.189  26.265  1.00  0.00     0.008 C 
ATOM     10  C   UNL A   1      30.971  22.970  25.746  1.00  0.00     0.079 C 
BRANCH   7  11
ATOM     11  C   UNL A   1      33.495  25.894  25.611  1.00  0.00     0.022 C 
BRANCH  11  12
ATOM     12  C   UNL A   1      33.792  26.844  24.447  1.00  0.00     0.079 C 
BRANCH  12  13
ATOM     13  S   UNL A   1      32.425  27.967  24.018  1.00  0.00    -0.087 SA
BRANCH  13  14
ATOM     14  C   UNL A   1      32.524  29.196  25.205  1.00  0.00     0.183 A 
ATOM     15  C   UNL A   1      33.892  31.115  27.809  1.00  0.00     0.092 C 
ATOM     16  C   UNL A   1      33.076  30.499  26.746  1.00  0.00     0.148 A 
ATOM     17  N   UNL A   1      31.892  30.995  26.358  1.00  0.00    -0.158 NA
ATOM     18  N   UNL A   1      33.497  29.392  26.056  1.00  0.00    -0.206 NA
ATOM     19  N   UNL A   1      31.580  30.161  25.350  1.00  0.00    -0.254 N 
ATOM     20  H   UNL A   1      30.773  30.239  24.791  1.00  0.00     0.192 HD
ENDBRANCH  13  14
ENDBRANCH  12  13
ENDBRANCH  11  12
ENDBRANCH   7  11
BRANCH   6  21
ATOM     21  N   UNL A   1      32.952  22.685  24.261  1.00  0.00    -0.331 N 
ATOM     22  H   UNL A   1      33.951  22.508  24.364  1.00  0.00     0.347 HD
ATOM     23  H   UNL A   1      32.727  23.315  23.491  1.00  0.00     0.347 HD
BRANCH  21  24
ATOM     24  C   UNL A   1      32.284  21.389  23.944  1.00  0.00     0.176 C 
ATOM     25  C   UNL A   1      31.966  21.163  22.458  1.00  0.00     0.075 C 
ATOM     26  C   UNL A   1      33.213  20.254  24.393  1.00  0.00     0.075 C 
ENDBRANCH  21  24
ENDBRANCH   6  21
ENDBRANCH   3   6
ENDBRANCH   1   2
BRANCH   1  27
ATOM     27  C   UNL A   1      36.672  21.787  25.499  1.00  0.00     0.042 C 
BRANCH  27  28
ATOM     28  C   UNL A   1      38.128  22.177  25.400  1.00  0.00     0.118 C 
BRANCH  28  29
ATOM     29  N   UNL A   1      39.023  21.245  26.064  1.00  0.00    -0.352 N 
ATOM     30  C   UNL A   1      40.245  21.556  26.641  1.00  0.00     0.251 C 
ATOM     31  H   UNL A   1      38.736  20.305  26.107  1.00  0.00     0.163 HD
ATOM     32  O   UNL A   1      41.093  20.695  26.794  1.00  0.00    -0.269 OA
BRANCH  30  33
ATOM     33  C   UNL A   1      40.490  22.954  27.056  1.00  0.00     0.039 A 
ATOM     34  C   UNL A   1      39.505  23.936  26.914  1.00  0.00     0.014 A 
ATOM     35  C   UNL A   1      41.731  23.276  27.604  1.00  0.00     0.014 A 
ATOM     36  C   UNL A   1      39.765  25.223  27.382  1.00  0.00     0.010 A 
ATOM     37  C   UNL A   1      41.926  24.489  28.209  1.00  0.00     0.010 A 
ATOM     38  C   UNL A   1      40.977  25.487  28.041  1.00  0.00    -0.014 A 
BRANCH  38  39
ATOM     39  C   UNL A   1      41.236  26.781  28.658  1.00  0.00     0.031 A 
ATOM     40  C   UNL A   1      42.351  27.540  28.034  1.00  0.00     0.074 A 
ATOM     41  C   UNL A   1      40.402  27.336  29.566  1.00  0.00     0.049 A 
ATOM     42  N   UNL A   1      43.510  27.780  28.545  1.00  0.00    -0.248 NA
ATOM     43  C   UNL A   1      42.240  27.927  26.617  1.00  0.00     0.031 C 
ATOM     44  C   UNL A   1      39.108  26.829  30.039  1.00  0.00     0.029 A 
ATOM     45  N   UNL A   1      40.480  28.546  30.180  1.00  0.00    -0.354 N 
ATOM     46  C   UNL A   1      44.187  28.563  27.616  1.00  0.00     0.074 A 
ATOM     47  C   UNL A   1      43.454  28.433  26.384  1.00  0.00     0.031 C 
ATOM     48  C   UNL A   1      38.431  27.821  30.656  1.00  0.00     0.029 A 
ATOM     49  C   UNL A   1      39.293  28.983  30.765  1.00  0.00     0.049 A 
ATOM     50  H   UNL A   1      41.312  29.073  30.209  1.00  0.00     0.167 HD
ATOM     51  C   UNL A   1      45.149  29.444  28.011  1.00  0.00     0.037 A 
ATOM     52  C   UNL A   1      39.037  30.221  31.266  1.00  0.00     0.037 A 
ATOM     53  C   UNL A   1      45.521  29.206  29.386  1.00  0.00     0.049 A 
ATOM     54  C   UNL A   1      40.358  30.859  31.520  1.00  0.00     0.074 A 
ATOM     55  C   UNL A   1      46.024  28.120  30.077  1.00  0.00     0.029 A 
ATOM     56  N   UNL A   1      44.999  30.053  30.337  1.00  0.00    -0.354 N 
ATOM     57  N   UNL A   1      41.185  30.458  32.448  1.00  0.00    -0.248 NA
ATOM     58  C   UNL A   1      40.966  31.619  30.436  1.00  0.00     0.031 C 
ATOM     59  C   UNL A   1      45.344  28.137  31.329  1.00  0.00     0.029 A 
ATOM     60  C   UNL A   1      44.543  29.279  31.372  1.00  0.00     0.049 A 
ATOM     61  H   UNL A   1      44.961  31.036  30.283  1.00  0.00     0.167 HD
ATOM     62  C   UNL A   1      42.436  30.508  31.850  1.00  0.00     0.074 A 
ATOM     63  C   UNL A   1      42.251  31.317  30.647  1.00  0.00     0.031 C 
ATOM     64  C   UNL A   1      43.428  29.643  32.219  1.00  0.00     0.037 A 
BRANCH  51  65
ATOM     65  C   UNL A   1      45.498  30.740  27.315  1.00  0.00     0.058 A 
ATOM     66  C   UNL A   1      46.840  30.972  26.940  1.00  0.00     0.135 A 
ATOM     67  C   UNL A   1      44.648  31.865  27.251  1.00  0.00     0.135 A 
ATOM     68  F   UNL A   1      47.739  29.976  26.957  1.00  0.00    -0.206 F 
ATOM     69  C   UNL A   1      47.318  32.240  26.613  1.00  0.00     0.059 A 
ATOM     70  C   UNL A   1      45.093  33.128  26.874  1.00  0.00     0.059 A 
ATOM     71  F   UNL A   1      43.369  31.823  27.641  1.00  0.00    -0.206 F 
ATOM     72  C   UNL A   1      46.437  33.316  26.599  1.00  0.00     0.060 A 
BRANCH  72  73
ATOM     73  S   UNL A   1      47.070  34.968  26.265  1.00  0.00     0.124 S 
ATOM     74  O   UNL A   1      47.852  35.228  27.468  1.00  0.00    -0.237 OA
ATOM     75  O   UNL A   1      47.830  34.757  25.038  1.00  0.00    -0.237 OA
ATOM     76  O   UNL A   1      45.856  35.767  26.116  1.00  0.00    -0.744 OA
ENDBRANCH  72  73
ENDBRANCH  51  65
BRANCH  52  77
ATOM     77  C   UNL A   1      37.759  30.989  31.285  1.00  0.00     0.058 A 
ATOM     78  C   UNL A   1      37.022  31.142  32.475  1.00  0.00     0.135 A 
ATOM     79  C   UNL A   1      37.377  31.827  30.218  1.00  0.00     0.135 A 
ATOM     80  F   UNL A   1      37.312  30.392  33.551  1.00  0.00    -0.206 F 
ATOM     81  C   UNL A   1      36.025  32.115  32.624  1.00  0.00     0.059 A 
ATOM     82  C   UNL A   1      36.379  32.795  30.336  1.00  0.00     0.059 A 
ATOM     83  F   UNL A   1      38.030  31.801  29.047  1.00  0.00    -0.206 F 
ATOM     84  C   UNL A   1      35.731  32.959  31.554  1.00  0.00     0.060 A 
BRANCH  84  85
ATOM     85  S   UNL A   1      34.613  34.359  31.805  1.00  0.00     0.124 S 
ATOM     86  O   UNL A   1      34.295  34.745  30.434  1.00  0.00    -0.237 OA
ATOM     87  O   UNL A   1      33.524  33.752  32.565  1.00  0.00    -0.237 OA
ATOM     88  O   UNL A   1      35.428  35.315  32.549  1.00  0.00    -0.744 OA
ENDBRANCH  84  85
ENDBRANCH  52  77
BRANCH  64  89
ATOM     89  C   UNL A   1      43.263  28.847  33.489  1.00  0.00     0.058 A 
ATOM     90  C   UNL A   1      43.509  29.335  34.786  1.00  0.00     0.135 A 
ATOM     91  C   UNL A   1      42.679  27.575  33.386  1.00  0.00     0.135 A 
ATOM     92  F   UNL A   1      43.957  30.581  34.985  1.00  0.00    -0.206 F 
ATOM     93  C   UNL A   1      43.237  28.568  35.922  1.00  0.00     0.059 A 
ATOM     94  C   UNL A   1      42.364  26.812  34.504  1.00  0.00     0.059 A 
ATOM     95  F   UNL A   1      42.359  27.077  32.180  1.00  0.00    -0.206 F 
ATOM     96  C   UNL A   1      42.666  27.306  35.770  1.00  0.00     0.060 A 
BRANCH  96  97
ATOM     97  S   UNL A   1      42.268  26.335  37.238  1.00  0.00     0.124 S 
ATOM     98  O   UNL A   1      43.259  26.811  38.197  1.00  0.00    -0.237 OA
ATOM     99  O   UNL A   1      40.885  26.718  37.511  1.00  0.00    -0.237 OA
ATOM    100  O   UNL A   1      42.445  24.954  36.792  1.00  0.00    -0.744 OA
ENDBRANCH  96  97
ENDBRANCH  64  89
ENDBRANCH  38  39
ENDBRANCH  30  33
ENDBRANCH  28  29
ENDBRANCH  27  28
ENDBRANCH   1  27
TORSDOF 19
ENDMDL
MODEL 2
REMARK VINA RESULT:     -11.6      2.063      4.109
REMARK SMILES Cc1n[nH]c(SCC[C@@H]2CCC[C@]2([NH2+]C(C)C)C(=O)NCCCNC(=O)c2ccc(-c3c4nc(c(-c5c(F)cc(S(=O)(=O)[O-])cc5F)c5ccc([nH]5)c(-c5c(F)cc(S(=O)(=O)[O-])cc5F)c5nc(c(-c6c(F)cc(S(=O)(=O)[O-])cc6F)c6ccc3[nH]6)C=C5)C=C4)cc2)n1
REMARK SMILES IDX 21 1 20 2 18 3 19 4 13 6 9 7 10 8 11 9 12 10 8 11 7 12 6 13
REMARK SMILES IDX 5 14 1 15 2 16 3 17 93 18 4 19 14 21 15 24 16 25 17 26 22 27
REMARK SMILES IDX 23 28 24 29 25 30 26 32 27 33 28 34 92 35 29 36 91 37 30 38
REMARK SMILES IDX 31 39 32 40 85 41 33 42 90 43 84 44 86 45 34 46 89 47 83 48
REMARK SMILES IDX 82 49 35 51 69 52 48 53 68 54 49 55 52 56 67 57 87 58 50 59
REMARK SMILES IDX 51 60 66 62 88 63 53 64 36 65 37 66 46 67 38 68 39 69 45 70
REMARK SMILES IDX 47 71 40 72 41 73 42 74 43 75 44 76 70 77 71 78 80 79 72 80
REMARK SMILES IDX 73 81 79 82 81 83 74 84 75 85 76 86 77 87 78 88 54 89 55 90
REMARK SMILES IDX 64 91 56 92 57 93 63 94 65 95 58 96 59 97 60 98 61 99 62 100
REMARK H PARENT 20 5 4 20 14 22 14 23 24 31 86 50 52 61
REMARK Flexibility Score: inf
ROOT
ATOM      1  C   UNL A   1      35.696  22.986  24.205  1.00  0.00     0.118 C 
ENDROOT
BRANCH   1   2
ATOM      2  N   UNL A   1      35.040  24.023  23.413  1.00  0.00    -0.351 N 
ATOM      3  C   UNL A   1      33.838  24.670  23.540  1.00  0.00     0.281 C 
ATOM      4  O   UNL A   1      33.662  25.625  22.776  1.00  0.00    -0.268 OA
ATOM      5  H   UNL A   1      35.565  24.317  22.634  1.00  0.00     0.163 HD
BRANCH   3   6
ATOM      6  C   UNL A   1      32.729  24.237  24.566  1.00  0.00     0.178 C 
ATOM      7  C   UNL A   1      31.906  23.004  24.040  1.00  0.00     0.061 C 
ATOM      8  C   UNL A   1      30.929  23.638  23.039  1.00  0.00     0.011 C 
ATOM      9  C   UNL A   1      30.435  24.870  23.749  1.00  0.00     0.008 C 
ATOM     10  C   UNL A   1      31.585  25.305  24.651  1.00  0.00     0.079 C 
BRANCH   7  11
ATOM     11  C   UNL A   1      32.557  21.801  23.341  1.00  0.00     0.022 C 
BRANCH  11  12
ATOM     12  C   UNL A   1      32.354  20.446  24.025  1.00  0.00     0.079 C 
BRANCH  12  13
ATOM     13  S   UNL A   1      33.862  19.731  24.753  1.00  0.00    -0.087 SA
BRANCH  13  14
ATOM     14  C   UNL A   1      33.621  18.043  24.603  1.00  0.00     0.183 A 
ATOM     15  C   UNL A   1      32.590  14.802  25.481  1.00  0.00     0.092 C 
ATOM     16  C   UNL A   1      33.127  16.026  24.856  1.00  0.00     0.148 A 
ATOM     17  N   UNL A   1      33.649  16.042  23.621  1.00  0.00    -0.158 NA
ATOM     18  N   UNL A   1      33.093  17.241  25.489  1.00  0.00    -0.206 NA
ATOM     19  N   UNL A   1      33.925  17.351  23.474  1.00  0.00    -0.254 N 
ATOM     20  H   UNL A   1      34.299  17.754  22.658  1.00  0.00     0.192 HD
ENDBRANCH  13  14
ENDBRANCH  12  13
ENDBRANCH  11  12
ENDBRANCH   7  11
BRANCH   6  21
ATOM     21  N   UNL A   1      33.322  24.061  25.934  1.00  0.00    -0.331 N 
ATOM     22  H   UNL A   1      33.068  24.875  26.494  1.00  0.00     0.347 HD
ATOM     23  H   UNL A   1      34.327  23.960  25.796  1.00  0.00     0.347 HD
BRANCH  21  24
ATOM     24  C   UNL A   1      32.879  22.840  26.666  1.00  0.00     0.176 C 
ATOM     25  C   UNL A   1      33.879  22.298  27.699  1.00  0.00     0.075 C 
ATOM     26  C   UNL A   1      31.583  23.178  27.413  1.00  0.00     0.075 C 
ENDBRANCH  21  24
ENDBRANCH   6  21
ENDBRANCH   3   6
ENDBRANCH   1   2
BRANCH   1  27
ATOM     27  C   UNL A   1      37.138  23.312  24.617  1.00  0.00     0.042 C 
BRANCH  27  28
ATOM     28  C   UNL A   1      37.481  23.011  26.057  1.00  0.00     0.118 C 
BRANCH  28  29
ATOM     29  N   UNL A   1      38.601  22.097  26.206  1.00  0.00    -0.352 N 
ATOM     30  C   UNL A   1      39.927  22.453  26.391  1.00  0.00     0.251 C 
ATOM     31  H   UNL A   1      38.398  21.134  26.171  1.00  0.00     0.163 HD
ATOM     32  O   UNL A   1      40.822  21.681  26.096  1.00  0.00    -0.269 OA
BRANCH  30  33
ATOM     33  C   UNL A   1      40.224  23.792  26.946  1.00  0.00     0.039 A 
ATOM     34  C   UNL A   1      39.523  24.924  26.522  1.00  0.00     0.014 A 
ATOM     35  C   UNL A   1      41.219  23.903  27.917  1.00  0.00     0.014 A 
ATOM     36  C   UNL A   1      39.797  26.151  27.126  1.00  0.00     0.010 A 
ATOM     37  C   UNL A   1      41.372  25.067  28.621  1.00  0.00     0.010 A 
ATOM     38  C   UNL A   1      40.716  26.210  28.185  1.00  0.00    -0.014 A 
BRANCH  38  39
ATOM     39  C   UNL A   1      40.936  27.444  28.928  1.00  0.00     0.031 A 
ATOM     40  C   UNL A   1      41.945  28.349  28.318  1.00  0.00     0.074 A 
ATOM     41  C   UNL A   1      40.141  27.831  29.951  1.00  0.00     0.049 A 
ATOM     42  N   UNL A   1      43.122  28.617  28.770  1.00  0.00    -0.248 NA
ATOM     43  C   UNL A   1      41.697  28.880  26.967  1.00  0.00     0.031 C 
ATOM     44  C   UNL A   1      38.926  27.179  30.453  1.00  0.00     0.029 A 
ATOM     45  N   UNL A   1      40.187  28.968  30.694  1.00  0.00    -0.354 N 
ATOM     46  C   UNL A   1      43.670  29.547  27.892  1.00  0.00     0.074 A 
ATOM     47  C   UNL A   1      42.852  29.499  26.709  1.00  0.00     0.031 C 
ATOM     48  C   UNL A   1      38.234  28.042  31.228  1.00  0.00     0.029 A 
ATOM     49  C   UNL A   1      39.023  29.247  31.409  1.00  0.00     0.049 A 
ATOM     50  H   UNL A   1      40.981  29.550  30.725  1.00  0.00     0.167 HD
ATOM     51  C   UNL A   1      44.599  30.449  28.317  1.00  0.00     0.037 A 
ATOM     52  C   UNL A   1      38.726  30.399  32.066  1.00  0.00     0.037 A 
ATOM     53  C   UNL A   1      45.094  30.090  29.625  1.00  0.00     0.049 A 
ATOM     54  C   UNL A   1      40.017  31.103  32.298  1.00  0.00     0.074 A 
ATOM     55  C   UNL A   1      45.721  28.974  30.149  1.00  0.00     0.029 A 
ATOM     56  N   UNL A   1      44.593  30.784  30.703  1.00  0.00    -0.354 N 
ATOM     57  N   UNL A   1      40.939  30.666  33.112  1.00  0.00    -0.248 NA
ATOM     58  C   UNL A   1      40.485  32.022  31.269  1.00  0.00     0.031 C 
ATOM     59  C   UNL A   1      45.143  28.802  31.439  1.00  0.00     0.029 A 
ATOM     60  C   UNL A   1      44.273  29.869  31.672  1.00  0.00     0.049 A 
ATOM     61  H   UNL A   1      44.485  31.761  30.766  1.00  0.00     0.167 HD
ATOM     62  C   UNL A   1      42.134  30.875  32.437  1.00  0.00     0.074 A 
ATOM     63  C   UNL A   1      41.801  31.796  31.352  1.00  0.00     0.031 C 
ATOM     64  C   UNL A   1      43.207  30.052  32.631  1.00  0.00     0.037 A 
BRANCH  51  65
ATOM     65  C   UNL A   1      44.805  31.837  27.753  1.00  0.00     0.058 A 
ATOM     66  C   UNL A   1      45.998  32.116  27.051  1.00  0.00     0.135 A 
ATOM     67  C   UNL A   1      44.029  32.962  28.102  1.00  0.00     0.135 A 
ATOM     68  F   UNL A   1      46.813  31.124  26.662  1.00  0.00    -0.206 F 
ATOM     69  C   UNL A   1      46.429  33.417  26.795  1.00  0.00     0.059 A 
ATOM     70  C   UNL A   1      44.414  34.267  27.808  1.00  0.00     0.059 A 
ATOM     71  F   UNL A   1      42.910  32.867  28.830  1.00  0.00    -0.206 F 
ATOM     72  C   UNL A   1      45.635  34.487  27.193  1.00  0.00     0.060 A 
BRANCH  72  73
ATOM     73  S   UNL A   1      46.232  36.167  26.945  1.00  0.00     0.124 S 
ATOM     74  O   UNL A   1      46.983  36.393  28.174  1.00  0.00    -0.237 OA
ATOM     75  O   UNL A   1      47.022  36.029  25.726  1.00  0.00    -0.237 OA
ATOM     76  O   UNL A   1      45.002  36.942  26.804  1.00  0.00    -0.744 OA
ENDBRANCH  72  73
ENDBRANCH  51  65
BRANCH  52  77
ATOM     77  C   UNL A   1      37.405  31.063  32.265  1.00  0.00     0.058 A 
ATOM     78  C   UNL A   1      37.090  31.702  33.479  1.00  0.00     0.135 A 
ATOM     79  C   UNL A   1      36.538  31.335  31.187  1.00  0.00     0.135 A 
ATOM     80  F   UNL A   1      37.857  31.510  34.564  1.00  0.00    -0.206 F 
ATOM     81  C   UNL A   1      36.032  32.613  33.598  1.00  0.00     0.059 A 
ATOM     82  C   UNL A   1      35.470  32.229  31.283  1.00  0.00     0.059 A 
ATOM     83  F   UNL A   1      36.758  30.816  29.971  1.00  0.00    -0.206 F 
ATOM     84  C   UNL A   1      35.245  32.894  32.482  1.00  0.00     0.060 A 
BRANCH  84  85
ATOM     85  S   UNL A   1      34.027  34.230  32.562  1.00  0.00     0.124 S 
ATOM     86  O   UNL A   1      33.834  34.551  31.152  1.00  0.00    -0.237 OA
ATOM     87  O   UNL A   1      32.902  33.583  33.230  1.00  0.00    -0.237 OA
ATOM     88  O   UNL A   1      34.704  35.258  33.349  1.00  0.00    -0.744 OA
ENDBRANCH  84  85
ENDBRANCH  52  77
BRANCH  64  89
ATOM     89  C   UNL A   1      43.197  29.111  33.809  1.00  0.00     0.058 A 
ATOM     90  C   UNL A   1      43.599  29.446  35.115  1.00  0.00     0.135 A 
ATOM     91  C   UNL A   1      42.603  27.851  33.629  1.00  0.00     0.135 A 
ATOM     92  F   UNL A   1      44.070  30.666  35.404  1.00  0.00    -0.206 F 
ATOM     93  C   UNL A   1      43.466  28.548  36.177  1.00  0.00     0.059 A 
ATOM     94  C   UNL A   1      42.425  26.959  34.679  1.00  0.00     0.059 A 
ATOM     95  F   UNL A   1      42.137  27.495  32.420  1.00  0.00    -0.206 F 
ATOM     96  C   UNL A   1      42.879  27.305  35.948  1.00  0.00     0.060 A 
BRANCH  96  97
ATOM     97  S   UNL A   1      42.661  26.163  37.329  1.00  0.00     0.124 S 
ATOM     98  O   UNL A   1      41.245  26.328  37.641  1.00  0.00    -0.237 OA
ATOM     99  O   UNL A   1      43.037  24.879  36.745  1.00  0.00    -0.237 OA
ATOM    100  O   UNL A   1      43.585  26.671  38.341  1.00  0.00    -0.744 OA
ENDBRANCH  96  97
ENDBRANCH  64  89
ENDBRANCH  38  39
ENDBRANCH  30  33
ENDBRANCH  28  29
ENDBRANCH  27  28
ENDBRANCH   1  27
TORSDOF 19
ENDMDL
MODEL 3
REMARK VINA RESULT:     -11.5      1.791      2.480
REMARK SMILES Cc1n[nH]c(SCC[C@@H]2CCC[C@]2([NH2+]C(C)C)C(=O)NCCCNC(=O)c2ccc(-c3c4nc(c(-c5c(F)cc(S(=O)(=O)[O-])cc5F)c5ccc([nH]5)c(-c5c(F)cc(S(=O)(=O)[O-])cc5F)c5nc(c(-c6c(F)cc(S(=O)(=O)[O-])cc6F)c6ccc3[nH]6)C=C5)C=C4)cc2)n1
REMARK SMILES IDX 21 1 20 2 18 3 19 4 13 6 9 7 10 8 11 9 12 10 8 11 7 12 6 13
REMARK SMILES IDX 5 14 1 15 2 16 3 17 93 18 4 19 14 21 15 24 16 25 17 26 22 27
REMARK SMILES IDX 23 28 24 29 25 30 26 32 27 33 28 34 92 35 29 36 91 37 30 38
REMARK SMILES IDX 31 39 32 40 85 41 33 42 90 43 84 44 86 45 34 46 89 47 83 48
REMARK SMILES IDX 82 49 35 51 69 52 48 53 68 54 49 55 52 56 67 57 87 58 50 59
REMARK SMILES IDX 51 60 66 62 88 63 53 64 36 65 37 66 46 67 38 68 39 69 45 70
REMARK SMILES IDX 47 71 40 72 41 73 42 74 43 75 44 76 70 77 71 78 80 79 72 80
REMARK SMILES IDX 73 81 79 82 81 83 74 84 75 85 76 86 77 87 78 88 54 89 55 90
REMARK SMILES IDX 64 91 56 92 57 93 63 94 65 95 58 96 59 97 60 98 61 99 62 100
REMARK H PARENT 20 5 4 20 14 22 14 23 24 31 86 50 52 61
REMARK Flexibility Score: inf
ROOT
ATOM      1  C   UNL A   1      35.246  22.562  24.361  1.00  0.00     0.118 C 
ENDROOT
BRANCH   1   2
ATOM      2  N   UNL A   1      34.670  23.196  23.179  1.00  0.00    -0.351 N 
ATOM      3  C   UNL A   1      33.665  24.113  23.011  1.00  0.00     0.281 C 
ATOM      4  O   UNL A   1      33.540  24.567  21.869  1.00  0.00    -0.268 OA
ATOM      5  H   UNL A   1      35.087  22.910  22.334  1.00  0.00     0.163 HD
BRANCH   3   6
ATOM      6  C   UNL A   1      32.705  24.562  24.172  1.00  0.00     0.178 C 
ATOM      7  C   UNL A   1      32.247  26.057  23.996  1.00  0.00     0.061 C 
ATOM      8  C   UNL A   1      33.459  26.855  24.502  1.00  0.00     0.011 C 
ATOM      9  C   UNL A   1      33.867  26.132  25.758  1.00  0.00     0.008 C 
ATOM     10  C   UNL A   1      33.474  24.677  25.533  1.00  0.00     0.079 C 
BRANCH   7  11
ATOM     11  C   UNL A   1      31.843  26.654  22.640  1.00  0.00     0.022 C 
BRANCH  11  12
ATOM     12  C   UNL A   1      31.273  28.075  22.683  1.00  0.00     0.079 C 
BRANCH  12  13
ATOM     13  S   UNL A   1      29.456  28.159  22.762  1.00  0.00    -0.087 SA
BRANCH  13  14
ATOM     14  C   UNL A   1      29.107  29.766  22.285  1.00  0.00     0.183 A 
ATOM     15  C   UNL A   1      27.665  32.382  20.437  1.00  0.00     0.092 C 
ATOM     16  C   UNL A   1      28.408  31.512  21.369  1.00  0.00     0.148 A 
ATOM     17  N   UNL A   1      29.148  31.993  22.378  1.00  0.00    -0.158 NA
ATOM     18  N   UNL A   1      28.359  30.145  21.282  1.00  0.00    -0.206 NA
ATOM     19  N   UNL A   1      29.555  30.853  22.966  1.00  0.00    -0.254 N 
ATOM     20  H   UNL A   1      30.105  30.811  23.781  1.00  0.00     0.192 HD
ENDBRANCH  13  14
ENDBRANCH  12  13
ENDBRANCH  11  12
ENDBRANCH   7  11
BRANCH   6  21
ATOM     21  N   UNL A   1      31.585  23.576  24.336  1.00  0.00    -0.331 N 
ATOM     22  H   UNL A   1      31.632  22.915  23.561  1.00  0.00     0.347 HD
ATOM     23  H   UNL A   1      30.726  24.124  24.353  1.00  0.00     0.347 HD
BRANCH  21  24
ATOM     24  C   UNL A   1      31.606  22.798  25.608  1.00  0.00     0.176 C 
ATOM     25  C   UNL A   1      30.334  22.908  26.463  1.00  0.00     0.075 C 
ATOM     26  C   UNL A   1      31.796  21.317  25.256  1.00  0.00     0.075 C 
ENDBRANCH  21  24
ENDBRANCH   6  21
ENDBRANCH   3   6
ENDBRANCH   1   2
BRANCH   1  27
ATOM     27  C   UNL A   1      36.780  22.539  24.392  1.00  0.00     0.042 C 
BRANCH  27  28
ATOM     28  C   UNL A   1      37.402  22.836  25.737  1.00  0.00     0.118 C 
BRANCH  28  29
ATOM     29  N   UNL A   1      38.416  21.872  26.130  1.00  0.00    -0.352 N 
ATOM     30  C   UNL A   1      39.723  22.162  26.488  1.00  0.00     0.251 C 
ATOM     31  H   UNL A   1      38.150  20.925  26.142  1.00  0.00     0.163 HD
ATOM     32  O   UNL A   1      40.592  21.313  26.398  1.00  0.00    -0.269 OA
BRANCH  30  33
ATOM     33  C   UNL A   1      40.033  23.526  26.973  1.00  0.00     0.039 A 
ATOM     34  C   UNL A   1      39.179  24.600  26.710  1.00  0.00     0.014 A 
ATOM     35  C   UNL A   1      41.199  23.718  27.713  1.00  0.00     0.014 A 
ATOM     36  C   UNL A   1      39.484  25.850  27.246  1.00  0.00     0.010 A 
ATOM     37  C   UNL A   1      41.412  24.899  28.373  1.00  0.00     0.010 A 
ATOM     38  C   UNL A   1      40.599  25.986  28.089  1.00  0.00    -0.014 A 
BRANCH  38  39
ATOM     39  C   UNL A   1      40.881  27.242  28.772  1.00  0.00     0.031 A 
ATOM     40  C   UNL A   1      41.989  28.027  28.169  1.00  0.00     0.074 A 
ATOM     41  C   UNL A   1      40.070  27.750  29.727  1.00  0.00     0.049 A 
ATOM     42  N   UNL A   1      43.160  28.230  28.668  1.00  0.00    -0.248 NA
ATOM     43  C   UNL A   1      41.851  28.495  26.779  1.00  0.00     0.031 C 
ATOM     44  C   UNL A   1      38.783  27.226  30.198  1.00  0.00     0.029 A 
ATOM     45  N   UNL A   1      40.170  28.922  30.407  1.00  0.00    -0.354 N 
ATOM     46  C   UNL A   1      43.823  29.061  27.771  1.00  0.00     0.074 A 
ATOM     47  C   UNL A   1      43.064  29.006  26.550  1.00  0.00     0.031 C 
ATOM     48  C   UNL A   1      38.126  28.185  30.885  1.00  0.00     0.029 A 
ATOM     49  C   UNL A   1      38.999  29.333  31.041  1.00  0.00     0.049 A 
ATOM     50  H   UNL A   1      41.006  29.442  30.449  1.00  0.00     0.167 HD
ATOM     51  C   UNL A   1      44.800  29.911  28.194  1.00  0.00     0.037 A 
ATOM     52  C   UNL A   1      38.763  30.542  31.617  1.00  0.00     0.037 A 
ATOM     53  C   UNL A   1      45.199  29.594  29.546  1.00  0.00     0.049 A 
ATOM     54  C   UNL A   1      40.094  31.156  31.879  1.00  0.00     0.074 A 
ATOM     55  C   UNL A   1      45.707  28.466  30.163  1.00  0.00     0.029 A 
ATOM     56  N   UNL A   1      44.703  30.388  30.554  1.00  0.00    -0.354 N 
ATOM     57  N   UNL A   1      40.936  30.698  32.764  1.00  0.00    -0.248 NA
ATOM     58  C   UNL A   1      40.685  31.973  30.827  1.00  0.00     0.031 C 
ATOM     59  C   UNL A   1      45.053  28.417  31.428  1.00  0.00     0.029 A 
ATOM     60  C   UNL A   1      44.263  29.560  31.554  1.00  0.00     0.049 A 
ATOM     61  H   UNL A   1      44.671  31.373  30.556  1.00  0.00     0.167 HD
ATOM     62  C   UNL A   1      42.176  30.773  32.145  1.00  0.00     0.074 A 
ATOM     63  C   UNL A   1      41.972  31.651  30.993  1.00  0.00     0.031 C 
ATOM     64  C   UNL A   1      43.169  29.883  32.442  1.00  0.00     0.037 A 
BRANCH  51  65
ATOM     65  C   UNL A   1      45.145  31.243  27.566  1.00  0.00     0.058 A 
ATOM     66  C   UNL A   1      46.409  31.402  26.958  1.00  0.00     0.135 A 
ATOM     67  C   UNL A   1      44.418  32.434  27.774  1.00  0.00     0.135 A 
ATOM     68  F   UNL A   1      47.188  30.338  26.706  1.00  0.00    -0.206 F 
ATOM     69  C   UNL A   1      46.947  32.654  26.662  1.00  0.00     0.059 A 
ATOM     70  C   UNL A   1      44.913  33.690  27.435  1.00  0.00     0.059 A 
ATOM     71  F   UNL A   1      43.237  32.456  28.402  1.00  0.00    -0.206 F 
ATOM     72  C   UNL A   1      46.194  33.795  26.919  1.00  0.00     0.060 A 
BRANCH  72  73
ATOM     73  S   UNL A   1      46.920  35.415  26.622  1.00  0.00     0.124 S 
ATOM     74  O   UNL A   1      48.190  35.055  26.004  1.00  0.00    -0.237 OA
ATOM     75  O   UNL A   1      45.930  36.031  25.744  1.00  0.00    -0.237 OA
ATOM     76  O   UNL A   1      47.008  35.992  27.960  1.00  0.00    -0.744 OA
ENDBRANCH  72  73
ENDBRANCH  51  65
BRANCH  52  77
ATOM     77  C   UNL A   1      37.492  31.317  31.706  1.00  0.00     0.058 A 
ATOM     78  C   UNL A   1      36.956  31.689  32.954  1.00  0.00     0.135 A 
ATOM     79  C   UNL A   1      36.926  31.954  30.583  1.00  0.00     0.135 A 
ATOM     80  F   UNL A   1      37.430  31.141  34.085  1.00  0.00    -0.206 F 
ATOM     81  C   UNL A   1      35.979  32.685  33.087  1.00  0.00     0.059 A 
ATOM     82  C   UNL A   1      35.943  32.939  30.688  1.00  0.00     0.059 A 
ATOM     83  F   UNL A   1      37.381  31.711  29.345  1.00  0.00    -0.206 F 
ATOM     84  C   UNL A   1      35.500  33.327  31.946  1.00  0.00     0.060 A 
BRANCH  84  85
ATOM     85  S   UNL A   1      34.412  34.762  32.121  1.00  0.00     0.124 S 
ATOM     86  O   UNL A   1      33.271  34.196  32.832  1.00  0.00    -0.237 OA
ATOM     87  O   UNL A   1      35.244  35.688  32.884  1.00  0.00    -0.237 OA
ATOM     88  O   UNL A   1      34.152  35.160  30.740  1.00  0.00    -0.744 OA
ENDBRANCH  84  85
ENDBRANCH  52  77
BRANCH  64  89
ATOM     89  C   UNL A   1      43.024  29.017  33.669  1.00  0.00     0.058 A 
ATOM     90  C   UNL A   1      42.185  27.892  33.769  1.00  0.00     0.135 A 
ATOM     91  C   UNL A   1      43.898  29.259  34.741  1.00  0.00     0.135 A 
ATOM     92  F   UNL A   1      41.402  27.518  32.749  1.00  0.00    -0.206 F 
ATOM     93  C   UNL A   1      42.179  27.080  34.906  1.00  0.00     0.059 A 
ATOM     94  C   UNL A   1      43.936  28.440  35.863  1.00  0.00     0.059 A 
ATOM     95  F   UNL A   1      44.770  30.278  34.681  1.00  0.00    -0.206 F 
ATOM     96  C   UNL A   1      43.058  27.363  35.949  1.00  0.00     0.060 A 
BRANCH  96  97
ATOM     97  S   UNL A   1      43.088  26.287  37.397  1.00  0.00     0.124 S 
ATOM     98  O   UNL A   1      43.723  25.083  36.870  1.00  0.00    -0.237 OA
ATOM     99  O   UNL A   1      43.880  27.056  38.353  1.00  0.00    -0.237 OA
ATOM    100  O   UNL A   1      41.675  26.144  37.746  1.00  0.00    -0.744 OA
ENDBRANCH  96  97
ENDBRANCH  64  89
ENDBRANCH  38  39
ENDBRANCH  30  33
ENDBRANCH  28  29
ENDBRANCH  27  28
ENDBRANCH   1  27
TORSDOF 19
ENDMDL
