MODEL 1
REMARK VINA RESULT:     -12.5      0.000      0.000
REMARK SMILES O=C(NCc1ccc(C(=O)NCCCNC(=O)c2ccc(-c3c4nc(c(-c5c(F)cc(S(=O)(=O)[O-])cc5F)c5ccc([nH]5)c(-c5c(F)cc(S(=O)(=O)[O-])cc5F)c5nc(c(-c6c(F)cc(S(=O)(=O)[O-])cc6F)c6ccc3[nH]6)C=C5)C=C4)cc2)o1)Nc1ccc(F)c(Cl)c1
REMARK SMILES IDX 13 1 12 2 11 3 9 4 10 5 8 7 5 8 6 9 84 10 7 11 4 12 3 13
REMARK SMILES IDX 1 14 2 15 85 16 86 19 87 20 93 21 88 22 91 23 89 24 92 25
REMARK SMILES IDX 90 26 14 27 15 28 16 29 17 31 18 32 19 33 83 34 20 35 82 36
REMARK SMILES IDX 21 37 22 38 23 39 76 40 24 41 81 42 75 43 77 44 25 45 80 46
REMARK SMILES IDX 74 47 73 48 26 50 60 51 39 52 59 53 40 54 43 55 58 56 78 57
REMARK SMILES IDX 41 58 42 59 57 61 79 62 44 63 27 64 28 65 37 66 29 67 30 68
REMARK SMILES IDX 36 69 38 70 31 71 32 72 33 73 34 74 35 75 61 76 62 77 71 78
REMARK SMILES IDX 63 79 64 80 70 81 72 82 65 83 66 84 67 85 68 86 69 87 45 88
REMARK SMILES IDX 46 89 55 90 47 91 48 92 54 93 56 94 49 95 50 96 51 97 52 98
REMARK SMILES IDX 53 99
REMARK H PARENT 11 6 3 17 85 18 15 30 77 49 43 60
REMARK Flexibility Score: inf
ROOT
ATOM      1  C   UNL A   1      34.374  30.963  27.504  1.00  0.00     0.042 C 
ENDROOT
BRANCH   1   2
ATOM      2  C   UNL A   1      34.435  29.478  27.155  1.00  0.00     0.118 C 
BRANCH   2   3
ATOM      3  N   UNL A   1      33.349  28.729  27.753  1.00  0.00    -0.349 N 
ATOM      4  C   UNL A   1      32.142  28.320  27.233  1.00  0.00     0.286 C 
ATOM      5  O   UNL A   1      31.501  27.532  27.931  1.00  0.00    -0.266 OA
ATOM      6  H   UNL A   1      33.500  28.469  28.691  1.00  0.00     0.163 HD
BRANCH   4   7
ATOM      7  C   UNL A   1      31.675  28.782  25.938  1.00  0.00     0.191 A 
ATOM      8  C   UNL A   1      30.940  28.417  23.875  1.00  0.00     0.124 A 
ATOM      9  C   UNL A   1      30.930  29.782  24.052  1.00  0.00     0.048 A 
ATOM     10  O   UNL A   1      31.410  27.811  25.001  1.00  0.00    -0.454 OA
ATOM     11  C   UNL A   1      31.377  30.013  25.378  1.00  0.00     0.056 A 
BRANCH   8  12
ATOM     12  C   UNL A   1      30.566  27.533  22.741  1.00  0.00     0.193 C 
BRANCH  12  13
ATOM     13  N   UNL A   1      31.757  27.169  22.004  1.00  0.00    -0.331 N 
ATOM     14  O   UNL A   1      33.650  26.181  21.429  1.00  0.00    -0.248 OA
ATOM     15  C   UNL A   1      32.663  26.171  22.160  1.00  0.00     0.319 C 
ATOM     16  N   UNL A   1      32.386  25.226  23.107  1.00  0.00    -0.308 N 
ATOM     17  H   UNL A   1      31.946  27.760  21.240  1.00  0.00     0.165 HD
ATOM     18  H   UNL A   1      31.491  25.260  23.516  1.00  0.00     0.171 HD
BRANCH  16  19
ATOM     19  C   UNL A   1      33.250  24.205  23.561  1.00  0.00     0.044 A 
ATOM     20  C   UNL A   1      32.792  22.883  23.462  1.00  0.00     0.029 A 
ATOM     21  C   UNL A   1      34.512  24.449  24.117  1.00  0.00     0.049 A 
ATOM     22  C   UNL A   1      33.593  21.820  23.886  1.00  0.00     0.043 A 
ATOM     23  C   UNL A   1      35.309  23.384  24.548  1.00  0.00     0.078 A 
ATOM     24  C   UNL A   1      34.848  22.076  24.425  1.00  0.00     0.141 A 
ATOM     25  Cl  UNL A   1      36.857  23.703  25.232  1.00  0.00    -0.081 Cl
ATOM     26  F   UNL A   1      35.603  21.041  24.823  1.00  0.00    -0.205 F 
ENDBRANCH  16  19
ENDBRANCH  12  13
ENDBRANCH   8  12
ENDBRANCH   4   7
ENDBRANCH   2   3
ENDBRANCH   1   2
BRANCH   1  27
ATOM     27  C   UNL A   1      35.592  31.463  28.282  1.00  0.00     0.118 C 
BRANCH  27  28
ATOM     28  N   UNL A   1      35.536  31.089  29.688  1.00  0.00    -0.352 N 
ATOM     29  C   UNL A   1      36.390  30.335  30.453  1.00  0.00     0.251 C 
ATOM     30  H   UNL A   1      34.751  31.434  30.172  1.00  0.00     0.163 HD
ATOM     31  O   UNL A   1      36.013  29.965  31.564  1.00  0.00    -0.269 OA
BRANCH  29  32
ATOM     32  C   UNL A   1      37.739  29.960  29.970  1.00  0.00     0.039 A 
ATOM     33  C   UNL A   1      38.743  29.723  30.915  1.00  0.00     0.014 A 
ATOM     34  C   UNL A   1      38.046  29.914  28.607  1.00  0.00     0.014 A 
ATOM     35  C   UNL A   1      40.037  29.401  30.495  1.00  0.00     0.010 A 
ATOM     36  C   UNL A   1      39.320  29.524  28.190  1.00  0.00     0.010 A 
ATOM     37  C   UNL A   1      40.331  29.274  29.129  1.00  0.00    -0.014 A 
BRANCH  37  38
ATOM     38  C   UNL A   1      41.692  28.885  28.674  1.00  0.00     0.031 A 
ATOM     39  C   UNL A   1      42.787  29.914  28.569  1.00  0.00     0.074 A 
ATOM     40  C   UNL A   1      41.928  27.609  28.308  1.00  0.00     0.049 A 
ATOM     41  N   UNL A   1      44.022  29.767  28.159  1.00  0.00    -0.248 NA
ATOM     42  C   UNL A   1      42.444  31.293  28.949  1.00  0.00     0.031 C 
ATOM     43  C   UNL A   1      40.935  26.532  28.309  1.00  0.00     0.029 A 
ATOM     44  N   UNL A   1      43.073  27.002  27.855  1.00  0.00    -0.354 N 
ATOM     45  C   UNL A   1      44.596  31.033  28.215  1.00  0.00     0.074 A 
ATOM     46  C   UNL A   1      43.560  31.944  28.653  1.00  0.00     0.031 C 
ATOM     47  C   UNL A   1      41.517  25.395  27.899  1.00  0.00     0.029 A 
ATOM     48  C   UNL A   1      42.915  25.664  27.575  1.00  0.00     0.049 A 
ATOM     49  H   UNL A   1      43.926  27.478  27.742  1.00  0.00     0.167 HD
ATOM     50  C   UNL A   1      45.872  31.398  27.946  1.00  0.00     0.037 A 
ATOM     51  C   UNL A   1      43.795  24.757  27.111  1.00  0.00     0.037 A 
ATOM     52  C   UNL A   1      46.906  30.481  27.539  1.00  0.00     0.049 A 
ATOM     53  C   UNL A   1      45.216  25.180  26.854  1.00  0.00     0.074 A 
ATOM     54  C   UNL A   1      48.245  30.741  27.304  1.00  0.00     0.029 A 
ATOM     55  N   UNL A   1      46.717  29.127  27.307  1.00  0.00    -0.354 N 
ATOM     56  N   UNL A   1      45.756  26.369  26.977  1.00  0.00    -0.248 NA
ATOM     57  C   UNL A   1      46.149  24.136  26.410  1.00  0.00     0.031 C 
ATOM     58  C   UNL A   1      48.857  29.552  26.893  1.00  0.00     0.029 A 
ATOM     59  C   UNL A   1      47.911  28.540  26.919  1.00  0.00     0.049 A 
ATOM     60  H   UNL A   1      45.860  28.651  27.404  1.00  0.00     0.167 HD
ATOM     61  C   UNL A   1      47.099  26.211  26.653  1.00  0.00     0.074 A 
ATOM     62  C   UNL A   1      47.290  24.809  26.344  1.00  0.00     0.031 C 
ATOM     63  C   UNL A   1      48.085  27.141  26.617  1.00  0.00     0.037 A 
BRANCH  50  64
ATOM     64  C   UNL A   1      46.227  32.855  28.087  1.00  0.00     0.058 A 
ATOM     65  C   UNL A   1      46.084  33.757  27.021  1.00  0.00     0.135 A 
ATOM     66  C   UNL A   1      46.678  33.365  29.316  1.00  0.00     0.135 A 
ATOM     67  F   UNL A   1      45.669  33.323  25.820  1.00  0.00    -0.206 F 
ATOM     68  C   UNL A   1      46.402  35.105  27.158  1.00  0.00     0.059 A 
ATOM     69  C   UNL A   1      46.976  34.714  29.484  1.00  0.00     0.059 A 
ATOM     70  F   UNL A   1      46.833  32.548  30.370  1.00  0.00    -0.206 F 
ATOM     71  C   UNL A   1      46.849  35.573  28.395  1.00  0.00     0.060 A 
BRANCH  71  72
ATOM     72  S   UNL A   1      47.250  37.327  28.558  1.00  0.00     0.124 S 
ATOM     73  O   UNL A   1      48.709  37.296  28.510  1.00  0.00    -0.237 OA
ATOM     74  O   UNL A   1      46.590  37.909  27.394  1.00  0.00    -0.237 OA
ATOM     75  O   UNL A   1      46.673  37.689  29.849  1.00  0.00    -0.744 OA
ENDBRANCH  71  72
ENDBRANCH  50  64
BRANCH  51  76
ATOM     76  C   UNL A   1      43.363  23.352  26.887  1.00  0.00     0.058 A 
ATOM     77  C   UNL A   1      43.129  22.488  27.967  1.00  0.00     0.135 A 
ATOM     78  C   UNL A   1      43.160  22.850  25.593  1.00  0.00     0.135 A 
ATOM     79  F   UNL A   1      43.313  22.919  29.224  1.00  0.00    -0.206 F 
ATOM     80  C   UNL A   1      42.727  21.170  27.772  1.00  0.00     0.059 A 
ATOM     81  C   UNL A   1      42.733  21.544  25.373  1.00  0.00     0.059 A 
ATOM     82  F   UNL A   1      43.350  23.642  24.526  1.00  0.00    -0.206 F 
ATOM     83  C   UNL A   1      42.529  20.708  26.470  1.00  0.00     0.060 A 
BRANCH  83  84
ATOM     84  S   UNL A   1      41.957  19.013  26.228  1.00  0.00     0.124 S 
ATOM     85  O   UNL A   1      40.595  19.226  25.753  1.00  0.00    -0.237 OA
ATOM     86  O   UNL A   1      42.907  18.505  25.243  1.00  0.00    -0.237 OA
ATOM     87  O   UNL A   1      42.077  18.425  27.560  1.00  0.00    -0.744 OA
ENDBRANCH  83  84
ENDBRANCH  51  76
BRANCH  63  88
ATOM     88  C   UNL A   1      49.468  26.662  26.268  1.00  0.00     0.058 A 
ATOM     89  C   UNL A   1      49.990  26.788  24.971  1.00  0.00     0.135 A 
ATOM     90  C   UNL A   1      50.288  26.086  27.251  1.00  0.00     0.135 A 
ATOM     91  F   UNL A   1      49.246  27.329  23.992  1.00  0.00    -0.206 F 
ATOM     92  C   UNL A   1      51.261  26.324  24.651  1.00  0.00     0.059 A 
ATOM     93  C   UNL A   1      51.573  25.639  26.960  1.00  0.00     0.059 A 
ATOM     94  F   UNL A   1      49.843  25.953  28.511  1.00  0.00    -0.206 F 
ATOM     95  C   UNL A   1      52.044  25.746  25.653  1.00  0.00     0.060 A 
BRANCH  95  96
ATOM     96  S   UNL A   1      53.692  25.145  25.228  1.00  0.00     0.124 S 
ATOM     97  O   UNL A   1      53.522  23.702  25.364  1.00  0.00    -0.237 OA
ATOM     98  O   UNL A   1      53.865  25.638  23.866  1.00  0.00    -0.237 OA
ATOM     99  O   UNL A   1      54.550  25.774  26.228  1.00  0.00    -0.744 OA
ENDBRANCH  95  96
ENDBRANCH  63  88
ENDBRANCH  37  38
ENDBRANCH  29  32
ENDBRANCH  27  28
ENDBRANCH   1  27
TORSDOF 16
ENDMDL
MODEL 2
REMARK VINA RESULT:     -12.3      2.419      3.965
REMARK SMILES O=C(NCc1ccc(C(=O)NCCCNC(=O)c2ccc(-c3c4nc(c(-c5c(F)cc(S(=O)(=O)[O-])cc5F)c5ccc([nH]5)c(-c5c(F)cc(S(=O)(=O)[O-])cc5F)c5nc(c(-c6c(F)cc(S(=O)(=O)[O-])cc6F)c6ccc3[nH]6)C=C5)C=C4)cc2)o1)Nc1ccc(F)c(Cl)c1
REMARK SMILES IDX 13 1 12 2 11 3 9 4 10 5 8 7 5 8 6 9 84 10 7 11 4 12 3 13
REMARK SMILES IDX 1 14 2 15 85 16 86 19 87 20 93 21 88 22 91 23 89 24 92 25
REMARK SMILES IDX 90 26 14 27 15 28 16 29 17 31 18 32 19 33 83 34 20 35 82 36
REMARK SMILES IDX 21 37 22 38 23 39 76 40 24 41 81 42 75 43 77 44 25 45 80 46
REMARK SMILES IDX 74 47 73 48 26 50 60 51 39 52 59 53 40 54 43 55 58 56 78 57
REMARK SMILES IDX 41 58 42 59 57 61 79 62 44 63 27 64 28 65 37 66 29 67 30 68
REMARK SMILES IDX 36 69 38 70 31 71 32 72 33 73 34 74 35 75 61 76 62 77 71 78
REMARK SMILES IDX 63 79 64 80 70 81 72 82 65 83 66 84 67 85 68 86 69 87 45 88
REMARK SMILES IDX 46 89 55 90 47 91 48 92 54 93 56 94 49 95 50 96 51 97 52 98
REMARK SMILES IDX 53 99
REMARK H PARENT 11 6 3 17 85 18 15 30 77 49 43 60
REMARK Flexibility Score: inf
ROOT
ATOM      1  C   UNL A   1      37.794  33.615  31.358  1.00  0.00     0.042 C 
ENDROOT
BRANCH   1   2
ATOM      2  C   UNL A   1      37.065  34.727  32.107  1.00  0.00     0.118 C 
BRANCH   2   3
ATOM      3  N   UNL A   1      36.016  34.216  32.965  1.00  0.00    -0.349 N 
ATOM      4  C   UNL A   1      34.660  34.102  32.762  1.00  0.00     0.286 C 
ATOM      5  O   UNL A   1      34.047  33.450  33.611  1.00  0.00    -0.266 OA
ATOM      6  H   UNL A   1      36.326  33.897  33.844  1.00  0.00     0.163 HD
BRANCH   4   7
ATOM      7  C   UNL A   1      34.010  34.699  31.609  1.00  0.00     0.191 A 
ATOM      8  C   UNL A   1      33.299  34.631  29.506  1.00  0.00     0.124 A 
ATOM      9  C   UNL A   1      32.907  35.852  30.007  1.00  0.00     0.048 A 
ATOM     10  O   UNL A   1      33.985  33.941  30.461  1.00  0.00    -0.454 OA
ATOM     11  C   UNL A   1      33.340  35.884  31.357  1.00  0.00     0.056 A 
BRANCH   8  12
ATOM     12  C   UNL A   1      33.134  33.969  28.187  1.00  0.00     0.193 C 
BRANCH  12  13
ATOM     13  N   UNL A   1      34.046  32.849  28.094  1.00  0.00    -0.331 N 
ATOM     14  O   UNL A   1      34.843  30.812  27.770  1.00  0.00    -0.248 OA
ATOM     15  C   UNL A   1      33.906  31.590  27.610  1.00  0.00     0.319 C 
ATOM     16  N   UNL A   1      32.737  31.302  26.964  1.00  0.00    -0.308 N 
ATOM     17  H   UNL A   1      34.943  33.038  28.453  1.00  0.00     0.165 HD
ATOM     18  H   UNL A   1      32.136  32.060  26.779  1.00  0.00     0.171 HD
BRANCH  16  19
ATOM     19  C   UNL A   1      32.300  30.030  26.533  1.00  0.00     0.044 A 
ATOM     20  C   UNL A   1      31.884  29.124  27.519  1.00  0.00     0.029 A 
ATOM     21  C   UNL A   1      32.285  29.629  25.191  1.00  0.00     0.049 A 
ATOM     22  C   UNL A   1      31.434  27.848  27.169  1.00  0.00     0.043 A 
ATOM     23  C   UNL A   1      31.842  28.349  24.843  1.00  0.00     0.078 A 
ATOM     24  C   UNL A   1      31.413  27.469  25.832  1.00  0.00     0.141 A 
ATOM     25  Cl  UNL A   1      31.833  27.873  23.188  1.00  0.00    -0.081 Cl
ATOM     26  F   UNL A   1      30.974  26.241  25.518  1.00  0.00    -0.205 F 
ENDBRANCH  16  19
ENDBRANCH  12  13
ENDBRANCH   8  12
ENDBRANCH   4   7
ENDBRANCH   2   3
ENDBRANCH   1   2
BRANCH   1  27
ATOM     27  C   UNL A   1      36.966  32.983  30.238  1.00  0.00     0.118 C 
BRANCH  27  28
ATOM     28  N   UNL A   1      36.311  31.755  30.667  1.00  0.00    -0.352 N 
ATOM     29  C   UNL A   1      36.664  30.440  30.496  1.00  0.00     0.251 C 
ATOM     30  H   UNL A   1      35.471  31.891  31.162  1.00  0.00     0.163 HD
ATOM     31  O   UNL A   1      35.833  29.570  30.750  1.00  0.00    -0.269 OA
BRANCH  29  32
ATOM     32  C   UNL A   1      38.010  30.054  30.014  1.00  0.00     0.039 A 
ATOM     33  C   UNL A   1      39.004  29.778  30.960  1.00  0.00     0.014 A 
ATOM     34  C   UNL A   1      38.326  30.034  28.653  1.00  0.00     0.014 A 
ATOM     35  C   UNL A   1      40.295  29.444  30.542  1.00  0.00     0.010 A 
ATOM     36  C   UNL A   1      39.596  29.632  28.235  1.00  0.00     0.010 A 
ATOM     37  C   UNL A   1      40.597  29.344  29.174  1.00  0.00    -0.014 A 
BRANCH  37  38
ATOM     38  C   UNL A   1      41.954  28.942  28.721  1.00  0.00     0.031 A 
ATOM     39  C   UNL A   1      43.065  29.957  28.641  1.00  0.00     0.074 A 
ATOM     40  C   UNL A   1      42.173  27.670  28.331  1.00  0.00     0.049 A 
ATOM     41  N   UNL A   1      44.300  29.799  28.235  1.00  0.00    -0.248 NA
ATOM     42  C   UNL A   1      42.741  31.334  29.045  1.00  0.00     0.031 C 
ATOM     43  C   UNL A   1      41.164  26.609  28.306  1.00  0.00     0.029 A 
ATOM     44  N   UNL A   1      43.311  27.054  27.873  1.00  0.00    -0.354 N 
ATOM     45  C   UNL A   1      44.893  31.054  28.318  1.00  0.00     0.074 A 
ATOM     46  C   UNL A   1      43.869  31.973  28.768  1.00  0.00     0.031 C 
ATOM     47  C   UNL A   1      41.731  25.471  27.878  1.00  0.00     0.029 A 
ATOM     48  C   UNL A   1      43.134  25.725  27.567  1.00  0.00     0.049 A 
ATOM     49  H   UNL A   1      44.172  27.519  27.774  1.00  0.00     0.167 HD
ATOM     50  C   UNL A   1      46.176  31.405  28.063  1.00  0.00     0.037 A 
ATOM     51  C   UNL A   1      44.003  24.813  27.091  1.00  0.00     0.037 A 
ATOM     52  C   UNL A   1      47.198  30.480  27.645  1.00  0.00     0.049 A 
ATOM     53  C   UNL A   1      45.432  25.220  26.850  1.00  0.00     0.074 A 
ATOM     54  C   UNL A   1      48.543  30.724  27.422  1.00  0.00     0.029 A 
ATOM     55  N   UNL A   1      46.990  29.133  27.386  1.00  0.00    -0.354 N 
ATOM     56  N   UNL A   1      45.990  26.398  26.999  1.00  0.00    -0.248 NA
ATOM     57  C   UNL A   1      46.352  24.170  26.392  1.00  0.00     0.031 C 
ATOM     58  C   UNL A   1      49.139  29.533  26.992  1.00  0.00     0.029 A 
ATOM     59  C   UNL A   1      48.178  28.536  26.993  1.00  0.00     0.049 A 
ATOM     60  H   UNL A   1      46.125  28.669  27.469  1.00  0.00     0.167 HD
ATOM     61  C   UNL A   1      47.332  26.225  26.679  1.00  0.00     0.074 A 
ATOM     62  C   UNL A   1      47.503  24.826  26.345  1.00  0.00     0.031 C 
ATOM     63  C   UNL A   1      48.332  27.140  26.667  1.00  0.00     0.037 A 
BRANCH  50  64
ATOM     64  C   UNL A   1      46.553  32.853  28.234  1.00  0.00     0.058 A 
ATOM     65  C   UNL A   1      46.422  33.779  27.186  1.00  0.00     0.135 A 
ATOM     66  C   UNL A   1      47.011  33.331  29.473  1.00  0.00     0.135 A 
ATOM     67  F   UNL A   1      46.001  33.376  25.977  1.00  0.00    -0.206 F 
ATOM     68  C   UNL A   1      46.760  35.119  27.351  1.00  0.00     0.059 A 
ATOM     69  C   UNL A   1      47.329  34.672  29.669  1.00  0.00     0.059 A 
ATOM     70  F   UNL A   1      47.155  32.491  30.510  1.00  0.00    -0.206 F 
ATOM     71  C   UNL A   1      47.214  35.555  28.597  1.00  0.00     0.060 A 
BRANCH  71  72
ATOM     72  S   UNL A   1      47.641  37.300  28.796  1.00  0.00     0.124 S 
ATOM     73  O   UNL A   1      49.046  37.301  28.403  1.00  0.00    -0.237 OA
ATOM     74  O   UNL A   1      46.723  37.954  27.869  1.00  0.00    -0.237 OA
ATOM     75  O   UNL A   1      47.384  37.553  30.210  1.00  0.00    -0.744 OA
ENDBRANCH  71  72
ENDBRANCH  50  64
BRANCH  51  76
ATOM     76  C   UNL A   1      43.551  23.419  26.838  1.00  0.00     0.058 A 
ATOM     77  C   UNL A   1      43.401  22.935  25.530  1.00  0.00     0.135 A 
ATOM     78  C   UNL A   1      43.277  22.540  27.895  1.00  0.00     0.135 A 
ATOM     79  F   UNL A   1      43.647  23.739  24.484  1.00  0.00    -0.206 F 
ATOM     80  C   UNL A   1      42.977  21.634  25.278  1.00  0.00     0.059 A 
ATOM     81  C   UNL A   1      42.877  21.227  27.670  1.00  0.00     0.059 A 
ATOM     82  F   UNL A   1      43.426  22.948  29.166  1.00  0.00    -0.206 F 
ATOM     83  C   UNL A   1      42.719  20.786  26.357  1.00  0.00     0.060 A 
BRANCH  83  84
ATOM     84  S   UNL A   1      42.220  19.083  26.022  1.00  0.00     0.124 S 
ATOM     85  O   UNL A   1      40.792  19.239  25.769  1.00  0.00    -0.237 OA
ATOM     86  O   UNL A   1      43.042  18.745  24.863  1.00  0.00    -0.237 OA
ATOM     87  O   UNL A   1      42.572  18.383  27.253  1.00  0.00    -0.744 OA
ENDBRANCH  83  84
ENDBRANCH  51  76
BRANCH  63  88
ATOM     88  C   UNL A   1      49.710  26.647  26.316  1.00  0.00     0.058 A 
ATOM     89  C   UNL A   1      50.218  26.736  25.010  1.00  0.00     0.135 A 
ATOM     90  C   UNL A   1      50.538  26.095  27.306  1.00  0.00     0.135 A 
ATOM     91  F   UNL A   1      49.465  27.252  24.025  1.00  0.00    -0.206 F 
ATOM     92  C   UNL A   1      51.484  26.258  24.691  1.00  0.00     0.059 A 
ATOM     93  C   UNL A   1      51.819  25.636  27.014  1.00  0.00     0.059 A 
ATOM     94  F   UNL A   1      50.106  25.998  28.574  1.00  0.00    -0.206 F 
ATOM     95  C   UNL A   1      52.276  25.705  25.699  1.00  0.00     0.060 A 
BRANCH  95  96
ATOM     96  S   UNL A   1      53.917  25.087  25.274  1.00  0.00     0.124 S 
ATOM     97  O   UNL A   1      54.641  25.293  26.524  1.00  0.00    -0.237 OA
ATOM     98  O   UNL A   1      53.648  23.697  24.919  1.00  0.00    -0.237 OA
ATOM     99  O   UNL A   1      54.324  25.943  24.164  1.00  0.00    -0.744 OA
ENDBRANCH  95  96
ENDBRANCH  63  88
ENDBRANCH  37  38
ENDBRANCH  29  32
ENDBRANCH  27  28
ENDBRANCH   1  27
TORSDOF 16
ENDMDL
MODEL 3
REMARK VINA RESULT:     -12.3      6.624     12.150
REMARK SMILES O=C(NCc1ccc(C(=O)NCCCNC(=O)c2ccc(-c3c4nc(c(-c5c(F)cc(S(=O)(=O)[O-])cc5F)c5ccc([nH]5)c(-c5c(F)cc(S(=O)(=O)[O-])cc5F)c5nc(c(-c6c(F)cc(S(=O)(=O)[O-])cc6F)c6ccc3[nH]6)C=C5)C=C4)cc2)o1)Nc1ccc(F)c(Cl)c1
REMARK SMILES IDX 13 1 12 2 11 3 9 4 10 5 8 7 5 8 6 9 84 10 7 11 4 12 3 13
REMARK SMILES IDX 1 14 2 15 85 16 86 19 87 20 93 21 88 22 91 23 89 24 92 25
REMARK SMILES IDX 90 26 14 27 15 28 16 29 17 31 18 32 19 33 83 34 20 35 82 36
REMARK SMILES IDX 21 37 22 38 23 39 76 40 24 41 81 42 75 43 77 44 25 45 80 46
REMARK SMILES IDX 74 47 73 48 26 50 60 51 39 52 59 53 40 54 43 55 58 56 78 57
REMARK SMILES IDX 41 58 42 59 57 61 79 62 44 63 27 64 28 65 37 66 29 67 30 68
REMARK SMILES IDX 36 69 38 70 31 71 32 72 33 73 34 74 35 75 61 76 62 77 71 78
REMARK SMILES IDX 63 79 64 80 70 81 72 82 65 83 66 84 67 85 68 86 69 87 45 88
REMARK SMILES IDX 46 89 55 90 47 91 48 92 54 93 56 94 49 95 50 96 51 97 52 98
REMARK SMILES IDX 53 99
REMARK H PARENT 11 6 3 17 85 18 15 30 77 49 43 60
REMARK Flexibility Score: inf
ROOT
ATOM      1  C   UNL A   1      39.508  22.050  26.289  1.00  0.00     0.042 C 
ENDROOT
BRANCH   1   2
ATOM      2  C   UNL A   1      38.066  22.466  26.015  1.00  0.00     0.118 C 
BRANCH   2   3
ATOM      3  N   UNL A   1      37.805  22.645  24.601  1.00  0.00    -0.349 N 
ATOM      4  C   UNL A   1      36.641  22.526  23.876  1.00  0.00     0.286 C 
ATOM      5  O   UNL A   1      36.696  22.926  22.711  1.00  0.00    -0.266 OA
ATOM      6  H   UNL A   1      38.595  22.894  24.068  1.00  0.00     0.163 HD
BRANCH   4   7
ATOM      7  C   UNL A   1      35.431  21.980  24.464  1.00  0.00     0.191 A 
ATOM      8  C   UNL A   1      33.315  22.156  25.114  1.00  0.00     0.124 A 
ATOM      9  C   UNL A   1      33.687  20.853  25.359  1.00  0.00     0.048 A 
ATOM     10  O   UNL A   1      34.370  22.845  24.595  1.00  0.00    -0.454 OA
ATOM     11  C   UNL A   1      35.031  20.736  24.922  1.00  0.00     0.056 A 
BRANCH   8  12
ATOM     12  C   UNL A   1      32.050  22.910  25.310  1.00  0.00     0.193 C 
BRANCH  12  13
ATOM     13  N   UNL A   1      32.024  24.045  24.412  1.00  0.00    -0.331 N 
ATOM     14  O   UNL A   1      32.040  26.121  23.652  1.00  0.00    -0.248 OA
ATOM     15  C   UNL A   1      32.246  25.369  24.601  1.00  0.00     0.319 C 
ATOM     16  N   UNL A   1      32.704  25.751  25.830  1.00  0.00    -0.308 N 
ATOM     17  H   UNL A   1      31.801  23.809  23.482  1.00  0.00     0.165 HD
ATOM     18  H   UNL A   1      32.964  25.029  26.448  1.00  0.00     0.171 HD
BRANCH  16  19
ATOM     19  C   UNL A   1      32.841  27.073  26.309  1.00  0.00     0.044 A 
ATOM     20  C   UNL A   1      31.663  27.791  26.563  1.00  0.00     0.029 A 
ATOM     21  C   UNL A   1      34.076  27.697  26.516  1.00  0.00     0.049 A 
ATOM     22  C   UNL A   1      31.719  29.102  27.043  1.00  0.00     0.043 A 
ATOM     23  C   UNL A   1      34.131  29.012  26.989  1.00  0.00     0.078 A 
ATOM     24  C   UNL A   1      32.953  29.704  27.255  1.00  0.00     0.141 A 
ATOM     25  Cl  UNL A   1      35.661  29.765  27.235  1.00  0.00    -0.081 Cl
ATOM     26  F   UNL A   1      32.985  30.963  27.719  1.00  0.00    -0.205 F 
ENDBRANCH  16  19
ENDBRANCH  12  13
ENDBRANCH   8  12
ENDBRANCH   4   7
ENDBRANCH   2   3
ENDBRANCH   1   2
BRANCH   1  27
ATOM     27  C   UNL A   1      40.337  23.127  26.990  1.00  0.00     0.118 C 
BRANCH  27  28
ATOM     28  N   UNL A   1      41.204  23.842  26.063  1.00  0.00    -0.352 N 
ATOM     29  C   UNL A   1      41.608  25.152  26.040  1.00  0.00     0.251 C 
ATOM     30  H   UNL A   1      41.558  23.292  25.328  1.00  0.00     0.163 HD
ATOM     31  O   UNL A   1      42.159  25.580  25.027  1.00  0.00    -0.269 OA
BRANCH  29  32
ATOM     32  C   UNL A   1      41.394  26.053  27.197  1.00  0.00     0.039 A 
ATOM     33  C   UNL A   1      42.288  27.110  27.394  1.00  0.00     0.014 A 
ATOM     34  C   UNL A   1      40.375  25.825  28.127  1.00  0.00     0.014 A 
ATOM     35  C   UNL A   1      42.136  27.959  28.494  1.00  0.00     0.010 A 
ATOM     36  C   UNL A   1      40.183  26.714  29.185  1.00  0.00     0.010 A 
ATOM     37  C   UNL A   1      41.067  27.784  29.387  1.00  0.00    -0.014 A 
BRANCH  37  38
ATOM     38  C   UNL A   1      40.870  28.710  30.532  1.00  0.00     0.031 A 
ATOM     39  C   UNL A   1      41.707  28.575  31.778  1.00  0.00     0.074 A 
ATOM     40  C   UNL A   1      39.900  29.644  30.469  1.00  0.00     0.049 A 
ATOM     41  N   UNL A   1      41.652  29.267  32.888  1.00  0.00    -0.248 NA
ATOM     42  C   UNL A   1      42.719  27.508  31.788  1.00  0.00     0.031 C 
ATOM     43  C   UNL A   1      38.985  29.836  29.342  1.00  0.00     0.029 A 
ATOM     44  N   UNL A   1      39.514  30.601  31.374  1.00  0.00    -0.354 N 
ATOM     45  C   UNL A   1      42.607  28.710  33.732  1.00  0.00     0.074 A 
ATOM     46  C   UNL A   1      43.193  27.592  33.024  1.00  0.00     0.031 C 
ATOM     47  C   UNL A   1      38.160  30.860  29.613  1.00  0.00     0.029 A 
ATOM     48  C   UNL A   1      38.463  31.377  30.944  1.00  0.00     0.049 A 
ATOM     49  H   UNL A   1      39.949  30.721  32.249  1.00  0.00     0.167 HD
ATOM     50  C   UNL A   1      42.975  29.105  34.975  1.00  0.00     0.037 A 
ATOM     51  C   UNL A   1      37.817  32.390  31.551  1.00  0.00     0.037 A 
ATOM     52  C   UNL A   1      42.409  30.237  35.663  1.00  0.00     0.049 A 
ATOM     53  C   UNL A   1      38.269  32.834  32.916  1.00  0.00     0.074 A 
ATOM     54  C   UNL A   1      42.758  30.759  36.897  1.00  0.00     0.029 A 
ATOM     55  N   UNL A   1      41.375  31.024  35.176  1.00  0.00    -0.354 N 
ATOM     56  N   UNL A   1      39.220  32.336  33.671  1.00  0.00    -0.248 NA
ATOM     57  C   UNL A   1      37.572  33.985  33.504  1.00  0.00     0.031 C 
ATOM     58  C   UNL A   1      41.910  31.836  37.173  1.00  0.00     0.029 A 
ATOM     59  C   UNL A   1      41.065  32.019  36.091  1.00  0.00     0.049 A 
ATOM     60  H   UNL A   1      40.928  30.896  34.308  1.00  0.00     0.167 HD
ATOM     61  C   UNL A   1      39.253  33.131  34.811  1.00  0.00     0.074 A 
ATOM     62  C   UNL A   1      38.239  34.150  34.638  1.00  0.00     0.031 C 
ATOM     63  C   UNL A   1      40.053  33.028  35.902  1.00  0.00     0.037 A 
BRANCH  50  64
ATOM     64  C   UNL A   1      44.047  28.310  35.673  1.00  0.00     0.058 A 
ATOM     65  C   UNL A   1      43.734  27.249  36.537  1.00  0.00     0.135 A 
ATOM     66  C   UNL A   1      45.405  28.586  35.443  1.00  0.00     0.135 A 
ATOM     67  F   UNL A   1      42.453  26.948  36.803  1.00  0.00    -0.206 F 
ATOM     68  C   UNL A   1      44.728  26.509  37.172  1.00  0.00     0.059 A 
ATOM     69  C   UNL A   1      46.415  27.842  36.046  1.00  0.00     0.059 A 
ATOM     70  F   UNL A   1      45.762  29.590  34.626  1.00  0.00    -0.206 F 
ATOM     71  C   UNL A   1      46.066  26.814  36.920  1.00  0.00     0.060 A 
BRANCH  71  72
ATOM     72  S   UNL A   1      47.343  25.839  37.745  1.00  0.00     0.124 S 
ATOM     73  O   UNL A   1      47.985  25.181  36.611  1.00  0.00    -0.237 OA
ATOM     74  O   UNL A   1      48.137  26.865  38.414  1.00  0.00    -0.237 OA
ATOM     75  O   UNL A   1      46.583  24.963  38.631  1.00  0.00    -0.744 OA
ENDBRANCH  71  72
ENDBRANCH  50  64
BRANCH  51  76
ATOM     76  C   UNL A   1      36.692  33.074  30.858  1.00  0.00     0.058 A 
ATOM     77  C   UNL A   1      35.364  32.857  31.252  1.00  0.00     0.135 A 
ATOM     78  C   UNL A   1      36.923  33.967  29.802  1.00  0.00     0.135 A 
ATOM     79  F   UNL A   1      35.091  32.009  32.255  1.00  0.00    -0.206 F 
ATOM     80  C   UNL A   1      34.302  33.488  30.612  1.00  0.00     0.059 A 
ATOM     81  C   UNL A   1      35.880  34.630  29.163  1.00  0.00     0.059 A 
ATOM     82  F   UNL A   1      38.178  34.224  29.400  1.00  0.00    -0.206 F 
ATOM     83  C   UNL A   1      34.570  34.375  29.569  1.00  0.00     0.060 A 
BRANCH  83  84
ATOM     84  S   UNL A   1      33.190  35.229  28.778  1.00  0.00     0.124 S 
ATOM     85  O   UNL A   1      32.424  35.683  29.933  1.00  0.00    -0.237 OA
ATOM     86  O   UNL A   1      33.870  36.269  28.011  1.00  0.00    -0.237 OA
ATOM     87  O   UNL A   1      32.563  34.182  27.976  1.00  0.00    -0.744 OA
ENDBRANCH  83  84
ENDBRANCH  51  76
BRANCH  63  88
ATOM     88  C   UNL A   1      39.888  34.070  36.975  1.00  0.00     0.058 A 
ATOM     89  C   UNL A   1      39.074  33.853  38.098  1.00  0.00     0.135 A 
ATOM     90  C   UNL A   1      40.569  35.294  36.885  1.00  0.00     0.135 A 
ATOM     91  F   UNL A   1      38.397  32.701  38.230  1.00  0.00    -0.206 F 
ATOM     92  C   UNL A   1      38.910  34.830  39.074  1.00  0.00     0.059 A 
ATOM     93  C   UNL A   1      40.442  36.274  37.865  1.00  0.00     0.059 A 
ATOM     94  F   UNL A   1      41.371  35.547  35.838  1.00  0.00    -0.206 F 
ATOM     95  C   UNL A   1      39.595  36.040  38.946  1.00  0.00     0.060 A 
BRANCH  95  96
ATOM     96  S   UNL A   1      39.375  37.301  40.219  1.00  0.00     0.124 S 
ATOM     97  O   UNL A   1      38.674  36.551  41.256  1.00  0.00    -0.237 OA
ATOM     98  O   UNL A   1      40.750  37.678  40.528  1.00  0.00    -0.237 OA
ATOM     99  O   UNL A   1      38.588  38.328  39.544  1.00  0.00    -0.744 OA
ENDBRANCH  95  96
ENDBRANCH  63  88
ENDBRANCH  37  38
ENDBRANCH  29  32
ENDBRANCH  27  28
ENDBRANCH   1  27
TORSDOF 16
ENDMDL
