MODEL 1
REMARK VINA RESULT:     -12.2      0.000      0.000
REMARK SMILES CCc1cc(OC(F)(F)F)cc2c1O[C@@H](C(F)(F)F)C(C(=O)NCCCNC(=O)c1ccc(-c3c4nc(c(-c5c(F)cc(S(=O)(=O)[O-])cc5F)c5ccc([nH]5)c(-c5c(F)cc(S(=O)(=O)[O-])cc5F)c5nc(c(-c6c(F)cc(S(=O)(=O)[O-])cc6F)c6ccc3[nH]6)C=C5)C=C4)cc1)=C2
REMARK SMILES IDX 25 1 24 2 23 3 21 4 22 5 20 7 3 8 4 9 13 10 5 11 12 12 14 13
REMARK SMILES IDX 11 14 96 15 15 16 2 17 1 18 6 19 7 20 8 21 9 22 10 23 16 24
REMARK SMILES IDX 17 25 18 26 19 27 26 28 27 29 28 30 29 32 30 33 31 34 95 35
REMARK SMILES IDX 32 36 94 37 33 38 34 39 35 40 88 41 36 42 93 43 87 44 89 45
REMARK SMILES IDX 37 46 92 47 86 48 85 49 38 51 72 52 51 53 71 54 52 55 55 56
REMARK SMILES IDX 70 57 90 58 53 59 54 60 69 62 91 63 56 64 39 65 40 66 49 67
REMARK SMILES IDX 41 68 42 69 48 70 50 71 43 72 44 73 45 74 46 75 47 76 73 77
REMARK SMILES IDX 74 78 83 79 75 80 76 81 82 82 84 83 77 84 78 85 79 86 80 87
REMARK SMILES IDX 81 88 57 89 58 90 67 91 59 92 60 93 66 94 68 95 61 96 62 97
REMARK SMILES IDX 63 98 64 99 65 100
REMARK H PARENT 23 6 27 31 89 50 55 61
REMARK Flexibility Score: inf
ROOT
ATOM      1  C   UNL A   1      33.980  30.580  27.268  1.00  0.00     0.042 C 
ENDROOT
BRANCH   1   2
ATOM      2  C   UNL A   1      33.233  29.379  26.679  1.00  0.00     0.118 C 
BRANCH   2   3
ATOM      3  N   UNL A   1      33.142  29.485  25.231  1.00  0.00    -0.352 N 
ATOM      4  C   UNL A   1      33.196  28.571  24.228  1.00  0.00     0.251 C 
ATOM      5  O   UNL A   1      33.199  28.984  23.071  1.00  0.00    -0.270 OA
ATOM      6  H   UNL A   1      33.015  30.408  24.914  1.00  0.00     0.163 HD
BRANCH   4   7
ATOM      7  C   UNL A   1      33.174  27.103  24.466  1.00  0.00     0.067 C 
ATOM      8  C   UNL A   1      32.794  22.990  25.308  1.00  0.00    -0.002 A 
ATOM      9  C   UNL A   1      33.962  22.254  25.587  1.00  0.00     0.054 A 
ATOM     10  C   UNL A   1      32.920  24.357  24.994  1.00  0.00     0.131 A 
ATOM     11  C   UNL A   1      35.219  22.864  25.576  1.00  0.00     0.130 A 
ATOM     12  C   UNL A   1      34.171  24.968  24.969  1.00  0.00     0.021 A 
ATOM     13  O   UNL A   1      31.766  25.055  24.779  1.00  0.00    -0.475 OA
ATOM     14  C   UNL A   1      35.314  24.218  25.259  1.00  0.00     0.058 A 
ATOM     15  C   UNL A   1      34.281  26.394  24.717  1.00  0.00     0.025 C 
ATOM     16  C   UNL A   1      31.836  26.407  24.241  1.00  0.00     0.314 C 
BRANCH   8  17
ATOM     17  C   UNL A   1      31.416  22.355  25.297  1.00  0.00     0.036 C 
ATOM     18  C   UNL A   1      30.463  22.743  26.421  1.00  0.00     0.009 C 
ENDBRANCH   8  17
BRANCH  11  19
ATOM     19  O   UNL A   1      36.416  22.272  25.859  1.00  0.00    -0.406 OA
BRANCH  19  20
ATOM     20  C   UNL A   1      37.008  21.454  24.865  1.00  0.00     0.573 C 
ATOM     21  F   UNL A   1      36.483  20.209  24.883  1.00  0.00    -0.132 F 
ATOM     22  F   UNL A   1      36.850  21.989  23.637  1.00  0.00    -0.132 F 
ATOM     23  F   UNL A   1      38.332  21.351  25.116  1.00  0.00    -0.132 F 
ENDBRANCH  19  20
ENDBRANCH  11  19
BRANCH  16  24
ATOM     24  C   UNL A   1      30.582  27.156  24.750  1.00  0.00     0.429 C 
ATOM     25  F   UNL A   1      30.299  28.265  24.033  1.00  0.00    -0.167 F 
ATOM     26  F   UNL A   1      29.473  26.371  24.650  1.00  0.00    -0.167 F 
ATOM     27  F   UNL A   1      30.686  27.511  26.052  1.00  0.00    -0.167 F 
ENDBRANCH  16  24
ENDBRANCH   4   7
ENDBRANCH   2   3
ENDBRANCH   1   2
BRANCH   1  28
ATOM     28  C   UNL A   1      35.288  30.203  27.961  1.00  0.00     0.118 C 
BRANCH  28  29
ATOM     29  N   UNL A   1      35.323  30.670  29.338  1.00  0.00    -0.352 N 
ATOM     30  C   UNL A   1      36.328  30.588  30.270  1.00  0.00     0.251 C 
ATOM     31  H   UNL A   1      34.502  31.114  29.649  1.00  0.00     0.163 HD
ATOM     32  O   UNL A   1      36.073  30.831  31.445  1.00  0.00    -0.269 OA
BRANCH  30  33
ATOM     33  C   UNL A   1      37.703  30.204  29.875  1.00  0.00     0.039 A 
ATOM     34  C   UNL A   1      38.613  29.846  30.876  1.00  0.00     0.014 A 
ATOM     35  C   UNL A   1      38.119  30.252  28.542  1.00  0.00     0.014 A 
ATOM     36  C   UNL A   1      39.922  29.494  30.535  1.00  0.00     0.010 A 
ATOM     37  C   UNL A   1      39.407  29.841  28.197  1.00  0.00     0.010 A 
ATOM     38  C   UNL A   1      40.324  29.465  29.190  1.00  0.00    -0.014 A 
BRANCH  38  39
ATOM     39  C   UNL A   1      41.697  29.047  28.806  1.00  0.00     0.031 A 
ATOM     40  C   UNL A   1      42.811  30.058  28.753  1.00  0.00     0.074 A 
ATOM     41  C   UNL A   1      41.926  27.770  28.443  1.00  0.00     0.049 A 
ATOM     42  N   UNL A   1      44.050  29.903  28.363  1.00  0.00    -0.248 NA
ATOM     43  C   UNL A   1      42.482  31.430  29.172  1.00  0.00     0.031 C 
ATOM     44  C   UNL A   1      40.918  26.707  28.412  1.00  0.00     0.029 A 
ATOM     45  N   UNL A   1      43.074  27.149  28.019  1.00  0.00    -0.354 N 
ATOM     46  C   UNL A   1      44.644  31.155  28.474  1.00  0.00     0.074 A 
ATOM     47  C   UNL A   1      43.616  32.069  28.926  1.00  0.00     0.031 C 
ATOM     48  C   UNL A   1      41.495  25.565  28.002  1.00  0.00     0.029 A 
ATOM     49  C   UNL A   1      42.903  25.821  27.709  1.00  0.00     0.049 A 
ATOM     50  H   UNL A   1      43.940  27.612  27.944  1.00  0.00     0.167 HD
ATOM     51  C   UNL A   1      45.931  31.505  28.241  1.00  0.00     0.037 A 
ATOM     52  C   UNL A   1      43.776  24.913  27.232  1.00  0.00     0.037 A 
ATOM     53  C   UNL A   1      46.955  30.586  27.817  1.00  0.00     0.049 A 
ATOM     54  C   UNL A   1      45.203  25.323  26.991  1.00  0.00     0.074 A 
ATOM     55  C   UNL A   1      48.299  30.833  27.603  1.00  0.00     0.029 A 
ATOM     56  N   UNL A   1      46.748  29.241  27.545  1.00  0.00    -0.354 N 
ATOM     57  N   UNL A   1      45.758  26.501  27.149  1.00  0.00    -0.248 NA
ATOM     58  C   UNL A   1      46.123  24.283  26.513  1.00  0.00     0.031 C 
ATOM     59  C   UNL A   1      48.899  29.645  27.168  1.00  0.00     0.029 A 
ATOM     60  C   UNL A   1      47.937  28.648  27.152  1.00  0.00     0.049 A 
ATOM     61  H   UNL A   1      45.883  28.776  27.620  1.00  0.00     0.167 HD
ATOM     62  C   UNL A   1      47.097  26.337  26.813  1.00  0.00     0.074 A 
ATOM     63  C   UNL A   1      47.271  24.945  26.455  1.00  0.00     0.031 C 
ATOM     64  C   UNL A   1      48.093  27.258  26.803  1.00  0.00     0.037 A 
BRANCH  51  65
ATOM     65  C   UNL A   1      46.309  32.948  28.447  1.00  0.00     0.058 A 
ATOM     66  C   UNL A   1      46.222  33.886  27.405  1.00  0.00     0.135 A 
ATOM     67  C   UNL A   1      46.729  33.406  29.706  1.00  0.00     0.135 A 
ATOM     68  F   UNL A   1      45.839  33.499  26.178  1.00  0.00    -0.206 F 
ATOM     69  C   UNL A   1      46.566  35.220  27.596  1.00  0.00     0.059 A 
ATOM     70  C   UNL A   1      47.053  34.743  29.926  1.00  0.00     0.059 A 
ATOM     71  F   UNL A   1      46.829  32.553  30.738  1.00  0.00    -0.206 F 
ATOM     72  C   UNL A   1      46.983  35.639  28.861  1.00  0.00     0.060 A 
BRANCH  72  73
ATOM     73  S   UNL A   1      47.426  37.373  29.092  1.00  0.00     0.124 S 
ATOM     74  O   UNL A   1      46.966  37.960  27.837  1.00  0.00    -0.237 OA
ATOM     75  O   UNL A   1      46.659  37.737  30.279  1.00  0.00    -0.237 OA
ATOM     76  O   UNL A   1      48.873  37.333  29.273  1.00  0.00    -0.744 OA
ENDBRANCH  72  73
ENDBRANCH  51  65
BRANCH  52  77
ATOM     77  C   UNL A   1      43.326  23.520  26.973  1.00  0.00     0.058 A 
ATOM     78  C   UNL A   1      43.068  23.076  25.668  1.00  0.00     0.135 A 
ATOM     79  C   UNL A   1      43.167  22.600  28.020  1.00  0.00     0.135 A 
ATOM     80  F   UNL A   1      43.201  23.921  24.635  1.00  0.00    -0.206 F 
ATOM     81  C   UNL A   1      42.658  21.772  25.409  1.00  0.00     0.059 A 
ATOM     82  C   UNL A   1      42.780  21.284  27.785  1.00  0.00     0.059 A 
ATOM     83  F   UNL A   1      43.419  22.971  29.286  1.00  0.00    -0.206 F 
ATOM     84  C   UNL A   1      42.520  20.882  26.476  1.00  0.00     0.060 A 
BRANCH  84  85
ATOM     85  S   UNL A   1      42.045  19.175  26.125  1.00  0.00     0.124 S 
ATOM     86  O   UNL A   1      42.459  18.499  27.348  1.00  0.00    -0.237 OA
ATOM     87  O   UNL A   1      40.606  19.293  25.915  1.00  0.00    -0.237 OA
ATOM     88  O   UNL A   1      42.820  18.852  24.930  1.00  0.00    -0.744 OA
ENDBRANCH  84  85
ENDBRANCH  52  77
BRANCH  64  89
ATOM     89  C   UNL A   1      49.467  26.784  26.420  1.00  0.00     0.058 A 
ATOM     90  C   UNL A   1      50.301  26.127  27.337  1.00  0.00     0.135 A 
ATOM     91  C   UNL A   1      49.933  26.946  25.105  1.00  0.00     0.135 A 
ATOM     92  F   UNL A   1      49.906  25.954  28.608  1.00  0.00    -0.206 F 
ATOM     93  C   UNL A   1      51.559  25.662  26.968  1.00  0.00     0.059 A 
ATOM     94  C   UNL A   1      51.177  26.467  24.708  1.00  0.00     0.059 A 
ATOM     95  F   UNL A   1      49.168  27.560  24.188  1.00  0.00    -0.206 F 
ATOM     96  C   UNL A   1      51.988  25.836  25.650  1.00  0.00     0.060 A 
BRANCH  96  97
ATOM     97  S   UNL A   1      53.608  25.198  25.175  1.00  0.00     0.124 S 
ATOM     98  O   UNL A   1      53.421  23.761  25.346  1.00  0.00    -0.237 OA
ATOM     99  O   UNL A   1      53.736  25.660  23.796  1.00  0.00    -0.237 OA
ATOM    100  O   UNL A   1      54.516  25.831  26.127  1.00  0.00    -0.744 OA
ENDBRANCH  96  97
ENDBRANCH  64  89
ENDBRANCH  38  39
ENDBRANCH  30  33
ENDBRANCH  28  29
ENDBRANCH   1  28
TORSDOF 17
ENDMDL
MODEL 2
REMARK VINA RESULT:     -12.1      6.354     11.838
REMARK SMILES CCc1cc(OC(F)(F)F)cc2c1O[C@@H](C(F)(F)F)C(C(=O)NCCCNC(=O)c1ccc(-c3c4nc(c(-c5c(F)cc(S(=O)(=O)[O-])cc5F)c5ccc([nH]5)c(-c5c(F)cc(S(=O)(=O)[O-])cc5F)c5nc(c(-c6c(F)cc(S(=O)(=O)[O-])cc6F)c6ccc3[nH]6)C=C5)C=C4)cc1)=C2
REMARK SMILES IDX 25 1 24 2 23 3 21 4 22 5 20 7 3 8 4 9 13 10 5 11 12 12 14 13
REMARK SMILES IDX 11 14 96 15 15 16 2 17 1 18 6 19 7 20 8 21 9 22 10 23 16 24
REMARK SMILES IDX 17 25 18 26 19 27 26 28 27 29 28 30 29 32 30 33 31 34 95 35
REMARK SMILES IDX 32 36 94 37 33 38 34 39 35 40 88 41 36 42 93 43 87 44 89 45
REMARK SMILES IDX 37 46 92 47 86 48 85 49 38 51 72 52 51 53 71 54 52 55 55 56
REMARK SMILES IDX 70 57 90 58 53 59 54 60 69 62 91 63 56 64 39 65 40 66 49 67
REMARK SMILES IDX 41 68 42 69 48 70 50 71 43 72 44 73 45 74 46 75 47 76 73 77
REMARK SMILES IDX 74 78 83 79 75 80 76 81 82 82 84 83 77 84 78 85 79 86 80 87
REMARK SMILES IDX 81 88 57 89 58 90 67 91 59 92 60 93 66 94 68 95 61 96 62 97
REMARK SMILES IDX 63 98 64 99 65 100
REMARK H PARENT 23 6 27 31 89 50 55 61
REMARK Flexibility Score: inf
ROOT
ATOM      1  C   UNL A   1      38.527  23.632  26.487  1.00  0.00     0.042 C 
ENDROOT
BRANCH   1   2
ATOM      2  C   UNL A   1      37.843  22.400  25.885  1.00  0.00     0.118 C 
BRANCH   2   3
ATOM      3  N   UNL A   1      37.535  22.615  24.479  1.00  0.00    -0.352 N 
ATOM      4  C   UNL A   1      36.409  22.997  23.823  1.00  0.00     0.251 C 
ATOM      5  O   UNL A   1      36.425  22.983  22.595  1.00  0.00    -0.270 OA
ATOM      6  H   UNL A   1      38.300  22.448  23.882  1.00  0.00     0.163 HD
BRANCH   4   7
ATOM      7  C   UNL A   1      35.197  23.502  24.519  1.00  0.00     0.067 C 
ATOM      8  C   UNL A   1      31.585  24.643  26.371  1.00  0.00    -0.002 A 
ATOM      9  C   UNL A   1      31.278  26.015  26.449  1.00  0.00     0.054 A 
ATOM     10  C   UNL A   1      32.806  24.259  25.782  1.00  0.00     0.131 A 
ATOM     11  C   UNL A   1      32.149  26.979  25.937  1.00  0.00     0.130 A 
ATOM     12  C   UNL A   1      33.685  25.217  25.281  1.00  0.00     0.021 A 
ATOM     13  O   UNL A   1      33.052  22.920  25.675  1.00  0.00    -0.475 OA
ATOM     14  C   UNL A   1      33.353  26.572  25.362  1.00  0.00     0.058 A 
ATOM     15  C   UNL A   1      34.906  24.805  24.611  1.00  0.00     0.025 C 
ATOM     16  C   UNL A   1      34.378  22.464  25.280  1.00  0.00     0.314 C 
BRANCH   8  17
ATOM     17  C   UNL A   1      30.668  23.570  26.930  1.00  0.00     0.036 C 
ATOM     18  C   UNL A   1      30.369  22.375  26.034  1.00  0.00     0.009 C 
ENDBRANCH   8  17
BRANCH  11  19
ATOM     19  O   UNL A   1      31.954  28.331  25.922  1.00  0.00    -0.406 OA
BRANCH  19  20
ATOM     20  C   UNL A   1      31.998  29.026  27.155  1.00  0.00     0.573 C 
ATOM     21  F   UNL A   1      31.118  28.505  28.039  1.00  0.00    -0.132 F 
ATOM     22  F   UNL A   1      33.238  28.995  27.687  1.00  0.00    -0.132 F 
ATOM     23  F   UNL A   1      31.659  30.316  26.942  1.00  0.00    -0.132 F 
ENDBRANCH  19  20
ENDBRANCH  11  19
BRANCH  16  24
ATOM     24  C   UNL A   1      34.190  21.097  24.581  1.00  0.00     0.429 C 
ATOM     25  F   UNL A   1      35.321  20.359  24.549  1.00  0.00    -0.167 F 
ATOM     26  F   UNL A   1      33.281  20.332  25.247  1.00  0.00    -0.167 F 
ATOM     27  F   UNL A   1      33.733  21.223  23.314  1.00  0.00    -0.167 F 
ENDBRANCH  16  24
ENDBRANCH   4   7
ENDBRANCH   2   3
ENDBRANCH   1   2
BRANCH   1  28
ATOM     28  C   UNL A   1      39.916  23.340  27.052  1.00  0.00     0.118 C 
BRANCH  28  29
ATOM     29  N   UNL A   1      40.968  23.862  26.194  1.00  0.00    -0.352 N 
ATOM     30  C   UNL A   1      41.584  25.089  26.204  1.00  0.00     0.251 C 
ATOM     31  H   UNL A   1      41.289  23.241  25.502  1.00  0.00     0.163 HD
ATOM     32  O   UNL A   1      42.279  25.415  25.246  1.00  0.00    -0.269 OA
BRANCH  30  33
ATOM     33  C   UNL A   1      41.412  26.018  27.344  1.00  0.00     0.039 A 
ATOM     34  C   UNL A   1      42.241  27.143  27.424  1.00  0.00     0.014 A 
ATOM     35  C   UNL A   1      40.488  25.761  28.361  1.00  0.00     0.014 A 
ATOM     36  C   UNL A   1      42.111  28.029  28.497  1.00  0.00     0.010 A 
ATOM     37  C   UNL A   1      40.318  26.680  29.398  1.00  0.00     0.010 A 
ATOM     38  C   UNL A   1      41.133  27.819  29.481  1.00  0.00    -0.014 A 
BRANCH  38  39
ATOM     39  C   UNL A   1      40.949  28.776  30.602  1.00  0.00     0.031 A 
ATOM     40  C   UNL A   1      41.801  28.668  31.838  1.00  0.00     0.074 A 
ATOM     41  C   UNL A   1      39.973  29.702  30.533  1.00  0.00     0.049 A 
ATOM     42  N   UNL A   1      41.735  29.355  32.950  1.00  0.00    -0.248 NA
ATOM     43  C   UNL A   1      42.851  27.636  31.833  1.00  0.00     0.031 C 
ATOM     44  C   UNL A   1      39.054  29.878  29.406  1.00  0.00     0.029 A 
ATOM     45  N   UNL A   1      39.581  30.661  31.432  1.00  0.00    -0.354 N 
ATOM     46  C   UNL A   1      42.719  28.831  33.780  1.00  0.00     0.074 A 
ATOM     47  C   UNL A   1      43.339  27.739  33.061  1.00  0.00     0.031 C 
ATOM     48  C   UNL A   1      38.213  30.889  29.677  1.00  0.00     0.029 A 
ATOM     49  C   UNL A   1      38.510  31.411  31.008  1.00  0.00     0.049 A 
ATOM     50  H   UNL A   1      40.024  30.799  32.300  1.00  0.00     0.167 HD
ATOM     51  C   UNL A   1      43.087  29.237  35.020  1.00  0.00     0.037 A 
ATOM     52  C   UNL A   1      37.834  32.400  31.624  1.00  0.00     0.037 A 
ATOM     53  C   UNL A   1      42.483  30.342  35.719  1.00  0.00     0.049 A 
ATOM     54  C   UNL A   1      38.266  32.841  32.995  1.00  0.00     0.074 A 
ATOM     55  C   UNL A   1      42.818  30.863  36.957  1.00  0.00     0.029 A 
ATOM     56  N   UNL A   1      41.422  31.097  35.242  1.00  0.00    -0.354 N 
ATOM     57  N   UNL A   1      39.233  32.366  33.745  1.00  0.00    -0.248 NA
ATOM     58  C   UNL A   1      37.523  33.953  33.603  1.00  0.00     0.031 C 
ATOM     59  C   UNL A   1      41.936  31.911  37.243  1.00  0.00     0.029 A 
ATOM     60  C   UNL A   1      41.080  32.072  36.166  1.00  0.00     0.049 A 
ATOM     61  H   UNL A   1      40.977  30.961  34.374  1.00  0.00     0.167 HD
ATOM     62  C   UNL A   1      39.228  33.137  34.902  1.00  0.00     0.074 A 
ATOM     63  C   UNL A   1      38.172  34.116  34.748  1.00  0.00     0.031 C 
ATOM     64  C   UNL A   1      40.028  33.043  35.994  1.00  0.00     0.037 A 
BRANCH  51  65
ATOM     65  C   UNL A   1      44.200  28.485  35.698  1.00  0.00     0.058 A 
ATOM     66  C   UNL A   1      43.941  27.397  36.547  1.00  0.00     0.135 A 
ATOM     67  C   UNL A   1      45.541  28.832  35.471  1.00  0.00     0.135 A 
ATOM     68  F   UNL A   1      42.675  27.030  36.809  1.00  0.00    -0.206 F 
ATOM     69  C   UNL A   1      44.969  26.698  37.171  1.00  0.00     0.059 A 
ATOM     70  C   UNL A   1      46.588  28.130  36.064  1.00  0.00     0.059 A 
ATOM     71  F   UNL A   1      45.847  29.863  34.668  1.00  0.00    -0.206 F 
ATOM     72  C   UNL A   1      46.291  27.074  36.924  1.00  0.00     0.060 A 
BRANCH  72  73
ATOM     73  S   UNL A   1      47.614  26.158  37.740  1.00  0.00     0.124 S 
ATOM     74  O   UNL A   1      47.426  24.820  37.186  1.00  0.00    -0.237 OA
ATOM     75  O   UNL A   1      48.809  26.865  37.292  1.00  0.00    -0.237 OA
ATOM     76  O   UNL A   1      47.301  26.299  39.158  1.00  0.00    -0.744 OA
ENDBRANCH  72  73
ENDBRANCH  51  65
BRANCH  52  77
ATOM     77  C   UNL A   1      36.691  33.055  30.935  1.00  0.00     0.058 A 
ATOM     78  C   UNL A   1      35.370  32.806  31.335  1.00  0.00     0.135 A 
ATOM     79  C   UNL A   1      36.897  33.958  29.881  1.00  0.00     0.135 A 
ATOM     80  F   UNL A   1      35.123  31.946  32.333  1.00  0.00    -0.206 F 
ATOM     81  C   UNL A   1      34.291  33.420  30.707  1.00  0.00     0.059 A 
ATOM     82  C   UNL A   1      35.835  34.603  29.253  1.00  0.00     0.059 A 
ATOM     83  F   UNL A   1      38.144  34.244  29.474  1.00  0.00    -0.206 F 
ATOM     84  C   UNL A   1      34.534  34.321  29.669  1.00  0.00     0.060 A 
BRANCH  84  85
ATOM     85  S   UNL A   1      33.131  35.159  28.900  1.00  0.00     0.124 S 
ATOM     86  O   UNL A   1      32.646  34.135  27.982  1.00  0.00    -0.237 OA
ATOM     87  O   UNL A   1      32.277  35.445  30.049  1.00  0.00    -0.237 OA
ATOM     88  O   UNL A   1      33.742  36.329  28.277  1.00  0.00    -0.744 OA
ENDBRANCH  84  85
ENDBRANCH  52  77
BRANCH  64  89
ATOM     89  C   UNL A   1      39.813  34.041  37.096  1.00  0.00     0.058 A 
ATOM     90  C   UNL A   1      38.972  33.766  38.185  1.00  0.00     0.135 A 
ATOM     91  C   UNL A   1      40.497  35.268  37.086  1.00  0.00     0.135 A 
ATOM     92  F   UNL A   1      38.291  32.611  38.238  1.00  0.00    -0.206 F 
ATOM     93  C   UNL A   1      38.802  34.681  39.218  1.00  0.00     0.059 A 
ATOM     94  C   UNL A   1      40.360  36.187  38.121  1.00  0.00     0.059 A 
ATOM     95  F   UNL A   1      41.320  35.575  36.071  1.00  0.00    -0.206 F 
ATOM     96  C   UNL A   1      39.502  35.889  39.179  1.00  0.00     0.060 A 
BRANCH  96  97
ATOM     97  S   UNL A   1      39.299  37.053  40.543  1.00  0.00     0.124 S 
ATOM     98  O   UNL A   1      40.652  37.582  40.682  1.00  0.00    -0.237 OA
ATOM     99  O   UNL A   1      38.305  37.985  40.016  1.00  0.00    -0.237 OA
ATOM    100  O   UNL A   1      38.837  36.211  41.643  1.00  0.00    -0.744 OA
ENDBRANCH  96  97
ENDBRANCH  64  89
ENDBRANCH  38  39
ENDBRANCH  30  33
ENDBRANCH  28  29
ENDBRANCH   1  28
TORSDOF 17
ENDMDL
MODEL 3
REMARK VINA RESULT:     -11.9      1.091      2.336
REMARK SMILES CCc1cc(OC(F)(F)F)cc2c1O[C@@H](C(F)(F)F)C(C(=O)NCCCNC(=O)c1ccc(-c3c4nc(c(-c5c(F)cc(S(=O)(=O)[O-])cc5F)c5ccc([nH]5)c(-c5c(F)cc(S(=O)(=O)[O-])cc5F)c5nc(c(-c6c(F)cc(S(=O)(=O)[O-])cc6F)c6ccc3[nH]6)C=C5)C=C4)cc1)=C2
REMARK SMILES IDX 25 1 24 2 23 3 21 4 22 5 20 7 3 8 4 9 13 10 5 11 12 12 14 13
REMARK SMILES IDX 11 14 96 15 15 16 2 17 1 18 6 19 7 20 8 21 9 22 10 23 16 24
REMARK SMILES IDX 17 25 18 26 19 27 26 28 27 29 28 30 29 32 30 33 31 34 95 35
REMARK SMILES IDX 32 36 94 37 33 38 34 39 35 40 88 41 36 42 93 43 87 44 89 45
REMARK SMILES IDX 37 46 92 47 86 48 85 49 38 51 72 52 51 53 71 54 52 55 55 56
REMARK SMILES IDX 70 57 90 58 53 59 54 60 69 62 91 63 56 64 39 65 40 66 49 67
REMARK SMILES IDX 41 68 42 69 48 70 50 71 43 72 44 73 45 74 46 75 47 76 73 77
REMARK SMILES IDX 74 78 83 79 75 80 76 81 82 82 84 83 77 84 78 85 79 86 80 87
REMARK SMILES IDX 81 88 57 89 58 90 67 91 59 92 60 93 66 94 68 95 61 96 62 97
REMARK SMILES IDX 63 98 64 99 65 100
REMARK H PARENT 23 6 27 31 89 50 55 61
REMARK Flexibility Score: inf
ROOT
ATOM      1  C   UNL A   1      35.083  29.989  27.830  1.00  0.00     0.042 C 
ENDROOT
BRANCH   1   2
ATOM      2  C   UNL A   1      33.746  30.375  27.188  1.00  0.00     0.118 C 
BRANCH   2   3
ATOM      3  N   UNL A   1      32.665  29.556  27.713  1.00  0.00    -0.352 N 
ATOM      4  C   UNL A   1      32.042  28.438  27.258  1.00  0.00     0.251 C 
ATOM      5  O   UNL A   1      31.066  28.028  27.881  1.00  0.00    -0.270 OA
ATOM      6  H   UNL A   1      32.312  29.878  28.574  1.00  0.00     0.163 HD
BRANCH   4   7
ATOM      7  C   UNL A   1      32.533  27.652  26.095  1.00  0.00     0.067 C 
ATOM      8  C   UNL A   1      33.624  25.520  22.626  1.00  0.00    -0.002 A 
ATOM      9  C   UNL A   1      34.334  24.313  22.779  1.00  0.00     0.054 A 
ATOM     10  C   UNL A   1      33.286  26.252  23.781  1.00  0.00     0.131 A 
ATOM     11  C   UNL A   1      34.681  23.836  24.045  1.00  0.00     0.130 A 
ATOM     12  C   UNL A   1      33.640  25.787  25.045  1.00  0.00     0.021 A 
ATOM     13  O   UNL A   1      32.553  27.390  23.604  1.00  0.00    -0.475 OA
ATOM     14  C   UNL A   1      34.337  24.582  25.171  1.00  0.00     0.058 A 
ATOM     15  C   UNL A   1      33.222  26.514  26.232  1.00  0.00     0.025 C 
ATOM     16  C   UNL A   1      32.360  28.300  24.726  1.00  0.00     0.314 C 
BRANCH   8  17
ATOM     17  C   UNL A   1      33.245  26.075  21.265  1.00  0.00     0.036 C 
ATOM     18  C   UNL A   1      31.928  25.600  20.664  1.00  0.00     0.009 C 
ENDBRANCH   8  17
BRANCH  11  19
ATOM     19  O   UNL A   1      35.337  22.672  24.327  1.00  0.00    -0.406 OA
BRANCH  19  20
ATOM     20  C   UNL A   1      36.703  22.570  23.964  1.00  0.00     0.573 C 
ATOM     21  F   UNL A   1      37.244  21.421  24.426  1.00  0.00    -0.132 F 
ATOM     22  F   UNL A   1      36.856  22.631  22.625  1.00  0.00    -0.132 F 
ATOM     23  F   UNL A   1      37.379  23.600  24.516  1.00  0.00    -0.132 F 
ENDBRANCH  19  20
ENDBRANCH  11  19
BRANCH  16  24
ATOM     24  C   UNL A   1      31.019  29.033  24.481  1.00  0.00     0.429 C 
ATOM     25  F   UNL A   1      29.943  28.303  24.845  1.00  0.00    -0.167 F 
ATOM     26  F   UNL A   1      30.946  30.174  25.222  1.00  0.00    -0.167 F 
ATOM     27  F   UNL A   1      30.861  29.402  23.188  1.00  0.00    -0.167 F 
ENDBRANCH  16  24
ENDBRANCH   4   7
ENDBRANCH   2   3
ENDBRANCH   1   2
BRANCH   1  28
ATOM     28  C   UNL A   1      35.767  31.147  28.555  1.00  0.00     0.118 C 
BRANCH  28  29
ATOM     29  N   UNL A   1      35.713  30.985  30.000  1.00  0.00    -0.352 N 
ATOM     30  C   UNL A   1      36.592  30.358  30.848  1.00  0.00     0.251 C 
ATOM     31  H   UNL A   1      34.928  31.387  30.436  1.00  0.00     0.163 HD
ATOM     32  O   UNL A   1      36.244  30.127  32.002  1.00  0.00    -0.269 OA
BRANCH  30  33
ATOM     33  C   UNL A   1      37.939  29.955  30.387  1.00  0.00     0.039 A 
ATOM     34  C   UNL A   1      38.238  30.049  29.023  1.00  0.00     0.014 A 
ATOM     35  C   UNL A   1      38.886  29.431  31.271  1.00  0.00     0.014 A 
ATOM     36  C   UNL A   1      39.497  29.662  28.556  1.00  0.00     0.010 A 
ATOM     37  C   UNL A   1      40.163  29.103  30.813  1.00  0.00     0.010 A 
ATOM     38  C   UNL A   1      40.479  29.207  29.450  1.00  0.00    -0.014 A 
BRANCH  38  39
ATOM     39  C   UNL A   1      41.838  28.836  28.978  1.00  0.00     0.031 A 
ATOM     40  C   UNL A   1      42.919  29.879  28.882  1.00  0.00     0.074 A 
ATOM     41  C   UNL A   1      42.080  27.573  28.577  1.00  0.00     0.049 A 
ATOM     42  N   UNL A   1      44.137  29.767  28.418  1.00  0.00    -0.248 NA
ATOM     43  C   UNL A   1      42.578  31.233  29.347  1.00  0.00     0.031 C 
ATOM     44  C   UNL A   1      41.102  26.483  28.582  1.00  0.00     0.029 A 
ATOM     45  N   UNL A   1      43.218  26.994  28.075  1.00  0.00    -0.354 N 
ATOM     46  C   UNL A   1      44.702  31.033  28.520  1.00  0.00     0.074 A 
ATOM     47  C   UNL A   1      43.678  31.909  29.048  1.00  0.00     0.031 C 
ATOM     48  C   UNL A   1      41.685  25.366  28.117  1.00  0.00     0.029 A 
ATOM     49  C   UNL A   1      43.066  25.668  27.748  1.00  0.00     0.049 A 
ATOM     50  H   UNL A   1      44.065  27.482  27.958  1.00  0.00     0.167 HD
ATOM     51  C   UNL A   1      45.964  31.425  28.220  1.00  0.00     0.037 A 
ATOM     52  C   UNL A   1      43.934  24.794  27.203  1.00  0.00     0.037 A 
ATOM     53  C   UNL A   1      46.985  30.543  27.719  1.00  0.00     0.049 A 
ATOM     54  C   UNL A   1      45.332  25.248  26.888  1.00  0.00     0.074 A 
ATOM     55  C   UNL A   1      48.308  30.832  27.432  1.00  0.00     0.029 A 
ATOM     56  N   UNL A   1      46.799  29.198  27.431  1.00  0.00    -0.354 N 
ATOM     57  N   UNL A   1      45.863  26.439  27.038  1.00  0.00    -0.248 NA
ATOM     58  C   UNL A   1      46.251  24.244  26.336  1.00  0.00     0.031 C 
ATOM     59  C   UNL A   1      48.913  29.670  26.938  1.00  0.00     0.029 A 
ATOM     60  C   UNL A   1      47.980  28.646  26.958  1.00  0.00     0.049 A 
ATOM     61  H   UNL A   1      45.954  28.707  27.546  1.00  0.00     0.167 HD
ATOM     62  C   UNL A   1      47.184  26.320  26.621  1.00  0.00     0.074 A 
ATOM     63  C   UNL A   1      47.375  24.940  26.225  1.00  0.00     0.031 C 
ATOM     64  C   UNL A   1      48.153  27.268  26.573  1.00  0.00     0.037 A 
BRANCH  51  65
ATOM     65  C   UNL A   1      46.313  32.873  28.432  1.00  0.00     0.058 A 
ATOM     66  C   UNL A   1      46.888  33.322  29.632  1.00  0.00     0.135 A 
ATOM     67  C   UNL A   1      46.103  33.817  27.414  1.00  0.00     0.135 A 
ATOM     68  F   UNL A   1      47.099  32.464  30.643  1.00  0.00    -0.206 F 
ATOM     69  C   UNL A   1      47.215  34.660  29.827  1.00  0.00     0.059 A 
ATOM     70  C   UNL A   1      46.447  35.157  27.579  1.00  0.00     0.059 A 
ATOM     71  F   UNL A   1      45.557  33.443  26.247  1.00  0.00    -0.206 F 
ATOM     72  C   UNL A   1      46.989  35.571  28.794  1.00  0.00     0.060 A 
BRANCH  72  73
ATOM     73  S   UNL A   1      47.419  37.303  29.063  1.00  0.00     0.124 S 
ATOM     74  O   UNL A   1      46.987  37.499  30.443  1.00  0.00    -0.237 OA
ATOM     75  O   UNL A   1      48.862  37.305  28.846  1.00  0.00    -0.237 OA
ATOM     76  O   UNL A   1      46.636  38.008  28.054  1.00  0.00    -0.744 OA
ENDBRANCH  72  73
ENDBRANCH  51  65
BRANCH  52  77
ATOM     77  C   UNL A   1      43.507  23.393  26.942  1.00  0.00     0.058 A 
ATOM     78  C   UNL A   1      43.346  22.480  27.994  1.00  0.00     0.135 A 
ATOM     79  C   UNL A   1      43.230  22.948  25.641  1.00  0.00     0.135 A 
ATOM     80  F   UNL A   1      43.605  22.858  29.254  1.00  0.00    -0.206 F 
ATOM     81  C   UNL A   1      42.936  21.171  27.766  1.00  0.00     0.059 A 
ATOM     82  C   UNL A   1      42.796  21.650  25.389  1.00  0.00     0.059 A 
ATOM     83  F   UNL A   1      43.351  23.790  24.601  1.00  0.00    -0.206 F 
ATOM     84  C   UNL A   1      42.659  20.766  26.458  1.00  0.00     0.060 A 
BRANCH  84  85
ATOM     85  S   UNL A   1      42.070  19.082  26.178  1.00  0.00     0.124 S 
ATOM     86  O   UNL A   1      42.952  18.638  25.105  1.00  0.00    -0.237 OA
ATOM     87  O   UNL A   1      42.284  18.460  27.481  1.00  0.00    -0.237 OA
ATOM     88  O   UNL A   1      40.671  19.276  25.808  1.00  0.00    -0.744 OA
ENDBRANCH  84  85
ENDBRANCH  52  77
BRANCH  64  89
ATOM     89  C   UNL A   1      49.514  26.841  26.101  1.00  0.00     0.058 A 
ATOM     90  C   UNL A   1      49.937  27.056  24.781  1.00  0.00     0.135 A 
ATOM     91  C   UNL A   1      50.425  26.256  26.997  1.00  0.00     0.135 A 
ATOM     92  F   UNL A   1      49.102  27.604  23.884  1.00  0.00    -0.206 F 
ATOM     93  C   UNL A   1      51.210  26.688  24.358  1.00  0.00     0.059 A 
ATOM     94  C   UNL A   1      51.711  25.904  26.602  1.00  0.00     0.059 A 
ATOM     95  F   UNL A   1      50.073  26.039  28.273  1.00  0.00    -0.206 F 
ATOM     96  C   UNL A   1      52.091  26.113  25.276  1.00  0.00     0.060 A 
BRANCH  96  97
ATOM     97  S   UNL A   1      53.752  25.672  24.725  1.00  0.00     0.124 S 
ATOM     98  O   UNL A   1      53.690  26.006  23.306  1.00  0.00    -0.237 OA
ATOM     99  O   UNL A   1      54.596  26.538  25.543  1.00  0.00    -0.237 OA
ATOM    100  O   UNL A   1      53.845  24.247  25.032  1.00  0.00    -0.744 OA
ENDBRANCH  96  97
ENDBRANCH  64  89
ENDBRANCH  38  39
ENDBRANCH  30  33
ENDBRANCH  28  29
ENDBRANCH   1  28
TORSDOF 17
ENDMDL
