MODEL 1
REMARK VINA RESULT:     -13.0      0.000      0.000
REMARK SMILES Cc1ncc(CC(=O)N2CCC(Cc3cccc(C(=O)NCCCNC(=O)c4ccc(-c5c6nc(c(-c7c(F)cc(S(=O)(=O)[O-])cc7F)c7ccc([nH]7)c(-c7c(F)cc(S(=O)(=O)[O-])cc7F)c7nc(c(-c8c(F)cc(S(=O)(=O)[O-])cc8F)c8ccc5[nH]8)C=C7)C=C6)cc4)c3)CC2)c(=O)[nH]1
REMARK SMILES IDX 22 1 21 2 19 3 20 4 18 6 14 7 15 8 94 9 16 10 17 11 13 12
REMARK SMILES IDX 12 13 7 14 8 15 9 16 10 17 96 18 11 19 95 20 6 21 5 22 1 23
REMARK SMILES IDX 2 24 3 25 99 26 4 27 97 28 98 30 23 31 24 32 25 33 26 34
REMARK SMILES IDX 27 36 28 37 29 38 93 39 30 40 92 41 31 42 32 43 33 44 86 45
REMARK SMILES IDX 34 46 91 47 85 48 87 49 35 50 90 51 84 52 83 53 36 55 70 56
REMARK SMILES IDX 49 57 69 58 50 59 53 60 68 61 88 62 51 63 52 64 67 66 89 67
REMARK SMILES IDX 54 68 37 69 38 70 47 71 39 72 40 73 46 74 48 75 41 76 42 77
REMARK SMILES IDX 43 78 44 79 45 80 71 81 72 82 81 83 73 84 74 85 80 86 82 87
REMARK SMILES IDX 75 88 76 89 77 90 78 91 79 92 55 93 56 94 65 95 57 96 58 97
REMARK SMILES IDX 64 98 66 99 59 100 60 101 61 102 62 103 63 104
REMARK H PARENT 21 5 99 29 25 35 87 54 53 65
REMARK Flexibility Score: inf
ROOT
ATOM      1  C   UNL A   1      42.448  21.689  25.986  1.00  0.00     0.118 C 
ENDROOT
BRANCH   1   2
ATOM      2  N   UNL A   1      41.480  20.607  25.959  1.00  0.00    -0.352 N 
ATOM      3  C   UNL A   1      40.112  20.531  25.900  1.00  0.00     0.251 C 
ATOM      4  O   UNL A   1      39.640  19.394  25.802  1.00  0.00    -0.269 OA
ATOM      5  H   UNL A   1      41.906  19.721  25.991  1.00  0.00     0.163 HD
BRANCH   3   6
ATOM      6  C   UNL A   1      39.173  21.694  25.923  1.00  0.00     0.040 A 
ATOM      7  C   UNL A   1      37.030  22.807  25.488  1.00  0.00    -0.047 A 
ATOM      8  C   UNL A   1      37.503  23.966  26.107  1.00  0.00     0.004 A 
ATOM      9  C   UNL A   1      37.904  21.713  25.349  1.00  0.00     0.017 A 
ATOM     10  C   UNL A   1      38.798  24.002  26.624  1.00  0.00     0.001 A 
ATOM     11  C   UNL A   1      39.615  22.868  26.553  1.00  0.00     0.014 A 
BRANCH   7  12
ATOM     12  C   UNL A   1      35.632  22.734  24.909  1.00  0.00     0.039 C 
BRANCH  12  13
ATOM     13  C   UNL A   1      35.049  24.104  24.488  1.00  0.00    -0.003 C 
ATOM     14  C   UNL A   1      31.457  25.811  23.600  1.00  0.00     0.227 C 
ATOM     15  O   UNL A   1      30.995  25.147  22.662  1.00  0.00    -0.275 OA
ATOM     16  N   UNL A   1      32.829  25.849  23.826  1.00  0.00    -0.342 N 
ATOM     17  C   UNL A   1      33.717  25.383  22.763  1.00  0.00     0.120 C 
ATOM     18  C   UNL A   1      33.496  25.996  25.117  1.00  0.00     0.120 C 
ATOM     19  C   UNL A   1      34.348  24.039  23.118  1.00  0.00     0.025 C 
ATOM     20  C   UNL A   1      34.079  24.645  25.553  1.00  0.00     0.025 C 
BRANCH  14  21
ATOM     21  C   UNL A   1      30.520  26.800  24.313  1.00  0.00     0.143 C 
BRANCH  21  22
ATOM     22  C   UNL A   1      29.956  27.952  23.563  1.00  0.00     0.045 A 
ATOM     23  C   UNL A   1      28.439  30.983  21.037  1.00  0.00     0.087 C 
ATOM     24  C   UNL A   1      28.928  29.924  21.979  1.00  0.00     0.105 A 
ATOM     25  N   UNL A   1      28.102  29.112  22.556  1.00  0.00    -0.243 NA
ATOM     26  N   UNL A   1      30.281  29.876  22.166  1.00  0.00    -0.311 N 
ATOM     27  C   UNL A   1      28.646  28.137  23.347  1.00  0.00     0.123 A 
ATOM     28  C   UNL A   1      30.879  28.942  22.967  1.00  0.00     0.254 A 
ATOM     29  H   UNL A   1      30.846  30.539  21.708  1.00  0.00     0.171 HD
ATOM     30  O   UNL A   1      32.083  28.910  23.152  1.00  0.00    -0.269 OA
ENDBRANCH  21  22
ENDBRANCH  14  21
ENDBRANCH  12  13
ENDBRANCH   7  12
ENDBRANCH   3   6
ENDBRANCH   1   2
BRANCH   1  31
ATOM     31  C   UNL A   1      42.912  22.005  27.408  1.00  0.00     0.042 C 
BRANCH  31  32
ATOM     32  C   UNL A   1      43.418  23.441  27.556  1.00  0.00     0.118 C 
BRANCH  32  33
ATOM     33  N   UNL A   1      43.230  24.210  26.327  1.00  0.00    -0.352 N 
ATOM     34  C   UNL A   1      42.585  25.398  26.099  1.00  0.00     0.251 C 
ATOM     35  H   UNL A   1      43.637  23.807  25.527  1.00  0.00     0.163 HD
ATOM     36  O   UNL A   1      42.300  25.712  24.947  1.00  0.00    -0.269 OA
BRANCH  34  37
ATOM     37  C   UNL A   1      42.240  26.296  27.221  1.00  0.00     0.039 A 
ATOM     38  C   UNL A   1      41.265  25.897  28.139  1.00  0.00     0.014 A 
ATOM     39  C   UNL A   1      42.839  27.551  27.336  1.00  0.00     0.014 A 
ATOM     40  C   UNL A   1      40.936  26.736  29.206  1.00  0.00     0.010 A 
ATOM     41  C   UNL A   1      42.583  28.340  28.450  1.00  0.00     0.010 A 
ATOM     42  C   UNL A   1      41.619  27.949  29.388  1.00  0.00    -0.014 A 
BRANCH  42  43
ATOM     43  C   UNL A   1      41.335  28.838  30.542  1.00  0.00     0.031 A 
ATOM     44  C   UNL A   1      42.173  28.743  31.787  1.00  0.00     0.074 A 
ATOM     45  C   UNL A   1      40.274  29.667  30.495  1.00  0.00     0.049 A 
ATOM     46  N   UNL A   1      42.035  29.371  32.927  1.00  0.00    -0.248 NA
ATOM     47  C   UNL A   1      43.293  27.789  31.760  1.00  0.00     0.031 C 
ATOM     48  C   UNL A   1      39.363  29.812  29.358  1.00  0.00     0.029 A 
ATOM     49  N   UNL A   1      39.781  30.541  31.429  1.00  0.00    -0.354 N 
ATOM     50  C   UNL A   1      43.035  28.873  33.755  1.00  0.00     0.074 A 
ATOM     51  C   UNL A   1      43.724  27.842  33.010  1.00  0.00     0.031 C 
ATOM     52  C   UNL A   1      38.448  30.750  29.645  1.00  0.00     0.029 A 
ATOM     53  C   UNL A   1      38.677  31.240  31.001  1.00  0.00     0.049 A 
ATOM     54  H   UNL A   1      40.178  30.657  32.322  1.00  0.00     0.167 HD
ATOM     55  C   UNL A   1      43.366  29.258  35.012  1.00  0.00     0.037 A 
ATOM     56  C   UNL A   1      37.936  32.172  31.631  1.00  0.00     0.037 A 
ATOM     57  C   UNL A   1      42.681  30.296  35.735  1.00  0.00     0.049 A 
ATOM     58  C   UNL A   1      38.308  32.572  33.030  1.00  0.00     0.074 A 
ATOM     59  C   UNL A   1      42.965  30.806  36.989  1.00  0.00     0.029 A 
ATOM     60  N   UNL A   1      41.566  30.980  35.268  1.00  0.00    -0.354 N 
ATOM     61  N   UNL A   1      39.294  32.137  33.778  1.00  0.00    -0.248 NA
ATOM     62  C   UNL A   1      37.468  33.592  33.670  1.00  0.00     0.031 C 
ATOM     63  C   UNL A   1      41.991  31.763  37.301  1.00  0.00     0.029 A 
ATOM     64  C   UNL A   1      41.133  31.890  36.218  1.00  0.00     0.049 A 
ATOM     65  H   UNL A   1      41.145  30.839  34.389  1.00  0.00     0.167 HD
ATOM     66  C   UNL A   1      39.213  32.852  34.968  1.00  0.00     0.074 A 
ATOM     67  C   UNL A   1      38.084  33.751  34.835  1.00  0.00     0.031 C 
ATOM     68  C   UNL A   1      40.005  32.778  36.068  1.00  0.00     0.037 A 
BRANCH  55  69
ATOM     69  C   UNL A   1      44.512  28.536  35.672  1.00  0.00     0.058 A 
ATOM     70  C   UNL A   1      45.846  28.944  35.494  1.00  0.00     0.135 A 
ATOM     71  C   UNL A   1      44.281  27.403  36.468  1.00  0.00     0.135 A 
ATOM     72  F   UNL A   1      46.131  30.014  34.734  1.00  0.00    -0.206 F 
ATOM     73  C   UNL A   1      46.908  28.220  36.024  1.00  0.00     0.059 A 
ATOM     74  C   UNL A   1      45.327  26.683  37.039  1.00  0.00     0.059 A 
ATOM     75  F   UNL A   1      43.028  26.969  36.680  1.00  0.00    -0.206 F 
ATOM     76  C   UNL A   1      46.639  27.082  36.786  1.00  0.00     0.060 A 
BRANCH  76  77
ATOM     77  S   UNL A   1      48.027  26.120  37.422  1.00  0.00     0.124 S 
ATOM     78  O   UNL A   1      47.724  26.084  38.850  1.00  0.00    -0.237 OA
ATOM     79  O   UNL A   1      47.882  24.853  36.711  1.00  0.00    -0.237 OA
ATOM     80  O   UNL A   1      49.192  26.916  37.047  1.00  0.00    -0.744 OA
ENDBRANCH  76  77
ENDBRANCH  55  69
BRANCH  56  81
ATOM     81  C   UNL A   1      36.813  32.827  30.910  1.00  0.00     0.058 A 
ATOM     82  C   UNL A   1      35.484  32.507  31.224  1.00  0.00     0.135 A 
ATOM     83  C   UNL A   1      37.037  33.820  29.943  1.00  0.00     0.135 A 
ATOM     84  F   UNL A   1      35.221  31.560  32.137  1.00  0.00    -0.206 F 
ATOM     85  C   UNL A   1      34.415  33.148  30.609  1.00  0.00     0.059 A 
ATOM     86  C   UNL A   1      35.983  34.492  29.331  1.00  0.00     0.059 A 
ATOM     87  F   UNL A   1      38.290  34.175  29.620  1.00  0.00    -0.206 F 
ATOM     88  C   UNL A   1      34.675  34.149  29.670  1.00  0.00     0.060 A 
BRANCH  88  89
ATOM     89  S   UNL A   1      33.278  35.037  28.948  1.00  0.00     0.124 S 
ATOM     90  O   UNL A   1      33.936  36.201  28.368  1.00  0.00    -0.237 OA
ATOM     91  O   UNL A   1      32.754  34.059  28.000  1.00  0.00    -0.237 OA
ATOM     92  O   UNL A   1      32.419  35.303  30.098  1.00  0.00    -0.744 OA
ENDBRANCH  88  89
ENDBRANCH  56  81
BRANCH  68  93
ATOM     93  C   UNL A   1      39.700  33.716  37.203  1.00  0.00     0.058 A 
ATOM     94  C   UNL A   1      38.896  33.329  38.287  1.00  0.00     0.135 A 
ATOM     95  C   UNL A   1      40.264  35.001  37.230  1.00  0.00     0.135 A 
ATOM     96  F   UNL A   1      38.325  32.115  38.306  1.00  0.00    -0.206 F 
ATOM     97  C   UNL A   1      38.644  34.194  39.347  1.00  0.00     0.059 A 
ATOM     98  C   UNL A   1      40.049  35.871  38.293  1.00  0.00     0.059 A 
ATOM     99  F   UNL A   1      41.049  35.417  36.222  1.00  0.00    -0.206 F 
ATOM    100  C   UNL A   1      39.228  35.462  39.342  1.00  0.00     0.060 A 
BRANCH 100 101
ATOM    101  S   UNL A   1      38.922  36.561  40.741  1.00  0.00     0.124 S 
ATOM    102  O   UNL A   1      40.249  36.647  41.343  1.00  0.00    -0.237 OA
ATOM    103  O   UNL A   1      38.444  37.774  40.085  1.00  0.00    -0.237 OA
ATOM    104  O   UNL A   1      37.921  35.843  41.526  1.00  0.00    -0.744 OA
ENDBRANCH 100 101
ENDBRANCH  68  93
ENDBRANCH  42  43
ENDBRANCH  34  37
ENDBRANCH  32  33
ENDBRANCH  31  32
ENDBRANCH   1  31
TORSDOF 17
ENDMDL
MODEL 2
REMARK VINA RESULT:     -12.9      6.190     12.350
REMARK SMILES Cc1ncc(CC(=O)N2CCC(Cc3cccc(C(=O)NCCCNC(=O)c4ccc(-c5c6nc(c(-c7c(F)cc(S(=O)(=O)[O-])cc7F)c7ccc([nH]7)c(-c7c(F)cc(S(=O)(=O)[O-])cc7F)c7nc(c(-c8c(F)cc(S(=O)(=O)[O-])cc8F)c8ccc5[nH]8)C=C7)C=C6)cc4)c3)CC2)c(=O)[nH]1
REMARK SMILES IDX 22 1 21 2 19 3 20 4 18 6 14 7 15 8 94 9 16 10 17 11 13 12
REMARK SMILES IDX 12 13 7 14 8 15 9 16 10 17 96 18 11 19 95 20 6 21 5 22 1 23
REMARK SMILES IDX 2 24 3 25 99 26 4 27 97 28 98 30 23 31 24 32 25 33 26 34
REMARK SMILES IDX 27 36 28 37 29 38 93 39 30 40 92 41 31 42 32 43 33 44 86 45
REMARK SMILES IDX 34 46 91 47 85 48 87 49 35 50 90 51 84 52 83 53 36 55 70 56
REMARK SMILES IDX 49 57 69 58 50 59 53 60 68 61 88 62 51 63 52 64 67 66 89 67
REMARK SMILES IDX 54 68 37 69 38 70 47 71 39 72 40 73 46 74 48 75 41 76 42 77
REMARK SMILES IDX 43 78 44 79 45 80 71 81 72 82 81 83 73 84 74 85 80 86 82 87
REMARK SMILES IDX 75 88 76 89 77 90 78 91 79 92 55 93 56 94 65 95 57 96 58 97
REMARK SMILES IDX 64 98 66 99 59 100 60 101 61 102 62 103 63 104
REMARK H PARENT 21 5 99 29 25 35 87 54 53 65
REMARK Flexibility Score: inf
ROOT
ATOM      1  C   UNL A   1      34.516  33.616  29.989  1.00  0.00     0.118 C 
ENDROOT
BRANCH   1   2
ATOM      2  N   UNL A   1      33.563  33.810  28.910  1.00  0.00    -0.352 N 
ATOM      3  C   UNL A   1      33.045  33.017  27.919  1.00  0.00     0.251 C 
ATOM      4  O   UNL A   1      32.162  33.531  27.225  1.00  0.00    -0.269 OA
ATOM      5  H   UNL A   1      33.204  34.726  28.886  1.00  0.00     0.163 HD
BRANCH   3   6
ATOM      6  C   UNL A   1      33.444  31.604  27.636  1.00  0.00     0.040 A 
ATOM      7  C   UNL A   1      33.071  29.337  26.774  1.00  0.00    -0.047 A 
ATOM      8  C   UNL A   1      34.381  28.990  27.111  1.00  0.00     0.004 A 
ATOM      9  C   UNL A   1      32.608  30.624  27.106  1.00  0.00     0.017 A 
ATOM     10  C   UNL A   1      35.219  29.929  27.713  1.00  0.00     0.001 A 
ATOM     11  C   UNL A   1      34.761  31.230  27.950  1.00  0.00     0.014 A 
BRANCH   7  12
ATOM     12  C   UNL A   1      32.131  28.341  26.126  1.00  0.00     0.039 C 
BRANCH  12  13
ATOM     13  C   UNL A   1      32.473  26.862  26.424  1.00  0.00    -0.003 C 
ATOM     14  C   UNL A   1      32.409  23.228  24.583  1.00  0.00     0.227 C 
ATOM     15  O   UNL A   1      31.234  23.051  24.234  1.00  0.00    -0.275 OA
ATOM     16  N   UNL A   1      32.708  24.079  25.642  1.00  0.00    -0.342 N 
ATOM     17  C   UNL A   1      31.620  24.485  26.529  1.00  0.00     0.120 C 
ATOM     18  C   UNL A   1      33.916  24.885  25.797  1.00  0.00     0.120 C 
ATOM     19  C   UNL A   1      31.240  25.947  26.306  1.00  0.00     0.025 C 
ATOM     20  C   UNL A   1      33.597  26.356  25.503  1.00  0.00     0.025 C 
BRANCH  14  21
ATOM     21  C   UNL A   1      33.479  22.279  24.018  1.00  0.00     0.143 C 
BRANCH  21  22
ATOM     22  C   UNL A   1      33.407  20.825  24.317  1.00  0.00     0.045 A 
ATOM     23  C   UNL A   1      33.171  16.811  25.621  1.00  0.00     0.087 C 
ATOM     24  C   UNL A   1      33.218  18.217  25.103  1.00  0.00     0.105 A 
ATOM     25  N   UNL A   1      32.151  18.800  24.659  1.00  0.00    -0.243 NA
ATOM     26  N   UNL A   1      34.441  18.825  25.146  1.00  0.00    -0.311 N 
ATOM     27  C   UNL A   1      32.277  20.105  24.268  1.00  0.00     0.123 A 
ATOM     28  C   UNL A   1      34.634  20.118  24.744  1.00  0.00     0.254 A 
ATOM     29  H   UNL A   1      35.212  18.313  25.481  1.00  0.00     0.171 HD
ATOM     30  O   UNL A   1      35.727  20.655  24.763  1.00  0.00    -0.269 OA
ENDBRANCH  21  22
ENDBRANCH  14  21
ENDBRANCH  12  13
ENDBRANCH   7  12
ENDBRANCH   3   6
ENDBRANCH   1   2
BRANCH   1  31
ATOM     31  C   UNL A   1      35.929  34.040  29.585  1.00  0.00     0.042 C 
BRANCH  31  32
ATOM     32  C   UNL A   1      37.011  33.309  30.381  1.00  0.00     0.118 C 
BRANCH  32  33
ATOM     33  N   UNL A   1      36.461  32.187  31.140  1.00  0.00    -0.352 N 
ATOM     34  C   UNL A   1      36.810  30.862  31.168  1.00  0.00     0.251 C 
ATOM     35  H   UNL A   1      35.713  32.424  31.733  1.00  0.00     0.163 HD
ATOM     36  O   UNL A   1      36.030  30.048  31.652  1.00  0.00    -0.269 OA
BRANCH  34  37
ATOM     37  C   UNL A   1      38.111  30.414  30.628  1.00  0.00     0.039 A 
ATOM     38  C   UNL A   1      38.311  30.409  29.245  1.00  0.00     0.014 A 
ATOM     39  C   UNL A   1      39.112  29.949  31.482  1.00  0.00     0.014 A 
ATOM     40  C   UNL A   1      39.539  29.994  28.725  1.00  0.00     0.010 A 
ATOM     41  C   UNL A   1      40.363  29.630  30.971  1.00  0.00     0.010 A 
ATOM     42  C   UNL A   1      40.586  29.634  29.588  1.00  0.00    -0.014 A 
BRANCH  42  43
ATOM     43  C   UNL A   1      41.921  29.241  29.072  1.00  0.00     0.031 A 
ATOM     44  C   UNL A   1      43.024  30.261  28.990  1.00  0.00     0.074 A 
ATOM     45  C   UNL A   1      42.110  27.993  28.603  1.00  0.00     0.049 A 
ATOM     46  N   UNL A   1      44.230  30.138  28.496  1.00  0.00    -0.248 NA
ATOM     47  C   UNL A   1      42.720  31.608  29.499  1.00  0.00     0.031 C 
ATOM     48  C   UNL A   1      41.100  26.932  28.588  1.00  0.00     0.029 A 
ATOM     49  N   UNL A   1      43.215  27.406  28.043  1.00  0.00    -0.354 N 
ATOM     50  C   UNL A   1      44.816  31.393  28.616  1.00  0.00     0.074 A 
ATOM     51  C   UNL A   1      43.811  32.277  29.163  1.00  0.00     0.031 C 
ATOM     52  C   UNL A   1      41.645  25.813  28.087  1.00  0.00     0.029 A 
ATOM     53  C   UNL A   1      43.026  26.088  27.702  1.00  0.00     0.049 A 
ATOM     54  H   UNL A   1      44.064  27.883  27.899  1.00  0.00     0.167 HD
ATOM     55  C   UNL A   1      46.085  31.768  28.323  1.00  0.00     0.037 A 
ATOM     56  C   UNL A   1      43.872  25.201  27.143  1.00  0.00     0.037 A 
ATOM     57  C   UNL A   1      47.080  30.873  27.794  1.00  0.00     0.049 A 
ATOM     58  C   UNL A   1      45.269  25.641  26.808  1.00  0.00     0.074 A 
ATOM     59  C   UNL A   1      48.409  31.128  27.513  1.00  0.00     0.029 A 
ATOM     60  N   UNL A   1      46.849  29.544  27.459  1.00  0.00    -0.354 N 
ATOM     61  N   UNL A   1      45.829  26.814  26.983  1.00  0.00    -0.248 NA
ATOM     62  C   UNL A   1      46.150  24.635  26.201  1.00  0.00     0.031 C 
ATOM     63  C   UNL A   1      48.969  29.970  26.960  1.00  0.00     0.029 A 
ATOM     64  C   UNL A   1      48.004  28.974  26.950  1.00  0.00     0.049 A 
ATOM     65  H   UNL A   1      45.990  29.076  27.568  1.00  0.00     0.167 HD
ATOM     66  C   UNL A   1      47.139  26.681  26.537  1.00  0.00     0.074 A 
ATOM     67  C   UNL A   1      47.286  25.310  26.089  1.00  0.00     0.031 C 
ATOM     68  C   UNL A   1      48.132  27.606  26.508  1.00  0.00     0.037 A 
BRANCH  55  69
ATOM     69  C   UNL A   1      46.448  33.210  28.562  1.00  0.00     0.058 A 
ATOM     70  C   UNL A   1      46.914  33.660  29.810  1.00  0.00     0.135 A 
ATOM     71  C   UNL A   1      46.299  34.164  27.543  1.00  0.00     0.135 A 
ATOM     72  F   UNL A   1      47.066  32.796  30.827  1.00  0.00    -0.206 F 
ATOM     73  C   UNL A   1      47.156  35.007  30.056  1.00  0.00     0.059 A 
ATOM     74  C   UNL A   1      46.569  35.513  27.756  1.00  0.00     0.059 A 
ATOM     75  F   UNL A   1      45.864  33.793  26.328  1.00  0.00    -0.206 F 
ATOM     76  C   UNL A   1      46.968  35.929  29.025  1.00  0.00     0.060 A 
BRANCH  76  77
ATOM     77  S   UNL A   1      47.231  37.680  29.375  1.00  0.00     0.124 S 
ATOM     78  O   UNL A   1      46.645  37.800  30.706  1.00  0.00    -0.237 OA
ATOM     79  O   UNL A   1      48.685  37.797  29.311  1.00  0.00    -0.237 OA
ATOM     80  O   UNL A   1      46.503  38.353  28.304  1.00  0.00    -0.744 OA
ENDBRANCH  76  77
ENDBRANCH  55  69
BRANCH  56  81
ATOM     81  C   UNL A   1      43.429  23.798  26.929  1.00  0.00     0.058 A 
ATOM     82  C   UNL A   1      43.308  22.918  28.015  1.00  0.00     0.135 A 
ATOM     83  C   UNL A   1      43.064  23.325  25.659  1.00  0.00     0.135 A 
ATOM     84  F   UNL A   1      43.650  23.324  29.247  1.00  0.00    -0.206 F 
ATOM     85  C   UNL A   1      42.838  21.620  27.853  1.00  0.00     0.059 A 
ATOM     86  C   UNL A   1      42.569  22.037  25.475  1.00  0.00     0.059 A 
ATOM     87  F   UNL A   1      43.144  24.134  24.591  1.00  0.00    -0.206 F 
ATOM     88  C   UNL A   1      42.460  21.192  26.578  1.00  0.00     0.060 A 
BRANCH  88  89
ATOM     89  S   UNL A   1      41.764  19.535  26.397  1.00  0.00     0.124 S 
ATOM     90  O   UNL A   1      42.418  19.071  25.180  1.00  0.00    -0.237 OA
ATOM     91  O   UNL A   1      42.187  18.891  27.637  1.00  0.00    -0.237 OA
ATOM     92  O   UNL A   1      40.329  19.783  26.288  1.00  0.00    -0.744 OA
ENDBRANCH  88  89
ENDBRANCH  56  81
BRANCH  68  93
ATOM     93  C   UNL A   1      49.477  27.160  26.005  1.00  0.00     0.058 A 
ATOM     94  C   UNL A   1      50.435  26.592  26.859  1.00  0.00     0.135 A 
ATOM     95  C   UNL A   1      49.789  27.255  24.639  1.00  0.00     0.135 A 
ATOM     96  F   UNL A   1      50.190  26.486  28.175  1.00  0.00    -0.206 F 
ATOM     97  C   UNL A   1      51.666  26.155  26.380  1.00  0.00     0.059 A 
ATOM     98  C   UNL A   1      51.002  26.797  24.134  1.00  0.00     0.059 A 
ATOM     99  F   UNL A   1      48.904  27.782  23.777  1.00  0.00    -0.206 F 
ATOM    100  C   UNL A   1      51.938  26.259  25.015  1.00  0.00     0.060 A 
BRANCH 100 101
ATOM    101  S   UNL A   1      53.524  25.655  24.400  1.00  0.00     0.124 S 
ATOM    102  O   UNL A   1      53.382  25.865  22.963  1.00  0.00    -0.237 OA
ATOM    103  O   UNL A   1      54.475  26.533  25.077  1.00  0.00    -0.237 OA
ATOM    104  O   UNL A   1      53.549  24.261  24.832  1.00  0.00    -0.744 OA
ENDBRANCH 100 101
ENDBRANCH  68  93
ENDBRANCH  42  43
ENDBRANCH  34  37
ENDBRANCH  32  33
ENDBRANCH  31  32
ENDBRANCH   1  31
TORSDOF 17
ENDMDL
MODEL 3
REMARK VINA RESULT:     -12.7      0.449      7.889
REMARK SMILES Cc1ncc(CC(=O)N2CCC(Cc3cccc(C(=O)NCCCNC(=O)c4ccc(-c5c6nc(c(-c7c(F)cc(S(=O)(=O)[O-])cc7F)c7ccc([nH]7)c(-c7c(F)cc(S(=O)(=O)[O-])cc7F)c7nc(c(-c8c(F)cc(S(=O)(=O)[O-])cc8F)c8ccc5[nH]8)C=C7)C=C6)cc4)c3)CC2)c(=O)[nH]1
REMARK SMILES IDX 22 1 21 2 19 3 20 4 18 6 14 7 15 8 94 9 16 10 17 11 13 12
REMARK SMILES IDX 12 13 7 14 8 15 9 16 10 17 96 18 11 19 95 20 6 21 5 22 1 23
REMARK SMILES IDX 2 24 3 25 99 26 4 27 97 28 98 30 23 31 24 32 25 33 26 34
REMARK SMILES IDX 27 36 28 37 29 38 93 39 30 40 92 41 31 42 32 43 33 44 86 45
REMARK SMILES IDX 34 46 91 47 85 48 87 49 35 50 90 51 84 52 83 53 36 55 70 56
REMARK SMILES IDX 49 57 69 58 50 59 53 60 68 61 88 62 51 63 52 64 67 66 89 67
REMARK SMILES IDX 54 68 37 69 38 70 47 71 39 72 40 73 46 74 48 75 41 76 42 77
REMARK SMILES IDX 43 78 44 79 45 80 71 81 72 82 81 83 73 84 74 85 80 86 82 87
REMARK SMILES IDX 75 88 76 89 77 90 78 91 79 92 55 93 56 94 65 95 57 96 58 97
REMARK SMILES IDX 64 98 66 99 59 100 60 101 61 102 62 103 63 104
REMARK H PARENT 21 5 99 29 25 35 87 54 53 65
REMARK Flexibility Score: inf
ROOT
ATOM      1  C   UNL A   1      42.642  21.981  25.895  1.00  0.00     0.118 C 
ENDROOT
BRANCH   1   2
ATOM      2  N   UNL A   1      41.759  20.837  26.038  1.00  0.00    -0.352 N 
ATOM      3  C   UNL A   1      40.400  20.660  26.083  1.00  0.00     0.251 C 
ATOM      4  O   UNL A   1      40.011  19.489  26.126  1.00  0.00    -0.269 OA
ATOM      5  H   UNL A   1      42.253  19.990  26.123  1.00  0.00     0.163 HD
BRANCH   3   6
ATOM      6  C   UNL A   1      39.379  21.752  26.062  1.00  0.00     0.040 A 
ATOM      7  C   UNL A   1      37.193  22.717  25.503  1.00  0.00    -0.047 A 
ATOM      8  C   UNL A   1      37.538  23.893  26.171  1.00  0.00     0.004 A 
ATOM      9  C   UNL A   1      38.152  21.691  25.405  1.00  0.00     0.017 A 
ATOM     10  C   UNL A   1      38.790  24.012  26.774  1.00  0.00     0.001 A 
ATOM     11  C   UNL A   1      39.691  22.942  26.740  1.00  0.00     0.014 A 
BRANCH   7  12
ATOM     12  C   UNL A   1      35.845  22.555  24.831  1.00  0.00     0.039 C 
BRANCH  12  13
ATOM     13  C   UNL A   1      35.214  23.884  24.352  1.00  0.00    -0.003 C 
ATOM     14  C   UNL A   1      31.541  25.578  23.857  1.00  0.00     0.227 C 
ATOM     15  O   UNL A   1      30.927  24.825  23.089  1.00  0.00    -0.275 OA
ATOM     16  N   UNL A   1      32.932  25.603  23.854  1.00  0.00    -0.342 N 
ATOM     17  C   UNL A   1      33.631  24.995  22.724  1.00  0.00     0.120 C 
ATOM     18  C   UNL A   1      33.800  25.877  24.995  1.00  0.00     0.120 C 
ATOM     19  C   UNL A   1      34.299  23.683  23.129  1.00  0.00     0.025 C 
ATOM     20  C   UNL A   1      34.434  24.570  25.488  1.00  0.00     0.025 C 
BRANCH  14  21
ATOM     21  C   UNL A   1      30.741  26.668  24.591  1.00  0.00     0.143 C 
BRANCH  21  22
ATOM     22  C   UNL A   1      30.174  27.808  23.823  1.00  0.00     0.045 A 
ATOM     23  C   UNL A   1      28.719  30.833  21.255  1.00  0.00     0.087 C 
ATOM     24  C   UNL A   1      29.179  29.769  22.206  1.00  0.00     0.105 A 
ATOM     25  N   UNL A   1      28.365  28.859  22.634  1.00  0.00    -0.243 NA
ATOM     26  N   UNL A   1      30.496  29.825  22.566  1.00  0.00    -0.311 N 
ATOM     27  C   UNL A   1      28.890  27.892  23.446  1.00  0.00     0.123 A 
ATOM     28  C   UNL A   1      31.071  28.903  23.396  1.00  0.00     0.254 A 
ATOM     29  H   UNL A   1      31.052  30.557  22.214  1.00  0.00     0.171 HD
ATOM     30  O   UNL A   1      32.240  28.963  23.735  1.00  0.00    -0.269 OA
ENDBRANCH  21  22
ENDBRANCH  14  21
ENDBRANCH  12  13
ENDBRANCH   7  12
ENDBRANCH   3   6
ENDBRANCH   1   2
BRANCH   1  31
ATOM     31  C   UNL A   1      43.355  22.320  27.205  1.00  0.00     0.042 C 
BRANCH  31  32
ATOM     32  C   UNL A   1      43.541  23.825  27.400  1.00  0.00     0.118 C 
BRANCH  32  33
ATOM     33  N   UNL A   1      43.099  24.582  26.230  1.00  0.00    -0.352 N 
ATOM     34  C   UNL A   1      42.273  25.671  26.123  1.00  0.00     0.251 C 
ATOM     35  H   UNL A   1      43.454  24.254  25.374  1.00  0.00     0.163 HD
ATOM     36  O   UNL A   1      41.807  25.962  25.025  1.00  0.00    -0.269 OA
BRANCH  34  37
ATOM     37  C   UNL A   1      41.950  26.492  27.308  1.00  0.00     0.039 A 
ATOM     38  C   UNL A   1      40.984  26.038  28.211  1.00  0.00     0.014 A 
ATOM     39  C   UNL A   1      42.560  27.732  27.501  1.00  0.00     0.014 A 
ATOM     40  C   UNL A   1      40.677  26.803  29.337  1.00  0.00     0.010 A 
ATOM     41  C   UNL A   1      42.325  28.444  28.670  1.00  0.00     0.010 A 
ATOM     42  C   UNL A   1      41.370  27.996  29.593  1.00  0.00    -0.014 A 
BRANCH  42  43
ATOM     43  C   UNL A   1      41.108  28.805  30.808  1.00  0.00     0.031 A 
ATOM     44  C   UNL A   1      39.984  29.805  30.817  1.00  0.00     0.074 A 
ATOM     45  C   UNL A   1      41.932  28.697  31.868  1.00  0.00     0.049 A 
ATOM     46  N   UNL A   1      39.645  30.662  31.747  1.00  0.00    -0.248 NA
ATOM     47  C   UNL A   1      39.153  29.877  29.605  1.00  0.00     0.031 C 
ATOM     48  C   UNL A   1      43.082  27.794  31.957  1.00  0.00     0.029 A 
ATOM     49  N   UNL A   1      41.932  29.353  33.072  1.00  0.00    -0.354 N 
ATOM     50  C   UNL A   1      38.579  31.384  31.223  1.00  0.00     0.074 A 
ATOM     51  C   UNL A   1      38.375  30.914  29.871  1.00  0.00     0.031 C 
ATOM     52  C   UNL A   1      43.650  27.923  33.166  1.00  0.00     0.029 A 
ATOM     53  C   UNL A   1      42.935  28.949  33.920  1.00  0.00     0.049 A 
ATOM     54  H   UNL A   1      41.276  30.049  33.307  1.00  0.00     0.167 HD
ATOM     55  C   UNL A   1      37.821  32.334  31.824  1.00  0.00     0.037 A 
ATOM     56  C   UNL A   1      43.242  29.358  35.166  1.00  0.00     0.037 A 
ATOM     57  C   UNL A   1      38.026  32.780  33.177  1.00  0.00     0.049 A 
ATOM     58  C   UNL A   1      42.402  30.424  35.809  1.00  0.00     0.074 A 
ATOM     59  C   UNL A   1      37.286  33.694  33.906  1.00  0.00     0.029 A 
ATOM     60  N   UNL A   1      39.055  32.348  34.004  1.00  0.00    -0.354 N 
ATOM     61  N   UNL A   1      41.358  31.056  35.325  1.00  0.00    -0.248 NA
ATOM     62  C   UNL A   1      42.779  30.833  37.167  1.00  0.00     0.031 C 
ATOM     63  C   UNL A   1      37.898  33.852  35.155  1.00  0.00     0.029 A 
ATOM     64  C   UNL A   1      38.986  32.994  35.227  1.00  0.00     0.049 A 
ATOM     65  H   UNL A   1      39.734  31.679  33.757  1.00  0.00     0.167 HD
ATOM     66  C   UNL A   1      40.933  31.916  36.332  1.00  0.00     0.074 A 
ATOM     67  C   UNL A   1      41.831  31.717  37.452  1.00  0.00     0.031 C 
ATOM     68  C   UNL A   1      39.891  32.784  36.332  1.00  0.00     0.037 A 
BRANCH  55  69
ATOM     69  C   UNL A   1      36.716  32.950  31.007  1.00  0.00     0.058 A 
ATOM     70  C   UNL A   1      36.982  33.830  29.943  1.00  0.00     0.135 A 
ATOM     71  C   UNL A   1      35.371  32.683  31.307  1.00  0.00     0.135 A 
ATOM     72  F   UNL A   1      38.249  34.131  29.616  1.00  0.00    -0.206 F 
ATOM     73  C   UNL A   1      35.959  34.471  29.253  1.00  0.00     0.059 A 
ATOM     74  C   UNL A   1      34.329  33.287  30.606  1.00  0.00     0.059 A 
ATOM     75  F   UNL A   1      35.054  31.846  32.308  1.00  0.00    -0.206 F 
ATOM     76  C   UNL A   1      34.635  34.202  29.600  1.00  0.00     0.060 A 
BRANCH  76  77
ATOM     77  S   UNL A   1      33.320  35.084  28.735  1.00  0.00     0.124 S 
ATOM     78  O   UNL A   1      32.317  35.214  29.788  1.00  0.00    -0.237 OA
ATOM     79  O   UNL A   1      33.982  36.322  28.335  1.00  0.00    -0.237 OA
ATOM     80  O   UNL A   1      32.968  34.183  27.641  1.00  0.00    -0.744 OA
ENDBRANCH  76  77
ENDBRANCH  55  69
BRANCH  56  81
ATOM     81  C   UNL A   1      44.358  28.705  35.899  1.00  0.00     0.058 A 
ATOM     82  C   UNL A   1      44.115  27.595  36.721  1.00  0.00     0.135 A 
ATOM     83  C   UNL A   1      45.688  29.132  35.751  1.00  0.00     0.135 A 
ATOM     84  F   UNL A   1      42.860  27.154  36.898  1.00  0.00    -0.206 F 
ATOM     85  C   UNL A   1      45.148  26.927  37.370  1.00  0.00     0.059 A 
ATOM     86  C   UNL A   1      46.741  28.466  36.371  1.00  0.00     0.059 A 
ATOM     87  F   UNL A   1      45.974  30.178  34.961  1.00  0.00    -0.206 F 
ATOM     88  C   UNL A   1      46.461  27.365  37.179  1.00  0.00     0.060 A 
BRANCH  88  89
ATOM     89  S   UNL A   1      47.801  26.433  37.953  1.00  0.00     0.124 S 
ATOM     90  O   UNL A   1      48.912  27.370  37.849  1.00  0.00    -0.237 OA
ATOM     91  O   UNL A   1      47.277  26.206  39.296  1.00  0.00    -0.237 OA
ATOM     92  O   UNL A   1      47.901  25.237  37.121  1.00  0.00    -0.744 OA
ENDBRANCH  88  89
ENDBRANCH  56  81
BRANCH  68  93
ATOM     93  C   UNL A   1      39.642  33.564  37.594  1.00  0.00     0.058 A 
ATOM     94  C   UNL A   1      38.753  33.109  38.581  1.00  0.00     0.135 A 
ATOM     95  C   UNL A   1      40.341  34.756  37.839  1.00  0.00     0.135 A 
ATOM     96  F   UNL A   1      38.053  31.980  38.393  1.00  0.00    -0.206 F 
ATOM     97  C   UNL A   1      38.551  33.822  39.758  1.00  0.00     0.059 A 
ATOM     98  C   UNL A   1      40.177  35.470  39.021  1.00  0.00     0.059 A 
ATOM     99  F   UNL A   1      41.210  35.230  36.930  1.00  0.00    -0.206 F 
ATOM    100  C   UNL A   1      39.271  35.000  39.970  1.00  0.00     0.060 A 
BRANCH 100 101
ATOM    101  S   UNL A   1      39.026  35.896  41.518  1.00  0.00     0.124 S 
ATOM    102  O   UNL A   1      40.240  35.552  42.252  1.00  0.00    -0.237 OA
ATOM    103  O   UNL A   1      38.931  37.281  41.064  1.00  0.00    -0.237 OA
ATOM    104  O   UNL A   1      37.789  35.330  42.048  1.00  0.00    -0.744 OA
ENDBRANCH 100 101
ENDBRANCH  68  93
ENDBRANCH  42  43
ENDBRANCH  34  37
ENDBRANCH  32  33
ENDBRANCH  31  32
ENDBRANCH   1  31
TORSDOF 17
ENDMDL
