MODEL 1
REMARK VINA RESULT:     -12.7      0.000      0.000
REMARK SMILES Cc1cc([C@H](C)NC(=O)N2CC[C@H](C(=O)NCCCNC(=O)c3ccc(-c4c5nc(c(-c6c(F)cc(S(=O)(=O)[O-])cc6F)c6ccc([nH]6)c(-c6c(F)cc(S(=O)(=O)[O-])cc6F)c6nc(c(-c7c(F)cc(S(=O)(=O)[O-])cc7F)c7ccc4[nH]7)C=C6)C=C5)cc3)[C@@H]2C)c(C)s1
REMARK SMILES IDX 18 1 17 2 16 3 14 4 15 5 13 7 10 8 11 9 89 10 12 11 90 12
REMARK SMILES IDX 8 13 7 14 9 16 5 17 6 18 4 19 1 20 2 21 3 22 93 23 91 24
REMARK SMILES IDX 92 25 19 26 20 27 21 28 22 30 23 31 24 32 88 33 25 34 87 35
REMARK SMILES IDX 26 36 27 37 28 38 81 39 29 40 86 41 80 42 82 43 30 44 85 45
REMARK SMILES IDX 79 46 78 47 31 49 65 50 44 51 64 52 45 53 48 54 63 55 83 56
REMARK SMILES IDX 46 57 47 58 62 60 84 61 49 62 32 63 33 64 42 65 34 66 35 67
REMARK SMILES IDX 41 68 43 69 36 70 37 71 38 72 39 73 40 74 66 75 67 76 76 77
REMARK SMILES IDX 68 78 69 79 75 80 77 81 70 82 71 83 72 84 73 85 74 86 50 87
REMARK SMILES IDX 51 88 60 89 52 90 53 91 59 92 61 93 54 94 55 95 56 96 57 97
REMARK SMILES IDX 58 98
REMARK H PARENT 16 6 7 15 20 29 82 48 48 59
REMARK Flexibility Score: inf
ROOT
ATOM      1  C   UNL A   1      37.138  23.712  25.414  1.00  0.00     0.042 C 
ENDROOT
BRANCH   1   2
ATOM      2  C   UNL A   1      35.994  22.745  25.699  1.00  0.00     0.117 C 
BRANCH   2   3
ATOM      3  N   UNL A   1      34.765  23.391  26.131  1.00  0.00    -0.356 N 
ATOM      4  C   UNL A   1      33.545  23.458  25.527  1.00  0.00     0.225 C 
ATOM      5  O   UNL A   1      32.570  23.729  26.231  1.00  0.00    -0.275 OA
ATOM      6  H   UNL A   1      34.823  23.853  26.999  1.00  0.00     0.163 HD
BRANCH   4   7
ATOM      7  C   UNL A   1      33.413  23.232  24.030  1.00  0.00     0.102 C 
ATOM      8  N   UNL A   1      32.606  24.746  22.353  1.00  0.00    -0.321 N 
ATOM      9  C   UNL A   1      31.439  24.187  23.003  1.00  0.00     0.122 C 
ATOM     10  C   UNL A   1      33.795  24.458  23.160  1.00  0.00     0.096 C 
ATOM     11  C   UNL A   1      31.960  22.913  23.643  1.00  0.00     0.037 C 
ATOM     12  C   UNL A   1      34.251  25.705  23.920  1.00  0.00     0.032 C 
BRANCH   8  13
ATOM     13  C   UNL A   1      32.464  25.702  21.386  1.00  0.00     0.318 C 
ATOM     14  N   UNL A   1      31.556  26.698  21.554  1.00  0.00    -0.331 N 
ATOM     15  H   UNL A   1      30.931  26.861  20.811  1.00  0.00     0.165 HD
ATOM     16  O   UNL A   1      33.129  25.693  20.349  1.00  0.00    -0.249 OA
BRANCH  14  17
ATOM     17  C   UNL A   1      31.419  27.545  22.731  1.00  0.00     0.112 C 
ATOM     18  C   UNL A   1      32.646  28.458  22.859  1.00  0.00     0.036 C 
BRANCH  17  19
ATOM     19  C   UNL A   1      30.102  28.300  22.628  1.00  0.00    -0.012 A 
ATOM     20  C   UNL A   1      28.122  31.387  21.590  1.00  0.00     0.056 C 
ATOM     21  C   UNL A   1      28.655  30.082  22.071  1.00  0.00     0.002 A 
ATOM     22  C   UNL A   1      29.930  29.572  21.966  1.00  0.00     0.021 A 
ATOM     23  S   UNL A   1      27.622  29.007  22.884  1.00  0.00    -0.146 S 
ATOM     24  C   UNL A   1      28.890  27.896  23.182  1.00  0.00     0.007 A 
ATOM     25  C   UNL A   1      28.545  26.674  23.967  1.00  0.00     0.057 C 
ENDBRANCH  17  19
ENDBRANCH  14  17
ENDBRANCH   8  13
ENDBRANCH   4   7
ENDBRANCH   2   3
ENDBRANCH   1   2
BRANCH   1  26
ATOM     26  C   UNL A   1      38.106  23.954  26.572  1.00  0.00     0.118 C 
BRANCH  26  27
ATOM     27  N   UNL A   1      39.511  23.825  26.210  1.00  0.00    -0.352 N 
ATOM     28  C   UNL A   1      40.600  24.585  26.568  1.00  0.00     0.251 C 
ATOM     29  H   UNL A   1      39.713  23.071  25.611  1.00  0.00     0.163 HD
ATOM     30  O   UNL A   1      41.695  24.331  26.071  1.00  0.00    -0.269 OA
BRANCH  28  31
ATOM     31  C   UNL A   1      40.464  25.721  27.509  1.00  0.00     0.039 A 
ATOM     32  C   UNL A   1      39.573  25.602  28.581  1.00  0.00     0.014 A 
ATOM     33  C   UNL A   1      41.193  26.901  27.342  1.00  0.00     0.014 A 
ATOM     34  C   UNL A   1      39.483  26.622  29.535  1.00  0.00     0.010 A 
ATOM     35  C   UNL A   1      41.151  27.888  28.326  1.00  0.00     0.010 A 
ATOM     36  C   UNL A   1      40.308  27.753  29.441  1.00  0.00    -0.014 A 
BRANCH  36  37
ATOM     37  C   UNL A   1      40.331  28.799  30.499  1.00  0.00     0.031 A 
ATOM     38  C   UNL A   1      41.253  28.659  31.679  1.00  0.00     0.074 A 
ATOM     39  C   UNL A   1      39.450  29.818  30.452  1.00  0.00     0.049 A 
ATOM     40  N   UNL A   1      41.297  29.361  32.781  1.00  0.00    -0.248 NA
ATOM     41  C   UNL A   1      42.235  27.565  31.623  1.00  0.00     0.031 C 
ATOM     42  C   UNL A   1      38.483  30.055  29.378  1.00  0.00     0.029 A 
ATOM     43  N   UNL A   1      39.206  30.835  31.344  1.00  0.00    -0.354 N 
ATOM     44  C   UNL A   1      42.290  28.780  33.562  1.00  0.00     0.074 A 
ATOM     45  C   UNL A   1      42.799  27.647  32.820  1.00  0.00     0.031 C 
ATOM     46  C   UNL A   1      37.756  31.146  29.671  1.00  0.00     0.029 A 
ATOM     47  C   UNL A   1      38.169  31.660  30.972  1.00  0.00     0.049 A 
ATOM     48  H   UNL A   1      39.724  30.961  32.170  1.00  0.00     0.167 HD
ATOM     49  C   UNL A   1      42.744  29.165  34.779  1.00  0.00     0.037 A 
ATOM     50  C   UNL A   1      37.599  32.698  31.615  1.00  0.00     0.037 A 
ATOM     51  C   UNL A   1      42.258  30.312  35.499  1.00  0.00     0.049 A 
ATOM     52  C   UNL A   1      38.119  33.106  32.967  1.00  0.00     0.074 A 
ATOM     53  C   UNL A   1      42.692  30.811  36.715  1.00  0.00     0.029 A 
ATOM     54  N   UNL A   1      41.234  31.144  35.069  1.00  0.00    -0.354 N 
ATOM     55  N   UNL A   1      39.083  32.566  33.675  1.00  0.00    -0.248 NA
ATOM     56  C   UNL A   1      37.475  34.260  33.610  1.00  0.00     0.031 C 
ATOM     57  C   UNL A   1      41.909  31.924  37.037  1.00  0.00     0.029 A 
ATOM     58  C   UNL A   1      41.016  32.144  36.001  1.00  0.00     0.049 A 
ATOM     59  H   UNL A   1      40.738  31.038  34.226  1.00  0.00     0.167 HD
ATOM     60  C   UNL A   1      39.183  33.334  34.829  1.00  0.00     0.074 A 
ATOM     61  C   UNL A   1      38.182  34.376  34.727  1.00  0.00     0.031 C 
ATOM     62  C   UNL A   1      40.030  33.189  35.876  1.00  0.00     0.037 A 
BRANCH  49  63
ATOM     63  C   UNL A   1      43.824  28.333  35.413  1.00  0.00     0.058 A 
ATOM     64  C   UNL A   1      45.185  28.589  35.177  1.00  0.00     0.135 A 
ATOM     65  C   UNL A   1      43.498  27.288  36.293  1.00  0.00     0.135 A 
ATOM     66  F   UNL A   1      45.551  29.567  34.334  1.00  0.00    -0.206 F 
ATOM     67  C   UNL A   1      46.181  27.819  35.765  1.00  0.00     0.059 A 
ATOM     68  C   UNL A   1      44.479  26.521  36.913  1.00  0.00     0.059 A 
ATOM     69  F   UNL A   1      42.212  27.002  36.555  1.00  0.00    -0.206 F 
ATOM     70  C   UNL A   1      45.819  26.784  36.629  1.00  0.00     0.060 A 
BRANCH  70  71
ATOM     71  S   UNL A   1      47.124  25.791  37.382  1.00  0.00     0.124 S 
ATOM     72  O   UNL A   1      48.209  25.963  36.420  1.00  0.00    -0.237 OA
ATOM     73  O   UNL A   1      47.312  26.445  38.673  1.00  0.00    -0.237 OA
ATOM     74  O   UNL A   1      46.543  24.453  37.439  1.00  0.00    -0.744 OA
ENDBRANCH  70  71
ENDBRANCH  49  63
BRANCH  50  75
ATOM     75  C   UNL A   1      36.473  33.433  30.983  1.00  0.00     0.058 A 
ATOM     76  C   UNL A   1      36.689  34.258  29.869  1.00  0.00     0.135 A 
ATOM     77  C   UNL A   1      35.160  33.316  31.465  1.00  0.00     0.135 A 
ATOM     78  F   UNL A   1      37.927  34.407  29.376  1.00  0.00    -0.206 F 
ATOM     79  C   UNL A   1      35.646  34.950  29.263  1.00  0.00     0.059 A 
ATOM     80  C   UNL A   1      34.098  33.981  30.862  1.00  0.00     0.059 A 
ATOM     81  F   UNL A   1      34.899  32.526  32.518  1.00  0.00    -0.206 F 
ATOM     82  C   UNL A   1      34.352  34.804  29.766  1.00  0.00     0.060 A 
BRANCH  82  83
ATOM     83  S   UNL A   1      32.997  35.664  28.938  1.00  0.00     0.124 S 
ATOM     84  O   UNL A   1      32.234  36.169  30.073  1.00  0.00    -0.237 OA
ATOM     85  O   UNL A   1      33.705  36.665  28.147  1.00  0.00    -0.237 OA
ATOM     86  O   UNL A   1      32.354  34.606  28.163  1.00  0.00    -0.744 OA
ENDBRANCH  82  83
ENDBRANCH  50  75
BRANCH  62  87
ATOM     87  C   UNL A   1      39.957  34.205  36.981  1.00  0.00     0.058 A 
ATOM     88  C   UNL A   1      40.670  35.412  36.923  1.00  0.00     0.135 A 
ATOM     89  C   UNL A   1      39.092  34.004  38.070  1.00  0.00     0.135 A 
ATOM     90  F   UNL A   1      41.515  35.649  35.907  1.00  0.00    -0.206 F 
ATOM     91  C   UNL A   1      40.532  36.383  37.909  1.00  0.00     0.059 A 
ATOM     92  C   UNL A   1      38.923  34.970  39.055  1.00  0.00     0.059 A 
ATOM     93  F   UNL A   1      38.383  32.868  38.167  1.00  0.00    -0.206 F 
ATOM     94  C   UNL A   1      39.650  36.157  38.968  1.00  0.00     0.060 A 
BRANCH  94  95
ATOM     95  S   UNL A   1      39.428  37.454  40.205  1.00  0.00     0.124 S 
ATOM     96  O   UNL A   1      38.508  38.357  39.523  1.00  0.00    -0.237 OA
ATOM     97  O   UNL A   1      38.872  36.716  41.335  1.00  0.00    -0.237 OA
ATOM     98  O   UNL A   1      40.780  37.966  40.405  1.00  0.00    -0.744 OA
ENDBRANCH  94  95
ENDBRANCH  62  87
ENDBRANCH  36  37
ENDBRANCH  28  31
ENDBRANCH  26  27
ENDBRANCH   1  26
TORSDOF 16
ENDMDL
MODEL 2
REMARK VINA RESULT:     -12.7      6.738     12.132
REMARK SMILES Cc1cc([C@H](C)NC(=O)N2CC[C@H](C(=O)NCCCNC(=O)c3ccc(-c4c5nc(c(-c6c(F)cc(S(=O)(=O)[O-])cc6F)c6ccc([nH]6)c(-c6c(F)cc(S(=O)(=O)[O-])cc6F)c6nc(c(-c7c(F)cc(S(=O)(=O)[O-])cc7F)c7ccc4[nH]7)C=C6)C=C5)cc3)[C@@H]2C)c(C)s1
REMARK SMILES IDX 18 1 17 2 16 3 14 4 15 5 13 7 10 8 11 9 89 10 12 11 90 12
REMARK SMILES IDX 8 13 7 14 9 16 5 17 6 18 4 19 1 20 2 21 3 22 93 23 91 24
REMARK SMILES IDX 92 25 19 26 20 27 21 28 22 30 23 31 24 32 88 33 25 34 87 35
REMARK SMILES IDX 26 36 27 37 28 38 81 39 29 40 86 41 80 42 82 43 30 44 85 45
REMARK SMILES IDX 79 46 78 47 31 49 65 50 44 51 64 52 45 53 48 54 63 55 83 56
REMARK SMILES IDX 46 57 47 58 62 60 84 61 49 62 32 63 33 64 42 65 34 66 35 67
REMARK SMILES IDX 41 68 43 69 36 70 37 71 38 72 39 73 40 74 66 75 67 76 76 77
REMARK SMILES IDX 68 78 69 79 75 80 77 81 70 82 71 83 72 84 73 85 74 86 50 87
REMARK SMILES IDX 51 88 60 89 52 90 53 91 59 92 61 93 54 94 55 95 56 96 57 97
REMARK SMILES IDX 58 98
REMARK H PARENT 16 6 7 15 20 29 82 48 48 59
REMARK Flexibility Score: inf
ROOT
ATOM      1  C   UNL A   1      33.508  28.741  27.047  1.00  0.00     0.042 C 
ENDROOT
BRANCH   1   2
ATOM      2  C   UNL A   1      33.005  28.897  25.616  1.00  0.00     0.117 C 
BRANCH   2   3
ATOM      3  N   UNL A   1      33.424  27.831  24.720  1.00  0.00    -0.356 N 
ATOM      4  C   UNL A   1      32.716  26.790  24.197  1.00  0.00     0.225 C 
ATOM      5  O   UNL A   1      33.165  26.239  23.191  1.00  0.00    -0.275 OA
ATOM      6  H   UNL A   1      34.370  27.868  24.447  1.00  0.00     0.163 HD
BRANCH   4   7
ATOM      7  C   UNL A   1      31.435  26.317  24.864  1.00  0.00     0.102 C 
ATOM      8  N   UNL A   1      30.902  24.136  25.708  1.00  0.00    -0.321 N 
ATOM      9  C   UNL A   1      30.718  24.082  24.274  1.00  0.00     0.122 C 
ATOM     10  C   UNL A   1      31.651  25.348  26.055  1.00  0.00     0.096 C 
ATOM     11  C   UNL A   1      30.552  25.537  23.877  1.00  0.00     0.037 C 
ATOM     12  C   UNL A   1      33.104  25.012  26.392  1.00  0.00     0.032 C 
BRANCH   8  13
ATOM     13  C   UNL A   1      30.736  23.011  26.468  1.00  0.00     0.318 C 
ATOM     14  N   UNL A   1      31.200  21.819  26.012  1.00  0.00    -0.331 N 
ATOM     15  H   UNL A   1      30.570  21.062  26.023  1.00  0.00     0.165 HD
ATOM     16  O   UNL A   1      30.167  23.033  27.560  1.00  0.00    -0.249 OA
BRANCH  14  17
ATOM     17  C   UNL A   1      32.541  21.555  25.509  1.00  0.00     0.112 C 
ATOM     18  C   UNL A   1      33.547  21.591  26.668  1.00  0.00     0.036 C 
BRANCH  17  19
ATOM     19  C   UNL A   1      32.520  20.232  24.758  1.00  0.00    -0.012 A 
ATOM     20  C   UNL A   1      33.009  16.453  24.682  1.00  0.00     0.056 C 
ATOM     21  C   UNL A   1      32.741  17.900  24.454  1.00  0.00     0.002 A 
ATOM     22  C   UNL A   1      32.743  18.938  25.360  1.00  0.00     0.021 A 
ATOM     23  S   UNL A   1      32.382  18.444  22.886  1.00  0.00    -0.146 S 
ATOM     24  C   UNL A   1      32.318  20.081  23.388  1.00  0.00     0.007 A 
ATOM     25  C   UNL A   1      32.059  21.101  22.330  1.00  0.00     0.057 C 
ENDBRANCH  17  19
ENDBRANCH  14  17
ENDBRANCH   8  13
ENDBRANCH   4   7
ENDBRANCH   2   3
ENDBRANCH   1   2
BRANCH   1  26
ATOM     26  C   UNL A   1      34.903  29.301  27.325  1.00  0.00     0.118 C 
BRANCH  26  27
ATOM     27  N   UNL A   1      34.960  30.224  28.450  1.00  0.00    -0.352 N 
ATOM     28  C   UNL A   1      35.998  30.542  29.295  1.00  0.00     0.251 C 
ATOM     29  H   UNL A   1      34.117  30.697  28.637  1.00  0.00     0.163 HD
ATOM     30  O   UNL A   1      35.790  31.302  30.238  1.00  0.00    -0.269 OA
BRANCH  28  31
ATOM     31  C   UNL A   1      37.344  29.953  29.107  1.00  0.00     0.039 A 
ATOM     32  C   UNL A   1      37.871  29.882  27.812  1.00  0.00     0.014 A 
ATOM     33  C   UNL A   1      38.086  29.462  30.184  1.00  0.00     0.014 A 
ATOM     34  C   UNL A   1      39.173  29.410  27.610  1.00  0.00     0.010 A 
ATOM     35  C   UNL A   1      39.405  29.054  29.990  1.00  0.00     0.010 A 
ATOM     36  C   UNL A   1      39.968  29.037  28.704  1.00  0.00    -0.014 A 
BRANCH  36  37
ATOM     37  C   UNL A   1      41.395  28.649  28.542  1.00  0.00     0.031 A 
ATOM     38  C   UNL A   1      42.473  29.696  28.591  1.00  0.00     0.074 A 
ATOM     39  C   UNL A   1      41.712  27.372  28.246  1.00  0.00     0.049 A 
ATOM     40  N   UNL A   1      43.744  29.589  28.300  1.00  0.00    -0.248 NA
ATOM     41  C   UNL A   1      42.060  31.050  28.992  1.00  0.00     0.031 C 
ATOM     42  C   UNL A   1      40.760  26.264  28.141  1.00  0.00     0.029 A 
ATOM     43  N   UNL A   1      42.924  26.793  27.953  1.00  0.00    -0.354 N 
ATOM     44  C   UNL A   1      44.278  30.863  28.456  1.00  0.00     0.074 A 
ATOM     45  C   UNL A   1      43.185  31.733  28.835  1.00  0.00     0.031 C 
ATOM     46  C   UNL A   1      41.422  25.142  27.812  1.00  0.00     0.029 A 
ATOM     47  C   UNL A   1      42.836  25.457  27.637  1.00  0.00     0.049 A 
ATOM     48  H   UNL A   1      43.773  27.288  27.968  1.00  0.00     0.167 HD
ATOM     49  C   UNL A   1      45.562  31.267  28.310  1.00  0.00     0.037 A 
ATOM     50  C   UNL A   1      43.781  24.587  27.228  1.00  0.00     0.037 A 
ATOM     51  C   UNL A   1      46.652  30.392  27.966  1.00  0.00     0.049 A 
ATOM     52  C   UNL A   1      45.201  25.059  27.071  1.00  0.00     0.074 A 
ATOM     53  C   UNL A   1      47.996  30.700  27.844  1.00  0.00     0.029 A 
ATOM     54  N   UNL A   1      46.526  29.038  27.692  1.00  0.00    -0.354 N 
ATOM     55  N   UNL A   1      45.694  26.260  27.257  1.00  0.00    -0.248 NA
ATOM     56  C   UNL A   1      46.194  24.061  26.647  1.00  0.00     0.031 C 
ATOM     57  C   UNL A   1      48.679  29.539  27.466  1.00  0.00     0.029 A 
ATOM     58  C   UNL A   1      47.766  28.500  27.392  1.00  0.00     0.049 A 
ATOM     59  H   UNL A   1      45.681  28.535  27.709  1.00  0.00     0.167 HD
ATOM     60  C   UNL A   1      47.058  26.155  27.006  1.00  0.00     0.074 A 
ATOM     61  C   UNL A   1      47.313  24.774  26.653  1.00  0.00     0.031 C 
ATOM     62  C   UNL A   1      48.010  27.117  27.065  1.00  0.00     0.037 A 
BRANCH  49  63
ATOM     63  C   UNL A   1      45.861  32.725  28.520  1.00  0.00     0.058 A 
ATOM     64  C   UNL A   1      46.225  33.228  29.781  1.00  0.00     0.135 A 
ATOM     65  C   UNL A   1      45.817  33.627  27.445  1.00  0.00     0.135 A 
ATOM     66  F   UNL A   1      46.269  32.411  30.846  1.00  0.00    -0.206 F 
ATOM     67  C   UNL A   1      46.501  34.576  29.973  1.00  0.00     0.059 A 
ATOM     68  C   UNL A   1      46.115  34.975  27.608  1.00  0.00     0.059 A 
ATOM     69  F   UNL A   1      45.477  33.198  26.218  1.00  0.00    -0.206 F 
ATOM     70  C   UNL A   1      46.440  35.444  28.881  1.00  0.00     0.060 A 
BRANCH  70  71
ATOM     71  S   UNL A   1      46.799  37.193  29.147  1.00  0.00     0.124 S 
ATOM     72  O   UNL A   1      47.938  37.393  28.255  1.00  0.00    -0.237 OA
ATOM     73  O   UNL A   1      45.554  37.835  28.737  1.00  0.00    -0.237 OA
ATOM     74  O   UNL A   1      47.098  37.265  30.573  1.00  0.00    -0.744 OA
ENDBRANCH  70  71
ENDBRANCH  49  63
BRANCH  50  75
ATOM     75  C   UNL A   1      43.416  23.174  26.946  1.00  0.00     0.058 A 
ATOM     76  C   UNL A   1      43.376  22.691  25.630  1.00  0.00     0.135 A 
ATOM     77  C   UNL A   1      43.116  22.276  27.983  1.00  0.00     0.135 A 
ATOM     78  F   UNL A   1      43.648  23.514  24.606  1.00  0.00    -0.206 F 
ATOM     79  C   UNL A   1      43.040  21.371  25.349  1.00  0.00     0.059 A 
ATOM     80  C   UNL A   1      42.798  20.946  27.728  1.00  0.00     0.059 A 
ATOM     81  F   UNL A   1      43.157  22.686  29.260  1.00  0.00    -0.206 F 
ATOM     82  C   UNL A   1      42.754  20.505  26.406  1.00  0.00     0.060 A 
BRANCH  82  83
ATOM     83  S   UNL A   1      42.372  18.779  26.033  1.00  0.00     0.124 S 
ATOM     84  O   UNL A   1      40.962  18.862  25.674  1.00  0.00    -0.237 OA
ATOM     85  O   UNL A   1      43.295  18.488  24.941  1.00  0.00    -0.237 OA
ATOM     86  O   UNL A   1      42.667  18.094  27.289  1.00  0.00    -0.744 OA
ENDBRANCH  82  83
ENDBRANCH  50  75
BRANCH  62  87
ATOM     87  C   UNL A   1      49.431  26.711  26.793  1.00  0.00     0.058 A 
ATOM     88  C   UNL A   1      50.297  26.319  27.824  1.00  0.00     0.135 A 
ATOM     89  C   UNL A   1      49.902  26.631  25.472  1.00  0.00     0.135 A 
ATOM     90  F   UNL A   1      49.897  26.385  29.104  1.00  0.00    -0.206 F 
ATOM     91  C   UNL A   1      51.584  25.865  27.556  1.00  0.00     0.059 A 
ATOM     92  C   UNL A   1      51.177  26.160  25.180  1.00  0.00     0.059 A 
ATOM     93  F   UNL A   1      49.109  26.989  24.449  1.00  0.00    -0.206 F 
ATOM     94  C   UNL A   1      52.014  25.782  26.230  1.00  0.00     0.060 A 
BRANCH  94  95
ATOM     95  S   UNL A   1      53.662  25.127  25.890  1.00  0.00     0.124 S 
ATOM     96  O   UNL A   1      54.134  26.040  24.856  1.00  0.00    -0.237 OA
ATOM     97  O   UNL A   1      54.319  25.244  27.189  1.00  0.00    -0.237 OA
ATOM     98  O   UNL A   1      53.400  23.759  25.450  1.00  0.00    -0.744 OA
ENDBRANCH  94  95
ENDBRANCH  62  87
ENDBRANCH  36  37
ENDBRANCH  28  31
ENDBRANCH  26  27
ENDBRANCH   1  26
TORSDOF 16
ENDMDL
MODEL 3
REMARK VINA RESULT:     -12.7      5.293     10.853
REMARK SMILES Cc1cc([C@H](C)NC(=O)N2CC[C@H](C(=O)NCCCNC(=O)c3ccc(-c4c5nc(c(-c6c(F)cc(S(=O)(=O)[O-])cc6F)c6ccc([nH]6)c(-c6c(F)cc(S(=O)(=O)[O-])cc6F)c6nc(c(-c7c(F)cc(S(=O)(=O)[O-])cc7F)c7ccc4[nH]7)C=C6)C=C5)cc3)[C@@H]2C)c(C)s1
REMARK SMILES IDX 18 1 17 2 16 3 14 4 15 5 13 7 10 8 11 9 89 10 12 11 90 12
REMARK SMILES IDX 8 13 7 14 9 16 5 17 6 18 4 19 1 20 2 21 3 22 93 23 91 24
REMARK SMILES IDX 92 25 19 26 20 27 21 28 22 30 23 31 24 32 88 33 25 34 87 35
REMARK SMILES IDX 26 36 27 37 28 38 81 39 29 40 86 41 80 42 82 43 30 44 85 45
REMARK SMILES IDX 79 46 78 47 31 49 65 50 44 51 64 52 45 53 48 54 63 55 83 56
REMARK SMILES IDX 46 57 47 58 62 60 84 61 49 62 32 63 33 64 42 65 34 66 35 67
REMARK SMILES IDX 41 68 43 69 36 70 37 71 38 72 39 73 40 74 66 75 67 76 76 77
REMARK SMILES IDX 68 78 69 79 75 80 77 81 70 82 71 83 72 84 73 85 74 86 50 87
REMARK SMILES IDX 51 88 60 89 52 90 53 91 59 92 61 93 54 94 55 95 56 96 57 97
REMARK SMILES IDX 58 98
REMARK H PARENT 16 6 7 15 20 29 82 48 48 59
REMARK Flexibility Score: inf
ROOT
ATOM      1  C   UNL A   1      32.529  28.738  25.956  1.00  0.00     0.042 C 
ENDROOT
BRANCH   1   2
ATOM      2  C   UNL A   1      32.835  28.836  24.465  1.00  0.00     0.117 C 
BRANCH   2   3
ATOM      3  N   UNL A   1      33.373  27.615  23.887  1.00  0.00    -0.356 N 
ATOM      4  C   UNL A   1      32.765  26.425  23.618  1.00  0.00     0.225 C 
ATOM      5  O   UNL A   1      33.307  25.676  22.804  1.00  0.00    -0.275 OA
ATOM      6  H   UNL A   1      34.329  27.655  23.653  1.00  0.00     0.163 HD
BRANCH   4   7
ATOM      7  C   UNL A   1      31.479  26.039  24.330  1.00  0.00     0.102 C 
ATOM      8  N   UNL A   1      30.946  23.985  25.448  1.00  0.00    -0.321 N 
ATOM      9  C   UNL A   1      30.775  23.742  24.031  1.00  0.00     0.122 C 
ATOM     10  C   UNL A   1      31.687  25.235  25.639  1.00  0.00     0.096 C 
ATOM     11  C   UNL A   1      30.608  25.132  23.446  1.00  0.00     0.037 C 
ATOM     12  C   UNL A   1      33.138  24.952  26.030  1.00  0.00     0.032 C 
BRANCH   8  13
ATOM     13  C   UNL A   1      30.777  22.968  26.347  1.00  0.00     0.318 C 
ATOM     14  N   UNL A   1      31.261  21.732  26.062  1.00  0.00    -0.331 N 
ATOM     15  H   UNL A   1      30.638  20.975  26.162  1.00  0.00     0.165 HD
ATOM     16  O   UNL A   1      30.186  23.127  27.416  1.00  0.00    -0.249 OA
BRANCH  14  17
ATOM     17  C   UNL A   1      32.614  21.421  25.622  1.00  0.00     0.112 C 
ATOM     18  C   UNL A   1      33.570  21.451  26.823  1.00  0.00     0.036 C 
BRANCH  17  19
ATOM     19  C   UNL A   1      32.587  20.084  24.896  1.00  0.00    -0.012 A 
ATOM     20  C   UNL A   1      33.076  16.304  24.888  1.00  0.00     0.056 C 
ATOM     21  C   UNL A   1      32.806  17.746  24.634  1.00  0.00     0.002 A 
ATOM     22  C   UNL A   1      32.815  18.801  25.520  1.00  0.00     0.021 A 
ATOM     23  S   UNL A   1      32.434  18.261  23.060  1.00  0.00    -0.146 S 
ATOM     24  C   UNL A   1      32.374  19.906  23.531  1.00  0.00     0.007 A 
ATOM     25  C   UNL A   1      32.105  20.907  22.457  1.00  0.00     0.057 C 
ENDBRANCH  17  19
ENDBRANCH  14  17
ENDBRANCH   8  13
ENDBRANCH   4   7
ENDBRANCH   2   3
ENDBRANCH   1   2
BRANCH   1  26
ATOM     26  C   UNL A   1      33.712  28.980  26.893  1.00  0.00     0.118 C 
BRANCH  26  27
ATOM     27  N   UNL A   1      33.633  30.227  27.641  1.00  0.00    -0.352 N 
ATOM     28  C   UNL A   1      34.564  30.853  28.437  1.00  0.00     0.251 C 
ATOM     29  H   UNL A   1      32.772  30.698  27.565  1.00  0.00     0.163 HD
ATOM     30  O   UNL A   1      34.244  31.875  29.041  1.00  0.00    -0.269 OA
BRANCH  28  31
ATOM     31  C   UNL A   1      35.926  30.294  28.607  1.00  0.00     0.039 A 
ATOM     32  C   UNL A   1      36.804  30.325  27.517  1.00  0.00     0.014 A 
ATOM     33  C   UNL A   1      36.342  29.733  29.816  1.00  0.00     0.014 A 
ATOM     34  C   UNL A   1      38.123  29.884  27.667  1.00  0.00     0.010 A 
ATOM     35  C   UNL A   1      37.674  29.355  29.983  1.00  0.00     0.010 A 
ATOM     36  C   UNL A   1      38.583  29.440  28.917  1.00  0.00    -0.014 A 
BRANCH  36  37
ATOM     37  C   UNL A   1      40.007  29.080  29.147  1.00  0.00     0.031 A 
ATOM     38  C   UNL A   1      40.982  30.122  29.623  1.00  0.00     0.074 A 
ATOM     39  C   UNL A   1      40.446  27.845  28.829  1.00  0.00     0.049 A 
ATOM     40  N   UNL A   1      42.285  30.054  29.714  1.00  0.00    -0.248 NA
ATOM     41  C   UNL A   1      40.417  31.421  30.021  1.00  0.00     0.031 C 
ATOM     42  C   UNL A   1      39.611  26.750  28.331  1.00  0.00     0.029 A 
ATOM     43  N   UNL A   1      41.712  27.309  28.852  1.00  0.00    -0.354 N 
ATOM     44  C   UNL A   1      42.700  31.307  30.153  1.00  0.00     0.074 A 
ATOM     45  C   UNL A   1      41.512  32.124  30.277  1.00  0.00     0.031 C 
ATOM     46  C   UNL A   1      40.383  25.675  28.100  1.00  0.00     0.029 A 
ATOM     47  C   UNL A   1      41.773  26.015  28.387  1.00  0.00     0.049 A 
ATOM     48  H   UNL A   1      42.499  27.805  29.170  1.00  0.00     0.167 HD
ATOM     49  C   UNL A   1      43.954  31.732  30.438  1.00  0.00     0.037 A 
ATOM     50  C   UNL A   1      42.829  25.202  28.191  1.00  0.00     0.037 A 
ATOM     51  C   UNL A   1      45.130  30.907  30.345  1.00  0.00     0.049 A 
ATOM     52  C   UNL A   1      44.213  25.696  28.513  1.00  0.00     0.074 A 
ATOM     53  C   UNL A   1      46.437  31.234  30.662  1.00  0.00     0.029 A 
ATOM     54  N   UNL A   1      45.142  29.591  29.908  1.00  0.00    -0.354 N 
ATOM     55  N   UNL A   1      44.583  26.873  28.960  1.00  0.00    -0.248 NA
ATOM     56  C   UNL A   1      45.324  24.757  28.303  1.00  0.00     0.031 C 
ATOM     57  C   UNL A   1      47.244  30.126  30.386  1.00  0.00     0.029 A 
ATOM     58  C   UNL A   1      46.435  29.096  29.936  1.00  0.00     0.049 A 
ATOM     59  H   UNL A   1      44.349  29.084  29.621  1.00  0.00     0.167 HD
ATOM     60  C   UNL A   1      45.963  26.804  29.117  1.00  0.00     0.074 A 
ATOM     61  C   UNL A   1      46.364  25.471  28.715  1.00  0.00     0.031 C 
ATOM     62  C   UNL A   1      46.817  27.759  29.556  1.00  0.00     0.037 A 
BRANCH  49  63
ATOM     63  C   UNL A   1      44.121  33.160  30.877  1.00  0.00     0.058 A 
ATOM     64  C   UNL A   1      44.032  33.529  32.230  1.00  0.00     0.135 A 
ATOM     65  C   UNL A   1      44.407  34.167  29.942  1.00  0.00     0.135 A 
ATOM     66  F   UNL A   1      43.748  32.608  33.164  1.00  0.00    -0.206 F 
ATOM     67  C   UNL A   1      44.188  34.850  32.634  1.00  0.00     0.059 A 
ATOM     68  C   UNL A   1      44.592  35.491  30.326  1.00  0.00     0.059 A 
ATOM     69  F   UNL A   1      44.505  33.868  28.636  1.00  0.00    -0.206 F 
ATOM     70  C   UNL A   1      44.464  35.826  31.674  1.00  0.00     0.060 A 
BRANCH  70  71
ATOM     71  S   UNL A   1      44.660  37.537  32.213  1.00  0.00     0.124 S 
ATOM     72  O   UNL A   1      44.448  38.260  30.963  1.00  0.00    -0.237 OA
ATOM     73  O   UNL A   1      43.605  37.675  33.212  1.00  0.00    -0.237 OA
ATOM     74  O   UNL A   1      46.022  37.574  32.736  1.00  0.00    -0.744 OA
ENDBRANCH  70  71
ENDBRANCH  49  63
BRANCH  50  75
ATOM     75  C   UNL A   1      42.617  23.826  27.669  1.00  0.00     0.058 A 
ATOM     76  C   UNL A   1      42.480  22.739  28.544  1.00  0.00     0.135 A 
ATOM     77  C   UNL A   1      42.533  23.572  26.291  1.00  0.00     0.135 A 
ATOM     78  F   UNL A   1      42.560  22.931  29.869  1.00  0.00    -0.206 F 
ATOM     79  C   UNL A   1      42.278  21.446  28.073  1.00  0.00     0.059 A 
ATOM     80  C   UNL A   1      42.310  22.291  25.796  1.00  0.00     0.059 A 
ATOM     81  F   UNL A   1      42.642  24.581  25.413  1.00  0.00    -0.206 F 
ATOM     82  C   UNL A   1      42.193  21.232  26.696  1.00  0.00     0.060 A 
BRANCH  82  83
ATOM     83  S   UNL A   1      41.876  19.558  26.096  1.00  0.00     0.124 S 
ATOM     84  O   UNL A   1      40.454  19.623  25.784  1.00  0.00    -0.237 OA
ATOM     85  O   UNL A   1      42.779  19.464  24.954  1.00  0.00    -0.237 OA
ATOM     86  O   UNL A   1      42.236  18.721  27.238  1.00  0.00    -0.744 OA
ENDBRANCH  82  83
ENDBRANCH  50  75
BRANCH  62  87
ATOM     87  C   UNL A   1      48.270  27.394  29.678  1.00  0.00     0.058 A 
ATOM     88  C   UNL A   1      49.176  27.612  28.630  1.00  0.00     0.135 A 
ATOM     89  C   UNL A   1      48.774  26.901  30.893  1.00  0.00     0.135 A 
ATOM     90  F   UNL A   1      48.742  28.074  27.447  1.00  0.00    -0.206 F 
ATOM     91  C   UNL A   1      50.534  27.350  28.780  1.00  0.00     0.059 A 
ATOM     92  C   UNL A   1      50.131  26.652  31.072  1.00  0.00     0.059 A 
ATOM     93  F   UNL A   1      47.948  26.681  31.928  1.00  0.00    -0.206 F 
ATOM     94  C   UNL A   1      51.004  26.877  30.008  1.00  0.00     0.060 A 
BRANCH  94  95
ATOM     95  S   UNL A   1      52.777  26.605  30.212  1.00  0.00     0.124 S 
ATOM     96  O   UNL A   1      52.798  25.511  31.176  1.00  0.00    -0.237 OA
ATOM     97  O   UNL A   1      53.200  26.265  28.857  1.00  0.00    -0.237 OA
ATOM     98  O   UNL A   1      53.263  27.890  30.708  1.00  0.00    -0.744 OA
ENDBRANCH  94  95
ENDBRANCH  62  87
ENDBRANCH  36  37
ENDBRANCH  28  31
ENDBRANCH  26  27
ENDBRANCH   1  26
TORSDOF 16
ENDMDL
