MODEL 1
REMARK VINA RESULT:     -10.0      0.000      0.000
REMARK SMILES CCCS[C@@H]1CC[C@@]([NH2+]CC)(C(=O)NCCCNC(=O)c2ccc(-c3c4nc(c(-c5c(F)cc(S(=O)(=O)[O-])cc5F)c5ccc([nH]5)c(-c5c(F)cc(S(=O)(=O)[O-])cc5F)c5nc(c(-c6c(F)cc(S(=O)(=O)[O-])cc6F)c6ccc3[nH]6)C=C5)C=C4)cc2)C1
REMARK SMILES IDX 16 1 15 2 14 3 12 4 13 5 8 7 5 8 6 9 87 10 7 11 4 12 3 13
REMARK SMILES IDX 2 14 1 15 9 16 10 19 11 20 17 21 18 22 19 23 20 25 21 26
REMARK SMILES IDX 22 27 86 28 23 29 85 30 24 31 25 32 26 33 79 34 27 35 84 36
REMARK SMILES IDX 78 37 80 38 28 39 83 40 77 41 76 42 29 44 63 45 42 46 62 47
REMARK SMILES IDX 43 48 46 49 61 50 81 51 44 52 45 53 60 55 82 56 47 57 30 58
REMARK SMILES IDX 31 59 40 60 32 61 33 62 39 63 41 64 34 65 35 66 36 67 37 68
REMARK SMILES IDX 38 69 64 70 65 71 74 72 66 73 67 74 73 75 75 76 68 77 69 78
REMARK SMILES IDX 70 79 71 80 72 81 48 82 49 83 58 84 50 85 51 86 57 87 59 88
REMARK SMILES IDX 52 89 53 90 54 91 55 92 56 93
REMARK H PARENT 14 6 9 17 9 18 18 24 80 43 46 54
REMARK Flexibility Score: inf
ROOT
ATOM      1  C   UNL A   1      32.385  27.740  26.483  1.00  0.00     0.042 C 
ENDROOT
BRANCH   1   2
ATOM      2  C   UNL A   1      32.544  26.316  25.968  1.00  0.00     0.118 C 
BRANCH   2   3
ATOM      3  N   UNL A   1      31.838  25.350  26.798  1.00  0.00    -0.351 N 
ATOM      4  C   UNL A   1      31.416  24.083  26.500  1.00  0.00     0.281 C 
ATOM      5  O   UNL A   1      30.824  23.455  27.380  1.00  0.00    -0.268 OA
ATOM      6  H   UNL A   1      31.634  25.655  27.712  1.00  0.00     0.163 HD
BRANCH   4   7
ATOM      7  C   UNL A   1      31.696  23.476  25.094  1.00  0.00     0.176 C 
ATOM      8  C   UNL A   1      34.098  23.135  24.724  1.00  0.00     0.053 C 
ATOM      9  C   UNL A   1      33.496  21.752  24.905  1.00  0.00     0.022 C 
ATOM     10  C   UNL A   1      32.946  24.074  24.424  1.00  0.00     0.093 C 
ATOM     11  C   UNL A   1      32.028  21.970  25.261  1.00  0.00     0.080 C 
BRANCH   8  12
ATOM     12  S   UNL A   1      35.488  23.112  23.521  1.00  0.00    -0.158 SA
BRANCH  12  13
ATOM     13  C   UNL A   1      36.925  22.421  24.434  1.00  0.00     0.069 C 
BRANCH  13  14
ATOM     14  C   UNL A   1      37.370  23.156  25.702  1.00  0.00     0.007 C 
ATOM     15  C   UNL A   1      38.759  22.814  26.214  1.00  0.00     0.005 C 
ENDBRANCH  13  14
ENDBRANCH  12  13
ENDBRANCH   8  12
BRANCH   7  16
ATOM     16  N   UNL A   1      30.506  23.652  24.213  1.00  0.00    -0.334 N 
ATOM     17  H   UNL A   1      29.687  23.725  24.817  1.00  0.00     0.347 HD
ATOM     18  H   UNL A   1      30.518  22.843  23.593  1.00  0.00     0.347 HD
BRANCH  16  19
ATOM     19  C   UNL A   1      30.497  24.810  23.319  1.00  0.00     0.257 C 
ATOM     20  C   UNL A   1      29.728  26.022  23.826  1.00  0.00     0.071 C 
ENDBRANCH  16  19
ENDBRANCH   7  16
ENDBRANCH   4   7
ENDBRANCH   2   3
ENDBRANCH   1   2
BRANCH   1  21
ATOM     21  C   UNL A   1      33.586  28.250  27.264  1.00  0.00     0.118 C 
BRANCH  21  22
ATOM     22  N   UNL A   1      33.495  29.672  27.564  1.00  0.00    -0.352 N 
ATOM     23  C   UNL A   1      34.420  30.505  28.137  1.00  0.00     0.251 C 
ATOM     24  H   UNL A   1      32.641  30.097  27.320  1.00  0.00     0.163 HD
ATOM     25  O   UNL A   1      34.082  31.637  28.482  1.00  0.00    -0.269 OA
BRANCH  23  26
ATOM     26  C   UNL A   1      35.806  30.041  28.364  1.00  0.00     0.039 A 
ATOM     27  C   UNL A   1      36.708  30.077  27.300  1.00  0.00     0.014 A 
ATOM     28  C   UNL A   1      36.217  29.569  29.615  1.00  0.00     0.014 A 
ATOM     29  C   UNL A   1      38.036  29.698  27.508  1.00  0.00     0.010 A 
ATOM     30  C   UNL A   1      37.559  29.280  29.842  1.00  0.00     0.010 A 
ATOM     31  C   UNL A   1      38.483  29.334  28.789  1.00  0.00    -0.014 A 
BRANCH  31  32
ATOM     32  C   UNL A   1      39.914  29.021  29.037  1.00  0.00     0.031 A 
ATOM     33  C   UNL A   1      40.833  30.056  29.628  1.00  0.00     0.074 A 
ATOM     34  C   UNL A   1      40.396  27.811  28.688  1.00  0.00     0.049 A 
ATOM     35  N   UNL A   1      42.109  29.964  29.905  1.00  0.00    -0.248 NA
ATOM     36  C   UNL A   1      40.251  31.375  29.924  1.00  0.00     0.031 C 
ATOM     37  C   UNL A   1      39.617  26.744  28.051  1.00  0.00     0.029 A 
ATOM     38  N   UNL A   1      41.651  27.271  28.816  1.00  0.00    -0.354 N 
ATOM     39  C   UNL A   1      42.482  31.208  30.400  1.00  0.00     0.074 A 
ATOM     40  C   UNL A   1      41.314  32.058  30.327  1.00  0.00     0.031 C 
ATOM     41  C   UNL A   1      40.402  25.670  27.878  1.00  0.00     0.029 A 
ATOM     42  C   UNL A   1      41.746  25.981  28.352  1.00  0.00     0.049 A 
ATOM     43  H   UNL A   1      42.410  27.762  29.204  1.00  0.00     0.167 HD
ATOM     44  C   UNL A   1      43.681  31.600  30.894  1.00  0.00     0.037 A 
ATOM     45  C   UNL A   1      42.800  25.141  28.309  1.00  0.00     0.037 A 
ATOM     46  C   UNL A   1      44.837  30.744  30.976  1.00  0.00     0.049 A 
ATOM     47  C   UNL A   1      44.122  25.600  28.861  1.00  0.00     0.074 A 
ATOM     48  C   UNL A   1      46.081  31.026  31.513  1.00  0.00     0.029 A 
ATOM     49  N   UNL A   1      44.894  29.441  30.501  1.00  0.00    -0.354 N 
ATOM     50  N   UNL A   1      44.436  26.756  29.396  1.00  0.00    -0.248 NA
ATOM     51  C   UNL A   1      45.230  24.638  28.812  1.00  0.00     0.031 C 
ATOM     52  C   UNL A   1      46.907  29.915  31.313  1.00  0.00     0.029 A 
ATOM     53  C   UNL A   1      46.161  28.916  30.707  1.00  0.00     0.049 A 
ATOM     54  H   UNL A   1      44.146  28.960  30.079  1.00  0.00     0.167 HD
ATOM     55  C   UNL A   1      45.772  26.652  29.767  1.00  0.00     0.074 A 
ATOM     56  C   UNL A   1      46.197  25.313  29.416  1.00  0.00     0.031 C 
ATOM     57  C   UNL A   1      46.574  27.582  30.346  1.00  0.00     0.037 A 
BRANCH  44  58
ATOM     58  C   UNL A   1      43.805  33.019  31.387  1.00  0.00     0.058 A 
ATOM     59  C   UNL A   1      44.209  34.064  30.539  1.00  0.00     0.135 A 
ATOM     60  C   UNL A   1      43.479  33.345  32.713  1.00  0.00     0.135 A 
ATOM     61  F   UNL A   1      44.547  33.809  29.265  1.00  0.00    -0.206 F 
ATOM     62  C   UNL A   1      44.317  35.373  30.997  1.00  0.00     0.059 A 
ATOM     63  C   UNL A   1      43.549  34.654  33.183  1.00  0.00     0.059 A 
ATOM     64  F   UNL A   1      43.086  32.388  33.569  1.00  0.00    -0.206 F 
ATOM     65  C   UNL A   1      43.983  35.659  32.321  1.00  0.00     0.060 A 
BRANCH  65  66
ATOM     66  S   UNL A   1      44.121  37.365  32.894  1.00  0.00     0.124 S 
ATOM     67  O   UNL A   1      43.947  38.106  31.648  1.00  0.00    -0.237 OA
ATOM     68  O   UNL A   1      43.023  37.463  33.849  1.00  0.00    -0.237 OA
ATOM     69  O   UNL A   1      45.460  37.422  33.474  1.00  0.00    -0.744 OA
ENDBRANCH  65  66
ENDBRANCH  44  58
BRANCH  45  70
ATOM     70  C   UNL A   1      42.638  23.774  27.744  1.00  0.00     0.058 A 
ATOM     71  C   UNL A   1      42.439  22.665  28.579  1.00  0.00     0.135 A 
ATOM     72  C   UNL A   1      42.663  23.552  26.359  1.00  0.00     0.135 A 
ATOM     73  F   UNL A   1      42.413  22.823  29.911  1.00  0.00    -0.206 F 
ATOM     74  C   UNL A   1      42.288  21.381  28.063  1.00  0.00     0.059 A 
ATOM     75  C   UNL A   1      42.485  22.282  25.818  1.00  0.00     0.059 A 
ATOM     76  F   UNL A   1      42.832  24.581  25.515  1.00  0.00    -0.206 F 
ATOM     77  C   UNL A   1      42.309  21.201  26.680  1.00  0.00     0.060 A 
BRANCH  77  78
ATOM     78  S   UNL A   1      42.059  19.539  26.019  1.00  0.00     0.124 S 
ATOM     79  O   UNL A   1      42.563  18.711  27.109  1.00  0.00    -0.237 OA
ATOM     80  O   UNL A   1      40.616  19.508  25.807  1.00  0.00    -0.237 OA
ATOM     81  O   UNL A   1      42.863  19.537  24.801  1.00  0.00    -0.744 OA
ENDBRANCH  77  78
ENDBRANCH  45  70
BRANCH  57  82
ATOM     82  C   UNL A   1      47.988  27.172  30.657  1.00  0.00     0.058 A 
ATOM     83  C   UNL A   1      48.308  26.420  31.799  1.00  0.00     0.135 A 
ATOM     84  C   UNL A   1      49.036  27.516  29.787  1.00  0.00     0.135 A 
ATOM     85  F   UNL A   1      47.345  26.067  32.667  1.00  0.00    -0.206 F 
ATOM     86  C   UNL A   1      49.619  26.056  32.088  1.00  0.00     0.059 A 
ATOM     87  C   UNL A   1      50.351  27.134  30.039  1.00  0.00     0.059 A 
ATOM     88  F   UNL A   1      48.788  28.224  28.674  1.00  0.00    -0.206 F 
ATOM     89  C   UNL A   1      50.635  26.420  31.202  1.00  0.00     0.060 A 
BRANCH  89  90
ATOM     90  S   UNL A   1      52.330  25.935  31.584  1.00  0.00     0.124 S 
ATOM     91  O   UNL A   1      52.959  26.002  30.269  1.00  0.00    -0.237 OA
ATOM     92  O   UNL A   1      52.741  26.962  32.537  1.00  0.00    -0.237 OA
ATOM     93  O   UNL A   1      52.183  24.594  32.142  1.00  0.00    -0.744 OA
ENDBRANCH  89  90
ENDBRANCH  57  82
ENDBRANCH  31  32
ENDBRANCH  23  26
ENDBRANCH  21  22
ENDBRANCH   1  21
TORSDOF 18
ENDMDL
MODEL 2
REMARK VINA RESULT:      -9.7      1.321      2.245
REMARK SMILES CCCS[C@@H]1CC[C@@]([NH2+]CC)(C(=O)NCCCNC(=O)c2ccc(-c3c4nc(c(-c5c(F)cc(S(=O)(=O)[O-])cc5F)c5ccc([nH]5)c(-c5c(F)cc(S(=O)(=O)[O-])cc5F)c5nc(c(-c6c(F)cc(S(=O)(=O)[O-])cc6F)c6ccc3[nH]6)C=C5)C=C4)cc2)C1
REMARK SMILES IDX 16 1 15 2 14 3 12 4 13 5 8 7 5 8 6 9 87 10 7 11 4 12 3 13
REMARK SMILES IDX 2 14 1 15 9 16 10 19 11 20 17 21 18 22 19 23 20 25 21 26
REMARK SMILES IDX 22 27 86 28 23 29 85 30 24 31 25 32 26 33 79 34 27 35 84 36
REMARK SMILES IDX 78 37 80 38 28 39 83 40 77 41 76 42 29 44 63 45 42 46 62 47
REMARK SMILES IDX 43 48 46 49 61 50 81 51 44 52 45 53 60 55 82 56 47 57 30 58
REMARK SMILES IDX 31 59 40 60 32 61 33 62 39 63 41 64 34 65 35 66 36 67 37 68
REMARK SMILES IDX 38 69 64 70 65 71 74 72 66 73 67 74 73 75 75 76 68 77 69 78
REMARK SMILES IDX 70 79 71 80 72 81 48 82 49 83 58 84 50 85 51 86 57 87 59 88
REMARK SMILES IDX 52 89 53 90 54 91 55 92 56 93
REMARK H PARENT 14 6 9 17 9 18 18 24 80 43 46 54
REMARK Flexibility Score: inf
ROOT
ATOM      1  C   UNL A   1      33.638  28.303  25.126  1.00  0.00     0.042 C 
ENDROOT
BRANCH   1   2
ATOM      2  C   UNL A   1      32.744  27.164  24.654  1.00  0.00     0.118 C 
BRANCH   2   3
ATOM      3  N   UNL A   1      32.941  26.861  23.243  1.00  0.00    -0.351 N 
ATOM      4  C   UNL A   1      33.447  25.735  22.652  1.00  0.00     0.281 C 
ATOM      5  O   UNL A   1      33.523  25.719  21.421  1.00  0.00    -0.268 OA
ATOM      6  H   UNL A   1      32.669  27.574  22.621  1.00  0.00     0.163 HD
BRANCH   4   7
ATOM      7  C   UNL A   1      33.895  24.527  23.525  1.00  0.00     0.176 C 
ATOM      8  C   UNL A   1      31.998  23.074  24.089  1.00  0.00     0.053 C 
ATOM      9  C   UNL A   1      32.834  22.308  23.078  1.00  0.00     0.022 C 
ATOM     10  C   UNL A   1      32.881  24.183  24.631  1.00  0.00     0.093 C 
ATOM     11  C   UNL A   1      33.941  23.260  22.632  1.00  0.00     0.080 C 
BRANCH   8  12
ATOM     12  S   UNL A   1      31.229  21.946  25.320  1.00  0.00    -0.158 SA
BRANCH  12  13
ATOM     13  C   UNL A   1      32.487  20.652  25.664  1.00  0.00     0.069 C 
BRANCH  13  14
ATOM     14  C   UNL A   1      33.696  21.056  26.513  1.00  0.00     0.007 C 
ATOM     15  C   UNL A   1      33.414  22.025  27.649  1.00  0.00     0.005 C 
ENDBRANCH  13  14
ENDBRANCH  12  13
ENDBRANCH   8  12
BRANCH   7  16
ATOM     16  N   UNL A   1      35.235  24.793  24.120  1.00  0.00    -0.334 N 
ATOM     17  H   UNL A   1      35.395  25.800  24.076  1.00  0.00     0.347 HD
ATOM     18  H   UNL A   1      35.882  24.226  23.573  1.00  0.00     0.347 HD
BRANCH  16  19
ATOM     19  C   UNL A   1      35.450  24.375  25.507  1.00  0.00     0.257 C 
ATOM     20  C   UNL A   1      36.571  23.367  25.718  1.00  0.00     0.071 C 
ENDBRANCH  16  19
ENDBRANCH   7  16
ENDBRANCH   4   7
ENDBRANCH   2   3
ENDBRANCH   1   2
BRANCH   1  21
ATOM     21  C   UNL A   1      33.820  28.358  26.634  1.00  0.00     0.118 C 
BRANCH  21  22
ATOM     22  N   UNL A   1      33.659  29.703  27.168  1.00  0.00    -0.352 N 
ATOM     23  C   UNL A   1      34.511  30.442  27.948  1.00  0.00     0.251 C 
ATOM     24  H   UNL A   1      32.812  30.147  26.935  1.00  0.00     0.163 HD
ATOM     25  O   UNL A   1      34.111  31.488  28.455  1.00  0.00    -0.269 OA
BRANCH  23  26
ATOM     26  C   UNL A   1      35.891  29.973  28.199  1.00  0.00     0.039 A 
ATOM     27  C   UNL A   1      36.831  30.074  27.172  1.00  0.00     0.014 A 
ATOM     28  C   UNL A   1      36.260  29.434  29.435  1.00  0.00     0.014 A 
ATOM     29  C   UNL A   1      38.154  29.691  27.407  1.00  0.00     0.010 A 
ATOM     30  C   UNL A   1      37.596  29.141  29.695  1.00  0.00     0.010 A 
ATOM     31  C   UNL A   1      38.557  29.259  28.682  1.00  0.00    -0.014 A 
BRANCH  31  32
ATOM     32  C   UNL A   1      39.980  28.940  28.963  1.00  0.00     0.031 A 
ATOM     33  C   UNL A   1      40.887  29.971  29.581  1.00  0.00     0.074 A 
ATOM     34  C   UNL A   1      40.466  27.729  28.622  1.00  0.00     0.049 A 
ATOM     35  N   UNL A   1      42.156  29.874  29.889  1.00  0.00    -0.248 NA
ATOM     36  C   UNL A   1      40.302  31.291  29.866  1.00  0.00     0.031 C 
ATOM     37  C   UNL A   1      39.700  26.667  27.963  1.00  0.00     0.029 A 
ATOM     38  N   UNL A   1      41.716  27.186  28.780  1.00  0.00    -0.354 N 
ATOM     39  C   UNL A   1      42.521  31.115  30.397  1.00  0.00     0.074 A 
ATOM     40  C   UNL A   1      41.357  31.969  30.298  1.00  0.00     0.031 C 
ATOM     41  C   UNL A   1      40.486  25.591  27.806  1.00  0.00     0.029 A 
ATOM     42  C   UNL A   1      41.819  25.896  28.314  1.00  0.00     0.049 A 
ATOM     43  H   UNL A   1      42.467  27.673  29.188  1.00  0.00     0.167 HD
ATOM     44  C   UNL A   1      43.708  31.502  30.922  1.00  0.00     0.037 A 
ATOM     45  C   UNL A   1      42.871  25.053  28.295  1.00  0.00     0.037 A 
ATOM     46  C   UNL A   1      44.859  30.641  31.030  1.00  0.00     0.049 A 
ATOM     47  C   UNL A   1      44.180  25.506  28.881  1.00  0.00     0.074 A 
ATOM     48  C   UNL A   1      46.090  30.918  31.598  1.00  0.00     0.029 A 
ATOM     49  N   UNL A   1      44.924  29.340  30.552  1.00  0.00    -0.354 N 
ATOM     50  N   UNL A   1      44.485  26.660  29.427  1.00  0.00    -0.248 NA
ATOM     51  C   UNL A   1      45.286  24.541  28.856  1.00  0.00     0.031 C 
ATOM     52  C   UNL A   1      46.917  29.804  31.415  1.00  0.00     0.029 A 
ATOM     53  C   UNL A   1      46.183  28.810  30.788  1.00  0.00     0.049 A 
ATOM     54  H   UNL A   1      44.185  28.862  30.110  1.00  0.00     0.167 HD
ATOM     55  C   UNL A   1      45.810  26.550  29.831  1.00  0.00     0.074 A 
ATOM     56  C   UNL A   1      46.240  25.211  29.487  1.00  0.00     0.031 C 
ATOM     57  C   UNL A   1      46.601  27.476  30.433  1.00  0.00     0.037 A 
BRANCH  44  58
ATOM     58  C   UNL A   1      43.824  32.918  31.422  1.00  0.00     0.058 A 
ATOM     59  C   UNL A   1      43.527  33.258  32.754  1.00  0.00     0.135 A 
ATOM     60  C   UNL A   1      44.272  33.942  30.573  1.00  0.00     0.135 A 
ATOM     61  F   UNL A   1      43.080  32.323  33.607  1.00  0.00    -0.206 F 
ATOM     62  C   UNL A   1      43.641  34.566  33.213  1.00  0.00     0.059 A 
ATOM     63  C   UNL A   1      44.424  35.251  31.022  1.00  0.00     0.059 A 
ATOM     64  F   UNL A   1      44.571  33.676  29.292  1.00  0.00    -0.206 F 
ATOM     65  C   UNL A   1      44.092  35.556  32.340  1.00  0.00     0.060 A 
BRANCH  65  66
ATOM     66  S   UNL A   1      44.240  37.246  32.958  1.00  0.00     0.124 S 
ATOM     67  O   UNL A   1      45.492  37.174  33.706  1.00  0.00    -0.237 OA
ATOM     68  O   UNL A   1      44.282  38.025  31.726  1.00  0.00    -0.237 OA
ATOM     69  O   UNL A   1      43.037  37.419  33.767  1.00  0.00    -0.744 OA
ENDBRANCH  65  66
ENDBRANCH  44  58
BRANCH  45  70
ATOM     70  C   UNL A   1      42.718  23.689  27.722  1.00  0.00     0.058 A 
ATOM     71  C   UNL A   1      42.453  22.584  28.544  1.00  0.00     0.135 A 
ATOM     72  C   UNL A   1      42.819  23.464  26.340  1.00  0.00     0.135 A 
ATOM     73  F   UNL A   1      42.354  22.744  29.873  1.00  0.00    -0.206 F 
ATOM     74  C   UNL A   1      42.311  21.302  28.021  1.00  0.00     0.059 A 
ATOM     75  C   UNL A   1      42.651  22.198  25.790  1.00  0.00     0.059 A 
ATOM     76  F   UNL A   1      43.054  24.490  25.507  1.00  0.00    -0.206 F 
ATOM     77  C   UNL A   1      42.408  21.120  26.640  1.00  0.00     0.060 A 
BRANCH  77  78
ATOM     78  S   UNL A   1      42.169  19.462  25.967  1.00  0.00     0.124 S 
ATOM     79  O   UNL A   1      40.724  19.431  25.767  1.00  0.00    -0.237 OA
ATOM     80  O   UNL A   1      42.980  19.505  24.754  1.00  0.00    -0.237 OA
ATOM     81  O   UNL A   1      42.680  18.594  27.023  1.00  0.00    -0.744 OA
ENDBRANCH  77  78
ENDBRANCH  45  70
BRANCH  57  82
ATOM     82  C   UNL A   1      48.006  27.060  30.778  1.00  0.00     0.058 A 
ATOM     83  C   UNL A   1      48.314  26.426  31.992  1.00  0.00     0.135 A 
ATOM     84  C   UNL A   1      49.055  27.277  29.869  1.00  0.00     0.135 A 
ATOM     85  F   UNL A   1      47.351  26.198  32.899  1.00  0.00    -0.206 F 
ATOM     86  C   UNL A   1      49.617  26.057  32.310  1.00  0.00     0.059 A 
ATOM     87  C   UNL A   1      50.360  26.886  30.152  1.00  0.00     0.059 A 
ATOM     88  F   UNL A   1      48.817  27.868  28.687  1.00  0.00    -0.206 F 
ATOM     89  C   UNL A   1      50.635  26.293  31.383  1.00  0.00     0.060 A 
BRANCH  89  90
ATOM     90  S   UNL A   1      52.319  25.803  31.805  1.00  0.00     0.124 S 
ATOM     91  O   UNL A   1      53.019  26.040  30.547  1.00  0.00    -0.237 OA
ATOM     92  O   UNL A   1      52.647  26.717  32.895  1.00  0.00    -0.237 OA
ATOM     93  O   UNL A   1      52.179  24.402  32.192  1.00  0.00    -0.744 OA
ENDBRANCH  89  90
ENDBRANCH  57  82
ENDBRANCH  31  32
ENDBRANCH  23  26
ENDBRANCH  21  22
ENDBRANCH   1  21
TORSDOF 18
ENDMDL
MODEL 3
REMARK VINA RESULT:      -9.7      1.316      2.488
REMARK SMILES CCCS[C@@H]1CC[C@@]([NH2+]CC)(C(=O)NCCCNC(=O)c2ccc(-c3c4nc(c(-c5c(F)cc(S(=O)(=O)[O-])cc5F)c5ccc([nH]5)c(-c5c(F)cc(S(=O)(=O)[O-])cc5F)c5nc(c(-c6c(F)cc(S(=O)(=O)[O-])cc6F)c6ccc3[nH]6)C=C5)C=C4)cc2)C1
REMARK SMILES IDX 16 1 15 2 14 3 12 4 13 5 8 7 5 8 6 9 87 10 7 11 4 12 3 13
REMARK SMILES IDX 2 14 1 15 9 16 10 19 11 20 17 21 18 22 19 23 20 25 21 26
REMARK SMILES IDX 22 27 86 28 23 29 85 30 24 31 25 32 26 33 79 34 27 35 84 36
REMARK SMILES IDX 78 37 80 38 28 39 83 40 77 41 76 42 29 44 63 45 42 46 62 47
REMARK SMILES IDX 43 48 46 49 61 50 81 51 44 52 45 53 60 55 82 56 47 57 30 58
REMARK SMILES IDX 31 59 40 60 32 61 33 62 39 63 41 64 34 65 35 66 36 67 37 68
REMARK SMILES IDX 38 69 64 70 65 71 74 72 66 73 67 74 73 75 75 76 68 77 69 78
REMARK SMILES IDX 70 79 71 80 72 81 48 82 49 83 58 84 50 85 51 86 57 87 59 88
REMARK SMILES IDX 52 89 53 90 54 91 55 92 56 93
REMARK H PARENT 14 6 9 17 9 18 18 24 80 43 46 54
REMARK Flexibility Score: inf
ROOT
ATOM      1  C   UNL A   1      33.079  27.003  25.689  1.00  0.00     0.042 C 
ENDROOT
BRANCH   1   2
ATOM      2  C   UNL A   1      33.389  25.528  25.469  1.00  0.00     0.118 C 
BRANCH   2   3
ATOM      3  N   UNL A   1      32.717  24.676  26.441  1.00  0.00    -0.351 N 
ATOM      4  C   UNL A   1      32.784  23.319  26.609  1.00  0.00     0.281 C 
ATOM      5  O   UNL A   1      32.105  22.820  27.510  1.00  0.00    -0.268 OA
ATOM      6  H   UNL A   1      32.125  25.147  27.071  1.00  0.00     0.163 HD
BRANCH   4   7
ATOM      7  C   UNL A   1      33.700  22.461  25.688  1.00  0.00     0.176 C 
ATOM      8  C   UNL A   1      32.474  20.573  24.708  1.00  0.00     0.053 C 
ATOM      9  C   UNL A   1      32.713  21.558  23.576  1.00  0.00     0.022 C 
ATOM     10  C   UNL A   1      33.432  20.951  25.822  1.00  0.00     0.093 C 
ATOM     11  C   UNL A   1      33.361  22.786  24.210  1.00  0.00     0.080 C 
BRANCH   8  12
ATOM     12  S   UNL A   1      32.533  18.835  24.112  1.00  0.00    -0.158 SA
BRANCH  12  13
ATOM     13  C   UNL A   1      32.689  17.797  25.619  1.00  0.00     0.069 C 
BRANCH  13  14
ATOM     14  C   UNL A   1      33.396  16.446  25.470  1.00  0.00     0.007 C 
ATOM     15  C   UNL A   1      33.986  16.153  24.101  1.00  0.00     0.005 C 
ENDBRANCH  13  14
ENDBRANCH  12  13
ENDBRANCH   8  12
BRANCH   7  16
ATOM     16  N   UNL A   1      35.133  22.756  25.971  1.00  0.00    -0.334 N 
ATOM     17  H   UNL A   1      35.208  22.979  26.964  1.00  0.00     0.347 HD
ATOM     18  H   UNL A   1      35.373  23.516  25.336  1.00  0.00     0.347 HD
BRANCH  16  19
ATOM     19  C   UNL A   1      36.107  21.703  25.683  1.00  0.00     0.257 C 
ATOM     20  C   UNL A   1      36.966  21.929  24.447  1.00  0.00     0.071 C 
ENDBRANCH  16  19
ENDBRANCH   7  16
ENDBRANCH   4   7
ENDBRANCH   2   3
ENDBRANCH   1   2
BRANCH   1  21
ATOM     21  C   UNL A   1      34.117  27.731  26.529  1.00  0.00     0.118 C 
BRANCH  21  22
ATOM     22  N   UNL A   1      33.681  29.062  26.927  1.00  0.00    -0.352 N 
ATOM     23  C   UNL A   1      34.339  30.014  27.661  1.00  0.00     0.251 C 
ATOM     24  H   UNL A   1      32.779  29.314  26.624  1.00  0.00     0.163 HD
ATOM     25  O   UNL A   1      33.725  31.005  28.053  1.00  0.00    -0.269 OA
BRANCH  23  26
ATOM     26  C   UNL A   1      35.768  29.841  28.002  1.00  0.00     0.039 A 
ATOM     27  C   UNL A   1      36.104  29.408  29.286  1.00  0.00     0.014 A 
ATOM     28  C   UNL A   1      36.773  30.106  27.067  1.00  0.00     0.014 A 
ATOM     29  C   UNL A   1      37.444  29.183  29.610  1.00  0.00     0.010 A 
ATOM     30  C   UNL A   1      38.097  29.793  27.362  1.00  0.00     0.010 A 
ATOM     31  C   UNL A   1      38.449  29.335  28.639  1.00  0.00    -0.014 A 
BRANCH  31  32
ATOM     32  C   UNL A   1      39.863  29.007  28.950  1.00  0.00     0.031 A 
ATOM     33  C   UNL A   1      40.765  30.031  29.588  1.00  0.00     0.074 A 
ATOM     34  C   UNL A   1      40.349  27.794  28.618  1.00  0.00     0.049 A 
ATOM     35  N   UNL A   1      42.026  29.926  29.922  1.00  0.00    -0.248 NA
ATOM     36  C   UNL A   1      40.182  31.354  29.863  1.00  0.00     0.031 C 
ATOM     37  C   UNL A   1      39.591  26.737  27.941  1.00  0.00     0.029 A 
ATOM     38  N   UNL A   1      41.592  27.242  28.800  1.00  0.00    -0.354 N 
ATOM     39  C   UNL A   1      42.388  31.164  30.438  1.00  0.00     0.074 A 
ATOM     40  C   UNL A   1      41.231  32.025  30.317  1.00  0.00     0.031 C 
ATOM     41  C   UNL A   1      40.373  25.656  27.799  1.00  0.00     0.029 A 
ATOM     42  C   UNL A   1      41.697  25.952  28.335  1.00  0.00     0.049 A 
ATOM     43  H   UNL A   1      42.338  27.724  29.224  1.00  0.00     0.167 HD
ATOM     44  C   UNL A   1      43.566  31.543  30.988  1.00  0.00     0.037 A 
ATOM     45  C   UNL A   1      42.744  25.103  28.336  1.00  0.00     0.037 A 
ATOM     46  C   UNL A   1      44.709  30.675  31.119  1.00  0.00     0.049 A 
ATOM     47  C   UNL A   1      44.043  25.547  28.949  1.00  0.00     0.074 A 
ATOM     48  C   UNL A   1      45.930  30.943  31.713  1.00  0.00     0.029 A 
ATOM     49  N   UNL A   1      44.776  29.374  30.641  1.00  0.00    -0.354 N 
ATOM     50  N   UNL A   1      44.344  26.698  29.504  1.00  0.00    -0.248 NA
ATOM     51  C   UNL A   1      45.144  24.575  28.946  1.00  0.00     0.031 C 
ATOM     52  C   UNL A   1      46.754  29.825  31.546  1.00  0.00     0.029 A 
ATOM     53  C   UNL A   1      46.027  28.836  30.902  1.00  0.00     0.049 A 
ATOM     54  H   UNL A   1      44.043  28.901  30.183  1.00  0.00     0.167 HD
ATOM     55  C   UNL A   1      45.660  26.580  29.935  1.00  0.00     0.074 A 
ATOM     56  C   UNL A   1      46.089  25.239  29.597  1.00  0.00     0.031 C 
ATOM     57  C   UNL A   1      46.444  27.500  30.554  1.00  0.00     0.037 A 
BRANCH  44  58
ATOM     58  C   UNL A   1      43.681  32.958  31.493  1.00  0.00     0.058 A 
ATOM     59  C   UNL A   1      44.147  34.000  30.674  1.00  0.00     0.135 A 
ATOM     60  C   UNL A   1      43.284  33.285  32.800  1.00  0.00     0.135 A 
ATOM     61  F   UNL A   1      44.555  33.744  29.420  1.00  0.00    -0.206 F 
ATOM     62  C   UNL A   1      44.246  35.306  31.142  1.00  0.00     0.059 A 
ATOM     63  C   UNL A   1      43.344  34.591  33.278  1.00  0.00     0.059 A 
ATOM     64  F   UNL A   1      42.829  32.331  33.628  1.00  0.00    -0.206 F 
ATOM     65  C   UNL A   1      43.840  35.592  32.446  1.00  0.00     0.060 A 
BRANCH  65  66
ATOM     66  S   UNL A   1      43.969  37.295  33.033  1.00  0.00     0.124 S 
ATOM     67  O   UNL A   1      45.281  37.284  33.674  1.00  0.00    -0.237 OA
ATOM     68  O   UNL A   1      43.876  38.058  31.793  1.00  0.00    -0.237 OA
ATOM     69  O   UNL A   1      42.831  37.430  33.938  1.00  0.00    -0.744 OA
ENDBRANCH  65  66
ENDBRANCH  44  58
BRANCH  45  70
ATOM     70  C   UNL A   1      42.595  23.740  27.758  1.00  0.00     0.058 A 
ATOM     71  C   UNL A   1      42.396  22.622  28.582  1.00  0.00     0.135 A 
ATOM     72  C   UNL A   1      42.632  23.530  26.371  1.00  0.00     0.135 A 
ATOM     73  F   UNL A   1      42.359  22.769  29.915  1.00  0.00    -0.206 F 
ATOM     74  C   UNL A   1      42.258  21.342  28.054  1.00  0.00     0.059 A 
ATOM     75  C   UNL A   1      42.467  22.265  25.818  1.00  0.00     0.059 A 
ATOM     76  F   UNL A   1      42.801  24.568  25.538  1.00  0.00    -0.206 F 
ATOM     77  C   UNL A   1      42.290  21.175  26.668  1.00  0.00     0.060 A 
BRANCH  77  78
ATOM     78  S   UNL A   1      42.057  19.517  25.992  1.00  0.00     0.124 S 
ATOM     79  O   UNL A   1      42.886  19.569  24.793  1.00  0.00    -0.237 OA
ATOM     80  O   UNL A   1      42.551  18.672  27.074  1.00  0.00    -0.237 OA
ATOM     81  O   UNL A   1      40.617  19.448  25.761  1.00  0.00    -0.744 OA
ENDBRANCH  77  78
ENDBRANCH  45  70
BRANCH  57  82
ATOM     82  C   UNL A   1      47.839  27.075  30.927  1.00  0.00     0.058 A 
ATOM     83  C   UNL A   1      48.940  27.339  30.097  1.00  0.00     0.135 A 
ATOM     84  C   UNL A   1      48.080  26.416  32.144  1.00  0.00     0.135 A 
ATOM     85  F   UNL A   1      48.766  27.962  28.921  1.00  0.00    -0.206 F 
ATOM     86  C   UNL A   1      50.225  26.931  30.441  1.00  0.00     0.059 A 
ATOM     87  C   UNL A   1      49.362  26.029  32.524  1.00  0.00     0.059 A 
ATOM     88  F   UNL A   1      47.067  26.148  32.982  1.00  0.00    -0.206 F 
ATOM     89  C   UNL A   1      50.425  26.275  31.657  1.00  0.00     0.060 A 
BRANCH  89  90
ATOM     90  S   UNL A   1      52.098  25.758  32.095  1.00  0.00     0.124 S 
ATOM     91  O   UNL A   1      51.859  24.430  32.652  1.00  0.00    -0.237 OA
ATOM     92  O   UNL A   1      52.783  25.792  30.806  1.00  0.00    -0.237 OA
ATOM     93  O   UNL A   1      52.528  26.772  33.053  1.00  0.00    -0.744 OA
ENDBRANCH  89  90
ENDBRANCH  57  82
ENDBRANCH  31  32
ENDBRANCH  23  26
ENDBRANCH  21  22
ENDBRANCH   1  21
TORSDOF 18
ENDMDL
