MODEL 1
REMARK VINA RESULT:     -12.3      0.000      0.000
REMARK SMILES CC1(C)O[C@](C)([C@H](O)C2CCCCC2)CC[C@H]1C(=O)NCCCNC(=O)c1ccc(-c2c3nc(c(-c4c(F)cc(S(=O)(=O)[O-])cc4F)c4ccc([nH]4)c(-c4c(F)cc(S(=O)(=O)[O-])cc4F)c4nc(c(-c5c(F)cc(S(=O)(=O)[O-])cc5F)c5ccc2[nH]5)C=C4)C=C3)cc1
REMARK SMILES IDX 22 1 21 2 20 3 18 4 19 5 17 7 1 8 2 9 3 10 4 11 5 12 16 13
REMARK SMILES IDX 6 14 15 15 7 16 9 17 10 18 14 19 11 20 13 21 12 22 8 23
REMARK SMILES IDX 23 25 24 26 25 27 26 29 27 30 28 31 92 32 29 33 91 34 30 35
REMARK SMILES IDX 31 36 32 37 85 38 33 39 90 40 84 41 86 42 34 43 89 44 83 45
REMARK SMILES IDX 82 46 35 48 69 49 48 50 68 51 49 52 52 53 67 54 87 55 50 56
REMARK SMILES IDX 51 57 66 59 88 60 53 61 36 62 37 63 46 64 38 65 39 66 45 67
REMARK SMILES IDX 47 68 40 69 41 70 42 71 43 72 44 73 70 74 71 75 80 76 72 77
REMARK SMILES IDX 73 78 79 79 81 80 74 81 75 82 76 83 77 84 78 85 54 86 55 87
REMARK SMILES IDX 64 88 56 89 57 90 63 91 65 92 58 93 59 94 60 95 61 96 62 97
REMARK H PARENT 20 6 8 24 24 28 86 47 52 58
REMARK Flexibility Score: inf
ROOT
ATOM      1  C   UNL A   1      38.773  22.302  26.102  1.00  0.00     0.042 C 
ENDROOT
BRANCH   1   2
ATOM      2  C   UNL A   1      37.377  22.818  25.796  1.00  0.00     0.117 C 
BRANCH   2   3
ATOM      3  N   UNL A   1      36.388  21.781  25.967  1.00  0.00    -0.356 N 
ATOM      4  C   UNL A   1      35.034  21.827  25.939  1.00  0.00     0.226 C 
ATOM      5  O   UNL A   1      34.444  20.778  26.217  1.00  0.00    -0.275 OA
ATOM      6  H   UNL A   1      36.761  20.885  26.131  1.00  0.00     0.163 HD
BRANCH   4   7
ATOM      7  C   UNL A   1      34.243  23.054  25.501  1.00  0.00     0.110 C 
ATOM      8  C   UNL A   1      34.845  23.244  23.095  1.00  0.00     0.043 C 
ATOM      9  C   UNL A   1      33.631  23.092  24.060  1.00  0.00     0.075 C 
ATOM     10  C   UNL A   1      32.814  21.970  23.405  1.00  0.00     0.043 C 
ATOM     11  O   UNL A   1      32.768  24.242  23.922  1.00  0.00    -0.366 OA
ATOM     12  C   UNL A   1      31.766  24.462  24.944  1.00  0.00     0.092 C 
ATOM     13  C   UNL A   1      33.443  23.664  26.665  1.00  0.00     0.019 C 
ATOM     14  C   UNL A   1      30.843  23.288  25.329  1.00  0.00     0.045 C 
ATOM     15  C   UNL A   1      32.559  24.833  26.215  1.00  0.00     0.039 C 
BRANCH  12  16
ATOM     16  C   UNL A   1      30.884  25.664  24.445  1.00  0.00     0.149 C 
BRANCH  16  17
ATOM     17  C   UNL A   1      31.541  26.716  23.469  1.00  0.00     0.021 C 
ATOM     18  C   UNL A   1      30.685  27.423  22.400  1.00  0.00     0.006 C 
ATOM     19  C   UNL A   1      32.262  27.850  24.241  1.00  0.00     0.006 C 
ATOM     20  C   UNL A   1      29.645  28.369  22.986  1.00  0.00     0.000 C 
ATOM     21  C   UNL A   1      31.341  28.957  24.779  1.00  0.00     0.000 C 
ATOM     22  C   UNL A   1      30.331  29.484  23.761  1.00  0.00     0.000 C 
ENDBRANCH  16  17
BRANCH  16  23
ATOM     23  O   UNL A   1      29.657  25.155  23.917  1.00  0.00    -0.390 OA
ATOM     24  H   UNL A   1      29.189  24.661  24.607  1.00  0.00     0.211 HD
ENDBRANCH  16  23
ENDBRANCH  12  16
ENDBRANCH   4   7
ENDBRANCH   2   3
ENDBRANCH   1   2
BRANCH   1  25
ATOM     25  C   UNL A   1      39.621  23.308  26.847  1.00  0.00     0.118 C 
BRANCH  25  26
ATOM     26  N   UNL A   1      40.872  23.574  26.159  1.00  0.00    -0.352 N 
ATOM     27  C   UNL A   1      41.651  24.707  26.174  1.00  0.00     0.251 C 
ATOM     28  H   UNL A   1      41.210  22.837  25.601  1.00  0.00     0.163 HD
ATOM     29  O   UNL A   1      42.529  24.854  25.339  1.00  0.00    -0.269 OA
BRANCH  27  30
ATOM     30  C   UNL A   1      41.392  25.745  27.195  1.00  0.00     0.039 A 
ATOM     31  C   UNL A   1      40.449  25.503  28.195  1.00  0.00     0.014 A 
ATOM     32  C   UNL A   1      42.104  26.944  27.175  1.00  0.00     0.014 A 
ATOM     33  C   UNL A   1      40.275  26.440  29.216  1.00  0.00     0.010 A 
ATOM     34  C   UNL A   1      42.025  27.809  28.256  1.00  0.00     0.010 A 
ATOM     35  C   UNL A   1      41.093  27.579  29.278  1.00  0.00    -0.014 A 
BRANCH  35  36
ATOM     36  C   UNL A   1      40.977  28.578  30.369  1.00  0.00     0.031 A 
ATOM     37  C   UNL A   1      41.849  28.442  31.589  1.00  0.00     0.074 A 
ATOM     38  C   UNL A   1      40.031  29.536  30.311  1.00  0.00     0.049 A 
ATOM     39  N   UNL A   1      41.807  29.106  32.713  1.00  0.00    -0.248 NA
ATOM     40  C   UNL A   1      42.877  27.388  31.552  1.00  0.00     0.031 C 
ATOM     41  C   UNL A   1      39.092  29.735  29.204  1.00  0.00     0.029 A 
ATOM     42  N   UNL A   1      39.685  30.507  31.217  1.00  0.00    -0.354 N 
ATOM     43  C   UNL A   1      42.784  28.535  33.522  1.00  0.00     0.074 A 
ATOM     44  C   UNL A   1      43.349  27.427  32.787  1.00  0.00     0.031 C 
ATOM     45  C   UNL A   1      38.286  30.768  29.493  1.00  0.00     0.029 A 
ATOM     46  C   UNL A   1      38.614  31.273  30.823  1.00  0.00     0.049 A 
ATOM     47  H   UNL A   1      40.161  30.642  32.068  1.00  0.00     0.167 HD
ATOM     48  C   UNL A   1      43.194  28.918  34.754  1.00  0.00     0.037 A 
ATOM     49  C   UNL A   1      37.954  32.253  31.470  1.00  0.00     0.037 A 
ATOM     50  C   UNL A   1      42.636  30.038  35.466  1.00  0.00     0.049 A 
ATOM     51  C   UNL A   1      38.414  32.662  32.843  1.00  0.00     0.074 A 
ATOM     52  C   UNL A   1      43.012  30.547  36.695  1.00  0.00     0.029 A 
ATOM     53  N   UNL A   1      41.580  30.816  35.013  1.00  0.00    -0.354 N 
ATOM     54  N   UNL A   1      39.384  32.156  33.568  1.00  0.00    -0.248 NA
ATOM     55  C   UNL A   1      37.702  33.776  33.483  1.00  0.00     0.031 C 
ATOM     56  C   UNL A   1      42.148  31.600  37.009  1.00  0.00     0.029 A 
ATOM     57  C   UNL A   1      41.275  31.788  35.950  1.00  0.00     0.049 A 
ATOM     58  H   UNL A   1      41.116  30.694  34.153  1.00  0.00     0.167 HD
ATOM     59  C   UNL A   1      39.415  32.907  34.738  1.00  0.00     0.074 A 
ATOM     60  C   UNL A   1      38.371  33.904  34.622  1.00  0.00     0.031 C 
ATOM     61  C   UNL A   1      40.238  32.783  35.809  1.00  0.00     0.037 A 
BRANCH  48  62
ATOM     62  C   UNL A   1      44.290  28.115  35.401  1.00  0.00     0.058 A 
ATOM     63  C   UNL A   1      44.012  26.983  36.187  1.00  0.00     0.135 A 
ATOM     64  C   UNL A   1      45.635  28.480  35.237  1.00  0.00     0.135 A 
ATOM     65  F   UNL A   1      42.743  26.595  36.390  1.00  0.00    -0.206 F 
ATOM     66  C   UNL A   1      45.023  26.276  36.829  1.00  0.00     0.059 A 
ATOM     67  C   UNL A   1      46.667  27.764  35.840  1.00  0.00     0.059 A 
ATOM     68  F   UNL A   1      45.961  29.549  34.495  1.00  0.00    -0.206 F 
ATOM     69  C   UNL A   1      46.347  26.677  36.654  1.00  0.00     0.060 A 
BRANCH  69  70
ATOM     70  S   UNL A   1      47.644  25.766  37.516  1.00  0.00     0.124 S 
ATOM     71  O   UNL A   1      47.417  26.179  38.898  1.00  0.00    -0.237 OA
ATOM     72  O   UNL A   1      47.309  24.380  37.206  1.00  0.00    -0.237 OA
ATOM     73  O   UNL A   1      48.873  26.264  36.907  1.00  0.00    -0.744 OA
ENDBRANCH  69  70
ENDBRANCH  48  62
BRANCH  49  74
ATOM     74  C   UNL A   1      36.792  32.910  30.814  1.00  0.00     0.058 A 
ATOM     75  C   UNL A   1      35.475  32.593  31.180  1.00  0.00     0.135 A 
ATOM     76  C   UNL A   1      36.975  33.907  29.841  1.00  0.00     0.135 A 
ATOM     77  F   UNL A   1      35.246  31.643  32.100  1.00  0.00    -0.206 F 
ATOM     78  C   UNL A   1      34.383  33.235  30.605  1.00  0.00     0.059 A 
ATOM     79  C   UNL A   1      35.901  34.581  29.271  1.00  0.00     0.059 A 
ATOM     80  F   UNL A   1      38.216  34.261  29.468  1.00  0.00    -0.206 F 
ATOM     81  C   UNL A   1      34.607  34.235  29.656  1.00  0.00     0.060 A 
BRANCH  81  82
ATOM     82  S   UNL A   1      33.185  35.113  28.973  1.00  0.00     0.124 S 
ATOM     83  O   UNL A   1      32.672  34.142  28.014  1.00  0.00    -0.237 OA
ATOM     84  O   UNL A   1      32.365  35.336  30.159  1.00  0.00    -0.237 OA
ATOM     85  O   UNL A   1      33.778  36.316  28.396  1.00  0.00    -0.744 OA
ENDBRANCH  81  82
ENDBRANCH  49  74
BRANCH  61  86
ATOM     86  C   UNL A   1      40.086  33.773  36.932  1.00  0.00     0.058 A 
ATOM     87  C   UNL A   1      40.726  35.020  36.910  1.00  0.00     0.135 A 
ATOM     88  C   UNL A   1      39.198  33.507  37.987  1.00  0.00     0.135 A 
ATOM     89  F   UNL A   1      41.591  35.319  35.928  1.00  0.00    -0.206 F 
ATOM     90  C   UNL A   1      40.493  35.972  37.897  1.00  0.00     0.059 A 
ATOM     91  C   UNL A   1      38.929  34.455  38.969  1.00  0.00     0.059 A 
ATOM     92  F   UNL A   1      38.554  32.331  38.051  1.00  0.00    -0.206 F 
ATOM     93  C   UNL A   1      39.582  35.685  38.916  1.00  0.00     0.060 A 
BRANCH  93  94
ATOM     94  S   UNL A   1      39.227  36.960  40.144  1.00  0.00     0.124 S 
ATOM     95  O   UNL A   1      40.563  37.274  40.637  1.00  0.00    -0.237 OA
ATOM     96  O   UNL A   1      38.589  37.997  39.338  1.00  0.00    -0.237 OA
ATOM     97  O   UNL A   1      38.350  36.284  41.094  1.00  0.00    -0.744 OA
ENDBRANCH  93  94
ENDBRANCH  61  86
ENDBRANCH  35  36
ENDBRANCH  27  30
ENDBRANCH  25  26
ENDBRANCH   1  25
TORSDOF 16
ENDMDL
MODEL 2
REMARK VINA RESULT:     -12.3      6.373     11.887
REMARK SMILES CC1(C)O[C@](C)([C@H](O)C2CCCCC2)CC[C@H]1C(=O)NCCCNC(=O)c1ccc(-c2c3nc(c(-c4c(F)cc(S(=O)(=O)[O-])cc4F)c4ccc([nH]4)c(-c4c(F)cc(S(=O)(=O)[O-])cc4F)c4nc(c(-c5c(F)cc(S(=O)(=O)[O-])cc5F)c5ccc2[nH]5)C=C4)C=C3)cc1
REMARK SMILES IDX 22 1 21 2 20 3 18 4 19 5 17 7 1 8 2 9 3 10 4 11 5 12 16 13
REMARK SMILES IDX 6 14 15 15 7 16 9 17 10 18 14 19 11 20 13 21 12 22 8 23
REMARK SMILES IDX 23 25 24 26 25 27 26 29 27 30 28 31 92 32 29 33 91 34 30 35
REMARK SMILES IDX 31 36 32 37 85 38 33 39 90 40 84 41 86 42 34 43 89 44 83 45
REMARK SMILES IDX 82 46 35 48 69 49 48 50 68 51 49 52 52 53 67 54 87 55 50 56
REMARK SMILES IDX 51 57 66 59 88 60 53 61 36 62 37 63 46 64 38 65 39 66 45 67
REMARK SMILES IDX 47 68 40 69 41 70 42 71 43 72 44 73 70 74 71 75 80 76 72 77
REMARK SMILES IDX 73 78 79 79 81 80 74 81 75 82 76 83 77 84 78 85 54 86 55 87
REMARK SMILES IDX 64 88 56 89 57 90 63 91 65 92 58 93 59 94 60 95 61 96 62 97
REMARK H PARENT 20 6 8 24 24 28 86 47 52 58
REMARK Flexibility Score: inf
ROOT
ATOM      1  C   UNL A   1      33.967  30.534  27.201  1.00  0.00     0.042 C 
ENDROOT
BRANCH   1   2
ATOM      2  C   UNL A   1      33.567  29.553  26.112  1.00  0.00     0.117 C 
BRANCH   2   3
ATOM      3  N   UNL A   1      32.352  29.969  25.453  1.00  0.00    -0.356 N 
ATOM      4  C   UNL A   1      31.402  29.256  24.802  1.00  0.00     0.226 C 
ATOM      5  O   UNL A   1      30.510  29.908  24.249  1.00  0.00    -0.275 OA
ATOM      6  H   UNL A   1      32.185  30.938  25.482  1.00  0.00     0.163 HD
BRANCH   4   7
ATOM      7  C   UNL A   1      31.342  27.733  24.807  1.00  0.00     0.110 C 
ATOM      8  C   UNL A   1      31.188  27.198  22.382  1.00  0.00     0.043 C 
ATOM      9  C   UNL A   1      32.047  26.938  23.656  1.00  0.00     0.075 C 
ATOM     10  C   UNL A   1      33.479  27.172  23.154  1.00  0.00     0.043 C 
ATOM     11  O   UNL A   1      32.038  25.525  23.955  1.00  0.00    -0.366 OA
ATOM     12  C   UNL A   1      32.496  25.109  25.264  1.00  0.00     0.092 C 
ATOM     13  C   UNL A   1      31.381  27.164  26.236  1.00  0.00     0.019 C 
ATOM     14  C   UNL A   1      33.857  25.634  25.765  1.00  0.00     0.045 C 
ATOM     15  C   UNL A   1      31.432  25.632  26.252  1.00  0.00     0.039 C 
BRANCH  12  16
ATOM     16  C   UNL A   1      32.533  23.537  25.238  1.00  0.00     0.149 C 
BRANCH  16  17
ATOM     17  C   UNL A   1      33.311  22.829  24.061  1.00  0.00     0.021 C 
ATOM     18  C   UNL A   1      34.714  22.239  24.303  1.00  0.00     0.006 C 
ATOM     19  C   UNL A   1      32.482  21.685  23.426  1.00  0.00     0.006 C 
ATOM     20  C   UNL A   1      34.712  21.040  25.243  1.00  0.00     0.000 C 
ATOM     21  C   UNL A   1      32.499  20.360  24.205  1.00  0.00     0.000 C 
ATOM     22  C   UNL A   1      33.891  19.908  24.645  1.00  0.00     0.000 C 
ENDBRANCH  16  17
BRANCH  16  23
ATOM     23  O   UNL A   1      32.965  23.059  26.514  1.00  0.00    -0.390 OA
ATOM     24  H   UNL A   1      33.895  23.300  26.651  1.00  0.00     0.211 HD
ENDBRANCH  16  23
ENDBRANCH  12  16
ENDBRANCH   4   7
ENDBRANCH   2   3
ENDBRANCH   1   2
BRANCH   1  25
ATOM     25  C   UNL A   1      35.156  30.064  28.007  1.00  0.00     0.118 C 
BRANCH  25  26
ATOM     26  N   UNL A   1      35.246  30.749  29.284  1.00  0.00    -0.352 N 
ATOM     27  C   UNL A   1      36.262  30.734  30.212  1.00  0.00     0.251 C 
ATOM     28  H   UNL A   1      34.467  31.303  29.521  1.00  0.00     0.163 HD
ATOM     29  O   UNL A   1      36.063  31.156  31.340  1.00  0.00    -0.269 OA
BRANCH  27  30
ATOM     30  C   UNL A   1      37.578  30.180  29.828  1.00  0.00     0.039 A 
ATOM     31  C   UNL A   1      37.989  30.250  28.496  1.00  0.00     0.014 A 
ATOM     32  C   UNL A   1      38.413  29.619  30.794  1.00  0.00     0.014 A 
ATOM     33  C   UNL A   1      39.272  29.818  28.151  1.00  0.00     0.010 A 
ATOM     34  C   UNL A   1      39.728  29.314  30.474  1.00  0.00     0.010 A 
ATOM     35  C   UNL A   1      40.165  29.388  29.144  1.00  0.00    -0.014 A 
BRANCH  35  36
ATOM     36  C   UNL A   1      41.553  28.965  28.831  1.00  0.00     0.031 A 
ATOM     37  C   UNL A   1      42.647  29.998  28.788  1.00  0.00     0.074 A 
ATOM     38  C   UNL A   1      41.809  27.687  28.490  1.00  0.00     0.049 A 
ATOM     39  N   UNL A   1      43.886  29.875  28.392  1.00  0.00    -0.248 NA
ATOM     40  C   UNL A   1      42.284  31.363  29.208  1.00  0.00     0.031 C 
ATOM     41  C   UNL A   1      40.820  26.607  28.444  1.00  0.00     0.029 A 
ATOM     42  N   UNL A   1      42.975  27.084  28.092  1.00  0.00    -0.354 N 
ATOM     43  C   UNL A   1      44.440  31.146  28.492  1.00  0.00     0.074 A 
ATOM     44  C   UNL A   1      43.384  32.037  28.916  1.00  0.00     0.031 C 
ATOM     45  C   UNL A   1      41.424  25.475  28.050  1.00  0.00     0.029 A 
ATOM     46  C   UNL A   1      42.828  25.757  27.766  1.00  0.00     0.049 A 
ATOM     47  H   UNL A   1      43.837  27.559  28.044  1.00  0.00     0.167 HD
ATOM     48  C   UNL A   1      45.721  31.531  28.279  1.00  0.00     0.037 A 
ATOM     49  C   UNL A   1      43.717  24.873  27.272  1.00  0.00     0.037 A 
ATOM     50  C   UNL A   1      46.767  30.629  27.878  1.00  0.00     0.049 A 
ATOM     51  C   UNL A   1      45.134  25.318  27.031  1.00  0.00     0.074 A 
ATOM     52  C   UNL A   1      48.109  30.901  27.688  1.00  0.00     0.029 A 
ATOM     53  N   UNL A   1      46.585  29.281  27.601  1.00  0.00    -0.354 N 
ATOM     54  N   UNL A   1      45.660  26.509  27.195  1.00  0.00    -0.248 NA
ATOM     55  C   UNL A   1      46.081  24.303  26.548  1.00  0.00     0.031 C 
ATOM     56  C   UNL A   1      48.729  29.729  27.243  1.00  0.00     0.029 A 
ATOM     57  C   UNL A   1      47.787  28.713  27.217  1.00  0.00     0.049 A 
ATOM     58  H   UNL A   1      45.728  28.801  27.667  1.00  0.00     0.167 HD
ATOM     59  C   UNL A   1      47.004  26.381  26.861  1.00  0.00     0.074 A 
ATOM     60  C   UNL A   1      47.211  24.996  26.491  1.00  0.00     0.031 C 
ATOM     61  C   UNL A   1      47.977  27.325  26.866  1.00  0.00     0.037 A 
BRANCH  48  62
ATOM     62  C   UNL A   1      46.047  32.988  28.473  1.00  0.00     0.058 A 
ATOM     63  C   UNL A   1      45.976  33.909  27.415  1.00  0.00     0.135 A 
ATOM     64  C   UNL A   1      46.439  33.471  29.732  1.00  0.00     0.135 A 
ATOM     65  F   UNL A   1      45.621  33.502  26.185  1.00  0.00    -0.206 F 
ATOM     66  C   UNL A   1      46.333  35.243  27.584  1.00  0.00     0.059 A 
ATOM     67  C   UNL A   1      46.764  34.810  29.933  1.00  0.00     0.059 A 
ATOM     68  F   UNL A   1      46.522  32.638  30.781  1.00  0.00    -0.206 F 
ATOM     69  C   UNL A   1      46.731  35.682  28.846  1.00  0.00     0.060 A 
BRANCH  69  70
ATOM     70  S   UNL A   1      47.216  37.409  29.042  1.00  0.00     0.124 S 
ATOM     71  O   UNL A   1      48.673  37.301  29.050  1.00  0.00    -0.237 OA
ATOM     72  O   UNL A   1      46.635  38.033  27.858  1.00  0.00    -0.237 OA
ATOM     73  O   UNL A   1      46.610  37.792  30.313  1.00  0.00    -0.744 OA
ENDBRANCH  69  70
ENDBRANCH  48  62
BRANCH  49  74
ATOM     74  C   UNL A   1      43.281  23.481  26.980  1.00  0.00     0.058 A 
ATOM     75  C   UNL A   1      43.058  23.051  25.663  1.00  0.00     0.135 A 
ATOM     76  C   UNL A   1      43.127  22.537  28.008  1.00  0.00     0.135 A 
ATOM     77  F   UNL A   1      43.185  23.916  24.645  1.00  0.00    -0.206 F 
ATOM     78  C   UNL A   1      42.694  21.739  25.376  1.00  0.00     0.059 A 
ATOM     79  C   UNL A   1      42.789  21.214  27.745  1.00  0.00     0.059 A 
ATOM     80  F   UNL A   1      43.346  22.894  29.284  1.00  0.00    -0.206 F 
ATOM     81  C   UNL A   1      42.570  20.825  26.425  1.00  0.00     0.060 A 
BRANCH  81  82
ATOM     82  S   UNL A   1      42.172  19.107  26.033  1.00  0.00     0.124 S 
ATOM     83  O   UNL A   1      42.595  18.422  27.249  1.00  0.00    -0.237 OA
ATOM     84  O   UNL A   1      40.732  19.173  25.804  1.00  0.00    -0.237 OA
ATOM     85  O   UNL A   1      42.976  18.839  24.844  1.00  0.00    -0.744 OA
ENDBRANCH  81  82
ENDBRANCH  49  74
BRANCH  61  86
ATOM     86  C   UNL A   1      49.373  26.898  26.504  1.00  0.00     0.058 A 
ATOM     87  C   UNL A   1      50.246  26.343  27.452  1.00  0.00     0.135 A 
ATOM     88  C   UNL A   1      49.800  26.945  25.167  1.00  0.00     0.135 A 
ATOM     89  F   UNL A   1      49.890  26.283  28.745  1.00  0.00    -0.206 F 
ATOM     90  C   UNL A   1      51.493  25.850  27.087  1.00  0.00     0.059 A 
ATOM     91  C   UNL A   1      51.031  26.432  24.775  1.00  0.00     0.059 A 
ATOM     92  F   UNL A   1      48.999  27.460  24.219  1.00  0.00    -0.206 F 
ATOM     93  C   UNL A   1      51.872  25.886  25.743  1.00  0.00     0.060 A 
BRANCH  93  94
ATOM     94  S   UNL A   1      53.460  25.168  25.272  1.00  0.00     0.124 S 
ATOM     95  O   UNL A   1      54.340  25.685  26.314  1.00  0.00    -0.237 OA
ATOM     96  O   UNL A   1      53.182  23.736  25.330  1.00  0.00    -0.237 OA
ATOM     97  O   UNL A   1      53.692  25.702  23.933  1.00  0.00    -0.744 OA
ENDBRANCH  93  94
ENDBRANCH  61  86
ENDBRANCH  35  36
ENDBRANCH  27  30
ENDBRANCH  25  26
ENDBRANCH   1  25
TORSDOF 16
ENDMDL
MODEL 3
REMARK VINA RESULT:     -12.2      6.107     10.758
REMARK SMILES CC1(C)O[C@](C)([C@H](O)C2CCCCC2)CC[C@H]1C(=O)NCCCNC(=O)c1ccc(-c2c3nc(c(-c4c(F)cc(S(=O)(=O)[O-])cc4F)c4ccc([nH]4)c(-c4c(F)cc(S(=O)(=O)[O-])cc4F)c4nc(c(-c5c(F)cc(S(=O)(=O)[O-])cc5F)c5ccc2[nH]5)C=C4)C=C3)cc1
REMARK SMILES IDX 22 1 21 2 20 3 18 4 19 5 17 7 1 8 2 9 3 10 4 11 5 12 16 13
REMARK SMILES IDX 6 14 15 15 7 16 9 17 10 18 14 19 11 20 13 21 12 22 8 23
REMARK SMILES IDX 23 25 24 26 25 27 26 29 27 30 28 31 92 32 29 33 91 34 30 35
REMARK SMILES IDX 31 36 32 37 85 38 33 39 90 40 84 41 86 42 34 43 89 44 83 45
REMARK SMILES IDX 82 46 35 48 69 49 48 50 68 51 49 52 52 53 67 54 87 55 50 56
REMARK SMILES IDX 51 57 66 59 88 60 53 61 36 62 37 63 46 64 38 65 39 66 45 67
REMARK SMILES IDX 47 68 40 69 41 70 42 71 43 72 44 73 70 74 71 75 80 76 72 77
REMARK SMILES IDX 73 78 79 79 81 80 74 81 75 82 76 83 77 84 78 85 54 86 55 87
REMARK SMILES IDX 64 88 56 89 57 90 63 91 65 92 58 93 59 94 60 95 61 96 62 97
REMARK H PARENT 20 6 8 24 24 28 86 47 52 58
REMARK Flexibility Score: inf
ROOT
ATOM      1  C   UNL A   1      38.210  19.707  25.075  1.00  0.00     0.042 C 
ENDROOT
BRANCH   1   2
ATOM      2  C   UNL A   1      37.041  20.676  25.019  1.00  0.00     0.117 C 
BRANCH   2   3
ATOM      3  N   UNL A   1      35.787  19.975  24.886  1.00  0.00    -0.356 N 
ATOM      4  C   UNL A   1      34.513  20.373  25.122  1.00  0.00     0.226 C 
ATOM      5  O   UNL A   1      33.639  19.508  25.007  1.00  0.00    -0.275 OA
ATOM      6  H   UNL A   1      35.871  19.048  24.567  1.00  0.00     0.163 HD
BRANCH   4   7
ATOM      7  C   UNL A   1      34.125  21.817  25.421  1.00  0.00     0.110 C 
ATOM      8  C   UNL A   1      34.550  22.944  23.244  1.00  0.00     0.043 C 
ATOM      9  C   UNL A   1      33.438  22.669  24.300  1.00  0.00     0.075 C 
ATOM     10  C   UNL A   1      32.251  22.220  23.437  1.00  0.00     0.043 C 
ATOM     11  O   UNL A   1      32.982  23.925  24.848  1.00  0.00    -0.366 OA
ATOM     12  C   UNL A   1      32.195  23.887  26.062  1.00  0.00     0.092 C 
ATOM     13  C   UNL A   1      33.665  21.995  26.878  1.00  0.00     0.019 C 
ATOM     14  C   UNL A   1      30.979  22.940  26.118  1.00  0.00     0.045 C 
ATOM     15  C   UNL A   1      33.169  23.417  27.163  1.00  0.00     0.039 C 
BRANCH  12  16
ATOM     16  C   UNL A   1      31.707  25.360  26.317  1.00  0.00     0.149 C 
BRANCH  16  17
ATOM     17  C   UNL A   1      32.152  26.480  25.298  1.00  0.00     0.021 C 
ATOM     18  C   UNL A   1      31.408  27.829  25.253  1.00  0.00     0.006 C 
ATOM     19  C   UNL A   1      33.653  26.837  25.450  1.00  0.00     0.006 C 
ATOM     20  C   UNL A   1      31.598  28.667  26.511  1.00  0.00     0.000 C 
ATOM     21  C   UNL A   1      33.979  27.793  26.608  1.00  0.00     0.000 C 
ATOM     22  C   UNL A   1      33.068  29.018  26.688  1.00  0.00     0.000 C 
ENDBRANCH  16  17
BRANCH  16  23
ATOM     23  O   UNL A   1      30.290  25.357  26.504  1.00  0.00    -0.390 OA
ATOM     24  H   UNL A   1      30.066  24.795  27.262  1.00  0.00     0.211 HD
ENDBRANCH  16  23
ENDBRANCH  12  16
ENDBRANCH   4   7
ENDBRANCH   2   3
ENDBRANCH   1   2
BRANCH   1  25
ATOM     25  C   UNL A   1      39.324  20.182  25.980  1.00  0.00     0.118 C 
BRANCH  25  26
ATOM     26  N   UNL A   1      40.451  19.265  25.974  1.00  0.00    -0.352 N 
ATOM     27  C   UNL A   1      41.798  19.540  26.018  1.00  0.00     0.251 C 
ATOM     28  H   UNL A   1      40.216  18.310  25.932  1.00  0.00     0.163 HD
ATOM     29  O   UNL A   1      42.607  18.668  25.744  1.00  0.00    -0.269 OA
BRANCH  27  30
ATOM     30  C   UNL A   1      42.242  20.904  26.376  1.00  0.00     0.039 A 
ATOM     31  C   UNL A   1      42.469  21.223  27.716  1.00  0.00     0.014 A 
ATOM     32  C   UNL A   1      42.462  21.856  25.380  1.00  0.00     0.014 A 
ATOM     33  C   UNL A   1      42.984  22.478  28.045  1.00  0.00     0.010 A 
ATOM     34  C   UNL A   1      43.094  23.049  25.695  1.00  0.00     0.010 A 
ATOM     35  C   UNL A   1      43.341  23.384  27.034  1.00  0.00    -0.014 A 
BRANCH  35  36
ATOM     36  C   UNL A   1      43.935  24.710  27.334  1.00  0.00     0.031 A 
ATOM     37  C   UNL A   1      43.042  25.831  27.795  1.00  0.00     0.074 A 
ATOM     38  C   UNL A   1      45.243  24.934  27.099  1.00  0.00     0.049 A 
ATOM     39  N   UNL A   1      43.322  27.096  27.966  1.00  0.00    -0.248 NA
ATOM     40  C   UNL A   1      41.634  25.487  28.059  1.00  0.00     0.031 C 
ATOM     41  C   UNL A   1      46.198  23.941  26.602  1.00  0.00     0.029 A 
ATOM     42  N   UNL A   1      45.990  26.078  27.222  1.00  0.00    -0.354 N 
ATOM     43  C   UNL A   1      42.124  27.699  28.331  1.00  0.00     0.074 A 
ATOM     44  C   UNL A   1      41.103  26.678  28.287  1.00  0.00     0.031 C 
ATOM     45  C   UNL A   1      47.403  24.516  26.472  1.00  0.00     0.029 A 
ATOM     46  C   UNL A   1      47.298  25.929  26.826  1.00  0.00     0.049 A 
ATOM     47  H   UNL A   1      45.624  26.926  27.562  1.00  0.00     0.167 HD
ATOM     48  C   UNL A   1      41.901  28.983  28.700  1.00  0.00     0.037 A 
ATOM     49  C   UNL A   1      48.294  26.832  26.735  1.00  0.00     0.037 A 
ATOM     50  C   UNL A   1      42.931  29.985  28.760  1.00  0.00     0.049 A 
ATOM     51  C   UNL A   1      48.028  28.257  27.139  1.00  0.00     0.074 A 
ATOM     52  C   UNL A   1      42.827  31.301  29.172  1.00  0.00     0.029 A 
ATOM     53  N   UNL A   1      44.254  29.782  28.392  1.00  0.00    -0.354 N 
ATOM     54  N   UNL A   1      46.905  28.799  27.547  1.00  0.00    -0.248 NA
ATOM     55  C   UNL A   1      49.160  29.191  27.079  1.00  0.00     0.031 C 
ATOM     56  C   UNL A   1      44.075  31.908  29.002  1.00  0.00     0.029 A 
ATOM     57  C   UNL A   1      44.972  30.955  28.545  1.00  0.00     0.049 A 
ATOM     58  H   UNL A   1      44.627  28.929  28.070  1.00  0.00     0.167 HD
ATOM     59  C   UNL A   1      47.201  30.130  27.818  1.00  0.00     0.074 A 
ATOM     60  C   UNL A   1      48.609  30.310  27.533  1.00  0.00     0.031 C 
ATOM     61  C   UNL A   1      46.380  31.112  28.268  1.00  0.00     0.037 A 
BRANCH  48  62
ATOM     62  C   UNL A   1      40.490  29.365  29.058  1.00  0.00     0.058 A 
ATOM     63  C   UNL A   1      39.507  29.573  28.075  1.00  0.00     0.135 A 
ATOM     64  C   UNL A   1      40.112  29.529  30.400  1.00  0.00     0.135 A 
ATOM     65  F   UNL A   1      39.813  29.443  26.774  1.00  0.00    -0.206 F 
ATOM     66  C   UNL A   1      38.219  29.980  28.406  1.00  0.00     0.059 A 
ATOM     67  C   UNL A   1      38.818  29.900  30.757  1.00  0.00     0.059 A 
ATOM     68  F   UNL A   1      41.007  29.341  31.383  1.00  0.00    -0.206 F 
ATOM     69  C   UNL A   1      37.886  30.146  29.750  1.00  0.00     0.060 A 
BRANCH  69  70
ATOM     70  S   UNL A   1      36.219  30.702  30.160  1.00  0.00     0.124 S 
ATOM     71  O   UNL A   1      35.911  29.865  31.316  1.00  0.00    -0.237 OA
ATOM     72  O   UNL A   1      36.423  32.119  30.441  1.00  0.00    -0.237 OA
ATOM     73  O   UNL A   1      35.455  30.407  28.952  1.00  0.00    -0.744 OA
ENDBRANCH  69  70
ENDBRANCH  48  62
BRANCH  49  74
ATOM     74  C   UNL A   1      49.630  26.402  26.243  1.00  0.00     0.058 A 
ATOM     75  C   UNL A   1      50.077  26.747  24.959  1.00  0.00     0.135 A 
ATOM     76  C   UNL A   1      50.509  25.678  27.066  1.00  0.00     0.135 A 
ATOM     77  F   UNL A   1      49.274  27.433  24.131  1.00  0.00    -0.206 F 
ATOM     78  C   UNL A   1      51.344  26.389  24.507  1.00  0.00     0.059 A 
ATOM     79  C   UNL A   1      51.788  25.331  26.647  1.00  0.00     0.059 A 
ATOM     80  F   UNL A   1      50.136  25.338  28.310  1.00  0.00    -0.206 F 
ATOM     81  C   UNL A   1      52.196  25.687  25.362  1.00  0.00     0.060 A 
BRANCH  81  82
ATOM     82  S   UNL A   1      53.863  25.293  24.791  1.00  0.00     0.124 S 
ATOM     83  O   UNL A   1      54.683  26.043  25.737  1.00  0.00    -0.237 OA
ATOM     84  O   UNL A   1      53.897  23.841  24.926  1.00  0.00    -0.237 OA
ATOM     85  O   UNL A   1      53.873  25.788  23.417  1.00  0.00    -0.744 OA
ENDBRANCH  81  82
ENDBRANCH  49  74
BRANCH  61  86
ATOM     86  C   UNL A   1      46.980  32.466  28.528  1.00  0.00     0.058 A 
ATOM     87  C   UNL A   1      47.492  32.819  29.785  1.00  0.00     0.135 A 
ATOM     88  C   UNL A   1      47.142  33.378  27.472  1.00  0.00     0.135 A 
ATOM     89  F   UNL A   1      47.354  31.987  30.829  1.00  0.00    -0.206 F 
ATOM     90  C   UNL A   1      48.143  34.031  29.988  1.00  0.00     0.059 A 
ATOM     91  C   UNL A   1      47.815  34.583  27.645  1.00  0.00     0.059 A 
ATOM     92  F   UNL A   1      46.678  33.085  26.247  1.00  0.00    -0.206 F 
ATOM     93  C   UNL A   1      48.312  34.901  28.908  1.00  0.00     0.060 A 
BRANCH  93  94
ATOM     94  S   UNL A   1      49.232  36.433  29.167  1.00  0.00     0.124 S 
ATOM     95  O   UNL A   1      50.585  36.032  28.796  1.00  0.00    -0.237 OA
ATOM     96  O   UNL A   1      48.568  37.352  28.247  1.00  0.00    -0.237 OA
ATOM     97  O   UNL A   1      49.029  36.717  30.584  1.00  0.00    -0.744 OA
ENDBRANCH  93  94
ENDBRANCH  61  86
ENDBRANCH  35  36
ENDBRANCH  27  30
ENDBRANCH  25  26
ENDBRANCH   1  25
TORSDOF 16
ENDMDL
