MODEL 1
REMARK VINA RESULT:     -12.0      0.000      0.000
REMARK SMILES CC(C)CSc1cc2c(cc1Cl)C=C(C(=O)NCCCNC(=O)c1ccc(-c3c4nc(c(-c5c(F)cc(S(=O)(=O)[O-])cc5F)c5ccc([nH]5)c(-c5c(F)cc(S(=O)(=O)[O-])cc5F)c5nc(c(-c6c(F)cc(S(=O)(=O)[O-])cc6F)c6ccc3[nH]6)C=C5)C=C4)cc1)[C@@H](C(F)(F)F)O2
REMARK SMILES IDX 19 1 18 2 17 3 15 4 16 5 14 7 6 8 7 9 11 10 8 11 10 12 12 13
REMARK SMILES IDX 9 14 95 15 13 16 90 17 5 18 4 19 2 20 1 21 3 22 91 23 92 24
REMARK SMILES IDX 93 25 94 26 20 27 21 28 22 29 23 31 24 32 25 33 89 34 26 35
REMARK SMILES IDX 88 36 27 37 28 38 29 39 82 40 30 41 87 42 81 43 83 44 31 45
REMARK SMILES IDX 86 46 80 47 79 48 32 50 66 51 45 52 65 53 46 54 49 55 64 56
REMARK SMILES IDX 84 57 47 58 48 59 63 61 85 62 50 63 33 64 34 65 43 66 35 67
REMARK SMILES IDX 36 68 42 69 44 70 37 71 38 72 39 73 40 74 41 75 67 76 68 77
REMARK SMILES IDX 77 78 69 79 70 80 76 81 78 82 71 83 72 84 73 85 74 86 75 87
REMARK SMILES IDX 51 88 52 89 61 90 53 91 54 92 60 93 62 94 55 95 56 96 57 97
REMARK SMILES IDX 58 98 59 99
REMARK H PARENT 17 6 21 30 83 49 49 60
REMARK Flexibility Score: inf
ROOT
ATOM      1  C   UNL A   1      37.707  22.550  26.330  1.00  0.00     0.042 C 
ENDROOT
BRANCH   1   2
ATOM      2  C   UNL A   1      37.650  21.941  24.938  1.00  0.00     0.118 C 
BRANCH   2   3
ATOM      3  N   UNL A   1      36.635  20.902  24.836  1.00  0.00    -0.352 N 
ATOM      4  C   UNL A   1      35.285  20.828  24.824  1.00  0.00     0.251 C 
ATOM      5  O   UNL A   1      34.824  19.688  24.700  1.00  0.00    -0.270 OA
ATOM      6  H   UNL A   1      37.043  20.010  24.753  1.00  0.00     0.163 HD
BRANCH   4   7
ATOM      7  C   UNL A   1      34.355  21.988  24.938  1.00  0.00     0.067 C 
ATOM      8  C   UNL A   1      31.959  26.381  24.230  1.00  0.00     0.030 A 
ATOM      9  C   UNL A   1      31.703  25.224  24.974  1.00  0.00     0.063 A 
ATOM     10  C   UNL A   1      33.157  26.444  23.490  1.00  0.00     0.055 A 
ATOM     11  C   UNL A   1      32.571  24.137  24.919  1.00  0.00     0.129 A 
ATOM     12  C   UNL A   1      34.035  25.352  23.452  1.00  0.00     0.033 A 
ATOM     13  Cl  UNL A   1      33.606  27.839  22.565  1.00  0.00    -0.083 Cl
ATOM     14  C   UNL A   1      33.735  24.187  24.157  1.00  0.00     0.019 A 
ATOM     15  O   UNL A   1      32.182  23.020  25.598  1.00  0.00    -0.475 OA
ATOM     16  C   UNL A   1      34.588  23.008  24.089  1.00  0.00     0.025 C 
ATOM     17  C   UNL A   1      33.235  22.079  25.938  1.00  0.00     0.314 C 
BRANCH   8  18
ATOM     18  S   UNL A   1      30.765  27.718  24.232  1.00  0.00    -0.124 SA
BRANCH  18  19
ATOM     19  C   UNL A   1      31.627  29.044  25.169  1.00  0.00     0.078 C 
BRANCH  19  20
ATOM     20  C   UNL A   1      32.405  28.581  26.415  1.00  0.00    -0.007 C 
ATOM     21  C   UNL A   1      33.359  29.636  26.979  1.00  0.00     0.008 C 
ATOM     22  C   UNL A   1      31.403  28.193  27.510  1.00  0.00     0.008 C 
ENDBRANCH  19  20
ENDBRANCH  18  19
ENDBRANCH   8  18
BRANCH  17  23
ATOM     23  C   UNL A   1      33.733  22.395  27.362  1.00  0.00     0.429 C 
ATOM     24  F   UNL A   1      32.709  22.835  28.134  1.00  0.00    -0.167 F 
ATOM     25  F   UNL A   1      34.251  21.313  27.988  1.00  0.00    -0.167 F 
ATOM     26  F   UNL A   1      34.691  23.349  27.377  1.00  0.00    -0.167 F 
ENDBRANCH  17  23
ENDBRANCH   4   7
ENDBRANCH   2   3
ENDBRANCH   1   2
BRANCH   1  27
ATOM     27  C   UNL A   1      38.332  23.940  26.332  1.00  0.00     0.118 C 
BRANCH  27  28
ATOM     28  N   UNL A   1      39.778  23.896  26.121  1.00  0.00    -0.352 N 
ATOM     29  C   UNL A   1      40.768  24.746  26.556  1.00  0.00     0.251 C 
ATOM     30  H   UNL A   1      40.094  23.137  25.580  1.00  0.00     0.163 HD
ATOM     31  O   UNL A   1      41.900  24.651  26.088  1.00  0.00    -0.269 OA
BRANCH  29  32
ATOM     32  C   UNL A   1      40.464  25.782  27.565  1.00  0.00     0.039 A 
ATOM     33  C   UNL A   1      41.154  26.992  27.558  1.00  0.00     0.014 A 
ATOM     34  C   UNL A   1      39.491  25.536  28.539  1.00  0.00     0.014 A 
ATOM     35  C   UNL A   1      41.029  27.860  28.633  1.00  0.00     0.010 A 
ATOM     36  C   UNL A   1      39.286  26.466  29.564  1.00  0.00     0.010 A 
ATOM     37  C   UNL A   1      40.096  27.609  29.653  1.00  0.00    -0.014 A 
BRANCH  37  38
ATOM     38  C   UNL A   1      40.014  28.550  30.801  1.00  0.00     0.031 A 
ATOM     39  C   UNL A   1      41.004  28.468  31.934  1.00  0.00     0.074 A 
ATOM     40  C   UNL A   1      39.102  29.543  30.768  1.00  0.00     0.049 A 
ATOM     41  N   UNL A   1      41.102  29.228  32.995  1.00  0.00    -0.248 NA
ATOM     42  C   UNL A   1      42.012  27.396  31.875  1.00  0.00     0.031 C 
ATOM     43  C   UNL A   1      38.103  29.735  29.712  1.00  0.00     0.029 A 
ATOM     44  N   UNL A   1      38.893  30.601  31.616  1.00  0.00    -0.354 N 
ATOM     45  C   UNL A   1      42.162  28.717  33.736  1.00  0.00     0.074 A 
ATOM     46  C   UNL A   1      42.661  27.565  33.020  1.00  0.00     0.031 C 
ATOM     47  C   UNL A   1      37.443  30.882  29.933  1.00  0.00     0.029 A 
ATOM     48  C   UNL A   1      37.917  31.468  31.182  1.00  0.00     0.049 A 
ATOM     49  H   UNL A   1      39.392  30.727  32.455  1.00  0.00     0.167 HD
ATOM     50  C   UNL A   1      42.681  29.177  34.900  1.00  0.00     0.037 A 
ATOM     51  C   UNL A   1      37.444  32.603  31.731  1.00  0.00     0.037 A 
ATOM     52  C   UNL A   1      42.204  30.347  35.590  1.00  0.00     0.049 A 
ATOM     53  C   UNL A   1      38.014  33.068  33.040  1.00  0.00     0.074 A 
ATOM     54  C   UNL A   1      42.668  30.897  36.773  1.00  0.00     0.029 A 
ATOM     55  N   UNL A   1      41.165  31.155  35.154  1.00  0.00    -0.354 N 
ATOM     56  N   UNL A   1      38.998  32.553  33.737  1.00  0.00    -0.248 NA
ATOM     57  C   UNL A   1      37.396  34.253  33.649  1.00  0.00     0.031 C 
ATOM     58  C   UNL A   1      41.890  32.020  37.069  1.00  0.00     0.029 A 
ATOM     59  C   UNL A   1      40.964  32.190  36.051  1.00  0.00     0.049 A 
ATOM     60  H   UNL A   1      40.646  31.013  34.330  1.00  0.00     0.167 HD
ATOM     61  C   UNL A   1      39.117  33.350  34.868  1.00  0.00     0.074 A 
ATOM     62  C   UNL A   1      38.123  34.398  34.749  1.00  0.00     0.031 C 
ATOM     63  C   UNL A   1      39.966  33.220  35.916  1.00  0.00     0.037 A 
BRANCH  50  64
ATOM     64  C   UNL A   1      43.828  28.419  35.509  1.00  0.00     0.058 A 
ATOM     65  C   UNL A   1      45.161  28.727  35.195  1.00  0.00     0.135 A 
ATOM     66  C   UNL A   1      43.595  27.422  36.471  1.00  0.00     0.135 A 
ATOM     67  F   UNL A   1      45.440  29.658  34.269  1.00  0.00    -0.206 F 
ATOM     68  C   UNL A   1      46.222  28.068  35.807  1.00  0.00     0.059 A 
ATOM     69  C   UNL A   1      44.642  26.764  37.110  1.00  0.00     0.059 A 
ATOM     70  F   UNL A   1      42.338  27.087  36.805  1.00  0.00    -0.206 F 
ATOM     71  C   UNL A   1      45.952  27.090  36.766  1.00  0.00     0.060 A 
BRANCH  71  72
ATOM     72  S   UNL A   1      47.345  26.263  37.566  1.00  0.00     0.124 S 
ATOM     73  O   UNL A   1      48.470  26.769  36.787  1.00  0.00    -0.237 OA
ATOM     74  O   UNL A   1      47.253  26.754  38.937  1.00  0.00    -0.237 OA
ATOM     75  O   UNL A   1      47.047  24.845  37.388  1.00  0.00    -0.744 OA
ENDBRANCH  71  72
ENDBRANCH  50  64
BRANCH  51  76
ATOM     76  C   UNL A   1      36.365  33.363  31.049  1.00  0.00     0.058 A 
ATOM     77  C   UNL A   1      36.634  34.125  29.902  1.00  0.00     0.135 A 
ATOM     78  C   UNL A   1      35.042  33.324  31.515  1.00  0.00     0.135 A 
ATOM     79  F   UNL A   1      37.885  34.199  29.423  1.00  0.00    -0.206 F 
ATOM     80  C   UNL A   1      35.629  34.826  29.245  1.00  0.00     0.059 A 
ATOM     81  C   UNL A   1      34.016  33.996  30.860  1.00  0.00     0.059 A 
ATOM     82  F   UNL A   1      34.732  32.597  32.599  1.00  0.00    -0.206 F 
ATOM     83  C   UNL A   1      34.322  34.752  29.729  1.00  0.00     0.060 A 
BRANCH  83  84
ATOM     84  S   UNL A   1      33.014  35.621  28.838  1.00  0.00     0.124 S 
ATOM     85  O   UNL A   1      32.474  34.556  28.000  1.00  0.00    -0.237 OA
ATOM     86  O   UNL A   1      32.154  36.079  29.923  1.00  0.00    -0.237 OA
ATOM     87  O   UNL A   1      33.735  36.677  28.132  1.00  0.00    -0.744 OA
ENDBRANCH  83  84
ENDBRANCH  51  76
BRANCH  63  88
ATOM     88  C   UNL A   1      39.857  34.233  37.019  1.00  0.00     0.058 A 
ATOM     89  C   UNL A   1      40.471  35.489  36.913  1.00  0.00     0.135 A 
ATOM     90  C   UNL A   1      39.081  33.970  38.158  1.00  0.00     0.135 A 
ATOM     91  F   UNL A   1      41.231  35.782  35.846  1.00  0.00    -0.206 F 
ATOM     92  C   UNL A   1      40.325  36.452  37.906  1.00  0.00     0.059 A 
ATOM     93  C   UNL A   1      38.903  34.925  39.152  1.00  0.00     0.059 A 
ATOM     94  F   UNL A   1      38.467  32.783  38.300  1.00  0.00    -0.206 F 
ATOM     95  C   UNL A   1      39.535  36.162  39.020  1.00  0.00     0.060 A 
BRANCH  95  96
ATOM     96  S   UNL A   1      39.314  37.439  40.276  1.00  0.00     0.124 S 
ATOM     97  O   UNL A   1      40.679  37.929  40.441  1.00  0.00    -0.237 OA
ATOM     98  O   UNL A   1      38.385  38.358  39.626  1.00  0.00    -0.237 OA
ATOM     99  O   UNL A   1      38.768  36.706  41.413  1.00  0.00    -0.744 OA
ENDBRANCH  95  96
ENDBRANCH  63  88
ENDBRANCH  37  38
ENDBRANCH  29  32
ENDBRANCH  27  28
ENDBRANCH   1  27
TORSDOF 17
ENDMDL
MODEL 2
REMARK VINA RESULT:     -12.0      6.325      8.404
REMARK SMILES CC(C)CSc1cc2c(cc1Cl)C=C(C(=O)NCCCNC(=O)c1ccc(-c3c4nc(c(-c5c(F)cc(S(=O)(=O)[O-])cc5F)c5ccc([nH]5)c(-c5c(F)cc(S(=O)(=O)[O-])cc5F)c5nc(c(-c6c(F)cc(S(=O)(=O)[O-])cc6F)c6ccc3[nH]6)C=C5)C=C4)cc1)[C@@H](C(F)(F)F)O2
REMARK SMILES IDX 19 1 18 2 17 3 15 4 16 5 14 7 6 8 7 9 11 10 8 11 10 12 12 13
REMARK SMILES IDX 9 14 95 15 13 16 90 17 5 18 4 19 2 20 1 21 3 22 91 23 92 24
REMARK SMILES IDX 93 25 94 26 20 27 21 28 22 29 23 31 24 32 25 33 89 34 26 35
REMARK SMILES IDX 88 36 27 37 28 38 29 39 82 40 30 41 87 42 81 43 83 44 31 45
REMARK SMILES IDX 86 46 80 47 79 48 32 50 66 51 45 52 65 53 46 54 49 55 64 56
REMARK SMILES IDX 84 57 47 58 48 59 63 61 85 62 50 63 33 64 34 65 43 66 35 67
REMARK SMILES IDX 36 68 42 69 44 70 37 71 38 72 39 73 40 74 41 75 67 76 68 77
REMARK SMILES IDX 77 78 69 79 70 80 76 81 78 82 71 83 72 84 73 85 74 86 75 87
REMARK SMILES IDX 51 88 52 89 61 90 53 91 54 92 60 93 62 94 55 95 56 96 57 97
REMARK SMILES IDX 58 98 59 99
REMARK H PARENT 17 6 21 30 83 49 49 60
REMARK Flexibility Score: inf
ROOT
ATOM      1  C   UNL A   1      38.255  20.223  24.971  1.00  0.00     0.042 C 
ENDROOT
BRANCH   1   2
ATOM      2  C   UNL A   1      36.961  20.912  25.377  1.00  0.00     0.118 C 
BRANCH   2   3
ATOM      3  N   UNL A   1      35.787  20.139  24.999  1.00  0.00    -0.352 N 
ATOM      4  C   UNL A   1      34.467  20.364  24.807  1.00  0.00     0.251 C 
ATOM      5  O   UNL A   1      33.812  19.375  24.462  1.00  0.00    -0.270 OA
ATOM      6  H   UNL A   1      36.015  19.195  24.840  1.00  0.00     0.163 HD
BRANCH   4   7
ATOM      7  C   UNL A   1      33.782  21.679  24.969  1.00  0.00     0.067 C 
ATOM      8  C   UNL A   1      32.081  26.387  24.281  1.00  0.00     0.030 A 
ATOM      9  C   UNL A   1      31.766  25.340  25.154  1.00  0.00     0.063 A 
ATOM     10  C   UNL A   1      33.124  26.190  23.354  1.00  0.00     0.055 A 
ATOM     11  C   UNL A   1      32.414  24.112  25.054  1.00  0.00     0.129 A 
ATOM     12  C   UNL A   1      33.783  24.956  23.268  1.00  0.00     0.033 A 
ATOM     13  Cl  UNL A   1      33.634  27.425  22.251  1.00  0.00    -0.083 Cl
ATOM     14  C   UNL A   1      33.418  23.906  24.112  1.00  0.00     0.019 A 
ATOM     15  O   UNL A   1      31.966  23.125  25.881  1.00  0.00    -0.475 OA
ATOM     16  C   UNL A   1      34.033  22.590  24.008  1.00  0.00     0.025 C 
ATOM     17  C   UNL A   1      32.887  22.029  26.125  1.00  0.00     0.314 C 
BRANCH   8  18
ATOM     18  S   UNL A   1      31.151  27.917  24.361  1.00  0.00    -0.124 SA
BRANCH  18  19
ATOM     19  C   UNL A   1      29.730  27.600  23.240  1.00  0.00     0.078 C 
BRANCH  19  20
ATOM     20  C   UNL A   1      28.976  28.850  22.750  1.00  0.00    -0.007 C 
ATOM     21  C   UNL A   1      27.469  28.811  23.014  1.00  0.00     0.008 C 
ATOM     22  C   UNL A   1      29.560  30.087  23.445  1.00  0.00     0.008 C 
ENDBRANCH  19  20
ENDBRANCH  18  19
ENDBRANCH   8  18
BRANCH  17  23
ATOM     23  C   UNL A   1      33.672  22.328  27.417  1.00  0.00     0.429 C 
ATOM     24  F   UNL A   1      34.606  23.287  27.192  1.00  0.00    -0.167 F 
ATOM     25  F   UNL A   1      32.883  22.785  28.416  1.00  0.00    -0.167 F 
ATOM     26  F   UNL A   1      34.317  21.240  27.895  1.00  0.00    -0.167 F 
ENDBRANCH  17  23
ENDBRANCH   4   7
ENDBRANCH   2   3
ENDBRANCH   1   2
BRANCH   1  27
ATOM     27  C   UNL A   1      39.386  20.479  25.959  1.00  0.00     0.118 C 
BRANCH  27  28
ATOM     28  N   UNL A   1      40.326  19.362  26.025  1.00  0.00    -0.352 N 
ATOM     29  C   UNL A   1      41.698  19.356  26.127  1.00  0.00     0.251 C 
ATOM     30  H   UNL A   1      39.911  18.470  25.990  1.00  0.00     0.163 HD
ATOM     31  O   UNL A   1      42.316  18.310  25.951  1.00  0.00    -0.269 OA
BRANCH  29  32
ATOM     32  C   UNL A   1      42.422  20.609  26.426  1.00  0.00     0.039 A 
ATOM     33  C   UNL A   1      42.483  21.088  27.734  1.00  0.00     0.014 A 
ATOM     34  C   UNL A   1      43.034  21.321  25.391  1.00  0.00     0.014 A 
ATOM     35  C   UNL A   1      42.963  22.368  27.973  1.00  0.00     0.010 A 
ATOM     36  C   UNL A   1      43.618  22.564  25.654  1.00  0.00     0.010 A 
ATOM     37  C   UNL A   1      43.534  23.126  26.938  1.00  0.00    -0.014 A 
BRANCH  37  38
ATOM     38  C   UNL A   1      44.010  24.503  27.233  1.00  0.00     0.031 A 
ATOM     39  C   UNL A   1      45.443  24.892  26.980  1.00  0.00     0.074 A 
ATOM     40  C   UNL A   1      43.117  25.430  27.637  1.00  0.00     0.049 A 
ATOM     41  N   UNL A   1      46.021  26.055  27.147  1.00  0.00    -0.248 NA
ATOM     42  C   UNL A   1      46.350  23.845  26.480  1.00  0.00     0.031 C 
ATOM     43  C   UNL A   1      41.697  25.175  27.897  1.00  0.00     0.029 A 
ATOM     44  N   UNL A   1      43.255  26.776  27.857  1.00  0.00    -0.354 N 
ATOM     45  C   UNL A   1      47.354  25.876  26.795  1.00  0.00     0.074 A 
ATOM     46  C   UNL A   1      47.511  24.486  26.430  1.00  0.00     0.031 C 
ATOM     47  C   UNL A   1      41.082  26.337  28.163  1.00  0.00     0.029 A 
ATOM     48  C   UNL A   1      42.073  27.407  28.168  1.00  0.00     0.049 A 
ATOM     49  H   UNL A   1      44.119  27.247  27.800  1.00  0.00     0.167 HD
ATOM     50  C   UNL A   1      48.351  26.792  26.763  1.00  0.00     0.037 A 
ATOM     51  C   UNL A   1      41.813  28.700  28.438  1.00  0.00     0.037 A 
ATOM     52  C   UNL A   1      48.181  28.183  27.092  1.00  0.00     0.049 A 
ATOM     53  C   UNL A   1      42.946  29.685  28.432  1.00  0.00     0.074 A 
ATOM     54  C   UNL A   1      49.131  29.191  27.085  1.00  0.00     0.029 A 
ATOM     55  N   UNL A   1      46.982  28.766  27.473  1.00  0.00    -0.354 N 
ATOM     56  N   UNL A   1      44.204  29.488  28.123  1.00  0.00    -0.248 NA
ATOM     57  C   UNL A   1      42.629  31.062  28.833  1.00  0.00     0.031 C 
ATOM     58  C   UNL A   1      48.512  30.377  27.492  1.00  0.00     0.029 A 
ATOM     59  C   UNL A   1      47.170  30.116  27.717  1.00  0.00     0.049 A 
ATOM     60  H   UNL A   1      46.124  28.290  27.557  1.00  0.00     0.167 HD
ATOM     61  C   UNL A   1      44.831  30.715  28.292  1.00  0.00     0.074 A 
ATOM     62  C   UNL A   1      43.809  31.655  28.706  1.00  0.00     0.031 C 
ATOM     63  C   UNL A   1      46.139  31.033  28.132  1.00  0.00     0.037 A 
BRANCH  50  64
ATOM     64  C   UNL A   1      49.723  26.326  26.359  1.00  0.00     0.058 A 
ATOM     65  C   UNL A   1      50.189  26.470  25.043  1.00  0.00     0.135 A 
ATOM     66  C   UNL A   1      50.608  25.798  27.314  1.00  0.00     0.135 A 
ATOM     67  F   UNL A   1      49.378  26.951  24.088  1.00  0.00    -0.206 F 
ATOM     68  C   UNL A   1      51.480  26.097  24.685  1.00  0.00     0.059 A 
ATOM     69  C   UNL A   1      51.911  25.437  26.982  1.00  0.00     0.059 A 
ATOM     70  F   UNL A   1      50.211  25.638  28.586  1.00  0.00    -0.206 F 
ATOM     71  C   UNL A   1      52.335  25.585  25.663  1.00  0.00     0.060 A 
BRANCH  71  72
ATOM     72  S   UNL A   1      54.016  25.130  25.182  1.00  0.00     0.124 S 
ATOM     73  O   UNL A   1      54.767  25.478  26.384  1.00  0.00    -0.237 OA
ATOM     74  O   UNL A   1      53.885  23.702  24.908  1.00  0.00    -0.237 OA
ATOM     75  O   UNL A   1      54.276  25.969  24.016  1.00  0.00    -0.744 OA
ENDBRANCH  71  72
ENDBRANCH  50  64
BRANCH  51  76
ATOM     76  C   UNL A   1      40.425  29.127  28.751  1.00  0.00     0.058 A 
ATOM     77  C   UNL A   1      39.502  29.388  27.728  1.00  0.00     0.135 A 
ATOM     78  C   UNL A   1      39.986  29.258  30.078  1.00  0.00     0.135 A 
ATOM     79  F   UNL A   1      39.876  29.284  26.443  1.00  0.00    -0.206 F 
ATOM     80  C   UNL A   1      38.195  29.772  28.009  1.00  0.00     0.059 A 
ATOM     81  C   UNL A   1      38.677  29.615  30.384  1.00  0.00     0.059 A 
ATOM     82  F   UNL A   1      40.827  29.004  31.092  1.00  0.00    -0.206 F 
ATOM     83  C   UNL A   1      37.791  29.878  29.340  1.00  0.00     0.060 A 
BRANCH  83  84
ATOM     84  S   UNL A   1      36.077  30.322  29.696  1.00  0.00     0.124 S 
ATOM     85  O   UNL A   1      35.903  29.766  31.033  1.00  0.00    -0.237 OA
ATOM     86  O   UNL A   1      36.112  31.778  29.609  1.00  0.00    -0.237 OA
ATOM     87  O   UNL A   1      35.331  29.656  28.631  1.00  0.00    -0.744 OA
ENDBRANCH  83  84
ENDBRANCH  51  76
BRANCH  63  88
ATOM     88  C   UNL A   1      46.541  32.454  28.404  1.00  0.00     0.058 A 
ATOM     89  C   UNL A   1      47.004  32.847  29.667  1.00  0.00     0.135 A 
ATOM     90  C   UNL A   1      46.524  33.411  27.378  1.00  0.00     0.135 A 
ATOM     91  F   UNL A   1      47.030  31.968  30.682  1.00  0.00    -0.206 F 
ATOM     92  C   UNL A   1      47.432  34.148  29.908  1.00  0.00     0.059 A 
ATOM     93  C   UNL A   1      46.968  34.711  27.590  1.00  0.00     0.059 A 
ATOM     94  F   UNL A   1      46.096  33.078  26.149  1.00  0.00    -0.206 F 
ATOM     95  C   UNL A   1      47.415  35.071  28.862  1.00  0.00     0.060 A 
BRANCH  95  96
ATOM     96  S   UNL A   1      48.020  36.743  29.176  1.00  0.00     0.124 S 
ATOM     97  O   UNL A   1      48.188  36.727  30.626  1.00  0.00    -0.237 OA
ATOM     98  O   UNL A   1      49.254  36.780  28.396  1.00  0.00    -0.237 OA
ATOM     99  O   UNL A   1      46.944  37.593  28.678  1.00  0.00    -0.744 OA
ENDBRANCH  95  96
ENDBRANCH  63  88
ENDBRANCH  37  38
ENDBRANCH  29  32
ENDBRANCH  27  28
ENDBRANCH   1  27
TORSDOF 17
ENDMDL
MODEL 3
REMARK VINA RESULT:     -11.9      6.676     12.057
REMARK SMILES CC(C)CSc1cc2c(cc1Cl)C=C(C(=O)NCCCNC(=O)c1ccc(-c3c4nc(c(-c5c(F)cc(S(=O)(=O)[O-])cc5F)c5ccc([nH]5)c(-c5c(F)cc(S(=O)(=O)[O-])cc5F)c5nc(c(-c6c(F)cc(S(=O)(=O)[O-])cc6F)c6ccc3[nH]6)C=C5)C=C4)cc1)[C@@H](C(F)(F)F)O2
REMARK SMILES IDX 19 1 18 2 17 3 15 4 16 5 14 7 6 8 7 9 11 10 8 11 10 12 12 13
REMARK SMILES IDX 9 14 95 15 13 16 90 17 5 18 4 19 2 20 1 21 3 22 91 23 92 24
REMARK SMILES IDX 93 25 94 26 20 27 21 28 22 29 23 31 24 32 25 33 89 34 26 35
REMARK SMILES IDX 88 36 27 37 28 38 29 39 82 40 30 41 87 42 81 43 83 44 31 45
REMARK SMILES IDX 86 46 80 47 79 48 32 50 66 51 45 52 65 53 46 54 49 55 64 56
REMARK SMILES IDX 84 57 47 58 48 59 63 61 85 62 50 63 33 64 34 65 43 66 35 67
REMARK SMILES IDX 36 68 42 69 44 70 37 71 38 72 39 73 40 74 41 75 67 76 68 77
REMARK SMILES IDX 77 78 69 79 70 80 76 81 78 82 71 83 72 84 73 85 74 86 75 87
REMARK SMILES IDX 51 88 52 89 61 90 53 91 54 92 60 93 62 94 55 95 56 96 57 97
REMARK SMILES IDX 58 98 59 99
REMARK H PARENT 17 6 21 30 83 49 49 60
REMARK Flexibility Score: inf
ROOT
ATOM      1  C   UNL A   1      34.395  29.725  27.432  1.00  0.00     0.042 C 
ENDROOT
BRANCH   1   2
ATOM      2  C   UNL A   1      33.099  30.269  26.850  1.00  0.00     0.118 C 
BRANCH   2   3
ATOM      3  N   UNL A   1      33.017  30.063  25.411  1.00  0.00    -0.352 N 
ATOM      4  C   UNL A   1      32.878  29.021  24.561  1.00  0.00     0.251 C 
ATOM      5  O   UNL A   1      32.841  29.322  23.363  1.00  0.00    -0.270 OA
ATOM      6  H   UNL A   1      33.080  30.916  24.923  1.00  0.00     0.163 HD
BRANCH   4   7
ATOM      7  C   UNL A   1      32.762  27.589  24.962  1.00  0.00     0.067 C 
ATOM      8  C   UNL A   1      33.721  22.724  25.936  1.00  0.00     0.030 A 
ATOM      9  C   UNL A   1      32.678  23.606  26.240  1.00  0.00     0.063 A 
ATOM     10  C   UNL A   1      34.791  23.204  25.155  1.00  0.00     0.055 A 
ATOM     11  C   UNL A   1      32.739  24.940  25.846  1.00  0.00     0.129 A 
ATOM     12  C   UNL A   1      34.839  24.544  24.748  1.00  0.00     0.033 A 
ATOM     13  Cl  UNL A   1      36.119  22.197  24.677  1.00  0.00    -0.083 Cl
ATOM     14  C   UNL A   1      33.815  25.422  25.108  1.00  0.00     0.019 A 
ATOM     15  O   UNL A   1      31.724  25.742  26.278  1.00  0.00    -0.475 OA
ATOM     16  C   UNL A   1      33.861  26.836  24.761  1.00  0.00     0.025 C 
ATOM     17  C   UNL A   1      31.515  26.969  25.528  1.00  0.00     0.314 C 
BRANCH   8  18
ATOM     18  S   UNL A   1      33.667  21.042  26.554  1.00  0.00    -0.124 SA
BRANCH  18  19
ATOM     19  C   UNL A   1      33.823  20.032  25.027  1.00  0.00     0.078 C 
BRANCH  19  20
ATOM     20  C   UNL A   1      32.535  19.875  24.198  1.00  0.00    -0.007 C 
ATOM     21  C   UNL A   1      32.349  20.952  23.127  1.00  0.00     0.008 C 
ATOM     22  C   UNL A   1      32.550  18.502  23.513  1.00  0.00     0.008 C 
ENDBRANCH  19  20
ENDBRANCH  18  19
ENDBRANCH   8  18
BRANCH  17  23
ATOM     23  C   UNL A   1      30.440  26.709  24.455  1.00  0.00     0.429 C 
ATOM     24  F   UNL A   1      30.981  26.076  23.385  1.00  0.00    -0.167 F 
ATOM     25  F   UNL A   1      29.433  25.922  24.901  1.00  0.00    -0.167 F 
ATOM     26  F   UNL A   1      29.871  27.850  24.005  1.00  0.00    -0.167 F 
ENDBRANCH  17  23
ENDBRANCH   4   7
ENDBRANCH   2   3
ENDBRANCH   1   2
BRANCH   1  27
ATOM     27  C   UNL A   1      35.314  30.829  27.938  1.00  0.00     0.118 C 
BRANCH  27  28
ATOM     28  N   UNL A   1      35.397  30.855  29.397  1.00  0.00    -0.352 N 
ATOM     29  C   UNL A   1      36.332  30.310  30.247  1.00  0.00     0.251 C 
ATOM     30  H   UNL A   1      34.666  31.340  29.844  1.00  0.00     0.163 HD
ATOM     31  O   UNL A   1      36.102  30.262  31.452  1.00  0.00    -0.269 OA
BRANCH  29  32
ATOM     32  C   UNL A   1      37.595  29.767  29.706  1.00  0.00     0.039 A 
ATOM     33  C   UNL A   1      38.455  29.042  30.529  1.00  0.00     0.014 A 
ATOM     34  C   UNL A   1      37.934  29.997  28.370  1.00  0.00     0.014 A 
ATOM     35  C   UNL A   1      39.733  28.733  30.084  1.00  0.00     0.010 A 
ATOM     36  C   UNL A   1      39.181  29.586  27.890  1.00  0.00     0.010 A 
ATOM     37  C   UNL A   1      40.115  29.003  28.760  1.00  0.00    -0.014 A 
BRANCH  37  38
ATOM     38  C   UNL A   1      41.503  28.682  28.333  1.00  0.00     0.031 A 
ATOM     39  C   UNL A   1      42.595  29.717  28.425  1.00  0.00     0.074 A 
ATOM     40  C   UNL A   1      41.795  27.421  27.954  1.00  0.00     0.049 A 
ATOM     41  N   UNL A   1      43.865  29.600  28.130  1.00  0.00    -0.248 NA
ATOM     42  C   UNL A   1      42.217  31.057  28.905  1.00  0.00     0.031 C 
ATOM     43  C   UNL A   1      40.824  26.328  27.845  1.00  0.00     0.029 A 
ATOM     44  N   UNL A   1      42.992  26.832  27.635  1.00  0.00    -0.354 N 
ATOM     45  C   UNL A   1      44.430  30.848  28.367  1.00  0.00     0.074 A 
ATOM     46  C   UNL A   1      43.363  31.719  28.805  1.00  0.00     0.031 C 
ATOM     47  C   UNL A   1      41.473  25.189  27.563  1.00  0.00     0.029 A 
ATOM     48  C   UNL A   1      42.892  25.480  27.396  1.00  0.00     0.049 A 
ATOM     49  H   UNL A   1      43.840  27.328  27.581  1.00  0.00     0.167 HD
ATOM     50  C   UNL A   1      45.725  31.227  28.246  1.00  0.00     0.037 A 
ATOM     51  C   UNL A   1      43.834  24.576  27.068  1.00  0.00     0.037 A 
ATOM     52  C   UNL A   1      46.790  30.346  27.845  1.00  0.00     0.049 A 
ATOM     53  C   UNL A   1      45.255  25.034  26.904  1.00  0.00     0.074 A 
ATOM     54  C   UNL A   1      48.136  30.636  27.697  1.00  0.00     0.029 A 
ATOM     55  N   UNL A   1      46.634  29.003  27.540  1.00  0.00    -0.354 N 
ATOM     56  N   UNL A   1      45.762  26.225  27.107  1.00  0.00    -0.248 NA
ATOM     57  C   UNL A   1      46.226  24.032  26.446  1.00  0.00     0.031 C 
ATOM     58  C   UNL A   1      48.790  29.474  27.274  1.00  0.00     0.029 A 
ATOM     59  C   UNL A   1      47.857  28.452  27.193  1.00  0.00     0.049 A 
ATOM     60  H   UNL A   1      45.781  28.512  27.567  1.00  0.00     0.167 HD
ATOM     61  C   UNL A   1      47.112  26.118  26.800  1.00  0.00     0.074 A 
ATOM     62  C   UNL A   1      47.348  24.739  26.424  1.00  0.00     0.031 C 
ATOM     63  C   UNL A   1      48.069  27.078  26.817  1.00  0.00     0.037 A 
BRANCH  50  64
ATOM     64  C   UNL A   1      46.071  32.659  28.550  1.00  0.00     0.058 A 
ATOM     65  C   UNL A   1      46.017  33.654  27.562  1.00  0.00     0.135 A 
ATOM     66  C   UNL A   1      46.392  33.053  29.860  1.00  0.00     0.135 A 
ATOM     67  F   UNL A   1      45.735  33.328  26.290  1.00  0.00    -0.206 F 
ATOM     68  C   UNL A   1      46.277  34.988  27.859  1.00  0.00     0.059 A 
ATOM     69  C   UNL A   1      46.636  34.384  30.184  1.00  0.00     0.059 A 
ATOM     70  F   UNL A   1      46.460  32.139  30.842  1.00  0.00    -0.206 F 
ATOM     71  C   UNL A   1      46.581  35.343  29.174  1.00  0.00     0.060 A 
BRANCH  71  72
ATOM     72  S   UNL A   1      46.891  37.084  29.543  1.00  0.00     0.124 S 
ATOM     73  O   UNL A   1      47.511  37.539  28.303  1.00  0.00    -0.237 OA
ATOM     74  O   UNL A   1      45.548  37.592  29.802  1.00  0.00    -0.237 OA
ATOM     75  O   UNL A   1      47.776  37.035  30.704  1.00  0.00    -0.744 OA
ENDBRANCH  71  72
ENDBRANCH  50  64
BRANCH  51  76
ATOM     76  C   UNL A   1      43.456  23.155  26.858  1.00  0.00     0.058 A 
ATOM     77  C   UNL A   1      43.131  22.328  27.943  1.00  0.00     0.135 A 
ATOM     78  C   UNL A   1      43.388  22.603  25.570  1.00  0.00     0.135 A 
ATOM     79  F   UNL A   1      43.188  22.808  29.195  1.00  0.00    -0.206 F 
ATOM     80  C   UNL A   1      42.758  21.000  27.758  1.00  0.00     0.059 A 
ATOM     81  C   UNL A   1      42.993  21.287  25.358  1.00  0.00     0.059 A 
ATOM     82  F   UNL A   1      43.675  23.359  24.498  1.00  0.00    -0.206 F 
ATOM     83  C   UNL A   1      42.688  20.490  26.461  1.00  0.00     0.060 A 
BRANCH  83  84
ATOM     84  S   UNL A   1      42.149  18.783  26.226  1.00  0.00     0.124 S 
ATOM     85  O   UNL A   1      42.315  18.237  27.569  1.00  0.00    -0.237 OA
ATOM     86  O   UNL A   1      40.774  18.954  25.770  1.00  0.00    -0.237 OA
ATOM     87  O   UNL A   1      43.076  18.275  25.218  1.00  0.00    -0.744 OA
ENDBRANCH  83  84
ENDBRANCH  51  76
BRANCH  63  88
ATOM     88  C   UNL A   1      49.458  26.672  26.417  1.00  0.00     0.058 A 
ATOM     89  C   UNL A   1      50.324  26.053  27.329  1.00  0.00     0.135 A 
ATOM     90  C   UNL A   1      49.901  26.844  25.096  1.00  0.00     0.135 A 
ATOM     91  F   UNL A   1      49.947  25.876  28.606  1.00  0.00    -0.206 F 
ATOM     92  C   UNL A   1      51.590  25.623  26.948  1.00  0.00     0.059 A 
ATOM     93  C   UNL A   1      51.154  26.402  24.688  1.00  0.00     0.059 A 
ATOM     94  F   UNL A   1      49.103  27.425  24.185  1.00  0.00    -0.206 F 
ATOM     95  C   UNL A   1      51.994  25.798  25.623  1.00  0.00     0.060 A 
BRANCH  95  96
ATOM     96  S   UNL A   1      53.621  25.190  25.130  1.00  0.00     0.124 S 
ATOM     97  O   UNL A   1      54.492  25.880  26.076  1.00  0.00    -0.237 OA
ATOM     98  O   UNL A   1      53.487  23.749  25.327  1.00  0.00    -0.237 OA
ATOM     99  O   UNL A   1      53.737  25.619  23.741  1.00  0.00    -0.744 OA
ENDBRANCH  95  96
ENDBRANCH  63  88
ENDBRANCH  37  38
ENDBRANCH  29  32
ENDBRANCH  27  28
ENDBRANCH   1  27
TORSDOF 17
ENDMDL
