MODEL 1
REMARK VINA RESULT:     -11.4      0.000      0.000
REMARK SMILES Nc1ccc(Cl)c(SC[C@H]2CC[C@H](C(=O)NCCCNC(=O)c3ccc(-c4c5nc(c(-c6c(F)cc(S(=O)(=O)[O-])cc6F)c6ccc([nH]6)c(-c6c(F)cc(S(=O)(=O)[O-])cc6F)c6nc(c(-c7c(F)cc(S(=O)(=O)[O-])cc7F)c7ccc4[nH]7)C=C6)C=C5)cc3)O2)c1
REMARK SMILES IDX 17 1 16 2 14 3 15 4 13 6 10 7 11 8 89 9 12 10 9 11 8 12 7 13
REMARK SMILES IDX 2 14 3 15 90 16 4 17 5 18 6 19 1 20 18 23 19 24 20 25 21 26
REMARK SMILES IDX 22 28 23 29 24 30 88 31 25 32 87 33 26 34 27 35 28 36 81 37
REMARK SMILES IDX 29 38 86 39 80 40 82 41 30 42 85 43 79 44 78 45 31 47 65 48
REMARK SMILES IDX 44 49 64 50 45 51 48 52 63 53 83 54 46 55 47 56 62 58 84 59
REMARK SMILES IDX 49 60 32 61 33 62 42 63 34 64 35 65 41 66 43 67 36 68 37 69
REMARK SMILES IDX 38 70 39 71 40 72 66 73 67 74 76 75 68 76 69 77 75 78 77 79
REMARK SMILES IDX 70 80 71 81 72 82 73 83 74 84 50 85 51 86 60 87 52 88 53 89
REMARK SMILES IDX 59 90 61 91 54 92 55 93 56 94 57 95 58 96
REMARK H PARENT 16 5 1 21 1 22 20 27 82 46 48 57
REMARK Flexibility Score: inf
ROOT
ATOM      1  C   UNL A   1      39.868  22.212  26.788  1.00  0.00     0.117 C 
ENDROOT
BRANCH   1   2
ATOM      2  N   UNL A   1      39.448  21.093  25.971  1.00  0.00    -0.354 N 
ATOM      3  C   UNL A   1      38.255  20.850  25.358  1.00  0.00     0.249 C 
ATOM      4  O   UNL A   1      38.147  19.797  24.722  1.00  0.00    -0.272 OA
ATOM      5  H   UNL A   1      40.131  20.396  25.837  1.00  0.00     0.163 HD
BRANCH   3   6
ATOM      6  C   UNL A   1      37.057  21.811  25.497  1.00  0.00     0.207 C 
ATOM      7  C   UNL A   1      34.923  21.969  24.545  1.00  0.00     0.129 C 
ATOM      8  C   UNL A   1      35.827  22.865  23.720  1.00  0.00     0.036 C 
ATOM      9  O   UNL A   1      35.764  21.211  25.420  1.00  0.00    -0.364 OA
ATOM     10  C   UNL A   1      37.112  22.957  24.501  1.00  0.00     0.045 C 
BRANCH   7  11
ATOM     11  C   UNL A   1      33.770  22.665  25.290  1.00  0.00     0.107 C 
BRANCH  11  12
ATOM     12  S   UNL A   1      32.126  21.863  25.224  1.00  0.00    -0.122 SA
BRANCH  12  13
ATOM     13  C   UNL A   1      32.437  20.163  24.677  1.00  0.00     0.028 A 
ATOM     14  C   UNL A   1      32.936  17.797  25.138  1.00  0.00     0.033 A 
ATOM     15  C   UNL A   1      32.855  17.513  23.780  1.00  0.00     0.027 A 
ATOM     16  C   UNL A   1      32.783  19.125  25.561  1.00  0.00     0.042 A 
ATOM     17  C   UNL A   1      32.545  18.522  22.869  1.00  0.00     0.024 A 
ATOM     18  C   UNL A   1      32.327  19.834  23.311  1.00  0.00     0.054 A 
ATOM     19  Cl  UNL A   1      31.931  20.998  22.087  1.00  0.00    -0.083 Cl
BRANCH  14  20
ATOM     20  N   UNL A   1      33.297  16.809  26.044  1.00  0.00    -0.399 N 
ATOM     21  H   UNL A   1      34.230  16.498  26.087  1.00  0.00     0.156 HD
ATOM     22  H   UNL A   1      32.621  16.418  26.643  1.00  0.00     0.156 HD
ENDBRANCH  14  20
ENDBRANCH  12  13
ENDBRANCH  11  12
ENDBRANCH   7  11
ENDBRANCH   3   6
ENDBRANCH   1   2
BRANCH   1  23
ATOM     23  C   UNL A   1      41.279  22.023  27.326  1.00  0.00     0.042 C 
BRANCH  23  24
ATOM     24  C   UNL A   1      42.020  23.342  27.496  1.00  0.00     0.118 C 
BRANCH  24  25
ATOM     25  N   UNL A   1      41.869  24.202  26.327  1.00  0.00    -0.352 N 
ATOM     26  C   UNL A   1      41.422  25.493  26.235  1.00  0.00     0.251 C 
ATOM     27  H   UNL A   1      42.128  23.790  25.472  1.00  0.00     0.163 HD
ATOM     28  O   UNL A   1      41.140  25.954  25.129  1.00  0.00    -0.269 OA
BRANCH  26  29
ATOM     29  C   UNL A   1      41.273  26.325  27.446  1.00  0.00     0.039 A 
ATOM     30  C   UNL A   1      42.186  27.358  27.677  1.00  0.00     0.014 A 
ATOM     31  C   UNL A   1      40.258  26.068  28.372  1.00  0.00     0.014 A 
ATOM     32  C   UNL A   1      42.049  28.164  28.809  1.00  0.00     0.010 A 
ATOM     33  C   UNL A   1      40.073  26.922  29.454  1.00  0.00     0.010 A 
ATOM     34  C   UNL A   1      40.974  27.969  29.691  1.00  0.00    -0.014 A 
BRANCH  34  35
ATOM     35  C   UNL A   1      40.785  28.833  30.883  1.00  0.00     0.031 A 
ATOM     36  C   UNL A   1      39.727  29.904  30.870  1.00  0.00     0.074 A 
ATOM     37  C   UNL A   1      41.604  28.694  31.942  1.00  0.00     0.049 A 
ATOM     38  N   UNL A   1      39.469  30.820  31.766  1.00  0.00    -0.248 NA
ATOM     39  C   UNL A   1      38.862  29.970  29.679  1.00  0.00     0.031 C 
ATOM     40  C   UNL A   1      42.693  27.719  32.051  1.00  0.00     0.029 A 
ATOM     41  N   UNL A   1      41.657  29.380  33.129  1.00  0.00    -0.354 N 
ATOM     42  C   UNL A   1      38.426  31.578  31.245  1.00  0.00     0.074 A 
ATOM     43  C   UNL A   1      38.136  31.050  29.930  1.00  0.00     0.031 C 
ATOM     44  C   UNL A   1      43.290  27.856  33.246  1.00  0.00     0.029 A 
ATOM     45  C   UNL A   1      42.656  28.952  33.972  1.00  0.00     0.049 A 
ATOM     46  H   UNL A   1      41.038  30.112  33.356  1.00  0.00     0.167 HD
ATOM     47  C   UNL A   1      37.753  32.600  31.822  1.00  0.00     0.037 A 
ATOM     48  C   UNL A   1      43.023  29.400  35.188  1.00  0.00     0.037 A 
ATOM     49  C   UNL A   1      38.028  33.098  33.144  1.00  0.00     0.049 A 
ATOM     50  C   UNL A   1      42.262  30.542  35.804  1.00  0.00     0.074 A 
ATOM     51  C   UNL A   1      37.378  34.103  33.838  1.00  0.00     0.029 A 
ATOM     52  N   UNL A   1      39.030  32.620  33.976  1.00  0.00    -0.354 N 
ATOM     53  N   UNL A   1      41.248  31.217  35.314  1.00  0.00    -0.248 NA
ATOM     54  C   UNL A   1      42.687  30.980  37.141  1.00  0.00     0.031 C 
ATOM     55  C   UNL A   1      38.008  34.256  35.077  1.00  0.00     0.029 A 
ATOM     56  C   UNL A   1      39.022  33.317  35.172  1.00  0.00     0.049 A 
ATOM     57  H   UNL A   1      39.654  31.894  33.749  1.00  0.00     0.167 HD
ATOM     58  C   UNL A   1      40.896  32.137  36.295  1.00  0.00     0.074 A 
ATOM     59  C   UNL A   1      41.797  31.925  37.409  1.00  0.00     0.031 C 
ATOM     60  C   UNL A   1      39.917  33.075  36.276  1.00  0.00     0.037 A 
BRANCH  47  61
ATOM     61  C   UNL A   1      36.640  33.238  31.036  1.00  0.00     0.058 A 
ATOM     62  C   UNL A   1      35.293  33.033  31.374  1.00  0.00     0.135 A 
ATOM     63  C   UNL A   1      36.922  34.100  29.963  1.00  0.00     0.135 A 
ATOM     64  F   UNL A   1      34.967  32.204  32.379  1.00  0.00    -0.206 F 
ATOM     65  C   UNL A   1      34.264  33.642  30.664  1.00  0.00     0.059 A 
ATOM     66  C   UNL A   1      35.908  34.742  29.256  1.00  0.00     0.059 A 
ATOM     67  F   UNL A   1      38.192  34.329  29.595  1.00  0.00    -0.206 F 
ATOM     68  C   UNL A   1      34.581  34.498  29.609  1.00  0.00     0.060 A 
BRANCH  68  69
ATOM     69  S   UNL A   1      33.232  35.297  28.713  1.00  0.00     0.124 S 
ATOM     70  O   UNL A   1      32.614  34.157  28.042  1.00  0.00    -0.237 OA
ATOM     71  O   UNL A   1      32.452  35.895  29.792  1.00  0.00    -0.237 OA
ATOM     72  O   UNL A   1      33.917  36.244  27.840  1.00  0.00    -0.744 OA
ENDBRANCH  68  69
ENDBRANCH  47  61
BRANCH  48  73
ATOM     73  C   UNL A   1      44.153  28.759  35.913  1.00  0.00     0.058 A 
ATOM     74  C   UNL A   1      45.472  29.202  35.726  1.00  0.00     0.135 A 
ATOM     75  C   UNL A   1      43.943  27.689  36.794  1.00  0.00     0.135 A 
ATOM     76  F   UNL A   1      45.724  30.222  34.890  1.00  0.00    -0.206 F 
ATOM     77  C   UNL A   1      46.545  28.588  36.363  1.00  0.00     0.059 A 
ATOM     78  C   UNL A   1      44.997  27.076  37.465  1.00  0.00     0.059 A 
ATOM     79  F   UNL A   1      42.700  27.240  37.026  1.00  0.00    -0.206 F 
ATOM     80  C   UNL A   1      46.297  27.523  37.230  1.00  0.00     0.060 A 
BRANCH  80  81
ATOM     81  S   UNL A   1      47.694  26.746  38.070  1.00  0.00     0.124 S 
ATOM     82  O   UNL A   1      48.334  26.031  36.973  1.00  0.00    -0.237 OA
ATOM     83  O   UNL A   1      48.420  27.900  38.591  1.00  0.00    -0.237 OA
ATOM     84  O   UNL A   1      47.052  25.911  39.081  1.00  0.00    -0.744 OA
ENDBRANCH  80  81
ENDBRANCH  48  73
BRANCH  60  85
ATOM     85  C   UNL A   1      39.738  33.911  37.512  1.00  0.00     0.058 A 
ATOM     86  C   UNL A   1      38.881  33.517  38.551  1.00  0.00     0.135 A 
ATOM     87  C   UNL A   1      40.475  35.095  37.679  1.00  0.00     0.135 A 
ATOM     88  F   UNL A   1      38.151  32.397  38.435  1.00  0.00    -0.206 F 
ATOM     89  C   UNL A   1      38.744  34.281  39.705  1.00  0.00     0.059 A 
ATOM     90  C   UNL A   1      40.374  35.859  38.837  1.00  0.00     0.059 A 
ATOM     91  F   UNL A   1      41.316  35.509  36.719  1.00  0.00    -0.206 F 
ATOM     92  C   UNL A   1      39.495  35.450  39.839  1.00  0.00     0.060 A 
BRANCH  92  93
ATOM     93  S   UNL A   1      39.334  36.413  41.357  1.00  0.00     0.124 S 
ATOM     94  O   UNL A   1      38.275  35.689  42.053  1.00  0.00    -0.237 OA
ATOM     95  O   UNL A   1      40.668  36.302  41.941  1.00  0.00    -0.237 OA
ATOM     96  O   UNL A   1      38.975  37.744  40.878  1.00  0.00    -0.744 OA
ENDBRANCH  92  93
ENDBRANCH  60  85
ENDBRANCH  34  35
ENDBRANCH  26  29
ENDBRANCH  24  25
ENDBRANCH  23  24
ENDBRANCH   1  23
TORSDOF 17
ENDMDL
MODEL 2
REMARK VINA RESULT:     -11.4      3.748      9.855
REMARK SMILES Nc1ccc(Cl)c(SC[C@H]2CC[C@H](C(=O)NCCCNC(=O)c3ccc(-c4c5nc(c(-c6c(F)cc(S(=O)(=O)[O-])cc6F)c6ccc([nH]6)c(-c6c(F)cc(S(=O)(=O)[O-])cc6F)c6nc(c(-c7c(F)cc(S(=O)(=O)[O-])cc7F)c7ccc4[nH]7)C=C6)C=C5)cc3)O2)c1
REMARK SMILES IDX 17 1 16 2 14 3 15 4 13 6 10 7 11 8 89 9 12 10 9 11 8 12 7 13
REMARK SMILES IDX 2 14 3 15 90 16 4 17 5 18 6 19 1 20 18 23 19 24 20 25 21 26
REMARK SMILES IDX 22 28 23 29 24 30 88 31 25 32 87 33 26 34 27 35 28 36 81 37
REMARK SMILES IDX 29 38 86 39 80 40 82 41 30 42 85 43 79 44 78 45 31 47 65 48
REMARK SMILES IDX 44 49 64 50 45 51 48 52 63 53 83 54 46 55 47 56 62 58 84 59
REMARK SMILES IDX 49 60 32 61 33 62 42 63 34 64 35 65 41 66 43 67 36 68 37 69
REMARK SMILES IDX 38 70 39 71 40 72 66 73 67 74 76 75 68 76 69 77 75 78 77 79
REMARK SMILES IDX 70 80 71 81 72 82 73 83 74 84 50 85 51 86 60 87 52 88 53 89
REMARK SMILES IDX 59 90 61 91 54 92 55 93 56 94 57 95 58 96
REMARK H PARENT 16 5 1 21 1 22 20 27 82 46 48 57
REMARK Flexibility Score: inf
ROOT
ATOM      1  C   UNL A   1      41.017  20.941  26.157  1.00  0.00     0.117 C 
ENDROOT
BRANCH   1   2
ATOM      2  N   UNL A   1      41.329  19.537  25.995  1.00  0.00    -0.354 N 
ATOM      3  C   UNL A   1      42.535  18.913  25.867  1.00  0.00     0.249 C 
ATOM      4  O   UNL A   1      42.527  17.686  25.726  1.00  0.00    -0.272 OA
ATOM      5  H   UNL A   1      40.548  18.936  25.975  1.00  0.00     0.163 HD
BRANCH   3   6
ATOM      6  C   UNL A   1      43.860  19.700  25.833  1.00  0.00     0.207 C 
ATOM      7  C   UNL A   1      45.061  20.879  24.203  1.00  0.00     0.129 C 
ATOM      8  C   UNL A   1      45.640  19.477  24.232  1.00  0.00     0.036 C 
ATOM      9  O   UNL A   1      43.874  20.861  25.002  1.00  0.00    -0.364 OA
ATOM     10  C   UNL A   1      45.045  18.828  25.454  1.00  0.00     0.045 C 
BRANCH   7  11
ATOM     11  C   UNL A   1      46.018  22.019  24.592  1.00  0.00     0.107 C 
BRANCH  11  12
ATOM     12  S   UNL A   1      45.329  23.715  24.627  1.00  0.00    -0.122 SA
BRANCH  12  13
ATOM     13  C   UNL A   1      45.145  24.127  26.382  1.00  0.00     0.028 A 
ATOM     14  C   UNL A   1      44.628  23.511  28.708  1.00  0.00     0.033 A 
ATOM     15  C   UNL A   1      44.932  24.803  29.120  1.00  0.00     0.027 A 
ATOM     16  C   UNL A   1      44.683  23.207  27.341  1.00  0.00     0.042 A 
ATOM     17  C   UNL A   1      45.363  25.751  28.194  1.00  0.00     0.024 A 
ATOM     18  C   UNL A   1      45.481  25.417  26.838  1.00  0.00     0.054 A 
ATOM     19  Cl  UNL A   1      46.044  26.676  25.786  1.00  0.00    -0.083 Cl
BRANCH  14  20
ATOM     20  N   UNL A   1      44.146  22.578  29.616  1.00  0.00    -0.399 N 
ATOM     21  H   UNL A   1      43.704  21.759  29.293  1.00  0.00     0.156 HD
ATOM     22  H   UNL A   1      44.246  22.734  30.583  1.00  0.00     0.156 HD
ENDBRANCH  14  20
ENDBRANCH  12  13
ENDBRANCH  11  12
ENDBRANCH   7  11
ENDBRANCH   3   6
ENDBRANCH   1   2
BRANCH   1  23
ATOM     23  C   UNL A   1      40.776  21.303  27.615  1.00  0.00     0.042 C 
BRANCH  23  24
ATOM     24  C   UNL A   1      40.998  22.784  27.893  1.00  0.00     0.118 C 
BRANCH  24  25
ATOM     25  N   UNL A   1      41.217  23.538  26.663  1.00  0.00    -0.352 N 
ATOM     26  C   UNL A   1      41.115  24.882  26.424  1.00  0.00     0.251 C 
ATOM     27  H   UNL A   1      41.477  22.995  25.884  1.00  0.00     0.163 HD
ATOM     28  O   UNL A   1      41.101  25.287  25.260  1.00  0.00    -0.269 OA
BRANCH  26  29
ATOM     29  C   UNL A   1      41.016  25.840  27.544  1.00  0.00     0.039 A 
ATOM     30  C   UNL A   1      42.024  26.794  27.712  1.00  0.00     0.014 A 
ATOM     31  C   UNL A   1      39.953  25.777  28.449  1.00  0.00     0.014 A 
ATOM     32  C   UNL A   1      41.937  27.716  28.756  1.00  0.00     0.010 A 
ATOM     33  C   UNL A   1      39.825  26.747  29.437  1.00  0.00     0.010 A 
ATOM     34  C   UNL A   1      40.821  27.717  29.609  1.00  0.00    -0.014 A 
BRANCH  34  35
ATOM     35  C   UNL A   1      40.687  28.709  30.706  1.00  0.00     0.031 A 
ATOM     36  C   UNL A   1      41.543  28.581  31.937  1.00  0.00     0.074 A 
ATOM     37  C   UNL A   1      39.756  29.678  30.617  1.00  0.00     0.049 A 
ATOM     38  N   UNL A   1      41.510  29.282  33.041  1.00  0.00    -0.248 NA
ATOM     39  C   UNL A   1      42.549  27.505  31.939  1.00  0.00     0.031 C 
ATOM     40  C   UNL A   1      38.840  29.874  29.490  1.00  0.00     0.029 A 
ATOM     41  N   UNL A   1      39.416  30.676  31.495  1.00  0.00    -0.354 N 
ATOM     42  C   UNL A   1      42.478  28.726  33.871  1.00  0.00     0.074 A 
ATOM     43  C   UNL A   1      43.041  27.596  33.167  1.00  0.00     0.031 C 
ATOM     44  C   UNL A   1      38.060  30.939  29.736  1.00  0.00     0.029 A 
ATOM     45  C   UNL A   1      38.390  31.476  31.052  1.00  0.00     0.049 A 
ATOM     46  H   UNL A   1      39.865  30.806  32.362  1.00  0.00     0.167 HD
ATOM     47  C   UNL A   1      42.880  29.139  35.095  1.00  0.00     0.037 A 
ATOM     48  C   UNL A   1      37.779  32.519  31.646  1.00  0.00     0.037 A 
ATOM     49  C   UNL A   1      42.335  30.285  35.775  1.00  0.00     0.049 A 
ATOM     50  C   UNL A   1      38.241  32.955  33.010  1.00  0.00     0.074 A 
ATOM     51  C   UNL A   1      42.700  30.813  37.001  1.00  0.00     0.029 A 
ATOM     52  N   UNL A   1      41.315  31.085  35.282  1.00  0.00    -0.354 N 
ATOM     53  N   UNL A   1      39.189  32.445  33.761  1.00  0.00    -0.248 NA
ATOM     54  C   UNL A   1      37.558  34.111  33.606  1.00  0.00     0.031 C 
ATOM     55  C   UNL A   1      41.878  31.913  37.265  1.00  0.00     0.029 A 
ATOM     56  C   UNL A   1      41.031  32.097  36.183  1.00  0.00     0.049 A 
ATOM     57  H   UNL A   1      40.861  30.953  34.419  1.00  0.00     0.167 HD
ATOM     58  C   UNL A   1      39.235  33.236  34.903  1.00  0.00     0.074 A 
ATOM     59  C   UNL A   1      38.228  34.265  34.739  1.00  0.00     0.031 C 
ATOM     60  C   UNL A   1      40.037  33.122  35.990  1.00  0.00     0.037 A 
BRANCH  47  61
ATOM     61  C   UNL A   1      43.974  28.360  35.773  1.00  0.00     0.058 A 
ATOM     62  C   UNL A   1      43.686  27.302  36.649  1.00  0.00     0.135 A 
ATOM     63  C   UNL A   1      45.324  28.642  35.509  1.00  0.00     0.135 A 
ATOM     64  F   UNL A   1      42.412  27.002  36.951  1.00  0.00    -0.206 F 
ATOM     65  C   UNL A   1      44.696  26.564  37.256  1.00  0.00     0.059 A 
ATOM     66  C   UNL A   1      46.352  27.898  36.085  1.00  0.00     0.059 A 
ATOM     67  F   UNL A   1      45.657  29.645  34.681  1.00  0.00    -0.206 F 
ATOM     68  C   UNL A   1      46.026  26.868  36.965  1.00  0.00     0.060 A 
BRANCH  68  69
ATOM     69  S   UNL A   1      47.324  25.884  37.747  1.00  0.00     0.124 S 
ATOM     70  O   UNL A   1      47.249  24.643  36.981  1.00  0.00    -0.237 OA
ATOM     71  O   UNL A   1      48.513  26.699  37.519  1.00  0.00    -0.237 OA
ATOM     72  O   UNL A   1      46.889  25.791  39.137  1.00  0.00    -0.744 OA
ENDBRANCH  68  69
ENDBRANCH  47  61
BRANCH  48  73
ATOM     73  C   UNL A   1      36.677  33.238  30.951  1.00  0.00     0.058 A 
ATOM     74  C   UNL A   1      35.342  33.071  31.353  1.00  0.00     0.135 A 
ATOM     75  C   UNL A   1      36.930  34.093  29.868  1.00  0.00     0.135 A 
ATOM     76  F   UNL A   1      35.050  32.261  32.383  1.00  0.00    -0.206 F 
ATOM     77  C   UNL A   1      34.296  33.702  30.689  1.00  0.00     0.059 A 
ATOM     78  C   UNL A   1      35.902  34.757  29.205  1.00  0.00     0.059 A 
ATOM     79  F   UNL A   1      38.189  34.304  29.457  1.00  0.00    -0.206 F 
ATOM     80  C   UNL A   1      34.586  34.541  29.613  1.00  0.00     0.060 A 
BRANCH  80  81
ATOM     81  S   UNL A   1      33.223  35.374  28.770  1.00  0.00     0.124 S 
ATOM     82  O   UNL A   1      32.642  34.279  28.002  1.00  0.00    -0.237 OA
ATOM     83  O   UNL A   1      32.424  35.864  29.889  1.00  0.00    -0.237 OA
ATOM     84  O   UNL A   1      33.896  36.407  27.989  1.00  0.00    -0.744 OA
ENDBRANCH  80  81
ENDBRANCH  48  73
BRANCH  60  85
ATOM     85  C   UNL A   1      39.892  34.161  37.066  1.00  0.00     0.058 A 
ATOM     86  C   UNL A   1      40.484  35.428  36.954  1.00  0.00     0.135 A 
ATOM     87  C   UNL A   1      39.105  33.901  38.200  1.00  0.00     0.135 A 
ATOM     88  F   UNL A   1      41.251  35.723  35.892  1.00  0.00    -0.206 F 
ATOM     89  C   UNL A   1      40.320  36.394  37.940  1.00  0.00     0.059 A 
ATOM     90  C   UNL A   1      38.905  34.862  39.185  1.00  0.00     0.059 A 
ATOM     91  F   UNL A   1      38.508  32.708  38.350  1.00  0.00    -0.206 F 
ATOM     92  C   UNL A   1      39.527  36.103  39.052  1.00  0.00     0.060 A 
BRANCH  92  93
ATOM     93  S   UNL A   1      39.293  37.378  40.306  1.00  0.00     0.124 S 
ATOM     94  O   UNL A   1      40.669  37.792  40.565  1.00  0.00    -0.237 OA
ATOM     95  O   UNL A   1      38.458  38.352  39.611  1.00  0.00    -0.237 OA
ATOM     96  O   UNL A   1      38.637  36.665  41.398  1.00  0.00    -0.744 OA
ENDBRANCH  92  93
ENDBRANCH  60  85
ENDBRANCH  34  35
ENDBRANCH  26  29
ENDBRANCH  24  25
ENDBRANCH  23  24
ENDBRANCH   1  23
TORSDOF 17
ENDMDL
MODEL 3
REMARK VINA RESULT:     -11.4      6.931     11.848
REMARK SMILES Nc1ccc(Cl)c(SC[C@H]2CC[C@H](C(=O)NCCCNC(=O)c3ccc(-c4c5nc(c(-c6c(F)cc(S(=O)(=O)[O-])cc6F)c6ccc([nH]6)c(-c6c(F)cc(S(=O)(=O)[O-])cc6F)c6nc(c(-c7c(F)cc(S(=O)(=O)[O-])cc7F)c7ccc4[nH]7)C=C6)C=C5)cc3)O2)c1
REMARK SMILES IDX 17 1 16 2 14 3 15 4 13 6 10 7 11 8 89 9 12 10 9 11 8 12 7 13
REMARK SMILES IDX 2 14 3 15 90 16 4 17 5 18 6 19 1 20 18 23 19 24 20 25 21 26
REMARK SMILES IDX 22 28 23 29 24 30 88 31 25 32 87 33 26 34 27 35 28 36 81 37
REMARK SMILES IDX 29 38 86 39 80 40 82 41 30 42 85 43 79 44 78 45 31 47 65 48
REMARK SMILES IDX 44 49 64 50 45 51 48 52 63 53 83 54 46 55 47 56 62 58 84 59
REMARK SMILES IDX 49 60 32 61 33 62 42 63 34 64 35 65 41 66 43 67 36 68 37 69
REMARK SMILES IDX 38 70 39 71 40 72 66 73 67 74 76 75 68 76 69 77 75 78 77 79
REMARK SMILES IDX 70 80 71 81 72 82 73 83 74 84 50 85 51 86 60 87 52 88 53 89
REMARK SMILES IDX 59 90 61 91 54 92 55 93 56 94 57 95 58 96
REMARK H PARENT 16 5 1 21 1 22 20 27 82 46 48 57
REMARK Flexibility Score: inf
ROOT
ATOM      1  C   UNL A   1      33.051  29.340  26.041  1.00  0.00     0.117 C 
ENDROOT
BRANCH   1   2
ATOM      2  N   UNL A   1      33.733  29.414  24.766  1.00  0.00    -0.354 N 
ATOM      3  C   UNL A   1      33.781  28.517  23.740  1.00  0.00     0.249 C 
ATOM      4  O   UNL A   1      34.456  28.820  22.752  1.00  0.00    -0.272 OA
ATOM      5  H   UNL A   1      34.244  30.243  24.615  1.00  0.00     0.163 HD
BRANCH   3   6
ATOM      6  C   UNL A   1      33.077  27.147  23.822  1.00  0.00     0.207 C 
ATOM      7  C   UNL A   1      33.048  25.204  22.515  1.00  0.00     0.129 C 
ATOM      8  C   UNL A   1      31.858  26.034  22.074  1.00  0.00     0.036 C 
ATOM      9  O   UNL A   1      33.840  26.027  23.376  1.00  0.00    -0.364 OA
ATOM     10  C   UNL A   1      31.742  27.135  23.096  1.00  0.00     0.045 C 
BRANCH   7  11
ATOM     11  C   UNL A   1      32.728  23.833  23.137  1.00  0.00     0.107 C 
BRANCH  11  12
ATOM     12  S   UNL A   1      33.067  23.626  24.924  1.00  0.00    -0.122 SA
BRANCH  12  13
ATOM     13  C   UNL A   1      34.722  22.894  25.022  1.00  0.00     0.028 A 
ATOM     14  C   UNL A   1      37.146  23.066  25.414  1.00  0.00     0.033 A 
ATOM     15  C   UNL A   1      37.276  21.695  25.225  1.00  0.00     0.027 A 
ATOM     16  C   UNL A   1      35.883  23.654  25.253  1.00  0.00     0.042 A 
ATOM     17  C   UNL A   1      36.152  20.914  24.963  1.00  0.00     0.024 A 
ATOM     18  C   UNL A   1      34.884  21.502  24.872  1.00  0.00     0.054 A 
ATOM     19  Cl  UNL A   1      33.561  20.425  24.559  1.00  0.00    -0.083 Cl
BRANCH  14  20
ATOM     20  N   UNL A   1      38.268  23.858  25.622  1.00  0.00    -0.399 N 
ATOM     21  H   UNL A   1      38.286  24.783  25.286  1.00  0.00     0.156 HD
ATOM     22  H   UNL A   1      39.045  23.494  26.104  1.00  0.00     0.156 HD
ENDBRANCH  14  20
ENDBRANCH  12  13
ENDBRANCH  11  12
ENDBRANCH   7  11
ENDBRANCH   3   6
ENDBRANCH   1   2
BRANCH   1  23
ATOM     23  C   UNL A   1      33.853  28.553  27.067  1.00  0.00     0.042 C 
BRANCH  23  24
ATOM     24  C   UNL A   1      35.211  29.181  27.352  1.00  0.00     0.118 C 
BRANCH  24  25
ATOM     25  N   UNL A   1      35.178  30.023  28.543  1.00  0.00    -0.352 N 
ATOM     26  C   UNL A   1      36.157  30.281  29.466  1.00  0.00     0.251 C 
ATOM     27  H   UNL A   1      34.320  30.475  28.709  1.00  0.00     0.163 HD
ATOM     28  O   UNL A   1      35.852  30.823  30.529  1.00  0.00    -0.269 OA
BRANCH  26  29
ATOM     29  C   UNL A   1      37.560  29.910  29.198  1.00  0.00     0.039 A 
ATOM     30  C   UNL A   1      38.374  29.516  30.264  1.00  0.00     0.014 A 
ATOM     31  C   UNL A   1      38.087  29.984  27.905  1.00  0.00     0.014 A 
ATOM     32  C   UNL A   1      39.699  29.147  30.024  1.00  0.00     0.010 A 
ATOM     33  C   UNL A   1      39.380  29.536  27.655  1.00  0.00     0.010 A 
ATOM     34  C   UNL A   1      40.203  29.127  28.713  1.00  0.00    -0.014 A 
BRANCH  34  35
ATOM     35  C   UNL A   1      41.597  28.706  28.426  1.00  0.00     0.031 A 
ATOM     36  C   UNL A   1      42.702  29.728  28.430  1.00  0.00     0.074 A 
ATOM     37  C   UNL A   1      41.852  27.423  28.103  1.00  0.00     0.049 A 
ATOM     38  N   UNL A   1      43.962  29.582  28.111  1.00  0.00    -0.248 NA
ATOM     39  C   UNL A   1      42.336  31.101  28.815  1.00  0.00     0.031 C 
ATOM     40  C   UNL A   1      40.854  26.353  28.027  1.00  0.00     0.029 A 
ATOM     41  N   UNL A   1      43.028  26.801  27.768  1.00  0.00    -0.354 N 
ATOM     42  C   UNL A   1      44.534  30.842  28.244  1.00  0.00     0.074 A 
ATOM     43  C   UNL A   1      43.474  31.752  28.617  1.00  0.00     0.031 C 
ATOM     44  C   UNL A   1      41.463  25.205  27.689  1.00  0.00     0.029 A 
ATOM     45  C   UNL A   1      42.886  25.463  27.486  1.00  0.00     0.049 A 
ATOM     46  H   UNL A   1      43.894  27.270  27.733  1.00  0.00     0.167 HD
ATOM     47  C   UNL A   1      45.831  31.202  28.098  1.00  0.00     0.037 A 
ATOM     48  C   UNL A   1      43.798  24.552  27.099  1.00  0.00     0.037 A 
ATOM     49  C   UNL A   1      46.885  30.282  27.757  1.00  0.00     0.049 A 
ATOM     50  C   UNL A   1      45.232  24.979  26.937  1.00  0.00     0.074 A 
ATOM     51  C   UNL A   1      48.239  30.536  27.623  1.00  0.00     0.029 A 
ATOM     52  N   UNL A   1      46.704  28.930  27.505  1.00  0.00    -0.354 N 
ATOM     53  N   UNL A   1      45.763  26.166  27.112  1.00  0.00    -0.248 NA
ATOM     54  C   UNL A   1      46.193  23.943  26.534  1.00  0.00     0.031 C 
ATOM     55  C   UNL A   1      48.873  29.344  27.258  1.00  0.00     0.029 A 
ATOM     56  C   UNL A   1      47.920  28.339  27.207  1.00  0.00     0.049 A 
ATOM     57  H   UNL A   1      45.840  28.461  27.534  1.00  0.00     0.167 HD
ATOM     58  C   UNL A   1      47.123  26.012  26.869  1.00  0.00     0.074 A 
ATOM     59  C   UNL A   1      47.335  24.616  26.547  1.00  0.00     0.031 C 
ATOM     60  C   UNL A   1      48.109  26.942  26.908  1.00  0.00     0.037 A 
BRANCH  47  61
ATOM     61  C   UNL A   1      46.187  32.645  28.323  1.00  0.00     0.058 A 
ATOM     62  C   UNL A   1      46.153  33.580  27.277  1.00  0.00     0.135 A 
ATOM     63  C   UNL A   1      46.521  33.110  29.606  1.00  0.00     0.135 A 
ATOM     64  F   UNL A   1      45.859  33.187  26.027  1.00  0.00    -0.206 F 
ATOM     65  C   UNL A   1      46.458  34.921  27.489  1.00  0.00     0.059 A 
ATOM     66  C   UNL A   1      46.802  34.453  29.846  1.00  0.00     0.059 A 
ATOM     67  F   UNL A   1      46.572  32.259  30.642  1.00  0.00    -0.206 F 
ATOM     68  C   UNL A   1      46.778  35.348  28.778  1.00  0.00     0.060 A 
BRANCH  68  69
ATOM     69  S   UNL A   1      47.149  37.096  29.037  1.00  0.00     0.124 S 
ATOM     70  O   UNL A   1      47.130  37.185  30.494  1.00  0.00    -0.237 OA
ATOM     71  O   UNL A   1      48.460  37.234  28.411  1.00  0.00    -0.237 OA
ATOM     72  O   UNL A   1      46.056  37.780  28.353  1.00  0.00    -0.744 OA
ENDBRANCH  68  69
ENDBRANCH  47  61
BRANCH  48  73
ATOM     73  C   UNL A   1      43.392  23.142  26.853  1.00  0.00     0.058 A 
ATOM     74  C   UNL A   1      43.078  22.287  27.922  1.00  0.00     0.135 A 
ATOM     75  C   UNL A   1      43.321  22.616  25.555  1.00  0.00     0.135 A 
ATOM     76  F   UNL A   1      43.135  22.742  29.183  1.00  0.00    -0.206 F 
ATOM     77  C   UNL A   1      42.738  20.955  27.715  1.00  0.00     0.059 A 
ATOM     78  C   UNL A   1      42.955  21.294  25.320  1.00  0.00     0.059 A 
ATOM     79  F   UNL A   1      43.590  23.397  24.497  1.00  0.00    -0.206 F 
ATOM     80  C   UNL A   1      42.681  20.466  26.409  1.00  0.00     0.060 A 
BRANCH  80  81
ATOM     81  S   UNL A   1      42.217  18.741  26.147  1.00  0.00     0.124 S 
ATOM     82  O   UNL A   1      42.445  18.172  27.469  1.00  0.00    -0.237 OA
ATOM     83  O   UNL A   1      40.822  18.858  25.733  1.00  0.00    -0.237 OA
ATOM     84  O   UNL A   1      43.138  18.303  25.103  1.00  0.00    -0.744 OA
ENDBRANCH  80  81
ENDBRANCH  48  73
BRANCH  60  85
ATOM     85  C   UNL A   1      49.512  26.472  26.640  1.00  0.00     0.058 A 
ATOM     86  C   UNL A   1      50.078  26.532  25.358  1.00  0.00     0.135 A 
ATOM     87  C   UNL A   1      50.314  26.004  27.693  1.00  0.00     0.135 A 
ATOM     88  F   UNL A   1      49.349  26.966  24.318  1.00  0.00    -0.206 F 
ATOM     89  C   UNL A   1      51.387  26.124  25.125  1.00  0.00     0.059 A 
ATOM     90  C   UNL A   1      51.634  25.616  27.488  1.00  0.00     0.059 A 
ATOM     91  F   UNL A   1      49.822  25.936  28.941  1.00  0.00    -0.206 F 
ATOM     92  C   UNL A   1      52.157  25.668  26.196  1.00  0.00     0.060 A 
BRANCH  92  93
ATOM     93  S   UNL A   1      53.865  25.174  25.886  1.00  0.00     0.124 S 
ATOM     94  O   UNL A   1      53.700  23.779  25.492  1.00  0.00    -0.237 OA
ATOM     95  O   UNL A   1      54.267  26.090  24.823  1.00  0.00    -0.237 OA
ATOM     96  O   UNL A   1      54.520  25.391  27.172  1.00  0.00    -0.744 OA
ENDBRANCH  92  93
ENDBRANCH  60  85
ENDBRANCH  34  35
ENDBRANCH  26  29
ENDBRANCH  24  25
ENDBRANCH  23  24
ENDBRANCH   1  23
TORSDOF 17
ENDMDL
