MODEL 1
REMARK VINA RESULT:     -12.9      0.000      0.000
REMARK SMILES Cn1c(-c2ccccc2)c(C(=O)NCCCNC(=O)c2ccc(-c3c4nc(c(-c5c(F)cc(S(=O)(=O)[O-])cc5F)c5ccc([nH]5)c(-c5c(F)cc(S(=O)(=O)[O-])cc5F)c5nc(c(-c6c(F)cc(S(=O)(=O)[O-])cc6F)c6ccc3[nH]6)C=C5)C=C4)cc2)c2ccccc21
REMARK SMILES IDX 16 1 15 2 14 3 13 4 11 5 12 6 10 8 1 9 2 10 3 11 91 12 86 13
REMARK SMILES IDX 90 14 87 15 89 16 88 17 4 18 5 19 9 20 6 21 8 22 7 23 17 24
REMARK SMILES IDX 18 25 19 27 20 28 21 29 85 30 22 31 84 32 23 33 24 34 25 35
REMARK SMILES IDX 78 36 26 37 83 38 77 39 79 40 27 41 82 42 76 43 75 44 28 46
REMARK SMILES IDX 62 47 41 48 61 49 42 50 45 51 60 52 80 53 43 54 44 55 59 57
REMARK SMILES IDX 81 58 46 59 29 60 30 61 39 62 31 63 32 64 38 65 40 66 33 67
REMARK SMILES IDX 34 68 35 69 36 70 37 71 63 72 64 73 73 74 65 75 66 76 72 77
REMARK SMILES IDX 74 78 67 79 68 80 69 81 70 82 71 83 47 84 48 85 57 86 49 87
REMARK SMILES IDX 50 88 56 89 58 90 51 91 52 92 53 93 54 94 55 95
REMARK H PARENT 13 7 17 26 79 45 45 56
REMARK Flexibility Score: inf
ROOT
ATOM      1  C   UNL A   1      35.298  30.493  27.727  1.00  0.00     0.118 C 
ENDROOT
BRANCH   1   2
ATOM      2  C   UNL A   1      34.784  29.202  27.122  1.00  0.00     0.042 C 
BRANCH   2   3
ATOM      3  C   UNL A   1      33.488  29.312  26.352  1.00  0.00     0.118 C 
BRANCH   3   4
ATOM      4  N   UNL A   1      32.333  28.633  26.862  1.00  0.00    -0.352 N 
ATOM      5  C   UNL A   1      31.702  27.512  26.370  1.00  0.00     0.254 C 
ATOM      6  O   UNL A   1      30.802  27.078  27.099  1.00  0.00    -0.269 OA
ATOM      7  H   UNL A   1      31.937  29.023  27.675  1.00  0.00     0.163 HD
BRANCH   5   8
ATOM      8  C   UNL A   1      31.981  26.879  25.056  1.00  0.00     0.073 A 
ATOM      9  C   UNL A   1      31.838  25.953  21.508  1.00  0.00     0.150 C 
ATOM     10  N   UNL A   1      32.094  26.156  22.922  1.00  0.00    -0.343 N 
ATOM     11  C   UNL A   1      31.409  27.013  23.773  1.00  0.00     0.062 A 
ATOM     12  C   UNL A   1      33.098  25.487  23.585  1.00  0.00     0.049 A 
ATOM     13  C   UNL A   1      33.063  25.916  24.907  1.00  0.00     0.013 A 
ATOM     14  C   UNL A   1      34.027  24.539  23.120  1.00  0.00     0.027 A 
ATOM     15  C   UNL A   1      34.010  25.357  25.803  1.00  0.00     0.011 A 
ATOM     16  C   UNL A   1      34.951  24.014  24.026  1.00  0.00     0.002 A 
ATOM     17  C   UNL A   1      34.944  24.416  25.353  1.00  0.00     0.001 A 
BRANCH  11  18
ATOM     18  C   UNL A   1      30.292  27.821  23.262  1.00  0.00    -0.001 A 
ATOM     19  C   UNL A   1      30.511  29.051  22.634  1.00  0.00     0.010 A 
ATOM     20  C   UNL A   1      28.969  27.399  23.501  1.00  0.00     0.010 A 
ATOM     21  C   UNL A   1      29.424  29.881  22.330  1.00  0.00     0.001 A 
ATOM     22  C   UNL A   1      27.889  28.231  23.202  1.00  0.00     0.001 A 
ATOM     23  C   UNL A   1      28.121  29.481  22.634  1.00  0.00     0.000 A 
ENDBRANCH  11  18
ENDBRANCH   5   8
ENDBRANCH   3   4
ENDBRANCH   2   3
ENDBRANCH   1   2
BRANCH   1  24
ATOM     24  N   UNL A   1      35.299  30.521  29.187  1.00  0.00    -0.352 N 
ATOM     25  C   UNL A   1      36.281  30.333  30.138  1.00  0.00     0.251 C 
ATOM     26  H   UNL A   1      34.414  30.714  29.573  1.00  0.00     0.163 HD
ATOM     27  O   UNL A   1      35.958  30.321  31.319  1.00  0.00    -0.269 OA
BRANCH  25  28
ATOM     28  C   UNL A   1      37.700  30.098  29.766  1.00  0.00     0.039 A 
ATOM     29  C   UNL A   1      38.632  29.824  30.777  1.00  0.00     0.014 A 
ATOM     30  C   UNL A   1      38.140  30.157  28.449  1.00  0.00     0.014 A 
ATOM     31  C   UNL A   1      39.958  29.514  30.447  1.00  0.00     0.010 A 
ATOM     32  C   UNL A   1      39.406  29.696  28.110  1.00  0.00     0.010 A 
ATOM     33  C   UNL A   1      40.342  29.385  29.103  1.00  0.00    -0.014 A 
BRANCH  33  34
ATOM     34  C   UNL A   1      41.711  28.958  28.702  1.00  0.00     0.031 A 
ATOM     35  C   UNL A   1      42.830  29.971  28.638  1.00  0.00     0.074 A 
ATOM     36  C   UNL A   1      41.931  27.685  28.312  1.00  0.00     0.049 A 
ATOM     37  N   UNL A   1      44.055  29.823  28.203  1.00  0.00    -0.248 NA
ATOM     38  C   UNL A   1      42.517  31.342  29.074  1.00  0.00     0.031 C 
ATOM     39  C   UNL A   1      40.919  26.626  28.257  1.00  0.00     0.029 A 
ATOM     40  N   UNL A   1      43.076  27.066  27.874  1.00  0.00    -0.354 N 
ATOM     41  C   UNL A   1      44.641  31.083  28.285  1.00  0.00     0.074 A 
ATOM     42  C   UNL A   1      43.619  31.996  28.739  1.00  0.00     0.031 C 
ATOM     43  C   UNL A   1      41.496  25.483  27.854  1.00  0.00     0.029 A 
ATOM     44  C   UNL A   1      42.906  25.735  27.574  1.00  0.00     0.049 A 
ATOM     45  H   UNL A   1      43.938  27.532  27.785  1.00  0.00     0.167 HD
ATOM     46  C   UNL A   1      45.924  31.443  28.042  1.00  0.00     0.037 A 
ATOM     47  C   UNL A   1      43.784  24.819  27.122  1.00  0.00     0.037 A 
ATOM     48  C   UNL A   1      46.952  30.518  27.642  1.00  0.00     0.049 A 
ATOM     49  C   UNL A   1      45.212  25.233  26.890  1.00  0.00     0.074 A 
ATOM     50  C   UNL A   1      48.299  30.762  27.439  1.00  0.00     0.029 A 
ATOM     51  N   UNL A   1      46.747  29.169  27.392  1.00  0.00    -0.354 N 
ATOM     52  N   UNL A   1      45.761  26.416  27.036  1.00  0.00    -0.248 NA
ATOM     53  C   UNL A   1      46.141  24.188  26.443  1.00  0.00     0.031 C 
ATOM     54  C   UNL A   1      48.900  29.568  27.027  1.00  0.00     0.029 A 
ATOM     55  C   UNL A   1      47.939  28.570  27.023  1.00  0.00     0.049 A 
ATOM     56  H   UNL A   1      45.882  28.706  27.465  1.00  0.00     0.167 HD
ATOM     57  C   UNL A   1      47.106  26.250  26.723  1.00  0.00     0.074 A 
ATOM     58  C   UNL A   1      47.289  24.850  26.398  1.00  0.00     0.031 C 
ATOM     59  C   UNL A   1      48.101  27.172  26.708  1.00  0.00     0.037 A 
BRANCH  46  60
ATOM     60  C   UNL A   1      46.291  32.893  28.224  1.00  0.00     0.058 A 
ATOM     61  C   UNL A   1      46.236  33.806  27.159  1.00  0.00     0.135 A 
ATOM     62  C   UNL A   1      46.679  33.381  29.482  1.00  0.00     0.135 A 
ATOM     63  F   UNL A   1      45.889  33.393  25.929  1.00  0.00    -0.206 F 
ATOM     64  C   UNL A   1      46.587  35.142  27.324  1.00  0.00     0.059 A 
ATOM     65  C   UNL A   1      47.003  34.721  29.678  1.00  0.00     0.059 A 
ATOM     66  F   UNL A   1      46.750  32.555  30.537  1.00  0.00    -0.206 F 
ATOM     67  C   UNL A   1      46.970  35.590  28.589  1.00  0.00     0.060 A 
BRANCH  67  68
ATOM     68  S   UNL A   1      47.417  37.328  28.787  1.00  0.00     0.124 S 
ATOM     69  O   UNL A   1      47.520  37.761  27.397  1.00  0.00    -0.237 OA
ATOM     70  O   UNL A   1      46.281  37.859  29.534  1.00  0.00    -0.237 OA
ATOM     71  O   UNL A   1      48.677  37.273  29.521  1.00  0.00    -0.744 OA
ENDBRANCH  67  68
ENDBRANCH  46  60
BRANCH  47  72
ATOM     72  C   UNL A   1      43.347  23.413  26.899  1.00  0.00     0.058 A 
ATOM     73  C   UNL A   1      43.194  22.906  25.600  1.00  0.00     0.135 A 
ATOM     74  C   UNL A   1      43.092  22.547  27.973  1.00  0.00     0.135 A 
ATOM     75  F   UNL A   1      43.422  23.697  24.540  1.00  0.00    -0.206 F 
ATOM     76  C   UNL A   1      42.788  21.595  25.372  1.00  0.00     0.059 A 
ATOM     77  C   UNL A   1      42.711  21.224  27.769  1.00  0.00     0.059 A 
ATOM     78  F   UNL A   1      43.243  22.976  29.235  1.00  0.00    -0.206 F 
ATOM     79  C   UNL A   1      42.551  20.760  26.464  1.00  0.00     0.060 A 
BRANCH  79  80
ATOM     80  S   UNL A   1      42.074  19.045  26.156  1.00  0.00     0.124 S 
ATOM     81  O   UNL A   1      43.008  18.664  25.103  1.00  0.00    -0.237 OA
ATOM     82  O   UNL A   1      42.294  18.428  27.460  1.00  0.00    -0.237 OA
ATOM     83  O   UNL A   1      40.676  19.154  25.751  1.00  0.00    -0.744 OA
ENDBRANCH  79  80
ENDBRANCH  47  72
BRANCH  59  84
ATOM     84  C   UNL A   1      49.482  26.690  26.363  1.00  0.00     0.058 A 
ATOM     85  C   UNL A   1      50.311  26.077  27.314  1.00  0.00     0.135 A 
ATOM     86  C   UNL A   1      49.964  26.804  25.048  1.00  0.00     0.135 A 
ATOM     87  F   UNL A   1      49.899  25.949  28.586  1.00  0.00    -0.206 F 
ATOM     88  C   UNL A   1      51.583  25.624  26.984  1.00  0.00     0.059 A 
ATOM     89  C   UNL A   1      51.221  26.331  24.688  1.00  0.00     0.059 A 
ATOM     90  F   UNL A   1      49.206  27.369  24.095  1.00  0.00    -0.206 F 
ATOM     91  C   UNL A   1      52.029  25.755  25.667  1.00  0.00     0.060 A 
BRANCH  91  92
ATOM     92  S   UNL A   1      53.675  25.144  25.247  1.00  0.00     0.124 S 
ATOM     93  O   UNL A   1      53.494  23.702  25.376  1.00  0.00    -0.237 OA
ATOM     94  O   UNL A   1      53.856  25.642  23.888  1.00  0.00    -0.237 OA
ATOM     95  O   UNL A   1      54.534  25.762  26.253  1.00  0.00    -0.744 OA
ENDBRANCH  91  92
ENDBRANCH  59  84
ENDBRANCH  33  34
ENDBRANCH  25  28
ENDBRANCH   1  24
TORSDOF 14
ENDMDL
MODEL 2
REMARK VINA RESULT:     -12.9      2.732      4.397
REMARK SMILES Cn1c(-c2ccccc2)c(C(=O)NCCCNC(=O)c2ccc(-c3c4nc(c(-c5c(F)cc(S(=O)(=O)[O-])cc5F)c5ccc([nH]5)c(-c5c(F)cc(S(=O)(=O)[O-])cc5F)c5nc(c(-c6c(F)cc(S(=O)(=O)[O-])cc6F)c6ccc3[nH]6)C=C5)C=C4)cc2)c2ccccc21
REMARK SMILES IDX 16 1 15 2 14 3 13 4 11 5 12 6 10 8 1 9 2 10 3 11 91 12 86 13
REMARK SMILES IDX 90 14 87 15 89 16 88 17 4 18 5 19 9 20 6 21 8 22 7 23 17 24
REMARK SMILES IDX 18 25 19 27 20 28 21 29 85 30 22 31 84 32 23 33 24 34 25 35
REMARK SMILES IDX 78 36 26 37 83 38 77 39 79 40 27 41 82 42 76 43 75 44 28 46
REMARK SMILES IDX 62 47 41 48 61 49 42 50 45 51 60 52 80 53 43 54 44 55 59 57
REMARK SMILES IDX 81 58 46 59 29 60 30 61 39 62 31 63 32 64 38 65 40 66 33 67
REMARK SMILES IDX 34 68 35 69 36 70 37 71 63 72 64 73 73 74 65 75 66 76 72 77
REMARK SMILES IDX 74 78 67 79 68 80 69 81 70 82 71 83 47 84 48 85 57 86 49 87
REMARK SMILES IDX 50 88 56 89 58 90 51 91 52 92 53 93 54 94 55 95
REMARK H PARENT 13 7 17 26 79 45 45 56
REMARK Flexibility Score: inf
ROOT
ATOM      1  C   UNL A   1      33.345  28.545  27.338  1.00  0.00     0.118 C 
ENDROOT
BRANCH   1   2
ATOM      2  C   UNL A   1      34.043  28.242  26.029  1.00  0.00     0.042 C 
BRANCH   2   3
ATOM      3  C   UNL A   1      33.855  29.268  24.935  1.00  0.00     0.118 C 
BRANCH   3   4
ATOM      4  N   UNL A   1      34.156  28.888  23.586  1.00  0.00    -0.352 N 
ATOM      5  C   UNL A   1      33.594  27.888  22.824  1.00  0.00     0.254 C 
ATOM      6  O   UNL A   1      33.968  27.879  21.645  1.00  0.00    -0.269 OA
ATOM      7  H   UNL A   1      34.862  29.414  23.145  1.00  0.00     0.163 HD
BRANCH   5   8
ATOM      8  C   UNL A   1      32.674  26.838  23.331  1.00  0.00     0.073 A 
ATOM      9  C   UNL A   1      31.343  23.712  24.719  1.00  0.00     0.150 C 
ATOM     10  N   UNL A   1      31.623  25.025  24.168  1.00  0.00    -0.343 N 
ATOM     11  C   UNL A   1      32.873  25.542  23.852  1.00  0.00     0.062 A 
ATOM     12  C   UNL A   1      30.623  25.931  23.897  1.00  0.00     0.049 A 
ATOM     13  C   UNL A   1      31.237  27.069  23.386  1.00  0.00     0.013 A 
ATOM     14  C   UNL A   1      29.229  25.832  24.063  1.00  0.00     0.027 A 
ATOM     15  C   UNL A   1      30.403  28.157  23.022  1.00  0.00     0.011 A 
ATOM     16  C   UNL A   1      28.437  26.923  23.701  1.00  0.00     0.002 A 
ATOM     17  C   UNL A   1      29.015  28.074  23.185  1.00  0.00     0.001 A 
BRANCH  11  18
ATOM     18  C   UNL A   1      34.080  24.729  24.061  1.00  0.00    -0.001 A 
ATOM     19  C   UNL A   1      34.554  23.861  23.073  1.00  0.00     0.010 A 
ATOM     20  C   UNL A   1      34.715  24.747  25.320  1.00  0.00     0.010 A 
ATOM     21  C   UNL A   1      35.589  22.965  23.370  1.00  0.00     0.001 A 
ATOM     22  C   UNL A   1      35.742  23.850  25.613  1.00  0.00     0.001 A 
ATOM     23  C   UNL A   1      36.164  22.946  24.642  1.00  0.00     0.000 A 
ENDBRANCH  11  18
ENDBRANCH   5   8
ENDBRANCH   3   4
ENDBRANCH   2   3
ENDBRANCH   1   2
BRANCH   1  24
ATOM     24  N   UNL A   1      33.431  29.940  27.765  1.00  0.00    -0.352 N 
ATOM     25  C   UNL A   1      34.450  30.708  28.291  1.00  0.00     0.251 C 
ATOM     26  H   UNL A   1      32.587  30.433  27.655  1.00  0.00     0.163 HD
ATOM     27  O   UNL A   1      34.195  31.849  28.652  1.00  0.00    -0.269 OA
BRANCH  25  28
ATOM     28  C   UNL A   1      35.824  30.174  28.472  1.00  0.00     0.039 A 
ATOM     29  C   UNL A   1      36.713  30.198  27.388  1.00  0.00     0.014 A 
ATOM     30  C   UNL A   1      36.256  29.636  29.679  1.00  0.00     0.014 A 
ATOM     31  C   UNL A   1      38.040  29.783  27.556  1.00  0.00     0.010 A 
ATOM     32  C   UNL A   1      37.605  29.375  29.889  1.00  0.00     0.010 A 
ATOM     33  C   UNL A   1      38.516  29.426  28.828  1.00  0.00    -0.014 A 
BRANCH  33  34
ATOM     34  C   UNL A   1      39.941  29.074  29.076  1.00  0.00     0.031 A 
ATOM     35  C   UNL A   1      40.886  30.105  29.646  1.00  0.00     0.074 A 
ATOM     36  C   UNL A   1      40.408  27.862  28.708  1.00  0.00     0.049 A 
ATOM     37  N   UNL A   1      42.180  30.032  29.825  1.00  0.00    -0.248 NA
ATOM     38  C   UNL A   1      40.308  31.407  30.020  1.00  0.00     0.031 C 
ATOM     39  C   UNL A   1      39.616  26.801  28.079  1.00  0.00     0.029 A 
ATOM     40  N   UNL A   1      41.666  27.320  28.800  1.00  0.00    -0.354 N 
ATOM     41  C   UNL A   1      42.569  31.282  30.299  1.00  0.00     0.074 A 
ATOM     42  C   UNL A   1      41.390  32.115  30.309  1.00  0.00     0.031 C 
ATOM     43  C   UNL A   1      40.394  25.726  27.881  1.00  0.00     0.029 A 
ATOM     44  C   UNL A   1      41.751  26.033  28.322  1.00  0.00     0.049 A 
ATOM     45  H   UNL A   1      42.435  27.808  29.173  1.00  0.00     0.167 HD
ATOM     46  C   UNL A   1      43.789  31.689  30.724  1.00  0.00     0.037 A 
ATOM     47  C   UNL A   1      42.802  25.194  28.246  1.00  0.00     0.037 A 
ATOM     48  C   UNL A   1      44.948  30.838  30.761  1.00  0.00     0.049 A 
ATOM     49  C   UNL A   1      44.140  25.656  28.754  1.00  0.00     0.074 A 
ATOM     50  C   UNL A   1      46.214  31.127  31.240  1.00  0.00     0.029 A 
ATOM     51  N   UNL A   1      44.980  29.526  30.310  1.00  0.00    -0.354 N 
ATOM     52  N   UNL A   1      44.473  26.821  29.259  1.00  0.00    -0.248 NA
ATOM     53  C   UNL A   1      45.243  24.689  28.692  1.00  0.00     0.031 C 
ATOM     54  C   UNL A   1      47.022  30.002  31.041  1.00  0.00     0.029 A 
ATOM     55  C   UNL A   1      46.247  28.997  30.485  1.00  0.00     0.049 A 
ATOM     56  H   UNL A   1      44.215  29.044  29.922  1.00  0.00     0.167 HD
ATOM     57  C   UNL A   1      45.817  26.717  29.599  1.00  0.00     0.074 A 
ATOM     58  C   UNL A   1      46.230  25.371  29.258  1.00  0.00     0.031 C 
ATOM     59  C   UNL A   1      46.636  27.651  30.145  1.00  0.00     0.037 A 
BRANCH  46  60
ATOM     60  C   UNL A   1      43.924  33.112  31.201  1.00  0.00     0.058 A 
ATOM     61  C   UNL A   1      43.705  33.462  32.544  1.00  0.00     0.135 A 
ATOM     62  C   UNL A   1      44.298  34.133  30.314  1.00  0.00     0.135 A 
ATOM     63  F   UNL A   1      43.328  32.531  33.434  1.00  0.00    -0.206 F 
ATOM     64  C   UNL A   1      43.817  34.778  32.981  1.00  0.00     0.059 A 
ATOM     65  C   UNL A   1      44.449  35.451  30.737  1.00  0.00     0.059 A 
ATOM     66  F   UNL A   1      44.520  33.857  29.019  1.00  0.00    -0.206 F 
ATOM     67  C   UNL A   1      44.190  35.766  32.069  1.00  0.00     0.060 A 
BRANCH  67  68
ATOM     68  S   UNL A   1      44.335  37.467  32.656  1.00  0.00     0.124 S 
ATOM     69  O   UNL A   1      44.208  38.216  31.409  1.00  0.00    -0.237 OA
ATOM     70  O   UNL A   1      43.209  37.577  33.578  1.00  0.00    -0.237 OA
ATOM     71  O   UNL A   1      45.656  37.501  33.277  1.00  0.00    -0.744 OA
ENDBRANCH  67  68
ENDBRANCH  46  60
BRANCH  47  72
ATOM     72  C   UNL A   1      42.621  23.819  27.704  1.00  0.00     0.058 A 
ATOM     73  C   UNL A   1      42.462  22.722  28.564  1.00  0.00     0.135 A 
ATOM     74  C   UNL A   1      42.586  23.576  26.322  1.00  0.00     0.135 A 
ATOM     75  F   UNL A   1      42.492  22.903  29.893  1.00  0.00    -0.206 F 
ATOM     76  C   UNL A   1      42.291  21.431  28.075  1.00  0.00     0.059 A 
ATOM     77  C   UNL A   1      42.389  22.297  25.810  1.00  0.00     0.059 A 
ATOM     78  F   UNL A   1      42.713  24.593  25.456  1.00  0.00    -0.206 F 
ATOM     79  C   UNL A   1      42.253  21.228  26.695  1.00  0.00     0.060 A 
BRANCH  79  80
ATOM     80  S   UNL A   1      41.979  19.555  26.073  1.00  0.00     0.124 S 
ATOM     81  O   UNL A   1      42.812  19.546  24.876  1.00  0.00    -0.237 OA
ATOM     82  O   UNL A   1      42.448  18.735  27.185  1.00  0.00    -0.237 OA
ATOM     83  O   UNL A   1      40.538  19.515  25.840  1.00  0.00    -0.744 OA
ENDBRANCH  79  80
ENDBRANCH  47  72
BRANCH  59  84
ATOM     84  C   UNL A   1      48.051  27.236  30.441  1.00  0.00     0.058 A 
ATOM     85  C   UNL A   1      49.113  27.573  29.589  1.00  0.00     0.135 A 
ATOM     86  C   UNL A   1      48.351  26.530  31.618  1.00  0.00     0.135 A 
ATOM     87  F   UNL A   1      48.879  28.243  28.450  1.00  0.00    -0.206 F 
ATOM     88  C   UNL A   1      50.420  27.195  29.876  1.00  0.00     0.059 A 
ATOM     89  C   UNL A   1      49.654  26.168  31.940  1.00  0.00     0.059 A 
ATOM     90  F   UNL A   1      47.372  26.195  32.475  1.00  0.00    -0.206 F 
ATOM     91  C   UNL A   1      50.680  26.493  31.055  1.00  0.00     0.060 A 
BRANCH  91  92
ATOM     92  S   UNL A   1      52.384  26.027  31.425  1.00  0.00     0.124 S 
ATOM     93  O   UNL A   1      52.809  27.125  32.286  1.00  0.00    -0.237 OA
ATOM     94  O   UNL A   1      52.220  24.734  32.081  1.00  0.00    -0.237 OA
ATOM     95  O   UNL A   1      53.017  25.979  30.110  1.00  0.00    -0.744 OA
ENDBRANCH  91  92
ENDBRANCH  59  84
ENDBRANCH  33  34
ENDBRANCH  25  28
ENDBRANCH   1  24
TORSDOF 14
ENDMDL
MODEL 3
REMARK VINA RESULT:     -12.8      6.717     12.047
REMARK SMILES Cn1c(-c2ccccc2)c(C(=O)NCCCNC(=O)c2ccc(-c3c4nc(c(-c5c(F)cc(S(=O)(=O)[O-])cc5F)c5ccc([nH]5)c(-c5c(F)cc(S(=O)(=O)[O-])cc5F)c5nc(c(-c6c(F)cc(S(=O)(=O)[O-])cc6F)c6ccc3[nH]6)C=C5)C=C4)cc2)c2ccccc21
REMARK SMILES IDX 16 1 15 2 14 3 13 4 11 5 12 6 10 8 1 9 2 10 3 11 91 12 86 13
REMARK SMILES IDX 90 14 87 15 89 16 88 17 4 18 5 19 9 20 6 21 8 22 7 23 17 24
REMARK SMILES IDX 18 25 19 27 20 28 21 29 85 30 22 31 84 32 23 33 24 34 25 35
REMARK SMILES IDX 78 36 26 37 83 38 77 39 79 40 27 41 82 42 76 43 75 44 28 46
REMARK SMILES IDX 62 47 41 48 61 49 42 50 45 51 60 52 80 53 43 54 44 55 59 57
REMARK SMILES IDX 81 58 46 59 29 60 30 61 39 62 31 63 32 64 38 65 40 66 33 67
REMARK SMILES IDX 34 68 35 69 36 70 37 71 63 72 64 73 73 74 65 75 66 76 72 77
REMARK SMILES IDX 74 78 67 79 68 80 69 81 70 82 71 83 47 84 48 85 57 86 49 87
REMARK SMILES IDX 50 88 56 89 58 90 51 91 52 92 53 93 54 94 55 95
REMARK H PARENT 13 7 17 26 79 45 45 56
REMARK Flexibility Score: inf
ROOT
ATOM      1  C   UNL A   1      38.971  23.452  26.739  1.00  0.00     0.118 C 
ENDROOT
BRANCH   1   2
ATOM      2  C   UNL A   1      37.808  23.966  25.916  1.00  0.00     0.042 C 
BRANCH   2   3
ATOM      3  C   UNL A   1      36.641  23.017  25.770  1.00  0.00     0.118 C 
BRANCH   3   4
ATOM      4  N   UNL A   1      35.739  22.873  26.875  1.00  0.00    -0.352 N 
ATOM      5  C   UNL A   1      34.363  22.796  26.864  1.00  0.00     0.254 C 
ATOM      6  O   UNL A   1      33.862  22.542  27.966  1.00  0.00    -0.269 OA
ATOM      7  H   UNL A   1      36.160  22.823  27.763  1.00  0.00     0.163 HD
BRANCH   5   8
ATOM      8  C   UNL A   1      33.500  23.057  25.684  1.00  0.00     0.073 A 
ATOM      9  C   UNL A   1      31.401  24.715  23.171  1.00  0.00     0.150 C 
ATOM     10  N   UNL A   1      32.193  23.847  24.023  1.00  0.00    -0.343 N 
ATOM     11  C   UNL A   1      32.886  24.218  25.168  1.00  0.00     0.062 A 
ATOM     12  C   UNL A   1      32.343  22.505  23.758  1.00  0.00     0.049 A 
ATOM     13  C   UNL A   1      33.154  21.984  24.761  1.00  0.00     0.013 A 
ATOM     14  C   UNL A   1      31.826  21.714  22.716  1.00  0.00     0.027 A 
ATOM     15  C   UNL A   1      33.453  20.599  24.710  1.00  0.00     0.011 A 
ATOM     16  C   UNL A   1      32.145  20.356  22.690  1.00  0.00     0.002 A 
ATOM     17  C   UNL A   1      32.949  19.801  23.676  1.00  0.00     0.001 A 
BRANCH  11  18
ATOM     18  C   UNL A   1      32.852  25.613  25.630  1.00  0.00    -0.001 A 
ATOM     19  C   UNL A   1      33.943  26.469  25.444  1.00  0.00     0.010 A 
ATOM     20  C   UNL A   1      31.740  26.070  26.365  1.00  0.00     0.010 A 
ATOM     21  C   UNL A   1      33.954  27.727  26.060  1.00  0.00     0.001 A 
ATOM     22  C   UNL A   1      31.757  27.322  26.981  1.00  0.00     0.001 A 
ATOM     23  C   UNL A   1      32.875  28.141  26.843  1.00  0.00     0.000 A 
ENDBRANCH  11  18
ENDBRANCH   5   8
ENDBRANCH   3   4
ENDBRANCH   2   3
ENDBRANCH   1   2
BRANCH   1  24
ATOM     24  N   UNL A   1      40.289  23.774  26.198  1.00  0.00    -0.352 N 
ATOM     25  C   UNL A   1      41.172  24.813  26.413  1.00  0.00     0.251 C 
ATOM     26  H   UNL A   1      40.613  23.114  25.545  1.00  0.00     0.163 HD
ATOM     27  O   UNL A   1      42.184  24.870  25.726  1.00  0.00    -0.269 OA
BRANCH  25  28
ATOM     28  C   UNL A   1      40.905  25.879  27.411  1.00  0.00     0.039 A 
ATOM     29  C   UNL A   1      39.962  25.646  28.421  1.00  0.00     0.014 A 
ATOM     30  C   UNL A   1      41.550  27.110  27.370  1.00  0.00     0.014 A 
ATOM     31  C   UNL A   1      39.755  26.600  29.426  1.00  0.00     0.010 A 
ATOM     32  C   UNL A   1      41.464  27.985  28.446  1.00  0.00     0.010 A 
ATOM     33  C   UNL A   1      40.553  27.754  29.483  1.00  0.00    -0.014 A 
BRANCH  33  34
ATOM     34  C   UNL A   1      40.441  28.747  30.586  1.00  0.00     0.031 A 
ATOM     35  C   UNL A   1      41.316  28.620  31.810  1.00  0.00     0.074 A 
ATOM     36  C   UNL A   1      39.494  29.708  30.531  1.00  0.00     0.049 A 
ATOM     37  N   UNL A   1      41.289  29.310  32.921  1.00  0.00    -0.248 NA
ATOM     38  C   UNL A   1      42.324  27.546  31.802  1.00  0.00     0.031 C 
ATOM     39  C   UNL A   1      38.535  29.895  29.439  1.00  0.00     0.029 A 
ATOM     40  N   UNL A   1      39.174  30.703  31.421  1.00  0.00    -0.354 N 
ATOM     41  C   UNL A   1      42.248  28.733  33.749  1.00  0.00     0.074 A 
ATOM     42  C   UNL A   1      42.786  27.594  33.043  1.00  0.00     0.031 C 
ATOM     43  C   UNL A   1      37.766  30.963  29.703  1.00  0.00     0.029 A 
ATOM     44  C   UNL A   1      38.140  31.509  31.003  1.00  0.00     0.049 A 
ATOM     45  H   UNL A   1      39.641  30.829  32.278  1.00  0.00     0.167 HD
ATOM     46  C   UNL A   1      42.672  29.136  34.971  1.00  0.00     0.037 A 
ATOM     47  C   UNL A   1      37.557  32.566  31.599  1.00  0.00     0.037 A 
ATOM     48  C   UNL A   1      42.170  30.303  35.646  1.00  0.00     0.049 A 
ATOM     49  C   UNL A   1      38.065  33.017  32.942  1.00  0.00     0.074 A 
ATOM     50  C   UNL A   1      42.580  30.842  36.854  1.00  0.00     0.029 A 
ATOM     51  N   UNL A   1      41.154  31.117  35.168  1.00  0.00    -0.354 N 
ATOM     52  N   UNL A   1      39.018  32.496  33.680  1.00  0.00    -0.248 NA
ATOM     53  C   UNL A   1      37.429  34.203  33.529  1.00  0.00     0.031 C 
ATOM     54  C   UNL A   1      41.782  31.960  37.124  1.00  0.00     0.029 A 
ATOM     55  C   UNL A   1      40.912  32.146  36.062  1.00  0.00     0.049 A 
ATOM     56  H   UNL A   1      40.675  30.982  34.319  1.00  0.00     0.167 HD
ATOM     57  C   UNL A   1      39.112  33.307  34.806  1.00  0.00     0.074 A 
ATOM     58  C   UNL A   1      38.132  34.361  34.642  1.00  0.00     0.031 C 
ATOM     59  C   UNL A   1      39.935  33.190  35.877  1.00  0.00     0.037 A 
BRANCH  46  60
ATOM     60  C   UNL A   1      43.744  28.319  35.644  1.00  0.00     0.058 A 
ATOM     61  C   UNL A   1      45.108  28.544  35.393  1.00  0.00     0.135 A 
ATOM     62  C   UNL A   1      43.408  27.316  36.567  1.00  0.00     0.135 A 
ATOM     63  F   UNL A   1      45.489  29.478  34.506  1.00  0.00    -0.206 F 
ATOM     64  C   UNL A   1      46.097  27.781  36.005  1.00  0.00     0.059 A 
ATOM     65  C   UNL A   1      44.383  26.563  37.216  1.00  0.00     0.059 A 
ATOM     66  F   UNL A   1      42.121  27.057  36.846  1.00  0.00    -0.206 F 
ATOM     67  C   UNL A   1      45.725  26.791  36.915  1.00  0.00     0.060 A 
BRANCH  67  68
ATOM     68  S   UNL A   1      47.022  25.814  37.703  1.00  0.00     0.124 S 
ATOM     69  O   UNL A   1      46.913  24.551  36.981  1.00  0.00    -0.237 OA
ATOM     70  O   UNL A   1      48.219  26.602  37.424  1.00  0.00    -0.237 OA
ATOM     71  O   UNL A   1      46.614  25.774  39.104  1.00  0.00    -0.744 OA
ENDBRANCH  67  68
ENDBRANCH  46  60
BRANCH  47  72
ATOM     72  C   UNL A   1      36.456  33.296  30.913  1.00  0.00     0.058 A 
ATOM     73  C   UNL A   1      35.134  33.202  31.374  1.00  0.00     0.135 A 
ATOM     74  C   UNL A   1      36.702  34.113  29.798  1.00  0.00     0.135 A 
ATOM     75  F   UNL A   1      34.847  32.430  32.433  1.00  0.00    -0.206 F 
ATOM     76  C   UNL A   1      34.092  33.877  30.746  1.00  0.00     0.059 A 
ATOM     77  C   UNL A   1      35.680  34.819  29.170  1.00  0.00     0.059 A 
ATOM     78  F   UNL A   1      37.951  34.253  29.329  1.00  0.00    -0.206 F 
ATOM     79  C   UNL A   1      34.376  34.687  29.645  1.00  0.00     0.060 A 
BRANCH  79  80
ATOM     80  S   UNL A   1      33.024  35.599  28.869  1.00  0.00     0.124 S 
ATOM     81  O   UNL A   1      33.748  36.619  28.121  1.00  0.00    -0.237 OA
ATOM     82  O   UNL A   1      32.374  34.563  28.073  1.00  0.00    -0.237 OA
ATOM     83  O   UNL A   1      32.248  36.081  30.008  1.00  0.00    -0.744 OA
ENDBRANCH  79  80
ENDBRANCH  47  72
BRANCH  59  84
ATOM     84  C   UNL A   1      39.837  34.250  36.939  1.00  0.00     0.058 A 
ATOM     85  C   UNL A   1      40.491  35.485  36.815  1.00  0.00     0.135 A 
ATOM     86  C   UNL A   1      39.040  34.041  38.077  1.00  0.00     0.135 A 
ATOM     87  F   UNL A   1      41.268  35.733  35.748  1.00  0.00    -0.206 F 
ATOM     88  C   UNL A   1      40.386  36.464  37.797  1.00  0.00     0.059 A 
ATOM     89  C   UNL A   1      38.896  35.017  39.057  1.00  0.00     0.059 A 
ATOM     90  F   UNL A   1      38.381  32.882  38.239  1.00  0.00    -0.206 F 
ATOM     91  C   UNL A   1      39.586  36.220  38.915  1.00  0.00     0.060 A 
BRANCH  91  92
ATOM     92  S   UNL A   1      39.442  37.507  40.172  1.00  0.00     0.124 S 
ATOM     93  O   UNL A   1      40.815  37.992  40.253  1.00  0.00    -0.237 OA
ATOM     94  O   UNL A   1      38.479  38.425  39.571  1.00  0.00    -0.237 OA
ATOM     95  O   UNL A   1      38.961  36.783  41.345  1.00  0.00    -0.744 OA
ENDBRANCH  91  92
ENDBRANCH  59  84
ENDBRANCH  33  34
ENDBRANCH  25  28
ENDBRANCH   1  24
TORSDOF 14
ENDMDL
