MODEL 1
REMARK VINA RESULT:     -11.9      0.000      0.000
REMARK SMILES O=C(NCCCNC(=O)C1CCN(C(=O)CSCc2ccccc2)CC1)c1ccc(-c2c3nc(c(-c4c(F)cc(S(=O)(=O)[O-])cc4F)c4ccc([nH]4)c(-c4c(F)cc(S(=O)(=O)[O-])cc4F)c4nc(c(-c5c(F)cc(S(=O)(=O)[O-])cc5F)c5ccc2[nH]5)C=C4)C=C3)cc1
REMARK SMILES IDX 5 1 4 2 3 3 1 4 2 5 27 7 28 8 92 9 29 10 91 11 30 12 31 13
REMARK SMILES IDX 32 14 85 15 33 16 90 17 84 18 86 19 34 20 89 21 83 22 82 23
REMARK SMILES IDX 35 25 69 26 48 27 68 28 49 29 52 30 67 31 87 32 50 33 51 34
REMARK SMILES IDX 66 36 88 37 53 38 36 39 37 40 46 41 38 42 39 43 45 44 47 45
REMARK SMILES IDX 40 46 41 47 42 48 43 49 44 50 70 51 71 52 80 53 72 54 73 55
REMARK SMILES IDX 79 56 81 57 74 58 75 59 76 60 77 61 78 62 54 63 55 64 64 65
REMARK SMILES IDX 56 66 57 67 63 68 65 69 58 70 59 71 60 72 61 73 62 74 6 75
REMARK SMILES IDX 7 76 8 77 9 79 10 80 11 81 26 82 12 83 25 84 13 85 14 86
REMARK SMILES IDX 15 87 16 88 17 89 18 90 19 91 20 92 24 93 21 94 23 95 22 96
REMARK H PARENT 3 6 86 24 52 35 7 78
REMARK Flexibility Score: inf
ROOT
ATOM      1  C   UNL A   1      34.839  30.027  27.302  1.00  0.00     0.042 C 
ENDROOT
BRANCH   1   2
ATOM      2  C   UNL A   1      35.546  31.152  28.056  1.00  0.00     0.118 C 
BRANCH   2   3
ATOM      3  N   UNL A   1      35.451  31.005  29.502  1.00  0.00    -0.352 N 
ATOM      4  O   UNL A   1      35.988  30.268  31.555  1.00  0.00    -0.269 OA
ATOM      5  C   UNL A   1      36.344  30.468  30.396  1.00  0.00     0.251 C 
ATOM      6  H   UNL A   1      34.616  31.342  29.900  1.00  0.00     0.163 HD
BRANCH   5   7
ATOM      7  C   UNL A   1      37.714  30.119  29.967  1.00  0.00     0.039 A 
ATOM      8  C   UNL A   1      38.090  30.200  28.625  1.00  0.00     0.014 A 
ATOM      9  C   UNL A   1      38.651  29.738  30.934  1.00  0.00     0.014 A 
ATOM     10  C   UNL A   1      39.356  29.776  28.234  1.00  0.00     0.010 A 
ATOM     11  C   UNL A   1      39.948  29.386  30.547  1.00  0.00     0.010 A 
ATOM     12  C   UNL A   1      40.302  29.373  29.191  1.00  0.00    -0.014 A 
BRANCH  12  13
ATOM     13  C   UNL A   1      41.669  28.994  28.751  1.00  0.00     0.031 A 
ATOM     14  C   UNL A   1      42.799  29.987  28.788  1.00  0.00     0.074 A 
ATOM     15  C   UNL A   1      41.890  27.732  28.336  1.00  0.00     0.049 A 
ATOM     16  N   UNL A   1      44.056  29.814  28.468  1.00  0.00    -0.248 NA
ATOM     17  C   UNL A   1      42.475  31.349  29.234  1.00  0.00     0.031 C 
ATOM     18  C   UNL A   1      40.868  26.686  28.243  1.00  0.00     0.029 A 
ATOM     19  N   UNL A   1      43.042  27.107  27.931  1.00  0.00    -0.354 N 
ATOM     20  C   UNL A   1      44.672  31.046  28.656  1.00  0.00     0.074 A 
ATOM     21  C   UNL A   1      43.642  31.965  29.092  1.00  0.00     0.031 C 
ATOM     22  C   UNL A   1      41.446  25.540  27.857  1.00  0.00     0.029 A 
ATOM     23  C   UNL A   1      42.865  25.780  27.619  1.00  0.00     0.049 A 
ATOM     24  H   UNL A   1      43.910  27.565  27.871  1.00  0.00     0.167 HD
ATOM     25  C   UNL A   1      45.975  31.376  28.486  1.00  0.00     0.037 A 
ATOM     26  C   UNL A   1      43.743  24.859  27.181  1.00  0.00     0.037 A 
ATOM     27  C   UNL A   1      46.995  30.451  28.061  1.00  0.00     0.049 A 
ATOM     28  C   UNL A   1      45.178  25.253  26.986  1.00  0.00     0.074 A 
ATOM     29  C   UNL A   1      48.351  30.678  27.897  1.00  0.00     0.029 A 
ATOM     30  N   UNL A   1      46.772  29.123  27.725  1.00  0.00    -0.354 N 
ATOM     31  N   UNL A   1      45.749  26.415  27.201  1.00  0.00    -0.248 NA
ATOM     32  C   UNL A   1      46.087  24.215  26.485  1.00  0.00     0.031 C 
ATOM     33  C   UNL A   1      48.939  29.500  27.420  1.00  0.00     0.029 A 
ATOM     34  C   UNL A   1      47.958  28.524  27.333  1.00  0.00     0.049 A 
ATOM     35  H   UNL A   1      45.897  28.671  27.761  1.00  0.00     0.167 HD
ATOM     36  C   UNL A   1      47.088  26.244  26.877  1.00  0.00     0.074 A 
ATOM     37  C   UNL A   1      47.245  24.863  26.463  1.00  0.00     0.031 C 
ATOM     38  C   UNL A   1      48.097  27.149  26.918  1.00  0.00     0.037 A 
BRANCH  25  39
ATOM     39  C   UNL A   1      46.366  32.807  28.740  1.00  0.00     0.058 A 
ATOM     40  C   UNL A   1      46.351  33.771  27.719  1.00  0.00     0.135 A 
ATOM     41  C   UNL A   1      46.752  33.223  30.025  1.00  0.00     0.135 A 
ATOM     42  F   UNL A   1      46.004  33.427  26.468  1.00  0.00    -0.206 F 
ATOM     43  C   UNL A   1      46.744  35.086  27.953  1.00  0.00     0.059 A 
ATOM     44  C   UNL A   1      47.123  34.539  30.288  1.00  0.00     0.059 A 
ATOM     45  F   UNL A   1      46.780  32.345  31.040  1.00  0.00    -0.206 F 
ATOM     46  C   UNL A   1      47.137  35.458  29.240  1.00  0.00     0.060 A 
BRANCH  46  47
ATOM     47  S   UNL A   1      47.676  37.158  29.522  1.00  0.00     0.124 S 
ATOM     48  O   UNL A   1      46.398  37.863  29.564  1.00  0.00    -0.237 OA
ATOM     49  O   UNL A   1      48.384  37.056  30.795  1.00  0.00    -0.237 OA
ATOM     50  O   UNL A   1      48.515  37.446  28.364  1.00  0.00    -0.744 OA
ENDBRANCH  46  47
ENDBRANCH  25  39
BRANCH  26  51
ATOM     51  C   UNL A   1      43.276  23.474  26.920  1.00  0.00     0.058 A 
ATOM     52  C   UNL A   1      43.065  23.020  25.611  1.00  0.00     0.135 A 
ATOM     53  C   UNL A   1      43.091  22.560  27.970  1.00  0.00     0.135 A 
ATOM     54  F   UNL A   1      43.226  23.858  24.576  1.00  0.00    -0.206 F 
ATOM     55  C   UNL A   1      42.690  21.707  25.349  1.00  0.00     0.059 A 
ATOM     56  C   UNL A   1      42.739  21.236  27.731  1.00  0.00     0.059 A 
ATOM     57  F   UNL A   1      43.298  22.945  29.239  1.00  0.00    -0.206 F 
ATOM     58  C   UNL A   1      42.537  20.820  26.417  1.00  0.00     0.060 A 
BRANCH  58  59
ATOM     59  S   UNL A   1      42.133  19.096  26.061  1.00  0.00     0.124 S 
ATOM     60  O   UNL A   1      42.942  18.846  24.874  1.00  0.00    -0.237 OA
ATOM     61  O   UNL A   1      42.563  18.420  27.280  1.00  0.00    -0.237 OA
ATOM     62  O   UNL A   1      40.689  19.129  25.847  1.00  0.00    -0.744 OA
ENDBRANCH  58  59
ENDBRANCH  26  51
BRANCH  38  63
ATOM     63  C   UNL A   1      49.466  26.667  26.526  1.00  0.00     0.058 A 
ATOM     64  C   UNL A   1      50.310  26.024  27.445  1.00  0.00     0.135 A 
ATOM     65  C   UNL A   1      49.922  26.818  25.208  1.00  0.00     0.135 A 
ATOM     66  F   UNL A   1      49.924  25.863  28.720  1.00  0.00    -0.206 F 
ATOM     67  C   UNL A   1      51.571  25.568  27.074  1.00  0.00     0.059 A 
ATOM     68  C   UNL A   1      51.170  26.348  24.810  1.00  0.00     0.059 A 
ATOM     69  F   UNL A   1      49.150  27.420  24.289  1.00  0.00    -0.206 F 
ATOM     70  C   UNL A   1      51.992  25.734  25.753  1.00  0.00     0.060 A 
BRANCH  70  71
ATOM     71  S   UNL A   1      53.619  25.112  25.276  1.00  0.00     0.124 S 
ATOM     72  O   UNL A   1      53.414  23.669  25.345  1.00  0.00    -0.237 OA
ATOM     73  O   UNL A   1      53.785  25.666  23.936  1.00  0.00    -0.237 OA
ATOM     74  O   UNL A   1      54.506  25.672  26.291  1.00  0.00    -0.744 OA
ENDBRANCH  70  71
ENDBRANCH  38  63
ENDBRANCH  12  13
ENDBRANCH   5   7
ENDBRANCH   2   3
ENDBRANCH   1   2
BRANCH   1  75
ATOM     75  C   UNL A   1      33.367  30.312  27.015  1.00  0.00     0.117 C 
BRANCH  75  76
ATOM     76  N   UNL A   1      32.508  29.339  27.666  1.00  0.00    -0.356 N 
ATOM     77  C   UNL A   1      31.883  28.246  27.147  1.00  0.00     0.223 C 
ATOM     78  H   UNL A   1      32.354  29.492  28.627  1.00  0.00     0.163 HD
ATOM     79  O   UNL A   1      31.019  27.696  27.829  1.00  0.00    -0.275 OA
BRANCH  77  80
ATOM     80  C   UNL A   1      32.353  27.680  25.813  1.00  0.00     0.082 C 
ATOM     81  C   UNL A   1      31.196  27.521  24.811  1.00  0.00     0.035 C 
ATOM     82  C   UNL A   1      33.077  26.349  26.085  1.00  0.00     0.035 C 
ATOM     83  C   UNL A   1      30.320  26.298  25.076  1.00  0.00     0.120 C 
ATOM     84  C   UNL A   1      32.089  25.215  26.374  1.00  0.00     0.120 C 
ATOM     85  N   UNL A   1      31.149  25.111  25.261  1.00  0.00    -0.342 N 
ATOM     86  C   UNL A   1      31.120  24.101  24.310  1.00  0.00     0.232 C 
ATOM     87  O   UNL A   1      30.441  24.195  23.283  1.00  0.00    -0.274 OA
BRANCH  86  88
ATOM     88  C   UNL A   1      31.919  22.830  24.559  1.00  0.00     0.169 C 
BRANCH  88  89
ATOM     89  S   UNL A   1      33.357  22.649  23.452  1.00  0.00    -0.147 SA
BRANCH  89  90
ATOM     90  C   UNL A   1      34.572  23.700  24.307  1.00  0.00     0.105 C 
BRANCH  90  91
ATOM     91  C   UNL A   1      35.857  23.015  24.698  1.00  0.00    -0.038 A 
ATOM     92  C   UNL A   1      36.067  21.642  24.490  1.00  0.00     0.004 A 
ATOM     93  C   UNL A   1      36.844  23.745  25.378  1.00  0.00     0.004 A 
ATOM     94  C   UNL A   1      37.244  21.026  24.917  1.00  0.00     0.000 A 
ATOM     95  C   UNL A   1      38.014  23.124  25.820  1.00  0.00     0.000 A 
ATOM     96  C   UNL A   1      38.216  21.767  25.585  1.00  0.00     0.000 A 
ENDBRANCH  90  91
ENDBRANCH  89  90
ENDBRANCH  88  89
ENDBRANCH  86  88
ENDBRANCH  77  80
ENDBRANCH  75  76
ENDBRANCH   1  75
TORSDOF 17
ENDMDL
MODEL 2
REMARK VINA RESULT:     -11.8      6.372     11.971
REMARK SMILES O=C(NCCCNC(=O)C1CCN(C(=O)CSCc2ccccc2)CC1)c1ccc(-c2c3nc(c(-c4c(F)cc(S(=O)(=O)[O-])cc4F)c4ccc([nH]4)c(-c4c(F)cc(S(=O)(=O)[O-])cc4F)c4nc(c(-c5c(F)cc(S(=O)(=O)[O-])cc5F)c5ccc2[nH]5)C=C4)C=C3)cc1
REMARK SMILES IDX 5 1 4 2 3 3 1 4 2 5 27 7 28 8 92 9 29 10 91 11 30 12 31 13
REMARK SMILES IDX 32 14 85 15 33 16 90 17 84 18 86 19 34 20 89 21 83 22 82 23
REMARK SMILES IDX 35 25 69 26 48 27 68 28 49 29 52 30 67 31 87 32 50 33 51 34
REMARK SMILES IDX 66 36 88 37 53 38 36 39 37 40 46 41 38 42 39 43 45 44 47 45
REMARK SMILES IDX 40 46 41 47 42 48 43 49 44 50 70 51 71 52 80 53 72 54 73 55
REMARK SMILES IDX 79 56 81 57 74 58 75 59 76 60 77 61 78 62 54 63 55 64 64 65
REMARK SMILES IDX 56 66 57 67 63 68 65 69 58 70 59 71 60 72 61 73 62 74 6 75
REMARK SMILES IDX 7 76 8 77 9 79 10 80 11 81 26 82 12 83 25 84 13 85 14 86
REMARK SMILES IDX 15 87 16 88 17 89 18 90 19 91 20 92 24 93 21 94 23 95 22 96
REMARK H PARENT 3 6 86 24 52 35 7 78
REMARK Flexibility Score: inf
ROOT
ATOM      1  C   UNL A   1      40.463  22.048  27.314  1.00  0.00     0.042 C 
ENDROOT
BRANCH   1   2
ATOM      2  C   UNL A   1      41.651  22.998  27.459  1.00  0.00     0.118 C 
BRANCH   2   3
ATOM      3  N   UNL A   1      41.887  23.788  26.258  1.00  0.00    -0.352 N 
ATOM      4  O   UNL A   1      41.831  25.582  24.908  1.00  0.00    -0.269 OA
ATOM      5  C   UNL A   1      41.765  25.140  26.052  1.00  0.00     0.251 C 
ATOM      6  H   UNL A   1      42.179  23.272  25.472  1.00  0.00     0.163 HD
BRANCH   5   7
ATOM      7  C   UNL A   1      41.541  26.054  27.192  1.00  0.00     0.039 A 
ATOM      8  C   UNL A   1      42.391  27.138  27.421  1.00  0.00     0.014 A 
ATOM      9  C   UNL A   1      40.438  25.841  28.026  1.00  0.00     0.014 A 
ATOM     10  C   UNL A   1      42.216  27.927  28.554  1.00  0.00     0.010 A 
ATOM     11  C   UNL A   1      40.220  26.683  29.120  1.00  0.00     0.010 A 
ATOM     12  C   UNL A   1      41.124  27.715  29.410  1.00  0.00    -0.014 A 
BRANCH  12  13
ATOM     13  C   UNL A   1      40.921  28.618  30.571  1.00  0.00     0.031 A 
ATOM     14  C   UNL A   1      41.825  28.554  31.772  1.00  0.00     0.074 A 
ATOM     15  C   UNL A   1      39.921  29.519  30.525  1.00  0.00     0.049 A 
ATOM     16  N   UNL A   1      41.806  29.287  32.856  1.00  0.00    -0.248 NA
ATOM     17  C   UNL A   1      42.881  27.532  31.758  1.00  0.00     0.031 C 
ATOM     18  C   UNL A   1      38.971  29.664  29.419  1.00  0.00     0.029 A 
ATOM     19  N   UNL A   1      39.544  30.492  31.415  1.00  0.00    -0.354 N 
ATOM     20  C   UNL A   1      42.832  28.806  33.662  1.00  0.00     0.074 A 
ATOM     21  C   UNL A   1      43.436  27.699  32.951  1.00  0.00     0.031 C 
ATOM     22  C   UNL A   1      38.153  30.696  29.674  1.00  0.00     0.029 A 
ATOM     23  C   UNL A   1      38.482  31.249  30.983  1.00  0.00     0.049 A 
ATOM     24  H   UNL A   1      39.992  30.634  32.280  1.00  0.00     0.167 HD
ATOM     25  C   UNL A   1      43.234  29.252  34.876  1.00  0.00     0.037 A 
ATOM     26  C   UNL A   1      37.835  32.270  31.576  1.00  0.00     0.037 A 
ATOM     27  C   UNL A   1      42.632  30.362  35.572  1.00  0.00     0.049 A 
ATOM     28  C   UNL A   1      38.289  32.735  32.928  1.00  0.00     0.074 A 
ATOM     29  C   UNL A   1      42.992  30.914  36.789  1.00  0.00     0.029 A 
ATOM     30  N   UNL A   1      41.538  31.084  35.115  1.00  0.00    -0.354 N 
ATOM     31  N   UNL A   1      39.283  32.290  33.660  1.00  0.00    -0.248 NA
ATOM     32  C   UNL A   1      37.534  33.836  33.539  1.00  0.00     0.031 C 
ATOM     33  C   UNL A   1      42.089  31.942  37.088  1.00  0.00     0.029 A 
ATOM     34  C   UNL A   1      41.195  32.062  36.036  1.00  0.00     0.049 A 
ATOM     35  H   UNL A   1      41.073  30.926  34.262  1.00  0.00     0.167 HD
ATOM     36  C   UNL A   1      39.283  33.066  34.811  1.00  0.00     0.074 A 
ATOM     37  C   UNL A   1      38.199  34.018  34.673  1.00  0.00     0.031 C 
ATOM     38  C   UNL A   1      40.108  32.998  35.886  1.00  0.00     0.037 A 
BRANCH  25  39
ATOM     39  C   UNL A   1      44.369  28.520  35.542  1.00  0.00     0.058 A 
ATOM     40  C   UNL A   1      45.707  28.907  35.362  1.00  0.00     0.135 A 
ATOM     41  C   UNL A   1      44.113  27.423  36.381  1.00  0.00     0.135 A 
ATOM     42  F   UNL A   1      46.011  29.940  34.561  1.00  0.00    -0.206 F 
ATOM     43  C   UNL A   1      46.753  28.206  35.956  1.00  0.00     0.059 A 
ATOM     44  C   UNL A   1      45.143  26.724  37.007  1.00  0.00     0.059 A 
ATOM     45  F   UNL A   1      42.853  27.012  36.593  1.00  0.00    -0.206 F 
ATOM     46  C   UNL A   1      46.461  27.110  36.770  1.00  0.00     0.060 A 
BRANCH  46  47
ATOM     47  S   UNL A   1      47.829  26.190  37.507  1.00  0.00     0.124 S 
ATOM     48  O   UNL A   1      48.419  27.201  38.379  1.00  0.00    -0.237 OA
ATOM     49  O   UNL A   1      47.142  25.094  38.184  1.00  0.00    -0.237 OA
ATOM     50  O   UNL A   1      48.638  25.803  36.356  1.00  0.00    -0.744 OA
ENDBRANCH  46  47
ENDBRANCH  25  39
BRANCH  26  51
ATOM     51  C   UNL A   1      36.701  32.921  30.872  1.00  0.00     0.058 A 
ATOM     52  C   UNL A   1      35.377  32.680  31.262  1.00  0.00     0.135 A 
ATOM     53  C   UNL A   1      36.924  33.843  29.836  1.00  0.00     0.135 A 
ATOM     54  F   UNL A   1      35.115  31.804  32.244  1.00  0.00    -0.206 F 
ATOM     55  C   UNL A   1      34.310  33.332  30.654  1.00  0.00     0.059 A 
ATOM     56  C   UNL A   1      35.875  34.525  29.229  1.00  0.00     0.059 A 
ATOM     57  F   UNL A   1      38.176  34.119  29.440  1.00  0.00    -0.206 F 
ATOM     58  C   UNL A   1      34.571  34.260  29.642  1.00  0.00     0.060 A 
BRANCH  58  59
ATOM     59  S   UNL A   1      33.185  35.164  28.918  1.00  0.00     0.124 S 
ATOM     60  O   UNL A   1      32.663  34.186  27.970  1.00  0.00    -0.237 OA
ATOM     61  O   UNL A   1      32.350  35.434  30.083  1.00  0.00    -0.237 OA
ATOM     62  O   UNL A   1      33.824  36.338  28.329  1.00  0.00    -0.744 OA
ENDBRANCH  58  59
ENDBRANCH  26  51
BRANCH  38  63
ATOM     63  C   UNL A   1      39.882  33.996  36.987  1.00  0.00     0.058 A 
ATOM     64  C   UNL A   1      40.427  35.288  36.933  1.00  0.00     0.135 A 
ATOM     65  C   UNL A   1      39.079  33.667  38.091  1.00  0.00     0.135 A 
ATOM     66  F   UNL A   1      41.208  35.649  35.903  1.00  0.00    -0.206 F 
ATOM     67  C   UNL A   1      40.204  36.212  37.949  1.00  0.00     0.059 A 
ATOM     68  C   UNL A   1      38.823  34.583  39.106  1.00  0.00     0.059 A 
ATOM     69  F   UNL A   1      38.528  32.446  38.186  1.00  0.00    -0.206 F 
ATOM     70  C   UNL A   1      39.400  35.851  39.031  1.00  0.00     0.060 A 
BRANCH  70  71
ATOM     71  S   UNL A   1      39.093  37.067  40.330  1.00  0.00     0.124 S 
ATOM     72  O   UNL A   1      38.544  38.181  39.564  1.00  0.00    -0.237 OA
ATOM     73  O   UNL A   1      38.150  36.368  41.197  1.00  0.00    -0.237 OA
ATOM     74  O   UNL A   1      40.416  37.289  40.904  1.00  0.00    -0.744 OA
ENDBRANCH  70  71
ENDBRANCH  38  63
ENDBRANCH  12  13
ENDBRANCH   5   7
ENDBRANCH   2   3
ENDBRANCH   1   2
BRANCH   1  75
ATOM     75  C   UNL A   1      39.266  22.667  26.597  1.00  0.00     0.117 C 
BRANCH  75  76
ATOM     76  N   UNL A   1      38.790  21.803  25.531  1.00  0.00    -0.356 N 
ATOM     77  C   UNL A   1      37.517  21.433  25.216  1.00  0.00     0.223 C 
ATOM     78  H   UNL A   1      39.491  21.429  24.950  1.00  0.00     0.163 HD
ATOM     79  O   UNL A   1      37.366  20.510  24.416  1.00  0.00    -0.275 OA
BRANCH  77  80
ATOM     80  C   UNL A   1      36.347  22.242  25.761  1.00  0.00     0.082 C 
ATOM     81  C   UNL A   1      35.104  21.369  26.005  1.00  0.00     0.035 C 
ATOM     82  C   UNL A   1      36.067  23.398  24.784  1.00  0.00     0.035 C 
ATOM     83  C   UNL A   1      34.336  21.026  24.730  1.00  0.00     0.120 C 
ATOM     84  C   UNL A   1      35.328  22.914  23.532  1.00  0.00     0.120 C 
ATOM     85  N   UNL A   1      34.104  22.231  23.939  1.00  0.00    -0.342 N 
ATOM     86  C   UNL A   1      32.812  22.717  23.795  1.00  0.00     0.232 C 
ATOM     87  O   UNL A   1      31.850  22.182  24.355  1.00  0.00    -0.274 OA
BRANCH  86  88
ATOM     88  C   UNL A   1      32.572  23.920  22.895  1.00  0.00     0.169 C 
BRANCH  88  89
ATOM     89  S   UNL A   1      31.749  25.308  23.744  1.00  0.00    -0.147 SA
BRANCH  89  90
ATOM     90  C   UNL A   1      32.714  25.376  25.286  1.00  0.00     0.105 C 
BRANCH  90  91
ATOM     91  C   UNL A   1      32.723  26.714  25.984  1.00  0.00    -0.038 A 
ATOM     92  C   UNL A   1      33.845  27.558  25.970  1.00  0.00     0.004 A 
ATOM     93  C   UNL A   1      31.613  27.092  26.754  1.00  0.00     0.004 A 
ATOM     94  C   UNL A   1      33.842  28.762  26.675  1.00  0.00     0.000 A 
ATOM     95  C   UNL A   1      31.617  28.289  27.473  1.00  0.00     0.000 A 
ATOM     96  C   UNL A   1      32.728  29.125  27.430  1.00  0.00     0.000 A 
ENDBRANCH  90  91
ENDBRANCH  89  90
ENDBRANCH  88  89
ENDBRANCH  86  88
ENDBRANCH  77  80
ENDBRANCH  75  76
ENDBRANCH   1  75
TORSDOF 17
ENDMDL
MODEL 3
REMARK VINA RESULT:     -11.7      1.445      2.146
REMARK SMILES O=C(NCCCNC(=O)C1CCN(C(=O)CSCc2ccccc2)CC1)c1ccc(-c2c3nc(c(-c4c(F)cc(S(=O)(=O)[O-])cc4F)c4ccc([nH]4)c(-c4c(F)cc(S(=O)(=O)[O-])cc4F)c4nc(c(-c5c(F)cc(S(=O)(=O)[O-])cc5F)c5ccc2[nH]5)C=C4)C=C3)cc1
REMARK SMILES IDX 5 1 4 2 3 3 1 4 2 5 27 7 28 8 92 9 29 10 91 11 30 12 31 13
REMARK SMILES IDX 32 14 85 15 33 16 90 17 84 18 86 19 34 20 89 21 83 22 82 23
REMARK SMILES IDX 35 25 69 26 48 27 68 28 49 29 52 30 67 31 87 32 50 33 51 34
REMARK SMILES IDX 66 36 88 37 53 38 36 39 37 40 46 41 38 42 39 43 45 44 47 45
REMARK SMILES IDX 40 46 41 47 42 48 43 49 44 50 70 51 71 52 80 53 72 54 73 55
REMARK SMILES IDX 79 56 81 57 74 58 75 59 76 60 77 61 78 62 54 63 55 64 64 65
REMARK SMILES IDX 56 66 57 67 63 68 65 69 58 70 59 71 60 72 61 73 62 74 6 75
REMARK SMILES IDX 7 76 8 77 9 79 10 80 11 81 26 82 12 83 25 84 13 85 14 86
REMARK SMILES IDX 15 87 16 88 17 89 18 90 19 91 20 92 24 93 21 94 23 95 22 96
REMARK H PARENT 3 6 86 24 52 35 7 78
REMARK Flexibility Score: inf
ROOT
ATOM      1  C   UNL A   1      34.371  31.450  27.728  1.00  0.00     0.042 C 
ENDROOT
BRANCH   1   2
ATOM      2  C   UNL A   1      35.657  31.658  28.526  1.00  0.00     0.118 C 
BRANCH   2   3
ATOM      3  N   UNL A   1      35.543  31.197  29.903  1.00  0.00    -0.352 N 
ATOM      4  O   UNL A   1      36.021  29.988  31.735  1.00  0.00    -0.269 OA
ATOM      5  C   UNL A   1      36.396  30.420  30.647  1.00  0.00     0.251 C 
ATOM      6  H   UNL A   1      34.728  31.487  30.373  1.00  0.00     0.163 HD
BRANCH   5   7
ATOM      7  C   UNL A   1      37.746  30.094  30.142  1.00  0.00     0.039 A 
ATOM      8  C   UNL A   1      38.040  30.167  28.779  1.00  0.00     0.014 A 
ATOM      9  C   UNL A   1      38.747  29.743  31.055  1.00  0.00     0.014 A 
ATOM     10  C   UNL A   1      39.289  29.764  28.317  1.00  0.00     0.010 A 
ATOM     11  C   UNL A   1      40.025  29.413  30.595  1.00  0.00     0.010 A 
ATOM     12  C   UNL A   1      40.298  29.391  29.220  1.00  0.00    -0.014 A 
BRANCH  12  13
ATOM     13  C   UNL A   1      41.644  29.035  28.704  1.00  0.00     0.031 A 
ATOM     14  C   UNL A   1      42.754  30.050  28.664  1.00  0.00     0.074 A 
ATOM     15  C   UNL A   1      41.867  27.773  28.289  1.00  0.00     0.049 A 
ATOM     16  N   UNL A   1      43.993  29.899  28.272  1.00  0.00    -0.248 NA
ATOM     17  C   UNL A   1      42.429  31.411  29.114  1.00  0.00     0.031 C 
ATOM     18  C   UNL A   1      40.863  26.706  28.268  1.00  0.00     0.029 A 
ATOM     19  N   UNL A   1      43.005  27.167  27.823  1.00  0.00    -0.354 N 
ATOM     20  C   UNL A   1      44.593  31.146  28.410  1.00  0.00     0.074 A 
ATOM     21  C   UNL A   1      43.572  32.049  28.897  1.00  0.00     0.031 C 
ATOM     22  C   UNL A   1      41.440  25.568  27.859  1.00  0.00     0.029 A 
ATOM     23  C   UNL A   1      42.837  25.834  27.535  1.00  0.00     0.049 A 
ATOM     24  H   UNL A   1      43.859  27.641  27.706  1.00  0.00     0.167 HD
ATOM     25  C   UNL A   1      45.877  31.500  28.160  1.00  0.00     0.037 A 
ATOM     26  C   UNL A   1      43.707  24.925  27.055  1.00  0.00     0.037 A 
ATOM     27  C   UNL A   1      46.889  30.590  27.685  1.00  0.00     0.049 A 
ATOM     28  C   UNL A   1      45.119  25.345  26.771  1.00  0.00     0.074 A 
ATOM     29  C   UNL A   1      48.228  30.843  27.437  1.00  0.00     0.029 A 
ATOM     30  N   UNL A   1      46.674  29.254  27.376  1.00  0.00    -0.354 N 
ATOM     31  N   UNL A   1      45.677  26.521  26.940  1.00  0.00    -0.248 NA
ATOM     32  C   UNL A   1      46.019  24.320  26.227  1.00  0.00     0.031 C 
ATOM     33  C   UNL A   1      48.811  29.671  26.939  1.00  0.00     0.029 A 
ATOM     34  C   UNL A   1      47.847  28.675  26.919  1.00  0.00     0.049 A 
ATOM     35  H   UNL A   1      45.813  28.785  27.468  1.00  0.00     0.167 HD
ATOM     36  C   UNL A   1      46.999  26.373  26.538  1.00  0.00     0.074 A 
ATOM     37  C   UNL A   1      47.159  24.992  26.130  1.00  0.00     0.031 C 
ATOM     38  C   UNL A   1      47.989  27.299  26.511  1.00  0.00     0.037 A 
BRANCH  25  39
ATOM     39  C   UNL A   1      46.253  32.941  28.376  1.00  0.00     0.058 A 
ATOM     40  C   UNL A   1      46.159  33.893  27.347  1.00  0.00     0.135 A 
ATOM     41  C   UNL A   1      46.704  33.379  29.632  1.00  0.00     0.135 A 
ATOM     42  F   UNL A   1      45.746  33.528  26.123  1.00  0.00    -0.206 F 
ATOM     43  C   UNL A   1      46.537  35.218  27.545  1.00  0.00     0.059 A 
ATOM     44  C   UNL A   1      47.063  34.705  29.859  1.00  0.00     0.059 A 
ATOM     45  F   UNL A   1      46.810  32.513  30.652  1.00  0.00    -0.206 F 
ATOM     46  C   UNL A   1      46.997  35.612  28.803  1.00  0.00     0.060 A 
BRANCH  46  47
ATOM     47  S   UNL A   1      47.517  37.326  29.036  1.00  0.00     0.124 S 
ATOM     48  O   UNL A   1      47.284  37.882  27.706  1.00  0.00    -0.237 OA
ATOM     49  O   UNL A   1      46.611  37.789  30.083  1.00  0.00    -0.237 OA
ATOM     50  O   UNL A   1      48.917  37.206  29.430  1.00  0.00    -0.744 OA
ENDBRANCH  46  47
ENDBRANCH  25  39
BRANCH  26  51
ATOM     51  C   UNL A   1      43.254  23.528  26.835  1.00  0.00     0.058 A 
ATOM     52  C   UNL A   1      43.112  23.012  25.540  1.00  0.00     0.135 A 
ATOM     53  C   UNL A   1      43.013  22.665  27.917  1.00  0.00     0.135 A 
ATOM     54  F   UNL A   1      43.328  23.800  24.477  1.00  0.00    -0.206 F 
ATOM     55  C   UNL A   1      42.751  21.687  25.322  1.00  0.00     0.059 A 
ATOM     56  C   UNL A   1      42.674  21.331  27.723  1.00  0.00     0.059 A 
ATOM     57  F   UNL A   1      43.152  23.110  29.175  1.00  0.00    -0.206 F 
ATOM     58  C   UNL A   1      42.542  20.852  26.422  1.00  0.00     0.060 A 
BRANCH  58  59
ATOM     59  S   UNL A   1      42.156  19.112  26.127  1.00  0.00     0.124 S 
ATOM     60  O   UNL A   1      40.731  19.175  25.826  1.00  0.00    -0.237 OA
ATOM     61  O   UNL A   1      43.031  18.788  25.005  1.00  0.00    -0.237 OA
ATOM     62  O   UNL A   1      42.509  18.473  27.392  1.00  0.00    -0.744 OA
ENDBRANCH  58  59
ENDBRANCH  26  51
BRANCH  38  63
ATOM     63  C   UNL A   1      49.343  26.840  26.043  1.00  0.00     0.058 A 
ATOM     64  C   UNL A   1      49.750  26.992  24.708  1.00  0.00     0.135 A 
ATOM     65  C   UNL A   1      50.254  26.277  26.949  1.00  0.00     0.135 A 
ATOM     66  F   UNL A   1      48.912  27.517  23.802  1.00  0.00    -0.206 F 
ATOM     67  C   UNL A   1      51.008  26.578  24.283  1.00  0.00     0.059 A 
ATOM     68  C   UNL A   1      51.526  25.878  26.550  1.00  0.00     0.059 A 
ATOM     69  F   UNL A   1      49.916  26.117  28.238  1.00  0.00    -0.206 F 
ATOM     70  C   UNL A   1      51.890  26.022  25.212  1.00  0.00     0.060 A 
BRANCH  70  71
ATOM     71  S   UNL A   1      53.531  25.515  24.655  1.00  0.00     0.124 S 
ATOM     72  O   UNL A   1      53.517  25.953  23.264  1.00  0.00    -0.237 OA
ATOM     73  O   UNL A   1      54.410  26.264  25.547  1.00  0.00    -0.237 OA
ATOM     74  O   UNL A   1      53.526  24.070  24.861  1.00  0.00    -0.744 OA
ENDBRANCH  70  71
ENDBRANCH  38  63
ENDBRANCH  12  13
ENDBRANCH   5   7
ENDBRANCH   2   3
ENDBRANCH   1   2
BRANCH   1  75
ATOM     75  C   UNL A   1      34.176  30.016  27.243  1.00  0.00     0.117 C 
BRANCH  75  76
ATOM     76  N   UNL A   1      32.973  29.895  26.439  1.00  0.00    -0.356 N 
ATOM     77  C   UNL A   1      32.755  29.171  25.306  1.00  0.00     0.223 C 
ATOM     78  H   UNL A   1      32.199  30.413  26.760  1.00  0.00     0.163 HD
ATOM     79  O   UNL A   1      31.730  29.399  24.664  1.00  0.00    -0.275 OA
BRANCH  77  80
ATOM     80  C   UNL A   1      33.710  28.041  24.946  1.00  0.00     0.082 C 
ATOM     81  C   UNL A   1      33.978  27.969  23.432  1.00  0.00     0.035 C 
ATOM     82  C   UNL A   1      33.128  26.727  25.499  1.00  0.00     0.035 C 
ATOM     83  C   UNL A   1      32.842  27.327  22.638  1.00  0.00     0.120 C 
ATOM     84  C   UNL A   1      31.973  26.211  24.635  1.00  0.00     0.120 C 
ATOM     85  N   UNL A   1      32.438  26.068  23.258  1.00  0.00    -0.342 N 
ATOM     86  C   UNL A   1      32.686  24.871  22.601  1.00  0.00     0.232 C 
ATOM     87  O   UNL A   1      33.280  24.835  21.519  1.00  0.00    -0.274 OA
BRANCH  86  88
ATOM     88  C   UNL A   1      32.180  23.574  23.214  1.00  0.00     0.169 C 
BRANCH  88  89
ATOM     89  S   UNL A   1      33.495  22.579  23.993  1.00  0.00    -0.147 SA
BRANCH  89  90
ATOM     90  C   UNL A   1      32.513  21.218  24.696  1.00  0.00     0.105 C 
BRANCH  90  91
ATOM     91  C   UNL A   1      32.875  19.838  24.204  1.00  0.00    -0.038 A 
ATOM     92  C   UNL A   1      33.957  19.116  24.732  1.00  0.00     0.004 A 
ATOM     93  C   UNL A   1      32.172  19.290  23.121  1.00  0.00     0.004 A 
ATOM     94  C   UNL A   1      34.303  17.867  24.214  1.00  0.00     0.000 A 
ATOM     95  C   UNL A   1      32.528  18.048  22.593  1.00  0.00     0.000 A 
ATOM     96  C   UNL A   1      33.590  17.335  23.142  1.00  0.00     0.000 A 
ENDBRANCH  90  91
ENDBRANCH  89  90
ENDBRANCH  88  89
ENDBRANCH  86  88
ENDBRANCH  77  80
ENDBRANCH  75  76
ENDBRANCH   1  75
TORSDOF 17
ENDMDL
