MODEL 1
REMARK VINA RESULT:     -13.3      0.000      0.000
REMARK SMILES CC1(C)O[C@@H]2C[C@@H]3[C@H]4CCC5=CC(=O)C=C[C@@]5(C)[C@]4(F)[C@H](O)C[C@]3(C)[C@]2(C(=O)NCCCNC(=O)c2ccc(-c3c4nc(c(-c5c(F)cc(S(=O)(=O)[O-])cc5F)c5ccc([nH]5)c(-c5c(F)cc(S(=O)(=O)[O-])cc5F)c5nc(c(-c6c(F)cc(S(=O)(=O)[O-])cc6F)c6ccc3[nH]6)C=C5)C=C4)cc2)O1
REMARK SMILES IDX 32 1 31 2 30 3 29 4 27 5 28 6 26 8 1 9 2 10 4 11 102 12 3 13
REMARK SMILES IDX 5 14 6 15 24 16 7 17 23 18 25 19 8 20 21 21 9 22 19 23 10 24
REMARK SMILES IDX 17 25 20 26 11 27 16 28 18 29 12 30 15 31 13 32 14 33 22 34
REMARK SMILES IDX 33 36 34 37 35 39 36 40 37 41 101 42 38 43 100 44 39 45
REMARK SMILES IDX 40 46 41 47 94 48 42 49 99 50 93 51 95 52 43 53 98 54 92 55
REMARK SMILES IDX 91 56 44 58 78 59 57 60 77 61 58 62 61 63 76 64 96 65 59 66
REMARK SMILES IDX 60 67 75 69 97 70 62 71 45 72 46 73 55 74 47 75 48 76 54 77
REMARK SMILES IDX 56 78 49 79 50 80 51 81 52 82 53 83 79 84 80 85 89 86 81 87
REMARK SMILES IDX 82 88 88 89 90 90 83 91 84 92 85 93 86 94 87 95 63 96 64 97
REMARK SMILES IDX 73 98 65 99 66 100 72 101 74 102 67 103 68 104 69 105 70 106
REMARK SMILES IDX 71 107
REMARK H PARENT 29 7 22 35 33 38 95 57 61 68
REMARK Flexibility Score: inf
ROOT
ATOM      1  C   UNL A   1      33.237  28.651  27.392  1.00  0.00     0.118 C 
ENDROOT
BRANCH   1   2
ATOM      2  C   UNL A   1      34.163  28.100  26.322  1.00  0.00     0.042 C 
BRANCH   2   3
ATOM      3  C   UNL A   1      33.867  28.575  24.891  1.00  0.00     0.117 C 
BRANCH   3   4
ATOM      4  N   UNL A   1      32.429  28.629  24.670  1.00  0.00    -0.353 N 
ATOM      5  C   UNL A   1      31.498  27.755  24.201  1.00  0.00     0.255 C 
ATOM      6  O   UNL A   1      30.403  28.274  23.943  1.00  0.00    -0.272 OA
ATOM      7  H   UNL A   1      32.042  29.500  24.917  1.00  0.00     0.163 HD
BRANCH   5   8
ATOM      8  C   UNL A   1      31.670  26.210  24.120  1.00  0.00     0.181 C 
ATOM      9  C   UNL A   1      30.050  26.290  27.066  1.00  0.00     0.075 C 
ATOM     10  C   UNL A   1      30.587  25.325  26.018  1.00  0.00     0.164 C 
ATOM     11  O   UNL A   1      29.624  25.231  24.970  1.00  0.00    -0.344 OA
ATOM     12  O   UNL A   1      31.876  25.777  25.512  1.00  0.00    -0.331 OA
ATOM     13  C   UNL A   1      30.702  23.941  26.683  1.00  0.00     0.075 C 
ATOM     14  C   UNL A   1      30.298  25.496  23.741  1.00  0.00     0.164 C 
ATOM     15  C   UNL A   1      30.637  24.101  23.057  1.00  0.00     0.040 C 
ATOM     16  C   UNL A   1      32.633  25.490  23.064  1.00  0.00     0.014 C 
ATOM     17  C   UNL A   1      32.136  24.020  23.326  1.00  0.00     0.008 C 
ATOM     18  C   UNL A   1      34.167  25.450  23.065  1.00  0.00     0.046 C 
ATOM     19  C   UNL A   1      32.264  26.099  21.665  1.00  0.00     0.015 C 
ATOM     20  C   UNL A   1      33.040  22.860  23.862  1.00  0.00     0.035 C 
ATOM     21  C   UNL A   1      34.864  24.586  24.090  1.00  0.00     0.154 C 
ATOM     22  C   UNL A   1      32.647  21.443  23.479  1.00  0.00     0.012 C 
ATOM     23  C   UNL A   1      34.558  23.093  23.804  1.00  0.00     0.152 C 
ATOM     24  C   UNL A   1      33.275  20.484  24.503  1.00  0.00     0.032 C 
ATOM     25  C   UNL A   1      35.350  22.088  24.739  1.00  0.00     0.044 C 
ATOM     26  F   UNL A   1      34.935  22.835  22.506  1.00  0.00    -0.239 F 
ATOM     27  C   UNL A   1      34.772  20.657  24.650  1.00  0.00    -0.053 C 
ATOM     28  C   UNL A   1      36.837  22.075  24.372  1.00  0.00    -0.009 C 
ATOM     29  C   UNL A   1      35.308  22.481  26.241  1.00  0.00     0.024 C 
ATOM     30  C   UNL A   1      35.560  19.573  24.780  1.00  0.00     0.052 C 
ATOM     31  C   UNL A   1      37.615  20.989  24.477  1.00  0.00     0.048 C 
ATOM     32  C   UNL A   1      37.029  19.704  24.907  1.00  0.00     0.178 C 
ATOM     33  O   UNL A   1      37.724  18.782  25.313  1.00  0.00    -0.290 OA
BRANCH  21  34
ATOM     34  O   UNL A   1      34.538  25.056  25.392  1.00  0.00    -0.390 OA
ATOM     35  H   UNL A   1      33.583  24.969  25.537  1.00  0.00     0.211 HD
ENDBRANCH  21  34
ENDBRANCH   5   8
ENDBRANCH   3   4
ENDBRANCH   2   3
ENDBRANCH   1   2
BRANCH   1  36
ATOM     36  N   UNL A   1      33.361  30.088  27.585  1.00  0.00    -0.352 N 
ATOM     37  C   UNL A   1      34.441  30.845  28.000  1.00  0.00     0.251 C 
ATOM     38  H   UNL A   1      32.546  30.603  27.389  1.00  0.00     0.163 HD
ATOM     39  O   UNL A   1      34.287  32.041  28.196  1.00  0.00    -0.269 OA
BRANCH  37  40
ATOM     40  C   UNL A   1      35.764  30.215  28.258  1.00  0.00     0.039 A 
ATOM     41  C   UNL A   1      36.709  30.185  27.225  1.00  0.00     0.014 A 
ATOM     42  C   UNL A   1      36.092  29.665  29.497  1.00  0.00     0.014 A 
ATOM     43  C   UNL A   1      38.002  29.708  27.471  1.00  0.00     0.010 A 
ATOM     44  C   UNL A   1      37.407  29.293  29.772  1.00  0.00     0.010 A 
ATOM     45  C   UNL A   1      38.381  29.316  28.765  1.00  0.00    -0.014 A 
BRANCH  45  46
ATOM     46  C   UNL A   1      39.783  28.935  29.099  1.00  0.00     0.031 A 
ATOM     47  C   UNL A   1      40.713  29.954  29.705  1.00  0.00     0.074 A 
ATOM     48  C   UNL A   1      40.242  27.707  28.779  1.00  0.00     0.049 A 
ATOM     49  N   UNL A   1      42.001  29.872  29.921  1.00  0.00    -0.248 NA
ATOM     50  C   UNL A   1      40.123  31.247  30.095  1.00  0.00     0.031 C 
ATOM     51  C   UNL A   1      39.452  26.641  28.156  1.00  0.00     0.029 A 
ATOM     52  N   UNL A   1      41.491  27.151  28.913  1.00  0.00    -0.354 N 
ATOM     53  C   UNL A   1      42.373  31.097  30.465  1.00  0.00     0.074 A 
ATOM     54  C   UNL A   1      41.190  31.928  30.486  1.00  0.00     0.031 C 
ATOM     55  C   UNL A   1      40.229  25.560  27.978  1.00  0.00     0.029 A 
ATOM     56  C   UNL A   1      41.585  25.869  28.419  1.00  0.00     0.049 A 
ATOM     57  H   UNL A   1      42.249  27.624  29.326  1.00  0.00     0.167 HD
ATOM     58  C   UNL A   1      43.583  31.483  30.936  1.00  0.00     0.037 A 
ATOM     59  C   UNL A   1      42.646  25.046  28.308  1.00  0.00     0.037 A 
ATOM     60  C   UNL A   1      44.753  30.644  30.935  1.00  0.00     0.049 A 
ATOM     61  C   UNL A   1      43.994  25.522  28.787  1.00  0.00     0.074 A 
ATOM     62  C   UNL A   1      46.017  30.933  31.418  1.00  0.00     0.029 A 
ATOM     63  N   UNL A   1      44.800  29.351  30.436  1.00  0.00    -0.354 N 
ATOM     64  N   UNL A   1      44.313  26.667  29.343  1.00  0.00    -0.248 NA
ATOM     65  C   UNL A   1      45.127  24.599  28.622  1.00  0.00     0.031 C 
ATOM     66  C   UNL A   1      46.840  29.831  31.172  1.00  0.00     0.029 A 
ATOM     67  C   UNL A   1      46.077  28.837  30.581  1.00  0.00     0.049 A 
ATOM     68  H   UNL A   1      44.039  28.870  30.037  1.00  0.00     0.167 HD
ATOM     69  C   UNL A   1      45.675  26.589  29.616  1.00  0.00     0.074 A 
ATOM     70  C   UNL A   1      46.115  25.279  29.185  1.00  0.00     0.031 C 
ATOM     71  C   UNL A   1      46.492  27.521  30.165  1.00  0.00     0.037 A 
BRANCH  58  72
ATOM     72  C   UNL A   1      43.703  32.862  31.523  1.00  0.00     0.058 A 
ATOM     73  C   UNL A   1      43.950  33.979  30.709  1.00  0.00     0.135 A 
ATOM     74  C   UNL A   1      43.493  33.084  32.893  1.00  0.00     0.135 A 
ATOM     75  F   UNL A   1      44.176  33.822  29.395  1.00  0.00    -0.206 F 
ATOM     76  C   UNL A   1      43.995  35.266  31.234  1.00  0.00     0.059 A 
ATOM     77  C   UNL A   1      43.505  34.367  33.436  1.00  0.00     0.059 A 
ATOM     78  F   UNL A   1      43.256  32.051  33.717  1.00  0.00    -0.206 F 
ATOM     79  C   UNL A   1      43.763  35.450  32.597  1.00  0.00     0.060 A 
BRANCH  79  80
ATOM     80  S   UNL A   1      43.784  37.134  33.250  1.00  0.00     0.124 S 
ATOM     81  O   UNL A   1      42.567  37.149  34.055  1.00  0.00    -0.237 OA
ATOM     82  O   UNL A   1      45.038  37.161  33.996  1.00  0.00    -0.237 OA
ATOM     83  O   UNL A   1      43.752  37.965  32.051  1.00  0.00    -0.744 OA
ENDBRANCH  79  80
ENDBRANCH  58  72
BRANCH  59  84
ATOM     84  C   UNL A   1      42.501  23.694  27.697  1.00  0.00     0.058 A 
ATOM     85  C   UNL A   1      42.374  22.548  28.497  1.00  0.00     0.135 A 
ATOM     86  C   UNL A   1      42.539  23.513  26.304  1.00  0.00     0.135 A 
ATOM     87  F   UNL A   1      42.338  22.664  29.833  1.00  0.00    -0.206 F 
ATOM     88  C   UNL A   1      42.333  21.271  27.944  1.00  0.00     0.059 A 
ATOM     89  C   UNL A   1      42.467  22.249  25.727  1.00  0.00     0.059 A 
ATOM     90  F   UNL A   1      42.641  24.574  25.489  1.00  0.00    -0.206 F 
ATOM     91  C   UNL A   1      42.388  21.132  26.557  1.00  0.00     0.060 A 
BRANCH  91  92
ATOM     92  S   UNL A   1      42.348  19.472  25.848  1.00  0.00     0.124 S 
ATOM     93  O   UNL A   1      43.354  19.579  24.798  1.00  0.00    -0.237 OA
ATOM     94  O   UNL A   1      42.705  18.640  26.993  1.00  0.00    -0.237 OA
ATOM     95  O   UNL A   1      40.968  19.338  25.389  1.00  0.00    -0.744 OA
ENDBRANCH  91  92
ENDBRANCH  59  84
BRANCH  71  96
ATOM     96  C   UNL A   1      47.936  27.154  30.362  1.00  0.00     0.058 A 
ATOM     97  C   UNL A   1      48.897  27.403  29.369  1.00  0.00     0.135 A 
ATOM     98  C   UNL A   1      48.377  26.622  31.584  1.00  0.00     0.135 A 
ATOM     99  F   UNL A   1      48.526  27.901  28.179  1.00  0.00    -0.206 F 
ATOM    100  C   UNL A   1      50.243  27.127  29.578  1.00  0.00     0.059 A 
ATOM    101  C   UNL A   1      49.722  26.367  31.826  1.00  0.00     0.059 A 
ATOM    102  F   UNL A   1      47.498  26.373  32.569  1.00  0.00    -0.206 F 
ATOM    103  C   UNL A   1      50.648  26.619  30.815  1.00  0.00     0.060 A 
BRANCH 103 104
ATOM    104  S   UNL A   1      52.409  26.332  31.093  1.00  0.00     0.124 S 
ATOM    105  O   UNL A   1      52.391  25.052  31.794  1.00  0.00    -0.237 OA
ATOM    106  O   UNL A   1      52.937  26.302  29.732  1.00  0.00    -0.237 OA
ATOM    107  O   UNL A   1      52.818  27.481  31.894  1.00  0.00    -0.744 OA
ENDBRANCH 103 104
ENDBRANCH  71  96
ENDBRANCH  45  46
ENDBRANCH  37  40
ENDBRANCH   1  36
TORSDOF 14
ENDMDL
MODEL 2
REMARK VINA RESULT:     -13.2      1.307      2.361
REMARK SMILES CC1(C)O[C@@H]2C[C@@H]3[C@H]4CCC5=CC(=O)C=C[C@@]5(C)[C@]4(F)[C@H](O)C[C@]3(C)[C@]2(C(=O)NCCCNC(=O)c2ccc(-c3c4nc(c(-c5c(F)cc(S(=O)(=O)[O-])cc5F)c5ccc([nH]5)c(-c5c(F)cc(S(=O)(=O)[O-])cc5F)c5nc(c(-c6c(F)cc(S(=O)(=O)[O-])cc6F)c6ccc3[nH]6)C=C5)C=C4)cc2)O1
REMARK SMILES IDX 32 1 31 2 30 3 29 4 27 5 28 6 26 8 1 9 2 10 4 11 102 12 3 13
REMARK SMILES IDX 5 14 6 15 24 16 7 17 23 18 25 19 8 20 21 21 9 22 19 23 10 24
REMARK SMILES IDX 17 25 20 26 11 27 16 28 18 29 12 30 15 31 13 32 14 33 22 34
REMARK SMILES IDX 33 36 34 37 35 39 36 40 37 41 101 42 38 43 100 44 39 45
REMARK SMILES IDX 40 46 41 47 94 48 42 49 99 50 93 51 95 52 43 53 98 54 92 55
REMARK SMILES IDX 91 56 44 58 78 59 57 60 77 61 58 62 61 63 76 64 96 65 59 66
REMARK SMILES IDX 60 67 75 69 97 70 62 71 45 72 46 73 55 74 47 75 48 76 54 77
REMARK SMILES IDX 56 78 49 79 50 80 51 81 52 82 53 83 79 84 80 85 89 86 81 87
REMARK SMILES IDX 82 88 88 89 90 90 83 91 84 92 85 93 86 94 87 95 63 96 64 97
REMARK SMILES IDX 73 98 65 99 66 100 72 101 74 102 67 103 68 104 69 105 70 106
REMARK SMILES IDX 71 107
REMARK H PARENT 29 7 22 35 33 38 95 57 61 68
REMARK Flexibility Score: inf
ROOT
ATOM      1  C   UNL A   1      33.375  28.764  27.241  1.00  0.00     0.118 C 
ENDROOT
BRANCH   1   2
ATOM      2  C   UNL A   1      32.036  28.384  26.633  1.00  0.00     0.042 C 
BRANCH   2   3
ATOM      3  C   UNL A   1      32.076  28.008  25.144  1.00  0.00     0.117 C 
BRANCH   3   4
ATOM      4  N   UNL A   1      31.018  27.056  24.839  1.00  0.00    -0.353 N 
ATOM      5  C   UNL A   1      30.985  25.758  24.430  1.00  0.00     0.255 C 
ATOM      6  O   UNL A   1      29.869  25.377  24.052  1.00  0.00    -0.272 OA
ATOM      7  H   UNL A   1      30.119  27.440  24.956  1.00  0.00     0.163 HD
BRANCH   5   8
ATOM      8  C   UNL A   1      32.159  24.744  24.549  1.00  0.00     0.181 C 
ATOM      9  C   UNL A   1      32.588  25.488  21.298  1.00  0.00     0.075 C 
ATOM     10  C   UNL A   1      33.221  24.711  22.444  1.00  0.00     0.164 C 
ATOM     11  O   UNL A   1      33.987  25.627  23.227  1.00  0.00    -0.344 OA
ATOM     12  O   UNL A   1      32.200  24.054  23.249  1.00  0.00    -0.331 OA
ATOM     13  C   UNL A   1      34.191  23.687  21.827  1.00  0.00     0.075 C 
ATOM     14  C   UNL A   1      33.566  25.490  24.583  1.00  0.00     0.164 C 
ATOM     15  C   UNL A   1      34.609  24.549  25.329  1.00  0.00     0.040 C 
ATOM     16  C   UNL A   1      32.354  23.774  25.808  1.00  0.00     0.014 C 
ATOM     17  C   UNL A   1      33.794  23.264  25.432  1.00  0.00     0.008 C 
ATOM     18  C   UNL A   1      31.525  22.538  26.179  1.00  0.00     0.046 C 
ATOM     19  C   UNL A   1      32.263  24.695  27.076  1.00  0.00     0.015 C 
ATOM     20  C   UNL A   1      34.157  21.771  25.131  1.00  0.00     0.035 C 
ATOM     21  C   UNL A   1      31.693  21.283  25.354  1.00  0.00     0.154 C 
ATOM     22  C   UNL A   1      35.587  21.337  25.407  1.00  0.00     0.012 C 
ATOM     23  C   UNL A   1      33.122  20.716  25.557  1.00  0.00     0.152 C 
ATOM     24  C   UNL A   1      35.871  20.082  24.566  1.00  0.00     0.032 C 
ATOM     25  C   UNL A   1      33.365  19.323  24.841  1.00  0.00     0.044 C 
ATOM     26  F   UNL A   1      33.304  20.527  26.907  1.00  0.00    -0.239 F 
ATOM     27  C   UNL A   1      34.868  18.969  24.787  1.00  0.00    -0.053 C 
ATOM     28  C   UNL A   1      32.592  18.213  25.559  1.00  0.00    -0.009 C 
ATOM     29  C   UNL A   1      32.856  19.288  23.375  1.00  0.00     0.024 C 
ATOM     30  C   UNL A   1      35.291  17.692  24.852  1.00  0.00     0.052 C 
ATOM     31  C   UNL A   1      33.025  16.948  25.646  1.00  0.00     0.048 C 
ATOM     32  C   UNL A   1      34.341  16.582  25.085  1.00  0.00     0.178 C 
ATOM     33  O   UNL A   1      34.645  15.418  24.861  1.00  0.00    -0.290 OA
BRANCH  21  34
ATOM     34  O   UNL A   1      31.309  21.555  24.012  1.00  0.00    -0.390 OA
ATOM     35  H   UNL A   1      31.188  20.719  23.535  1.00  0.00     0.211 HD
ENDBRANCH  21  34
ENDBRANCH   5   8
ENDBRANCH   3   4
ENDBRANCH   2   3
ENDBRANCH   1   2
BRANCH   1  36
ATOM     36  N   UNL A   1      33.431  30.140  27.708  1.00  0.00    -0.352 N 
ATOM     37  C   UNL A   1      34.464  30.843  28.302  1.00  0.00     0.251 C 
ATOM     38  H   UNL A   1      32.601  30.654  27.583  1.00  0.00     0.163 HD
ATOM     39  O   UNL A   1      34.253  31.973  28.715  1.00  0.00    -0.269 OA
BRANCH  37  40
ATOM     40  C   UNL A   1      35.805  30.224  28.485  1.00  0.00     0.039 A 
ATOM     41  C   UNL A   1      36.688  30.194  27.399  1.00  0.00     0.014 A 
ATOM     42  C   UNL A   1      36.208  29.684  29.706  1.00  0.00     0.014 A 
ATOM     43  C   UNL A   1      37.996  29.726  27.571  1.00  0.00     0.010 A 
ATOM     44  C   UNL A   1      37.540  29.323  29.905  1.00  0.00     0.010 A 
ATOM     45  C   UNL A   1      38.453  29.346  28.843  1.00  0.00    -0.014 A 
BRANCH  45  46
ATOM     46  C   UNL A   1      39.875  28.977  29.096  1.00  0.00     0.031 A 
ATOM     47  C   UNL A   1      40.838  30.013  29.614  1.00  0.00     0.074 A 
ATOM     48  C   UNL A   1      40.317  27.742  28.781  1.00  0.00     0.049 A 
ATOM     49  N   UNL A   1      42.138  29.940  29.749  1.00  0.00    -0.248 NA
ATOM     50  C   UNL A   1      40.270  31.315  30.006  1.00  0.00     0.031 C 
ATOM     51  C   UNL A   1      39.492  26.657  28.238  1.00  0.00     0.029 A 
ATOM     52  N   UNL A   1      41.574  27.191  28.850  1.00  0.00    -0.354 N 
ATOM     53  C   UNL A   1      42.539  31.179  30.236  1.00  0.00     0.074 A 
ATOM     54  C   UNL A   1      41.358  32.009  30.310  1.00  0.00     0.031 C 
ATOM     55  C   UNL A   1      40.261  25.573  28.039  1.00  0.00     0.029 A 
ATOM     56  C   UNL A   1      41.641  25.896  28.385  1.00  0.00     0.049 A 
ATOM     57  H   UNL A   1      42.355  27.677  29.200  1.00  0.00     0.167 HD
ATOM     58  C   UNL A   1      43.775  31.580  30.617  1.00  0.00     0.037 A 
ATOM     59  C   UNL A   1      42.696  25.073  28.228  1.00  0.00     0.037 A 
ATOM     60  C   UNL A   1      44.946  30.743  30.564  1.00  0.00     0.049 A 
ATOM     61  C   UNL A   1      44.070  25.564  28.607  1.00  0.00     0.074 A 
ATOM     62  C   UNL A   1      46.237  31.048  30.956  1.00  0.00     0.029 A 
ATOM     63  N   UNL A   1      44.966  29.438  30.098  1.00  0.00    -0.354 N 
ATOM     64  N   UNL A   1      44.419  26.724  29.110  1.00  0.00    -0.248 NA
ATOM     65  C   UNL A   1      45.193  24.640  28.394  1.00  0.00     0.031 C 
ATOM     66  C   UNL A   1      47.047  29.941  30.688  1.00  0.00     0.029 A 
ATOM     67  C   UNL A   1      46.252  28.930  30.173  1.00  0.00     0.049 A 
ATOM     68  H   UNL A   1      44.183  28.945  29.761  1.00  0.00     0.167 HD
ATOM     69  C   UNL A   1      45.796  26.657  29.297  1.00  0.00     0.074 A 
ATOM     70  C   UNL A   1      46.213  25.337  28.874  1.00  0.00     0.031 C 
ATOM     71  C   UNL A   1      46.644  27.605  29.767  1.00  0.00     0.037 A 
BRANCH  58  72
ATOM     72  C   UNL A   1      43.928  32.975  31.158  1.00  0.00     0.058 A 
ATOM     73  C   UNL A   1      44.131  34.068  30.301  1.00  0.00     0.135 A 
ATOM     74  C   UNL A   1      43.793  33.235  32.531  1.00  0.00     0.135 A 
ATOM     75  F   UNL A   1      44.286  33.875  28.982  1.00  0.00    -0.206 F 
ATOM     76  C   UNL A   1      44.205  35.369  30.787  1.00  0.00     0.059 A 
ATOM     77  C   UNL A   1      43.835  34.532  33.036  1.00  0.00     0.059 A 
ATOM     78  F   UNL A   1      43.601  32.226  33.395  1.00  0.00    -0.206 F 
ATOM     79  C   UNL A   1      44.047  35.592  32.155  1.00  0.00     0.060 A 
BRANCH  79  80
ATOM     80  S   UNL A   1      44.104  37.293  32.758  1.00  0.00     0.124 S 
ATOM     81  O   UNL A   1      42.947  37.325  33.648  1.00  0.00    -0.237 OA
ATOM     82  O   UNL A   1      45.408  37.345  33.412  1.00  0.00    -0.237 OA
ATOM     83  O   UNL A   1      43.983  38.091  31.543  1.00  0.00    -0.744 OA
ENDBRANCH  79  80
ENDBRANCH  58  72
BRANCH  59  84
ATOM     84  C   UNL A   1      42.517  23.704  27.663  1.00  0.00     0.058 A 
ATOM     85  C   UNL A   1      42.383  22.588  28.502  1.00  0.00     0.135 A 
ATOM     86  C   UNL A   1      42.528  23.478  26.277  1.00  0.00     0.135 A 
ATOM     87  F   UNL A   1      42.371  22.747  29.835  1.00  0.00    -0.206 F 
ATOM     88  C   UNL A   1      42.310  21.295  27.993  1.00  0.00     0.059 A 
ATOM     89  C   UNL A   1      42.424  22.198  25.743  1.00  0.00     0.059 A 
ATOM     90  F   UNL A   1      42.636  24.510  25.426  1.00  0.00    -0.206 F 
ATOM     91  C   UNL A   1      42.340  21.110  26.610  1.00  0.00     0.060 A 
BRANCH  91  92
ATOM     92  S   UNL A   1      42.258  19.428  25.957  1.00  0.00     0.124 S 
ATOM     93  O   UNL A   1      42.807  18.658  27.066  1.00  0.00    -0.237 OA
ATOM     94  O   UNL A   1      40.830  19.263  25.709  1.00  0.00    -0.237 OA
ATOM     95  O   UNL A   1      43.093  19.494  24.760  1.00  0.00    -0.744 OA
ENDBRANCH  91  92
ENDBRANCH  59  84
BRANCH  71  96
ATOM     96  C   UNL A   1      48.099  27.246  29.881  1.00  0.00     0.058 A 
ATOM     97  C   UNL A   1      49.009  27.545  28.855  1.00  0.00     0.135 A 
ATOM     98  C   UNL A   1      48.601  26.669  31.058  1.00  0.00     0.135 A 
ATOM     99  F   UNL A   1      48.578  28.088  27.705  1.00  0.00    -0.206 F 
ATOM    100  C   UNL A   1      50.366  27.276  28.990  1.00  0.00     0.059 A 
ATOM    101  C   UNL A   1      49.959  26.420  31.226  1.00  0.00     0.059 A 
ATOM    102  F   UNL A   1      47.773  26.371  32.072  1.00  0.00    -0.206 F 
ATOM    103  C   UNL A   1      50.834  26.722  30.184  1.00  0.00     0.060 A 
BRANCH 103 104
ATOM    104  S   UNL A   1      52.608  26.443  30.367  1.00  0.00     0.124 S 
ATOM    105  O   UNL A   1      52.998  26.120  28.999  1.00  0.00    -0.237 OA
ATOM    106  O   UNL A   1      53.074  27.732  30.871  1.00  0.00    -0.237 OA
ATOM    107  O   UNL A   1      52.682  25.340  31.319  1.00  0.00    -0.744 OA
ENDBRANCH 103 104
ENDBRANCH  71  96
ENDBRANCH  45  46
ENDBRANCH  37  40
ENDBRANCH   1  36
TORSDOF 14
ENDMDL
MODEL 3
REMARK VINA RESULT:     -13.0      4.591     10.296
REMARK SMILES CC1(C)O[C@@H]2C[C@@H]3[C@H]4CCC5=CC(=O)C=C[C@@]5(C)[C@]4(F)[C@H](O)C[C@]3(C)[C@]2(C(=O)NCCCNC(=O)c2ccc(-c3c4nc(c(-c5c(F)cc(S(=O)(=O)[O-])cc5F)c5ccc([nH]5)c(-c5c(F)cc(S(=O)(=O)[O-])cc5F)c5nc(c(-c6c(F)cc(S(=O)(=O)[O-])cc6F)c6ccc3[nH]6)C=C5)C=C4)cc2)O1
REMARK SMILES IDX 32 1 31 2 30 3 29 4 27 5 28 6 26 8 1 9 2 10 4 11 102 12 3 13
REMARK SMILES IDX 5 14 6 15 24 16 7 17 23 18 25 19 8 20 21 21 9 22 19 23 10 24
REMARK SMILES IDX 17 25 20 26 11 27 16 28 18 29 12 30 15 31 13 32 14 33 22 34
REMARK SMILES IDX 33 36 34 37 35 39 36 40 37 41 101 42 38 43 100 44 39 45
REMARK SMILES IDX 40 46 41 47 94 48 42 49 99 50 93 51 95 52 43 53 98 54 92 55
REMARK SMILES IDX 91 56 44 58 78 59 57 60 77 61 58 62 61 63 76 64 96 65 59 66
REMARK SMILES IDX 60 67 75 69 97 70 62 71 45 72 46 73 55 74 47 75 48 76 54 77
REMARK SMILES IDX 56 78 49 79 50 80 51 81 52 82 53 83 79 84 80 85 89 86 81 87
REMARK SMILES IDX 82 88 88 89 90 90 83 91 84 92 85 93 86 94 87 95 63 96 64 97
REMARK SMILES IDX 73 98 65 99 66 100 72 101 74 102 67 103 68 104 69 105 70 106
REMARK SMILES IDX 71 107
REMARK H PARENT 29 7 22 35 33 38 95 57 61 68
REMARK Flexibility Score: inf
ROOT
ATOM      1  C   UNL A   1      37.908  24.088  26.108  1.00  0.00     0.118 C 
ENDROOT
BRANCH   1   2
ATOM      2  C   UNL A   1      36.977  23.022  25.558  1.00  0.00     0.042 C 
BRANCH   2   3
ATOM      3  C   UNL A   1      35.702  22.779  26.380  1.00  0.00     0.117 C 
BRANCH   3   4
ATOM      4  N   UNL A   1      34.877  21.767  25.737  1.00  0.00    -0.353 N 
ATOM      5  C   UNL A   1      33.633  21.753  25.186  1.00  0.00     0.255 C 
ATOM      6  O   UNL A   1      33.197  20.618  24.952  1.00  0.00    -0.272 OA
ATOM      7  H   UNL A   1      35.322  20.890  25.691  1.00  0.00     0.163 HD
BRANCH   5   8
ATOM      8  C   UNL A   1      32.839  23.007  24.717  1.00  0.00     0.181 C 
ATOM      9  C   UNL A   1      35.108  23.008  22.236  1.00  0.00     0.075 C 
ATOM     10  C   UNL A   1      33.836  23.705  22.698  1.00  0.00     0.164 C 
ATOM     11  O   UNL A   1      32.724  22.904  22.301  1.00  0.00    -0.344 OA
ATOM     12  O   UNL A   1      33.852  23.906  24.141  1.00  0.00    -0.331 OA
ATOM     13  C   UNL A   1      33.747  25.047  21.948  1.00  0.00     0.075 C 
ATOM     14  C   UNL A   1      31.923  22.674  23.458  1.00  0.00     0.164 C 
ATOM     15  C   UNL A   1      30.716  23.710  23.433  1.00  0.00     0.040 C 
ATOM     16  C   UNL A   1      31.755  23.750  25.633  1.00  0.00     0.014 C 
ATOM     17  C   UNL A   1      31.172  24.687  24.511  1.00  0.00     0.008 C 
ATOM     18  C   UNL A   1      32.007  24.628  26.864  1.00  0.00     0.046 C 
ATOM     19  C   UNL A   1      30.792  22.624  26.153  1.00  0.00     0.015 C 
ATOM     20  C   UNL A   1      31.222  26.252  24.549  1.00  0.00     0.035 C 
ATOM     21  C   UNL A   1      32.583  26.010  26.657  1.00  0.00     0.154 C 
ATOM     22  C   UNL A   1      30.132  26.997  23.796  1.00  0.00     0.012 C 
ATOM     23  C   UNL A   1      31.555  26.894  25.905  1.00  0.00     0.152 C 
ATOM     24  C   UNL A   1      30.650  28.413  23.495  1.00  0.00     0.032 C 
ATOM     25  C   UNL A   1      32.002  28.406  25.753  1.00  0.00     0.044 C 
ATOM     26  F   UNL A   1      30.387  26.877  26.632  1.00  0.00    -0.239 F 
ATOM     27  C   UNL A   1      31.124  29.156  24.726  1.00  0.00    -0.053 C 
ATOM     28  C   UNL A   1      31.946  29.118  27.108  1.00  0.00    -0.009 C 
ATOM     29  C   UNL A   1      33.470  28.569  25.273  1.00  0.00     0.024 C 
ATOM     30  C   UNL A   1      30.844  30.466  24.865  1.00  0.00     0.052 C 
ATOM     31  C   UNL A   1      31.642  30.416  27.249  1.00  0.00     0.048 C 
ATOM     32  C   UNL A   1      31.277  31.218  26.064  1.00  0.00     0.178 C 
ATOM     33  O   UNL A   1      31.295  32.442  26.083  1.00  0.00    -0.290 OA
BRANCH  21  34
ATOM     34  O   UNL A   1      33.868  25.892  26.058  1.00  0.00    -0.390 OA
ATOM     35  H   UNL A   1      34.548  26.165  26.695  1.00  0.00     0.211 HD
ENDBRANCH  21  34
ENDBRANCH   5   8
ENDBRANCH   3   4
ENDBRANCH   2   3
ENDBRANCH   1   2
BRANCH   1  36
ATOM     36  N   UNL A   1      39.308  23.690  26.112  1.00  0.00    -0.352 N 
ATOM     37  C   UNL A   1      40.402  24.272  26.727  1.00  0.00     0.251 C 
ATOM     38  H   UNL A   1      39.509  22.877  25.595  1.00  0.00     0.163 HD
ATOM     39  O   UNL A   1      41.516  23.822  26.506  1.00  0.00    -0.269 OA
BRANCH  37  40
ATOM     40  C   UNL A   1      40.243  25.461  27.607  1.00  0.00     0.039 A 
ATOM     41  C   UNL A   1      39.304  25.411  28.645  1.00  0.00     0.014 A 
ATOM     42  C   UNL A   1      41.007  26.615  27.435  1.00  0.00     0.014 A 
ATOM     43  C   UNL A   1      39.215  26.466  29.562  1.00  0.00     0.010 A 
ATOM     44  C   UNL A   1      40.995  27.613  28.407  1.00  0.00     0.010 A 
ATOM     45  C   UNL A   1      40.105  27.549  29.488  1.00  0.00    -0.014 A 
BRANCH  45  46
ATOM     46  C   UNL A   1      40.136  28.620  30.522  1.00  0.00     0.031 A 
ATOM     47  C   UNL A   1      41.062  28.495  31.705  1.00  0.00     0.074 A 
ATOM     48  C   UNL A   1      39.277  29.657  30.446  1.00  0.00     0.049 A 
ATOM     49  N   UNL A   1      41.128  29.230  32.785  1.00  0.00    -0.248 NA
ATOM     50  C   UNL A   1      42.023  27.378  31.684  1.00  0.00     0.031 C 
ATOM     51  C   UNL A   1      38.305  29.877  29.370  1.00  0.00     0.029 A 
ATOM     52  N   UNL A   1      39.062  30.714  31.297  1.00  0.00    -0.354 N 
ATOM     53  C   UNL A   1      42.129  28.665  33.568  1.00  0.00     0.074 A 
ATOM     54  C   UNL A   1      42.598  27.488  32.873  1.00  0.00     0.031 C 
ATOM     55  C   UNL A   1      37.613  31.001  29.620  1.00  0.00     0.029 A 
ATOM     56  C   UNL A   1      38.048  31.555  30.897  1.00  0.00     0.049 A 
ATOM     57  H   UNL A   1      39.587  30.858  32.118  1.00  0.00     0.167 HD
ATOM     58  C   UNL A   1      42.634  29.106  34.745  1.00  0.00     0.037 A 
ATOM     59  C   UNL A   1      37.510  32.633  31.501  1.00  0.00     0.037 A 
ATOM     60  C   UNL A   1      42.181  30.292  35.423  1.00  0.00     0.049 A 
ATOM     61  C   UNL A   1      38.054  33.068  32.839  1.00  0.00     0.074 A 
ATOM     62  C   UNL A   1      42.650  30.838  36.605  1.00  0.00     0.029 A 
ATOM     63  N   UNL A   1      41.161  31.118  34.978  1.00  0.00    -0.354 N 
ATOM     64  N   UNL A   1      39.033  32.547  33.538  1.00  0.00    -0.248 NA
ATOM     65  C   UNL A   1      37.419  34.234  33.471  1.00  0.00     0.031 C 
ATOM     66  C   UNL A   1      41.886  31.971  36.896  1.00  0.00     0.029 A 
ATOM     67  C   UNL A   1      40.973  32.159  35.871  1.00  0.00     0.049 A 
ATOM     68  H   UNL A   1      40.646  30.985  34.149  1.00  0.00     0.167 HD
ATOM     69  C   UNL A   1      39.147  33.336  34.678  1.00  0.00     0.074 A 
ATOM     70  C   UNL A   1      38.152  34.382  34.565  1.00  0.00     0.031 C 
ATOM     71  C   UNL A   1      39.991  33.204  35.730  1.00  0.00     0.037 A 
BRANCH  58  72
ATOM     72  C   UNL A   1      43.759  28.324  35.365  1.00  0.00     0.058 A 
ATOM     73  C   UNL A   1      45.097  28.585  35.029  1.00  0.00     0.135 A 
ATOM     74  C   UNL A   1      43.510  27.365  36.359  1.00  0.00     0.135 A 
ATOM     75  F   UNL A   1      45.392  29.480  34.072  1.00  0.00    -0.206 F 
ATOM     76  C   UNL A   1      46.147  27.915  35.647  1.00  0.00     0.059 A 
ATOM     77  C   UNL A   1      44.546  26.703  37.012  1.00  0.00     0.059 A 
ATOM     78  F   UNL A   1      42.249  27.074  36.717  1.00  0.00    -0.206 F 
ATOM     79  C   UNL A   1      45.862  26.982  36.644  1.00  0.00     0.060 A 
BRANCH  79  80
ATOM     80  S   UNL A   1      47.242  26.155  37.464  1.00  0.00     0.124 S 
ATOM     81  O   UNL A   1      47.214  24.842  36.828  1.00  0.00    -0.237 OA
ATOM     82  O   UNL A   1      48.370  27.009  37.106  1.00  0.00    -0.237 OA
ATOM     83  O   UNL A   1      46.865  26.177  38.874  1.00  0.00    -0.744 OA
ENDBRANCH  79  80
ENDBRANCH  58  72
BRANCH  59  84
ATOM     84  C   UNL A   1      36.377  33.372  30.874  1.00  0.00     0.058 A 
ATOM     85  C   UNL A   1      36.587  34.222  29.777  1.00  0.00     0.135 A 
ATOM     86  C   UNL A   1      35.074  33.285  31.390  1.00  0.00     0.135 A 
ATOM     87  F   UNL A   1      37.814  34.346  29.249  1.00  0.00    -0.206 F 
ATOM     88  C   UNL A   1      35.558  34.991  29.241  1.00  0.00     0.059 A 
ATOM     89  C   UNL A   1      34.022  34.020  30.850  1.00  0.00     0.059 A 
ATOM     90  F   UNL A   1      34.811  32.475  32.426  1.00  0.00    -0.206 F 
ATOM     91  C   UNL A   1      34.280  34.888  29.791  1.00  0.00     0.060 A 
BRANCH  91  92
ATOM     92  S   UNL A   1      32.953  35.898  29.098  1.00  0.00     0.124 S 
ATOM     93  O   UNL A   1      32.346  34.972  28.149  1.00  0.00    -0.237 OA
ATOM     94  O   UNL A   1      32.158  36.215  30.280  1.00  0.00    -0.237 OA
ATOM     95  O   UNL A   1      33.666  37.028  28.508  1.00  0.00    -0.744 OA
ENDBRANCH  91  92
ENDBRANCH  59  84
BRANCH  71  96
ATOM     96  C   UNL A   1      39.903  34.226  36.829  1.00  0.00     0.058 A 
ATOM     97  C   UNL A   1      40.486  35.496  36.697  1.00  0.00     0.135 A 
ATOM     98  C   UNL A   1      39.162  33.961  37.992  1.00  0.00     0.135 A 
ATOM     99  F   UNL A   1      41.212  35.796  35.608  1.00  0.00    -0.206 F 
ATOM    100  C   UNL A   1      40.345  36.465  37.683  1.00  0.00     0.059 A 
ATOM    101  C   UNL A   1      38.983  34.925  38.978  1.00  0.00     0.059 A 
ATOM    102  F   UNL A   1      38.579  32.764  38.164  1.00  0.00    -0.206 F 
ATOM    103  C   UNL A   1      39.583  36.173  38.817  1.00  0.00     0.060 A 
BRANCH 103 104
ATOM    104  S   UNL A   1      39.353  37.466  40.056  1.00  0.00     0.124 S 
ATOM    105  O   UNL A   1      38.400  38.347  39.390  1.00  0.00    -0.237 OA
ATOM    106  O   UNL A   1      38.834  36.715  41.195  1.00  0.00    -0.237 OA
ATOM    107  O   UNL A   1      40.696  38.011  40.231  1.00  0.00    -0.744 OA
ENDBRANCH 103 104
ENDBRANCH  71  96
ENDBRANCH  45  46
ENDBRANCH  37  40
ENDBRANCH   1  36
TORSDOF 14
ENDMDL
