MODEL 1
REMARK VINA RESULT:     -12.6      0.000      0.000
REMARK SMILES CC(=O)Oc1ccc([C@H]2Nc3c(C(=O)NCCCNC(=O)c4ccc(-c5c6nc(c(-c7c(F)cc(S(=O)(=O)[O-])cc7F)c7ccc([nH]7)c(-c7c(F)cc(S(=O)(=O)[O-])cc7F)c7nc(c(-c8c(F)cc(S(=O)(=O)[O-])cc8F)c8ccc5[nH]8)C=C7)C=C6)cc4)ccc([N+](=O)[O-])c3[C@H]3C=CC[C@@H]32)cc1
REMARK SMILES IDX 17 1 16 2 15 3 13 4 14 5 12 7 9 8 10 9 99 10 11 11 95 13
REMARK SMILES IDX 98 14 94 15 96 16 97 17 88 18 90 19 89 20 8 21 5 22 6 23
REMARK SMILES IDX 101 24 7 25 100 26 4 27 2 28 1 29 3 30 91 31 92 32 93 33
REMARK SMILES IDX 18 34 19 35 20 36 21 38 22 39 23 40 87 41 24 42 86 43 25 44
REMARK SMILES IDX 26 45 27 46 80 47 28 48 85 49 79 50 81 51 29 52 84 53 78 54
REMARK SMILES IDX 77 55 30 57 64 58 43 59 63 60 44 61 47 62 62 63 82 64 45 65
REMARK SMILES IDX 46 66 61 68 83 69 48 70 31 71 32 72 41 73 33 74 34 75 40 76
REMARK SMILES IDX 42 77 35 78 36 79 37 80 38 81 39 82 65 83 66 84 75 85 67 86
REMARK SMILES IDX 68 87 74 88 76 89 69 90 70 91 71 92 72 93 73 94 49 95 50 96
REMARK SMILES IDX 59 97 51 98 52 99 58 100 60 101 53 102 54 103 55 104 56 105
REMARK SMILES IDX 57 106
REMARK H PARENT 15 6 10 12 19 37 81 56 47 67
REMARK Flexibility Score: inf
ROOT
ATOM      1  C   UNL A   1      33.966  28.272  24.923  1.00  0.00     0.042 C 
ENDROOT
BRANCH   1   2
ATOM      2  C   UNL A   1      32.900  28.269  23.834  1.00  0.00     0.118 C 
BRANCH   2   3
ATOM      3  N   UNL A   1      33.279  27.585  22.585  1.00  0.00    -0.352 N 
ATOM      4  C   UNL A   1      33.207  26.243  22.210  1.00  0.00     0.253 C 
ATOM      5  O   UNL A   1      33.653  25.892  21.121  1.00  0.00    -0.269 OA
ATOM      6  H   UNL A   1      33.649  28.180  21.895  1.00  0.00     0.163 HD
BRANCH   4   7
ATOM      7  C   UNL A   1      32.611  25.236  23.138  1.00  0.00     0.063 A 
ATOM      8  C   UNL A   1      35.299  23.971  25.590  1.00  0.00     0.114 C 
ATOM      9  N   UNL A   1      34.672  24.657  24.430  1.00  0.00    -0.377 N 
ATOM     10  C   UNL A   1      34.278  22.939  26.094  1.00  0.00     0.031 C 
ATOM     11  C   UNL A   1      33.259  24.764  24.310  1.00  0.00     0.058 A 
ATOM     12  H   UNL A   1      35.248  25.046  23.732  1.00  0.00     0.161 HD
ATOM     13  C   UNL A   1      33.124  23.812  26.610  1.00  0.00     0.056 C 
ATOM     14  C   UNL A   1      34.583  21.918  27.187  1.00  0.00     0.034 C 
ATOM     15  C   UNL A   1      32.419  24.221  25.344  1.00  0.00     0.061 A 
ATOM     16  C   UNL A   1      32.533  22.954  27.674  1.00  0.00    -0.022 C 
ATOM     17  C   UNL A   1      33.333  21.934  28.001  1.00  0.00    -0.030 C 
ATOM     18  C   UNL A   1      31.294  24.829  22.855  1.00  0.00     0.023 A 
ATOM     19  C   UNL A   1      31.046  24.055  25.099  1.00  0.00     0.275 A 
ATOM     20  C   UNL A   1      30.495  24.272  23.841  1.00  0.00     0.087 A 
BRANCH   8  21
ATOM     21  C   UNL A   1      36.724  23.434  25.424  1.00  0.00    -0.025 A 
ATOM     22  C   UNL A   1      39.202  22.118  25.831  1.00  0.00     0.130 A 
ATOM     23  C   UNL A   1      38.980  23.377  26.385  1.00  0.00     0.047 A 
ATOM     24  C   UNL A   1      38.226  21.531  25.033  1.00  0.00     0.047 A 
ATOM     25  C   UNL A   1      37.758  24.032  26.173  1.00  0.00     0.010 A 
ATOM     26  C   UNL A   1      37.013  22.204  24.800  1.00  0.00     0.010 A 
BRANCH  22  27
ATOM     27  O   UNL A   1      40.401  21.474  26.217  1.00  0.00    -0.427 OA
BRANCH  27  28
ATOM     28  C   UNL A   1      40.478  20.103  26.468  1.00  0.00     0.308 C 
ATOM     29  C   UNL A   1      41.153  19.880  27.792  1.00  0.00     0.139 C 
ATOM     30  O   UNL A   1      40.070  19.200  25.751  1.00  0.00    -0.252 OA
ENDBRANCH  27  28
ENDBRANCH  22  27
ENDBRANCH   8  21
BRANCH  19  31
ATOM     31  N   UNL A   1      30.125  23.635  26.129  1.00  0.00     0.063 N 
ATOM     32  O   UNL A   1      29.674  24.513  26.876  1.00  0.00    -0.258 OA
ATOM     33  O   UNL A   1      29.903  22.419  26.216  1.00  0.00    -0.258 OA
ENDBRANCH  19  31
ENDBRANCH   4   7
ENDBRANCH   2   3
ENDBRANCH   1   2
BRANCH   1  34
ATOM     34  C   UNL A   1      33.480  28.653  26.315  1.00  0.00     0.118 C 
BRANCH  34  35
ATOM     35  N   UNL A   1      33.509  30.089  26.577  1.00  0.00    -0.352 N 
ATOM     36  C   UNL A   1      34.388  30.851  27.326  1.00  0.00     0.251 C 
ATOM     37  H   UNL A   1      32.782  30.598  26.152  1.00  0.00     0.163 HD
ATOM     38  O   UNL A   1      34.158  32.040  27.487  1.00  0.00    -0.269 OA
BRANCH  36  39
ATOM     39  C   UNL A   1      35.581  30.235  27.965  1.00  0.00     0.039 A 
ATOM     40  C   UNL A   1      36.785  30.189  27.251  1.00  0.00     0.014 A 
ATOM     41  C   UNL A   1      35.528  29.703  29.252  1.00  0.00     0.014 A 
ATOM     42  C   UNL A   1      37.949  29.710  27.867  1.00  0.00     0.010 A 
ATOM     43  C   UNL A   1      36.701  29.312  29.895  1.00  0.00     0.010 A 
ATOM     44  C   UNL A   1      37.930  29.320  29.216  1.00  0.00    -0.014 A 
BRANCH  44  45
ATOM     45  C   UNL A   1      39.167  28.931  29.950  1.00  0.00     0.031 A 
ATOM     46  C   UNL A   1      39.570  29.676  31.196  1.00  0.00     0.074 A 
ATOM     47  C   UNL A   1      39.984  27.985  29.441  1.00  0.00     0.049 A 
ATOM     48  N   UNL A   1      40.682  29.600  31.883  1.00  0.00    -0.248 NA
ATOM     49  C   UNL A   1      38.608  30.658  31.722  1.00  0.00     0.031 C 
ATOM     50  C   UNL A   1      39.730  27.209  28.225  1.00  0.00     0.029 A 
ATOM     51  N   UNL A   1      41.208  27.531  29.869  1.00  0.00    -0.354 N 
ATOM     52  C   UNL A   1      40.567  30.542  32.898  1.00  0.00     0.074 A 
ATOM     53  C   UNL A   1      39.294  31.204  32.718  1.00  0.00     0.031 C 
ATOM     54  C   UNL A   1      40.755  26.367  28.015  1.00  0.00     0.029 A 
ATOM     55  C   UNL A   1      41.765  26.576  29.048  1.00  0.00     0.049 A 
ATOM     56  H   UNL A   1      41.647  27.857  30.688  1.00  0.00     0.167 HD
ATOM     57  C   UNL A   1      41.436  30.821  33.899  1.00  0.00     0.037 A 
ATOM     58  C   UNL A   1      42.960  25.953  29.107  1.00  0.00     0.037 A 
ATOM     59  C   UNL A   1      42.685  30.130  34.101  1.00  0.00     0.049 A 
ATOM     60  C   UNL A   1      43.913  26.291  30.223  1.00  0.00     0.074 A 
ATOM     61  C   UNL A   1      43.596  30.291  35.129  1.00  0.00     0.029 A 
ATOM     62  N   UNL A   1      43.198  29.154  33.261  1.00  0.00    -0.354 N 
ATOM     63  N   UNL A   1      43.761  27.143  31.208  1.00  0.00    -0.248 NA
ATOM     64  C   UNL A   1      45.203  25.585  30.235  1.00  0.00     0.031 C 
ATOM     65  C   UNL A   1      44.685  29.449  34.884  1.00  0.00     0.029 A 
ATOM     66  C   UNL A   1      44.425  28.722  33.734  1.00  0.00     0.049 A 
ATOM     67  H   UNL A   1      42.755  28.819  32.447  1.00  0.00     0.167 HD
ATOM     68  C   UNL A   1      44.916  27.043  31.979  1.00  0.00     0.074 A 
ATOM     69  C   UNL A   1      45.757  26.049  31.346  1.00  0.00     0.031 C 
ATOM     70  C   UNL A   1      45.244  27.711  33.111  1.00  0.00     0.037 A 
BRANCH  57  71
ATOM     71  C   UNL A   1      41.079  31.922  34.859  1.00  0.00     0.058 A 
ATOM     72  C   UNL A   1      40.303  31.684  36.005  1.00  0.00     0.135 A 
ATOM     73  C   UNL A   1      41.572  33.223  34.663  1.00  0.00     0.135 A 
ATOM     74  F   UNL A   1      39.796  30.463  36.236  1.00  0.00    -0.206 F 
ATOM     75  C   UNL A   1      40.010  32.700  36.909  1.00  0.00     0.059 A 
ATOM     76  C   UNL A   1      41.315  34.248  35.568  1.00  0.00     0.059 A 
ATOM     77  F   UNL A   1      42.318  33.507  33.583  1.00  0.00    -0.206 F 
ATOM     78  C   UNL A   1      40.523  33.978  36.683  1.00  0.00     0.060 A 
BRANCH  78  79
ATOM     79  S   UNL A   1      40.149  35.279  37.877  1.00  0.00     0.124 S 
ATOM     80  O   UNL A   1      41.341  35.253  38.720  1.00  0.00    -0.237 OA
ATOM     81  O   UNL A   1      40.002  36.453  37.024  1.00  0.00    -0.237 OA
ATOM     82  O   UNL A   1      38.920  34.814  38.515  1.00  0.00    -0.744 OA
ENDBRANCH  78  79
ENDBRANCH  57  71
BRANCH  58  83
ATOM     83  C   UNL A   1      43.326  24.933  28.086  1.00  0.00     0.058 A 
ATOM     84  C   UNL A   1      43.084  23.570  28.316  1.00  0.00     0.135 A 
ATOM     85  C   UNL A   1      43.935  25.291  26.873  1.00  0.00     0.135 A 
ATOM     86  F   UNL A   1      42.511  23.176  29.463  1.00  0.00    -0.206 F 
ATOM     87  C   UNL A   1      43.454  22.596  27.394  1.00  0.00     0.059 A 
ATOM     88  C   UNL A   1      44.289  24.338  25.923  1.00  0.00     0.059 A 
ATOM     89  F   UNL A   1      44.176  26.582  26.597  1.00  0.00    -0.206 F 
ATOM     90  C   UNL A   1      44.058  22.991  26.199  1.00  0.00     0.060 A 
BRANCH  90  91
ATOM     91  S   UNL A   1      44.509  21.720  24.998  1.00  0.00     0.124 S 
ATOM     92  O   UNL A   1      45.889  21.438  25.376  1.00  0.00    -0.237 OA
ATOM     93  O   UNL A   1      43.539  20.668  25.285  1.00  0.00    -0.237 OA
ATOM     94  O   UNL A   1      44.332  22.395  23.715  1.00  0.00    -0.744 OA
ENDBRANCH  90  91
ENDBRANCH  58  83
BRANCH  70  95
ATOM     95  C   UNL A   1      46.541  27.357  33.787  1.00  0.00     0.058 A 
ATOM     96  C   UNL A   1      47.730  28.053  33.522  1.00  0.00     0.135 A 
ATOM     97  C   UNL A   1      46.572  26.357  34.772  1.00  0.00     0.135 A 
ATOM     98  F   UNL A   1      47.758  29.012  32.583  1.00  0.00    -0.206 F 
ATOM     99  C   UNL A   1      48.907  27.762  34.204  1.00  0.00     0.059 A 
ATOM    100  C   UNL A   1      47.730  26.069  35.487  1.00  0.00     0.059 A 
ATOM    101  F   UNL A   1      45.459  25.667  35.071  1.00  0.00    -0.206 F 
ATOM    102  C   UNL A   1      48.896  26.774  35.191  1.00  0.00     0.060 A 
BRANCH 102 103
ATOM    103  S   UNL A   1      50.415  26.451  36.111  1.00  0.00     0.124 S 
ATOM    104  O   UNL A   1      51.421  26.540  35.059  1.00  0.00    -0.237 OA
ATOM    105  O   UNL A   1      50.423  27.533  37.090  1.00  0.00    -0.237 OA
ATOM    106  O   UNL A   1      50.202  25.116  36.663  1.00  0.00    -0.744 OA
ENDBRANCH 102 103
ENDBRANCH  70  95
ENDBRANCH  44  45
ENDBRANCH  36  39
ENDBRANCH  34  35
ENDBRANCH   1  34
TORSDOF 17
ENDMDL
MODEL 2
REMARK VINA RESULT:     -11.3      5.244      8.496
REMARK SMILES CC(=O)Oc1ccc([C@H]2Nc3c(C(=O)NCCCNC(=O)c4ccc(-c5c6nc(c(-c7c(F)cc(S(=O)(=O)[O-])cc7F)c7ccc([nH]7)c(-c7c(F)cc(S(=O)(=O)[O-])cc7F)c7nc(c(-c8c(F)cc(S(=O)(=O)[O-])cc8F)c8ccc5[nH]8)C=C7)C=C6)cc4)ccc([N+](=O)[O-])c3[C@H]3C=CC[C@@H]32)cc1
REMARK SMILES IDX 17 1 16 2 15 3 13 4 14 5 12 7 9 8 10 9 99 10 11 11 95 13
REMARK SMILES IDX 98 14 94 15 96 16 97 17 88 18 90 19 89 20 8 21 5 22 6 23
REMARK SMILES IDX 101 24 7 25 100 26 4 27 2 28 1 29 3 30 91 31 92 32 93 33
REMARK SMILES IDX 18 34 19 35 20 36 21 38 22 39 23 40 87 41 24 42 86 43 25 44
REMARK SMILES IDX 26 45 27 46 80 47 28 48 85 49 79 50 81 51 29 52 84 53 78 54
REMARK SMILES IDX 77 55 30 57 64 58 43 59 63 60 44 61 47 62 62 63 82 64 45 65
REMARK SMILES IDX 46 66 61 68 83 69 48 70 31 71 32 72 41 73 33 74 34 75 40 76
REMARK SMILES IDX 42 77 35 78 36 79 37 80 38 81 39 82 65 83 66 84 75 85 67 86
REMARK SMILES IDX 68 87 74 88 76 89 69 90 70 91 71 92 72 93 73 94 49 95 50 96
REMARK SMILES IDX 59 97 51 98 52 99 58 100 60 101 53 102 54 103 55 104 56 105
REMARK SMILES IDX 57 106
REMARK H PARENT 15 6 10 12 19 37 81 56 47 67
REMARK Flexibility Score: inf
ROOT
ATOM      1  C   UNL A   1      39.808  21.952  26.142  1.00  0.00     0.042 C 
ENDROOT
BRANCH   1   2
ATOM      2  C   UNL A   1      38.506  22.739  26.055  1.00  0.00     0.118 C 
BRANCH   2   3
ATOM      3  N   UNL A   1      38.127  23.181  24.701  1.00  0.00    -0.352 N 
ATOM      4  C   UNL A   1      36.964  22.980  23.957  1.00  0.00     0.253 C 
ATOM      5  O   UNL A   1      36.903  23.394  22.803  1.00  0.00    -0.269 OA
ATOM      6  H   UNL A   1      38.817  23.710  24.241  1.00  0.00     0.163 HD
BRANCH   4   7
ATOM      7  C   UNL A   1      35.810  22.244  24.554  1.00  0.00     0.063 A 
ATOM      8  C   UNL A   1      32.976  24.717  25.386  1.00  0.00     0.114 C 
ATOM      9  N   UNL A   1      34.313  24.198  24.996  1.00  0.00    -0.377 N 
ATOM     10  C   UNL A   1      32.239  23.558  26.074  1.00  0.00     0.031 C 
ATOM     11  C   UNL A   1      34.523  22.815  24.739  1.00  0.00     0.058 A 
ATOM     12  H   UNL A   1      35.068  24.825  24.913  1.00  0.00     0.161 HD
ATOM     13  C   UNL A   1      32.053  22.538  24.940  1.00  0.00     0.056 C 
ATOM     14  C   UNL A   1      30.882  23.711  26.757  1.00  0.00     0.034 C 
ATOM     15  C   UNL A   1      33.414  21.903  24.833  1.00  0.00     0.061 A 
ATOM     16  C   UNL A   1      30.812  21.828  25.355  1.00  0.00    -0.022 C 
ATOM     17  C   UNL A   1      30.165  22.474  26.331  1.00  0.00    -0.030 C 
ATOM     18  C   UNL A   1      36.020  20.883  24.844  1.00  0.00     0.023 A 
ATOM     19  C   UNL A   1      33.661  20.521  24.877  1.00  0.00     0.275 A 
ATOM     20  C   UNL A   1      34.951  20.010  24.970  1.00  0.00     0.087 A 
BRANCH   8  21
ATOM     21  C   UNL A   1      32.914  26.052  26.135  1.00  0.00    -0.025 A 
ATOM     22  C   UNL A   1      32.515  28.775  26.817  1.00  0.00     0.130 A 
ATOM     23  C   UNL A   1      33.685  28.380  26.171  1.00  0.00     0.047 A 
ATOM     24  C   UNL A   1      31.568  27.822  27.176  1.00  0.00     0.047 A 
ATOM     25  C   UNL A   1      33.886  27.031  25.844  1.00  0.00     0.010 A 
ATOM     26  C   UNL A   1      31.786  26.466  26.871  1.00  0.00     0.010 A 
BRANCH  22  27
ATOM     27  O   UNL A   1      32.334  30.169  26.975  1.00  0.00    -0.427 OA
BRANCH  27  28
ATOM     28  C   UNL A   1      31.551  30.935  26.109  1.00  0.00     0.308 C 
ATOM     29  C   UNL A   1      31.406  32.322  26.670  1.00  0.00     0.139 C 
ATOM     30  O   UNL A   1      31.050  30.570  25.055  1.00  0.00    -0.252 OA
ENDBRANCH  27  28
ENDBRANCH  22  27
ENDBRANCH   8  21
BRANCH  19  31
ATOM     31  N   UNL A   1      32.595  19.547  24.844  1.00  0.00     0.063 N 
ATOM     32  O   UNL A   1      32.314  18.982  25.909  1.00  0.00    -0.258 OA
ATOM     33  O   UNL A   1      32.084  19.317  23.739  1.00  0.00    -0.258 OA
ENDBRANCH  19  31
ENDBRANCH   4   7
ENDBRANCH   2   3
ENDBRANCH   1   2
BRANCH   1  34
ATOM     34  C   UNL A   1      39.700  20.576  26.784  1.00  0.00     0.118 C 
BRANCH  34  35
ATOM     35  N   UNL A   1      40.649  19.601  26.254  1.00  0.00    -0.352 N 
ATOM     36  C   UNL A   1      42.000  19.715  25.979  1.00  0.00     0.251 C 
ATOM     37  H   UNL A   1      40.263  18.717  26.060  1.00  0.00     0.163 HD
ATOM     38  O   UNL A   1      42.580  18.784  25.442  1.00  0.00    -0.269 OA
BRANCH  36  39
ATOM     39  C   UNL A   1      42.741  20.966  26.294  1.00  0.00     0.039 A 
ATOM     40  C   UNL A   1      43.184  21.776  25.241  1.00  0.00     0.014 A 
ATOM     41  C   UNL A   1      43.008  21.346  27.608  1.00  0.00     0.014 A 
ATOM     42  C   UNL A   1      43.791  23.009  25.511  1.00  0.00     0.010 A 
ATOM     43  C   UNL A   1      43.529  22.610  27.877  1.00  0.00     0.010 A 
ATOM     44  C   UNL A   1      43.917  23.465  26.833  1.00  0.00    -0.014 A 
BRANCH  44  45
ATOM     45  C   UNL A   1      44.434  24.823  27.161  1.00  0.00     0.031 A 
ATOM     46  C   UNL A   1      43.486  25.901  27.620  1.00  0.00     0.074 A 
ATOM     47  C   UNL A   1      45.732  25.122  26.944  1.00  0.00     0.049 A 
ATOM     48  N   UNL A   1      43.708  27.178  27.798  1.00  0.00    -0.248 NA
ATOM     49  C   UNL A   1      42.096  25.492  27.884  1.00  0.00     0.031 C 
ATOM     50  C   UNL A   1      46.752  24.182  26.470  1.00  0.00     0.029 A 
ATOM     51  N   UNL A   1      46.414  26.309  27.069  1.00  0.00    -0.354 N 
ATOM     52  C   UNL A   1      42.485  27.730  28.163  1.00  0.00     0.074 A 
ATOM     53  C   UNL A   1      41.516  26.656  28.145  1.00  0.00     0.031 C 
ATOM     54  C   UNL A   1      47.927  24.823  26.361  1.00  0.00     0.029 A 
ATOM     55  C   UNL A   1      47.740  26.229  26.705  1.00  0.00     0.049 A 
ATOM     56  H   UNL A   1      45.994  27.139  27.391  1.00  0.00     0.167 HD
ATOM     57  C   UNL A   1      42.198  29.011  28.496  1.00  0.00     0.037 A 
ATOM     58  C   UNL A   1      48.691  27.182  26.636  1.00  0.00     0.037 A 
ATOM     59  C   UNL A   1      43.174  30.069  28.554  1.00  0.00     0.049 A 
ATOM     60  C   UNL A   1      48.343  28.601  26.999  1.00  0.00     0.074 A 
ATOM     61  C   UNL A   1      42.992  31.381  28.954  1.00  0.00     0.029 A 
ATOM     62  N   UNL A   1      44.508  29.940  28.201  1.00  0.00    -0.354 N 
ATOM     63  N   UNL A   1      47.194  29.091  27.399  1.00  0.00    -0.248 NA
ATOM     64  C   UNL A   1      49.418  29.599  26.902  1.00  0.00     0.031 C 
ATOM     65  C   UNL A   1      44.204  32.058  28.794  1.00  0.00     0.029 A 
ATOM     66  C   UNL A   1      45.155  31.154  28.350  1.00  0.00     0.049 A 
ATOM     67  H   UNL A   1      44.932  29.107  27.890  1.00  0.00     0.167 HD
ATOM     68  C   UNL A   1      47.421  30.443  27.640  1.00  0.00     0.074 A 
ATOM     69  C   UNL A   1      48.814  30.694  27.342  1.00  0.00     0.031 C 
ATOM     70  C   UNL A   1      46.551  31.388  28.076  1.00  0.00     0.037 A 
BRANCH  57  71
ATOM     71  C   UNL A   1      40.770  29.352  28.825  1.00  0.00     0.058 A 
ATOM     72  C   UNL A   1      39.782  29.444  27.831  1.00  0.00     0.135 A 
ATOM     73  C   UNL A   1      40.371  29.529  30.161  1.00  0.00     0.135 A 
ATOM     74  F   UNL A   1      40.108  29.296  26.538  1.00  0.00    -0.206 F 
ATOM     75  C   UNL A   1      38.456  29.721  28.147  1.00  0.00     0.059 A 
ATOM     76  C   UNL A   1      39.046  29.779  30.502  1.00  0.00     0.059 A 
ATOM     77  F   UNL A   1      41.275  29.453  31.151  1.00  0.00    -0.206 F 
ATOM     78  C   UNL A   1      38.097  29.884  29.486  1.00  0.00     0.060 A 
BRANCH  78  79
ATOM     79  S   UNL A   1      36.369  30.224  29.879  1.00  0.00     0.124 S 
ATOM     80  O   UNL A   1      36.196  29.465  31.114  1.00  0.00    -0.237 OA
ATOM     81  O   UNL A   1      36.360  31.676  30.021  1.00  0.00    -0.237 OA
ATOM     82  O   UNL A   1      35.647  29.707  28.720  1.00  0.00    -0.744 OA
ENDBRANCH  78  79
ENDBRANCH  57  71
BRANCH  58  83
ATOM     83  C   UNL A   1      50.077  26.831  26.216  1.00  0.00     0.058 A 
ATOM     84  C   UNL A   1      51.025  26.405  27.158  1.00  0.00     0.135 A 
ATOM     85  C   UNL A   1      50.486  26.925  24.876  1.00  0.00     0.135 A 
ATOM     86  F   UNL A   1      50.685  26.306  28.453  1.00  0.00    -0.206 F 
ATOM     87  C   UNL A   1      52.335  26.110  26.795  1.00  0.00     0.059 A 
ATOM     88  C   UNL A   1      51.783  26.609  24.484  1.00  0.00     0.059 A 
ATOM     89  F   UNL A   1      49.614  27.313  23.932  1.00  0.00    -0.206 F 
ATOM     90  C   UNL A   1      52.705  26.216  25.454  1.00  0.00     0.060 A 
BRANCH  90  91
ATOM     91  S   UNL A   1      54.401  25.805  24.989  1.00  0.00     0.124 S 
ATOM     92  O   UNL A   1      55.165  26.541  25.990  1.00  0.00    -0.237 OA
ATOM     93  O   UNL A   1      54.410  24.351  25.118  1.00  0.00    -0.237 OA
ATOM     94  O   UNL A   1      54.504  26.307  23.622  1.00  0.00    -0.744 OA
ENDBRANCH  90  91
ENDBRANCH  58  83
BRANCH  70  95
ATOM     95  C   UNL A   1      47.083  32.774  28.318  1.00  0.00     0.058 A 
ATOM     96  C   UNL A   1      47.704  33.131  29.525  1.00  0.00     0.135 A 
ATOM     97  C   UNL A   1      47.039  33.735  27.295  1.00  0.00     0.135 A 
ATOM     98  F   UNL A   1      47.764  32.254  30.540  1.00  0.00    -0.206 F 
ATOM     99  C   UNL A   1      48.254  34.395  29.712  1.00  0.00     0.059 A 
ATOM    100  C   UNL A   1      47.608  34.995  27.450  1.00  0.00     0.059 A 
ATOM    101  F   UNL A   1      46.465  33.442  26.117  1.00  0.00    -0.206 F 
ATOM    102  C   UNL A   1      48.208  35.318  28.665  1.00  0.00     0.060 A 
BRANCH 102 103
ATOM    103  S   UNL A   1      48.980  36.933  28.900  1.00  0.00     0.124 S 
ATOM    104  O   UNL A   1      47.843  37.830  28.736  1.00  0.00    -0.237 OA
ATOM    105  O   UNL A   1      49.517  36.829  30.253  1.00  0.00    -0.237 OA
ATOM    106  O   UNL A   1      49.982  36.990  27.839  1.00  0.00    -0.744 OA
ENDBRANCH 102 103
ENDBRANCH  70  95
ENDBRANCH  44  45
ENDBRANCH  36  39
ENDBRANCH  34  35
ENDBRANCH   1  34
TORSDOF 17
ENDMDL
MODEL 3
REMARK VINA RESULT:     -11.1      4.911     12.400
REMARK SMILES CC(=O)Oc1ccc([C@H]2Nc3c(C(=O)NCCCNC(=O)c4ccc(-c5c6nc(c(-c7c(F)cc(S(=O)(=O)[O-])cc7F)c7ccc([nH]7)c(-c7c(F)cc(S(=O)(=O)[O-])cc7F)c7nc(c(-c8c(F)cc(S(=O)(=O)[O-])cc8F)c8ccc5[nH]8)C=C7)C=C6)cc4)ccc([N+](=O)[O-])c3[C@H]3C=CC[C@@H]32)cc1
REMARK SMILES IDX 17 1 16 2 15 3 13 4 14 5 12 7 9 8 10 9 99 10 11 11 95 13
REMARK SMILES IDX 98 14 94 15 96 16 97 17 88 18 90 19 89 20 8 21 5 22 6 23
REMARK SMILES IDX 101 24 7 25 100 26 4 27 2 28 1 29 3 30 91 31 92 32 93 33
REMARK SMILES IDX 18 34 19 35 20 36 21 38 22 39 23 40 87 41 24 42 86 43 25 44
REMARK SMILES IDX 26 45 27 46 80 47 28 48 85 49 79 50 81 51 29 52 84 53 78 54
REMARK SMILES IDX 77 55 30 57 64 58 43 59 63 60 44 61 47 62 62 63 82 64 45 65
REMARK SMILES IDX 46 66 61 68 83 69 48 70 31 71 32 72 41 73 33 74 34 75 40 76
REMARK SMILES IDX 42 77 35 78 36 79 37 80 38 81 39 82 65 83 66 84 75 85 67 86
REMARK SMILES IDX 68 87 74 88 76 89 69 90 70 91 71 92 72 93 73 94 49 95 50 96
REMARK SMILES IDX 59 97 51 98 52 99 58 100 60 101 53 102 54 103 55 104 56 105
REMARK SMILES IDX 57 106
REMARK H PARENT 15 6 10 12 19 37 81 56 47 67
REMARK Flexibility Score: inf
ROOT
ATOM      1  C   UNL A   1      44.824  23.444  33.290  1.00  0.00     0.042 C 
ENDROOT
BRANCH   1   2
ATOM      2  C   UNL A   1      44.464  24.649  32.428  1.00  0.00     0.118 C 
BRANCH   2   3
ATOM      3  N   UNL A   1      45.371  24.904  31.295  1.00  0.00    -0.352 N 
ATOM      4  C   UNL A   1      45.241  24.638  29.932  1.00  0.00     0.253 C 
ATOM      5  O   UNL A   1      46.174  24.885  29.173  1.00  0.00    -0.269 OA
ATOM      6  H   UNL A   1      46.218  25.339  31.545  1.00  0.00     0.163 HD
BRANCH   4   7
ATOM      7  C   UNL A   1      43.982  24.034  29.402  1.00  0.00     0.063 A 
ATOM      8  C   UNL A   1      41.424  26.811  28.639  1.00  0.00     0.114 C 
ATOM      9  N   UNL A   1      42.643  26.131  29.149  1.00  0.00    -0.377 N 
ATOM     10  C   UNL A   1      40.391  25.709  28.358  1.00  0.00     0.031 C 
ATOM     11  C   UNL A   1      42.942  24.786  28.795  1.00  0.00     0.058 A 
ATOM     12  H   UNL A   1      43.255  26.622  29.744  1.00  0.00     0.161 HD
ATOM     13  C   UNL A   1      41.026  24.919  27.204  1.00  0.00     0.056 C 
ATOM     14  C   UNL A   1      38.946  25.993  27.956  1.00  0.00     0.034 C 
ATOM     15  C   UNL A   1      42.062  24.079  27.903  1.00  0.00     0.061 A 
ATOM     16  C   UNL A   1      39.832  24.382  26.495  1.00  0.00    -0.022 C 
ATOM     17  C   UNL A   1      38.702  24.978  26.891  1.00  0.00    -0.030 C 
ATOM     18  C   UNL A   1      43.901  22.630  29.436  1.00  0.00     0.023 A 
ATOM     19  C   UNL A   1      42.179  22.684  27.784  1.00  0.00     0.275 A 
ATOM     20  C   UNL A   1      43.028  21.948  28.603  1.00  0.00     0.087 A 
BRANCH   8  21
ATOM     21  C   UNL A   1      40.886  28.009  29.427  1.00  0.00    -0.025 A 
ATOM     22  C   UNL A   1      40.622  30.199  31.209  1.00  0.00     0.130 A 
ATOM     23  C   UNL A   1      40.408  28.899  31.663  1.00  0.00     0.047 A 
ATOM     24  C   UNL A   1      40.912  30.425  29.867  1.00  0.00     0.047 A 
ATOM     25  C   UNL A   1      40.528  27.817  30.778  1.00  0.00     0.010 A 
ATOM     26  C   UNL A   1      41.003  29.339  28.977  1.00  0.00     0.010 A 
BRANCH  22  27
ATOM     27  O   UNL A   1      40.624  31.209  32.199  1.00  0.00    -0.427 OA
BRANCH  27  28
ATOM     28  C   UNL A   1      39.453  31.782  32.699  1.00  0.00     0.308 C 
ATOM     29  C   UNL A   1      39.256  31.342  34.123  1.00  0.00     0.139 C 
ATOM     30  O   UNL A   1      38.688  32.528  32.105  1.00  0.00    -0.252 OA
ENDBRANCH  27  28
ENDBRANCH  22  27
ENDBRANCH   8  21
BRANCH  19  31
ATOM     31  N   UNL A   1      41.417  21.927  26.819  1.00  0.00     0.063 N 
ATOM     32  O   UNL A   1      41.828  21.925  25.651  1.00  0.00    -0.258 OA
ATOM     33  O   UNL A   1      40.382  21.384  27.229  1.00  0.00    -0.258 OA
ENDBRANCH  19  31
ENDBRANCH   4   7
ENDBRANCH   2   3
ENDBRANCH   1   2
BRANCH   1  34
ATOM     34  C   UNL A   1      43.728  22.960  34.229  1.00  0.00     0.118 C 
BRANCH  34  35
ATOM     35  N   UNL A   1      44.047  23.128  35.644  1.00  0.00    -0.352 N 
ATOM     36  C   UNL A   1      44.237  24.274  36.396  1.00  0.00     0.251 C 
ATOM     37  H   UNL A   1      44.143  22.287  36.146  1.00  0.00     0.163 HD
ATOM     38  O   UNL A   1      44.596  24.171  37.559  1.00  0.00    -0.269 OA
BRANCH  36  39
ATOM     39  C   UNL A   1      44.049  25.622  35.796  1.00  0.00     0.039 A 
ATOM     40  C   UNL A   1      45.159  26.464  35.657  1.00  0.00     0.014 A 
ATOM     41  C   UNL A   1      42.796  26.065  35.374  1.00  0.00     0.014 A 
ATOM     42  C   UNL A   1      45.029  27.695  35.001  1.00  0.00     0.010 A 
ATOM     43  C   UNL A   1      42.684  27.246  34.643  1.00  0.00     0.010 A 
ATOM     44  C   UNL A   1      43.800  28.072  34.436  1.00  0.00    -0.014 A 
BRANCH  44  45
ATOM     45  C   UNL A   1      43.646  29.308  33.616  1.00  0.00     0.031 A 
ATOM     46  C   UNL A   1      44.075  29.313  32.172  1.00  0.00     0.074 A 
ATOM     47  C   UNL A   1      43.224  30.452  34.194  1.00  0.00     0.049 A 
ATOM     48  N   UNL A   1      44.174  30.319  31.342  1.00  0.00    -0.248 NA
ATOM     49  C   UNL A   1      44.476  28.019  31.595  1.00  0.00     0.031 C 
ATOM     50  C   UNL A   1      42.808  30.595  35.591  1.00  0.00     0.029 A 
ATOM     51  N   UNL A   1      43.099  31.722  33.684  1.00  0.00    -0.354 N 
ATOM     52  C   UNL A   1      44.676  29.789  30.159  1.00  0.00     0.074 A 
ATOM     53  C   UNL A   1      44.897  28.378  30.389  1.00  0.00     0.031 C 
ATOM     54  C   UNL A   1      42.459  31.871  35.821  1.00  0.00     0.029 A 
ATOM     55  C   UNL A   1      42.675  32.652  34.607  1.00  0.00     0.049 A 
ATOM     56  H   UNL A   1      43.293  31.947  32.746  1.00  0.00     0.167 HD
ATOM     57  C   UNL A   1      44.917  30.416  28.983  1.00  0.00     0.037 A 
ATOM     58  C   UNL A   1      42.500  33.985  34.496  1.00  0.00     0.037 A 
ATOM     59  C   UNL A   1      44.656  31.813  28.744  1.00  0.00     0.049 A 
ATOM     60  C   UNL A   1      42.787  34.660  33.181  1.00  0.00     0.074 A 
ATOM     61  C   UNL A   1      44.797  32.521  27.563  1.00  0.00     0.029 A 
ATOM     62  N   UNL A   1      44.205  32.712  29.697  1.00  0.00    -0.354 N 
ATOM     63  N   UNL A   1      43.205  34.131  32.057  1.00  0.00    -0.248 NA
ATOM     64  C   UNL A   1      42.583  36.115  33.119  1.00  0.00     0.031 C 
ATOM     65  C   UNL A   1      44.481  33.859  27.816  1.00  0.00     0.029 A 
ATOM     66  C   UNL A   1      44.087  33.973  29.139  1.00  0.00     0.049 A 
ATOM     67  H   UNL A   1      43.999  32.487  30.634  1.00  0.00     0.167 HD
ATOM     68  C   UNL A   1      43.271  35.179  31.144  1.00  0.00     0.074 A 
ATOM     69  C   UNL A   1      42.852  36.373  31.847  1.00  0.00     0.031 C 
ATOM     70  C   UNL A   1      43.641  35.152  29.840  1.00  0.00     0.037 A 
BRANCH  57  71
ATOM     71  C   UNL A   1      45.497  29.606  27.856  1.00  0.00     0.058 A 
ATOM     72  C   UNL A   1      44.683  28.964  26.909  1.00  0.00     0.135 A 
ATOM     73  C   UNL A   1      46.889  29.523  27.684  1.00  0.00     0.135 A 
ATOM     74  F   UNL A   1      43.347  29.001  27.031  1.00  0.00    -0.206 F 
ATOM     75  C   UNL A   1      45.227  28.250  25.846  1.00  0.00     0.059 A 
ATOM     76  C   UNL A   1      47.455  28.837  26.613  1.00  0.00     0.059 A 
ATOM     77  F   UNL A   1      47.715  30.117  28.560  1.00  0.00    -0.206 F 
ATOM     78  C   UNL A   1      46.615  28.195  25.706  1.00  0.00     0.060 A 
BRANCH  78  79
ATOM     79  S   UNL A   1      47.302  27.280  24.310  1.00  0.00     0.124 S 
ATOM     80  O   UNL A   1      46.435  26.106  24.276  1.00  0.00    -0.237 OA
ATOM     81  O   UNL A   1      47.138  28.221  23.208  1.00  0.00    -0.237 OA
ATOM     82  O   UNL A   1      48.682  27.027  24.714  1.00  0.00    -0.744 OA
ENDBRANCH  78  79
ENDBRANCH  57  71
BRANCH  58  83
ATOM     83  C   UNL A   1      42.013  34.778  35.659  1.00  0.00     0.058 A 
ATOM     84  C   UNL A   1      42.919  35.352  36.564  1.00  0.00     0.135 A 
ATOM     85  C   UNL A   1      40.643  34.968  35.899  1.00  0.00     0.135 A 
ATOM     86  F   UNL A   1      44.239  35.193  36.383  1.00  0.00    -0.206 F 
ATOM     87  C   UNL A   1      42.487  36.063  37.679  1.00  0.00     0.059 A 
ATOM     88  C   UNL A   1      40.186  35.699  36.991  1.00  0.00     0.059 A 
ATOM     89  F   UNL A   1      39.735  34.453  35.056  1.00  0.00    -0.206 F 
ATOM     90  C   UNL A   1      41.116  36.231  37.885  1.00  0.00     0.060 A 
BRANCH  90  91
ATOM     91  S   UNL A   1      40.567  37.179  39.320  1.00  0.00     0.124 S 
ATOM     92  O   UNL A   1      40.565  36.158  40.361  1.00  0.00    -0.237 OA
ATOM     93  O   UNL A   1      41.603  38.201  39.427  1.00  0.00    -0.237 OA
ATOM     94  O   UNL A   1      39.252  37.668  38.914  1.00  0.00    -0.744 OA
ENDBRANCH  90  91
ENDBRANCH  58  83
BRANCH  70  95
ATOM     95  C   UNL A   1      43.556  36.433  29.058  1.00  0.00     0.058 A 
ATOM     96  C   UNL A   1      42.391  36.809  28.372  1.00  0.00     0.135 A 
ATOM     97  C   UNL A   1      44.633  37.335  29.063  1.00  0.00     0.135 A 
ATOM     98  F   UNL A   1      41.336  35.981  28.328  1.00  0.00    -0.206 F 
ATOM     99  C   UNL A   1      42.301  38.029  27.710  1.00  0.00     0.059 A 
ATOM    100  C   UNL A   1      44.555  38.572  28.431  1.00  0.00     0.059 A 
ATOM    101  F   UNL A   1      45.768  37.028  29.711  1.00  0.00    -0.206 F 
ATOM    102  C   UNL A   1      43.385  38.908  27.752  1.00  0.00     0.060 A 
BRANCH 102 103
ATOM    103  S   UNL A   1      43.231  40.514  26.941  1.00  0.00     0.124 S 
ATOM    104  O   UNL A   1      44.035  40.316  25.740  1.00  0.00    -0.237 OA
ATOM    105  O   UNL A   1      41.791  40.621  26.731  1.00  0.00    -0.237 OA
ATOM    106  O   UNL A   1      43.786  41.445  27.920  1.00  0.00    -0.744 OA
ENDBRANCH 102 103
ENDBRANCH  70  95
ENDBRANCH  44  45
ENDBRANCH  36  39
ENDBRANCH  34  35
ENDBRANCH   1  34
TORSDOF 17
ENDMDL
