MODEL 1
REMARK VINA RESULT:     -11.0      0.000      0.000
REMARK SMILES Cc1cc2nc(NC(=O)[C@H]3[C@@H](C(=O)NCCCNC(=O)c4ccc(-c5c6nc(c(-c7c(F)cc(S(=O)(=O)[O-])cc7F)c7ccc([nH]7)c(-c7c(F)cc(S(=O)(=O)[O-])cc7F)c7nc(c(-c8c(F)cc(S(=O)(=O)[O-])cc8F)c8ccc5[nH]8)C=C7)C=C6)cc4)[C@@H]4C=C[C@H]3C4)sc2cc1C
REMARK SMILES IDX 16 1 15 2 14 3 12 4 13 5 11 7 10 8 90 9 87 10 89 11 91 12
REMARK SMILES IDX 88 13 8 14 7 15 9 17 6 18 1 19 2 20 3 21 95 22 4 23 94 24
REMARK SMILES IDX 96 25 5 26 93 27 92 28 17 29 18 30 19 31 20 33 21 34 22 35
REMARK SMILES IDX 86 36 23 37 85 38 24 39 25 40 26 41 79 42 27 43 84 44 78 45
REMARK SMILES IDX 80 46 28 47 83 48 77 49 76 50 29 52 63 53 42 54 62 55 43 56
REMARK SMILES IDX 46 57 61 58 81 59 44 60 45 61 60 63 82 64 47 65 30 66 31 67
REMARK SMILES IDX 40 68 32 69 33 70 39 71 41 72 34 73 35 74 36 75 37 76 38 77
REMARK SMILES IDX 64 78 65 79 74 80 66 81 67 82 73 83 75 84 68 85 69 86 70 87
REMARK SMILES IDX 71 88 72 89 48 90 49 91 58 92 50 93 51 94 57 95 59 96 52 97
REMARK SMILES IDX 53 98 54 99 55 100 56 101
REMARK H PARENT 14 6 7 16 18 32 80 51 46 62
REMARK Flexibility Score: inf
ROOT
ATOM      1  C   UNL A   1      43.382  22.331  25.374  1.00  0.00     0.042 C 
ENDROOT
BRANCH   1   2
ATOM      2  C   UNL A   1      44.814  22.579  25.823  1.00  0.00     0.117 C 
BRANCH   2   3
ATOM      3  N   UNL A   1      45.608  23.371  24.904  1.00  0.00    -0.356 N 
ATOM      4  C   UNL A   1      46.583  24.297  25.068  1.00  0.00     0.224 C 
ATOM      5  O   UNL A   1      47.121  24.670  24.014  1.00  0.00    -0.275 OA
ATOM      6  H   UNL A   1      45.393  23.198  23.958  1.00  0.00     0.163 HD
BRANCH   4   7
ATOM      7  C   UNL A   1      46.990  24.986  26.376  1.00  0.00     0.098 C 
ATOM      8  C   UNL A   1      46.010  25.801  27.275  1.00  0.00     0.099 C 
ATOM      9  C   UNL A   1      46.677  27.224  27.237  1.00  0.00     0.025 C 
ATOM     10  C   UNL A   1      48.177  25.962  26.158  1.00  0.00     0.025 C 
ATOM     11  C   UNL A   1      47.895  27.124  28.134  1.00  0.00    -0.027 C 
ATOM     12  C   UNL A   1      47.449  27.276  25.910  1.00  0.00     0.017 C 
ATOM     13  C   UNL A   1      48.781  26.334  27.504  1.00  0.00    -0.027 C 
BRANCH   8  14
ATOM     14  C   UNL A   1      44.507  25.794  27.021  1.00  0.00     0.230 C 
ATOM     15  N   UNL A   1      43.615  25.330  27.939  1.00  0.00    -0.302 N 
ATOM     16  H   UNL A   1      42.685  25.216  27.633  1.00  0.00     0.172 HD
ATOM     17  O   UNL A   1      44.039  26.221  25.960  1.00  0.00    -0.274 OA
BRANCH  15  18
ATOM     18  C   UNL A   1      43.875  25.010  29.234  1.00  0.00     0.190 A 
ATOM     19  C   UNL A   1      45.457  25.409  34.985  1.00  0.00     0.044 C 
ATOM     20  C   UNL A   1      44.989  24.764  33.711  1.00  0.00    -0.046 A 
ATOM     21  C   UNL A   1      44.939  25.575  32.562  1.00  0.00     0.033 A 
ATOM     22  C   UNL A   1      44.538  23.433  33.635  1.00  0.00    -0.047 A 
ATOM     23  C   UNL A   1      44.464  25.068  31.341  1.00  0.00     0.084 A 
ATOM     24  C   UNL A   1      44.108  22.900  32.399  1.00  0.00     0.025 A 
ATOM     25  C   UNL A   1      44.486  22.515  34.827  1.00  0.00     0.044 C 
ATOM     26  N   UNL A   1      44.336  25.787  30.172  1.00  0.00    -0.220 NA
ATOM     27  C   UNL A   1      44.064  23.735  31.274  1.00  0.00     0.057 A 
ATOM     28  S   UNL A   1      43.535  23.399  29.665  1.00  0.00    -0.097 S 
ENDBRANCH  15  18
ENDBRANCH   8  14
ENDBRANCH   4   7
ENDBRANCH   2   3
ENDBRANCH   1   2
BRANCH   1  29
ATOM     29  C   UNL A   1      42.478  21.667  26.405  1.00  0.00     0.118 C 
BRANCH  29  30
ATOM     30  N   UNL A   1      41.071  21.659  26.061  1.00  0.00    -0.352 N 
ATOM     31  C   UNL A   1      40.064  22.582  26.048  1.00  0.00     0.251 C 
ATOM     32  H   UNL A   1      40.766  20.771  25.766  1.00  0.00     0.163 HD
ATOM     33  O   UNL A   1      39.017  22.204  25.514  1.00  0.00    -0.269 OA
BRANCH  31  34
ATOM     34  C   UNL A   1      40.104  23.943  26.652  1.00  0.00     0.039 A 
ATOM     35  C   UNL A   1      40.404  25.129  25.986  1.00  0.00     0.014 A 
ATOM     36  C   UNL A   1      39.904  23.996  28.046  1.00  0.00     0.014 A 
ATOM     37  C   UNL A   1      40.619  26.306  26.708  1.00  0.00     0.010 A 
ATOM     38  C   UNL A   1      40.084  25.173  28.766  1.00  0.00     0.010 A 
ATOM     39  C   UNL A   1      40.498  26.321  28.104  1.00  0.00    -0.014 A 
BRANCH  39  40
ATOM     40  C   UNL A   1      40.673  27.595  28.807  1.00  0.00     0.031 A 
ATOM     41  C   UNL A   1      41.786  28.431  28.270  1.00  0.00     0.074 A 
ATOM     42  C   UNL A   1      39.852  28.073  29.768  1.00  0.00     0.049 A 
ATOM     43  N   UNL A   1      42.901  28.742  28.847  1.00  0.00    -0.248 NA
ATOM     44  C   UNL A   1      41.709  28.849  26.861  1.00  0.00     0.031 C 
ATOM     45  C   UNL A   1      38.565  27.530  30.210  1.00  0.00     0.029 A 
ATOM     46  N   UNL A   1      39.962  29.215  30.509  1.00  0.00    -0.354 N 
ATOM     47  C   UNL A   1      43.567  29.585  27.960  1.00  0.00     0.074 A 
ATOM     48  C   UNL A   1      42.877  29.472  26.701  1.00  0.00     0.031 C 
ATOM     49  C   UNL A   1      37.922  28.448  30.969  1.00  0.00     0.029 A 
ATOM     50  C   UNL A   1      38.803  29.583  31.191  1.00  0.00     0.049 A 
ATOM     51  H   UNL A   1      40.794  29.739  30.558  1.00  0.00     0.167 HD
ATOM     52  C   UNL A   1      44.490  30.489  28.392  1.00  0.00     0.037 A 
ATOM     53  C   UNL A   1      38.572  30.748  31.856  1.00  0.00     0.037 A 
ATOM     54  C   UNL A   1      44.968  30.163  29.711  1.00  0.00     0.049 A 
ATOM     55  C   UNL A   1      39.898  31.340  32.168  1.00  0.00     0.074 A 
ATOM     56  C   UNL A   1      45.609  29.078  30.276  1.00  0.00     0.029 A 
ATOM     57  N   UNL A   1      44.484  30.898  30.765  1.00  0.00    -0.354 N 
ATOM     58  N   UNL A   1      40.752  30.820  33.004  1.00  0.00    -0.248 NA
ATOM     59  C   UNL A   1      40.451  32.292  31.218  1.00  0.00     0.031 C 
ATOM     60  C   UNL A   1      45.055  28.962  31.584  1.00  0.00     0.029 A 
ATOM     61  C   UNL A   1      44.157  30.016  31.760  1.00  0.00     0.049 A 
ATOM     62  H   UNL A   1      44.389  31.878  30.798  1.00  0.00     0.167 HD
ATOM     63  C   UNL A   1      41.991  31.036  32.421  1.00  0.00     0.074 A 
ATOM     64  C   UNL A   1      41.749  32.022  31.370  1.00  0.00     0.031 C 
ATOM     65  C   UNL A   1      43.041  30.197  32.661  1.00  0.00     0.037 A 
BRANCH  52  66
ATOM     66  C   UNL A   1      44.671  31.867  27.792  1.00  0.00     0.058 A 
ATOM     67  C   UNL A   1      45.861  32.169  27.098  1.00  0.00     0.135 A 
ATOM     68  C   UNL A   1      43.865  32.979  28.128  1.00  0.00     0.135 A 
ATOM     69  F   UNL A   1      46.707  31.192  26.734  1.00  0.00    -0.206 F 
ATOM     70  C   UNL A   1      46.261  33.481  26.831  1.00  0.00     0.059 A 
ATOM     71  C   UNL A   1      44.219  34.289  27.824  1.00  0.00     0.059 A 
ATOM     72  F   UNL A   1      42.748  32.862  28.853  1.00  0.00    -0.206 F 
ATOM     73  C   UNL A   1      45.437  34.535  27.216  1.00  0.00     0.060 A 
BRANCH  73  74
ATOM     74  S   UNL A   1      45.999  36.228  26.972  1.00  0.00     0.124 S 
ATOM     75  O   UNL A   1      44.735  36.947  26.902  1.00  0.00    -0.237 OA
ATOM     76  O   UNL A   1      46.803  36.453  28.168  1.00  0.00    -0.237 OA
ATOM     77  O   UNL A   1      46.755  36.152  25.722  1.00  0.00    -0.744 OA
ENDBRANCH  73  74
ENDBRANCH  52  66
BRANCH  53  78
ATOM     78  C   UNL A   1      37.318  31.549  31.949  1.00  0.00     0.058 A 
ATOM     79  C   UNL A   1      36.834  32.010  33.192  1.00  0.00     0.135 A 
ATOM     80  C   UNL A   1      36.739  32.140  30.810  1.00  0.00     0.135 A 
ATOM     81  F   UNL A   1      37.334  31.518  34.335  1.00  0.00    -0.206 F 
ATOM     82  C   UNL A   1      35.887  33.037  33.297  1.00  0.00     0.059 A 
ATOM     83  C   UNL A   1      35.787  33.159  30.889  1.00  0.00     0.059 A 
ATOM     84  F   UNL A   1      37.153  31.813  29.577  1.00  0.00    -0.206 F 
ATOM     85  C   UNL A   1      35.387  33.625  32.135  1.00  0.00     0.060 A 
BRANCH  85  86
ATOM     86  S   UNL A   1      34.308  35.073  32.261  1.00  0.00     0.124 S 
ATOM     87  O   UNL A   1      33.123  34.514  32.903  1.00  0.00    -0.237 OA
ATOM     88  O   UNL A   1      35.105  35.982  33.077  1.00  0.00    -0.237 OA
ATOM     89  O   UNL A   1      34.128  35.484  30.871  1.00  0.00    -0.744 OA
ENDBRANCH  85  86
ENDBRANCH  53  78
BRANCH  65  90
ATOM     90  C   UNL A   1      42.941  29.232  33.813  1.00  0.00     0.058 A 
ATOM     91  C   UNL A   1      43.192  29.558  35.158  1.00  0.00     0.135 A 
ATOM     92  C   UNL A   1      42.410  27.959  33.550  1.00  0.00     0.135 A 
ATOM     93  F   UNL A   1      43.611  30.784  35.504  1.00  0.00    -0.206 F 
ATOM     94  C   UNL A   1      42.950  28.648  36.191  1.00  0.00     0.059 A 
ATOM     95  C   UNL A   1      42.132  27.049  34.565  1.00  0.00     0.059 A 
ATOM     96  F   UNL A   1      42.098  27.607  32.291  1.00  0.00    -0.206 F 
ATOM     97  C   UNL A   1      42.412  27.398  35.884  1.00  0.00     0.060 A 
BRANCH  97  98
ATOM     98  S   UNL A   1      42.015  26.254  37.225  1.00  0.00     0.124 S 
ATOM     99  O   UNL A   1      42.133  24.956  36.570  1.00  0.00    -0.237 OA
ATOM    100  O   UNL A   1      43.042  26.560  38.216  1.00  0.00    -0.237 OA
ATOM    101  O   UNL A   1      40.659  26.637  37.611  1.00  0.00    -0.744 OA
ENDBRANCH  97  98
ENDBRANCH  65  90
ENDBRANCH  39  40
ENDBRANCH  31  34
ENDBRANCH  29  30
ENDBRANCH   1  29
TORSDOF 15
ENDMDL
MODEL 2
REMARK VINA RESULT:     -10.8      2.778     11.226
REMARK SMILES Cc1cc2nc(NC(=O)[C@H]3[C@@H](C(=O)NCCCNC(=O)c4ccc(-c5c6nc(c(-c7c(F)cc(S(=O)(=O)[O-])cc7F)c7ccc([nH]7)c(-c7c(F)cc(S(=O)(=O)[O-])cc7F)c7nc(c(-c8c(F)cc(S(=O)(=O)[O-])cc8F)c8ccc5[nH]8)C=C7)C=C6)cc4)[C@@H]4C=C[C@H]3C4)sc2cc1C
REMARK SMILES IDX 16 1 15 2 14 3 12 4 13 5 11 7 10 8 90 9 87 10 89 11 91 12
REMARK SMILES IDX 88 13 8 14 7 15 9 17 6 18 1 19 2 20 3 21 95 22 4 23 94 24
REMARK SMILES IDX 96 25 5 26 93 27 92 28 17 29 18 30 19 31 20 33 21 34 22 35
REMARK SMILES IDX 86 36 23 37 85 38 24 39 25 40 26 41 79 42 27 43 84 44 78 45
REMARK SMILES IDX 80 46 28 47 83 48 77 49 76 50 29 52 63 53 42 54 62 55 43 56
REMARK SMILES IDX 46 57 61 58 81 59 44 60 45 61 60 63 82 64 47 65 30 66 31 67
REMARK SMILES IDX 40 68 32 69 33 70 39 71 41 72 34 73 35 74 36 75 37 76 38 77
REMARK SMILES IDX 64 78 65 79 74 80 66 81 67 82 73 83 75 84 68 85 69 86 70 87
REMARK SMILES IDX 71 88 72 89 48 90 49 91 58 92 50 93 51 94 57 95 59 96 52 97
REMARK SMILES IDX 53 98 54 99 55 100 56 101
REMARK H PARENT 14 6 7 16 18 32 80 51 46 62
REMARK Flexibility Score: inf
ROOT
ATOM      1  C   UNL A   1      35.731  33.982  31.326  1.00  0.00     0.042 C 
ENDROOT
BRANCH   1   2
ATOM      2  C   UNL A   1      35.905  34.882  32.540  1.00  0.00     0.117 C 
BRANCH   2   3
ATOM      3  N   UNL A   1      35.822  34.200  33.817  1.00  0.00    -0.356 N 
ATOM      4  C   UNL A   1      36.719  33.943  34.800  1.00  0.00     0.224 C 
ATOM      5  O   UNL A   1      36.231  33.431  35.819  1.00  0.00    -0.275 OA
ATOM      6  H   UNL A   1      34.923  33.850  34.011  1.00  0.00     0.163 HD
BRANCH   4   7
ATOM      7  C   UNL A   1      38.241  34.113  34.728  1.00  0.00     0.098 C 
ATOM      8  C   UNL A   1      39.181  33.212  33.870  1.00  0.00     0.099 C 
ATOM      9  C   UNL A   1      40.094  32.579  34.982  1.00  0.00     0.025 C 
ATOM     10  C   UNL A   1      38.885  34.065  36.140  1.00  0.00     0.025 C 
ATOM     11  C   UNL A   1      41.041  33.686  35.405  1.00  0.00    -0.027 C 
ATOM     12  C   UNL A   1      39.242  32.591  36.261  1.00  0.00     0.017 C 
ATOM     13  C   UNL A   1      40.308  34.598  36.066  1.00  0.00    -0.027 C 
BRANCH   8  14
ATOM     14  C   UNL A   1      38.621  32.214  32.861  1.00  0.00     0.230 C 
ATOM     15  N   UNL A   1      38.840  32.331  31.523  1.00  0.00    -0.302 N 
ATOM     16  H   UNL A   1      38.316  31.739  30.936  1.00  0.00     0.172 HD
ATOM     17  O   UNL A   1      37.945  31.248  33.230  1.00  0.00    -0.274 OA
BRANCH  15  18
ATOM     18  C   UNL A   1      39.711  33.179  30.914  1.00  0.00     0.190 A 
ATOM     19  C   UNL A   1      44.736  36.005  29.332  1.00  0.00     0.044 C 
ATOM     20  C   UNL A   1      43.270  35.674  29.348  1.00  0.00    -0.046 A 
ATOM     21  C   UNL A   1      42.844  34.687  30.257  1.00  0.00     0.033 A 
ATOM     22  C   UNL A   1      42.337  36.243  28.462  1.00  0.00    -0.047 A 
ATOM     23  C   UNL A   1      41.502  34.279  30.302  1.00  0.00     0.084 A 
ATOM     24  C   UNL A   1      40.974  35.877  28.536  1.00  0.00     0.025 A 
ATOM     25  C   UNL A   1      42.714  37.250  27.409  1.00  0.00     0.044 C 
ATOM     26  N   UNL A   1      40.991  33.296  31.122  1.00  0.00    -0.220 NA
ATOM     27  C   UNL A   1      40.583  34.886  29.448  1.00  0.00     0.057 A 
ATOM     28  S   UNL A   1      39.028  34.189  29.727  1.00  0.00    -0.097 S 
ENDBRANCH  15  18
ENDBRANCH   8  14
ENDBRANCH   4   7
ENDBRANCH   2   3
ENDBRANCH   1   2
BRANCH   1  29
ATOM     29  C   UNL A   1      34.456  33.149  31.307  1.00  0.00     0.118 C 
BRANCH  29  30
ATOM     30  N   UNL A   1      34.048  32.697  29.993  1.00  0.00    -0.352 N 
ATOM     31  C   UNL A   1      34.469  31.738  29.116  1.00  0.00     0.251 C 
ATOM     32  H   UNL A   1      33.279  33.206  29.647  1.00  0.00     0.163 HD
ATOM     33  O   UNL A   1      33.727  31.557  28.145  1.00  0.00    -0.269 OA
BRANCH  31  34
ATOM     34  C   UNL A   1      35.734  30.957  29.201  1.00  0.00     0.039 A 
ATOM     35  C   UNL A   1      35.978  29.877  30.048  1.00  0.00     0.014 A 
ATOM     36  C   UNL A   1      36.797  31.431  28.406  1.00  0.00     0.014 A 
ATOM     37  C   UNL A   1      37.272  29.369  30.185  1.00  0.00     0.010 A 
ATOM     38  C   UNL A   1      38.081  30.906  28.515  1.00  0.00     0.010 A 
ATOM     39  C   UNL A   1      38.334  29.909  29.448  1.00  0.00    -0.014 A 
BRANCH  39  40
ATOM     40  C   UNL A   1      39.660  29.299  29.583  1.00  0.00     0.031 A 
ATOM     41  C   UNL A   1      40.080  29.078  30.998  1.00  0.00     0.074 A 
ATOM     42  C   UNL A   1      40.414  28.841  28.559  1.00  0.00     0.049 A 
ATOM     43  N   UNL A   1      41.034  29.661  31.648  1.00  0.00    -0.248 NA
ATOM     44  C   UNL A   1      39.237  28.207  31.833  1.00  0.00     0.031 C 
ATOM     45  C   UNL A   1      40.041  28.712  27.149  1.00  0.00     0.029 A 
ATOM     46  N   UNL A   1      41.672  28.309  28.584  1.00  0.00    -0.354 N 
ATOM     47  C   UNL A   1      41.058  29.065  32.906  1.00  0.00     0.074 A 
ATOM     48  C   UNL A   1      39.834  28.315  33.020  1.00  0.00     0.031 C 
ATOM     49  C   UNL A   1      40.954  27.945  26.507  1.00  0.00     0.029 A 
ATOM     50  C   UNL A   1      42.050  27.649  27.416  1.00  0.00     0.049 A 
ATOM     51  H   UNL A   1      42.266  28.385  29.365  1.00  0.00     0.167 HD
ATOM     52  C   UNL A   1      42.191  29.043  33.663  1.00  0.00     0.037 A 
ATOM     53  C   UNL A   1      43.160  26.886  27.222  1.00  0.00     0.037 A 
ATOM     54  C   UNL A   1      43.139  30.030  33.218  1.00  0.00     0.049 A 
ATOM     55  C   UNL A   1      44.142  27.276  28.265  1.00  0.00     0.074 A 
ATOM     56  C   UNL A   1      43.127  31.405  33.085  1.00  0.00     0.029 A 
ATOM     57  N   UNL A   1      44.216  29.597  32.485  1.00  0.00    -0.354 N 
ATOM     58  N   UNL A   1      44.728  28.439  28.320  1.00  0.00    -0.248 NA
ATOM     59  C   UNL A   1      44.149  26.512  29.502  1.00  0.00     0.031 C 
ATOM     60  C   UNL A   1      43.878  31.668  31.902  1.00  0.00     0.029 A 
ATOM     61  C   UNL A   1      44.353  30.447  31.420  1.00  0.00     0.049 A 
ATOM     62  H   UNL A   1      44.783  28.817  32.687  1.00  0.00     0.167 HD
ATOM     63  C   UNL A   1      44.790  28.738  29.672  1.00  0.00     0.074 A 
ATOM     64  C   UNL A   1      44.498  27.478  30.354  1.00  0.00     0.031 C 
ATOM     65  C   UNL A   1      44.800  30.031  30.110  1.00  0.00     0.037 A 
BRANCH  52  66
ATOM     66  C   UNL A   1      42.596  27.882  34.546  1.00  0.00     0.058 A 
ATOM     67  C   UNL A   1      42.816  28.103  35.922  1.00  0.00     0.135 A 
ATOM     68  C   UNL A   1      43.066  26.645  34.047  1.00  0.00     0.135 A 
ATOM     69  F   UNL A   1      42.419  29.246  36.504  1.00  0.00    -0.206 F 
ATOM     70  C   UNL A   1      43.521  27.201  36.722  1.00  0.00     0.059 A 
ATOM     71  C   UNL A   1      43.723  25.710  34.839  1.00  0.00     0.059 A 
ATOM     72  F   UNL A   1      43.002  26.324  32.751  1.00  0.00    -0.206 F 
ATOM     73  C   UNL A   1      43.986  26.014  36.163  1.00  0.00     0.060 A 
BRANCH  73  74
ATOM     74  S   UNL A   1      44.988  24.901  37.162  1.00  0.00     0.124 S 
ATOM     75  O   UNL A   1      44.426  25.113  38.488  1.00  0.00    -0.237 OA
ATOM     76  O   UNL A   1      44.711  23.609  36.544  1.00  0.00    -0.237 OA
ATOM     77  O   UNL A   1      46.347  25.405  36.962  1.00  0.00    -0.744 OA
ENDBRANCH  73  74
ENDBRANCH  52  66
BRANCH  53  78
ATOM     78  C   UNL A   1      43.318  25.632  26.430  1.00  0.00     0.058 A 
ATOM     79  C   UNL A   1      44.297  25.520  25.421  1.00  0.00     0.135 A 
ATOM     80  C   UNL A   1      42.731  24.422  26.849  1.00  0.00     0.135 A 
ATOM     81  F   UNL A   1      44.924  26.616  24.966  1.00  0.00    -0.206 F 
ATOM     82  C   UNL A   1      44.713  24.285  24.909  1.00  0.00     0.059 A 
ATOM     83  C   UNL A   1      43.123  23.180  26.348  1.00  0.00     0.059 A 
ATOM     84  F   UNL A   1      41.822  24.402  27.835  1.00  0.00    -0.206 F 
ATOM     85  C   UNL A   1      44.136  23.114  25.400  1.00  0.00     0.060 A 
BRANCH  85  86
ATOM     86  S   UNL A   1      44.796  21.509  24.883  1.00  0.00     0.124 S 
ATOM     87  O   UNL A   1      43.762  20.592  25.348  1.00  0.00    -0.237 OA
ATOM     88  O   UNL A   1      44.903  21.670  23.437  1.00  0.00    -0.237 OA
ATOM     89  O   UNL A   1      46.070  21.422  25.593  1.00  0.00    -0.744 OA
ENDBRANCH  85  86
ENDBRANCH  53  78
BRANCH  65  90
ATOM     90  C   UNL A   1      45.075  31.125  29.113  1.00  0.00     0.058 A 
ATOM     91  C   UNL A   1      46.357  31.550  28.720  1.00  0.00     0.135 A 
ATOM     92  C   UNL A   1      43.982  31.653  28.409  1.00  0.00     0.135 A 
ATOM     93  F   UNL A   1      47.458  31.025  29.277  1.00  0.00    -0.206 F 
ATOM     94  C   UNL A   1      46.539  32.478  27.691  1.00  0.00     0.059 A 
ATOM     95  C   UNL A   1      44.141  32.555  27.360  1.00  0.00     0.059 A 
ATOM     96  F   UNL A   1      42.734  31.247  28.700  1.00  0.00    -0.206 F 
ATOM     97  C   UNL A   1      45.424  32.969  27.012  1.00  0.00     0.060 A 
BRANCH  97  98
ATOM     98  S   UNL A   1      45.662  34.099  25.623  1.00  0.00     0.124 S 
ATOM     99  O   UNL A   1      45.197  35.368  26.173  1.00  0.00    -0.237 OA
ATOM    100  O   UNL A   1      47.098  34.002  25.379  1.00  0.00    -0.237 OA
ATOM    101  O   UNL A   1      44.823  33.531  24.571  1.00  0.00    -0.744 OA
ENDBRANCH  97  98
ENDBRANCH  65  90
ENDBRANCH  39  40
ENDBRANCH  31  34
ENDBRANCH  29  30
ENDBRANCH   1  29
TORSDOF 15
ENDMDL
MODEL 3
REMARK VINA RESULT:     -10.8      4.988     11.799
REMARK SMILES Cc1cc2nc(NC(=O)[C@H]3[C@@H](C(=O)NCCCNC(=O)c4ccc(-c5c6nc(c(-c7c(F)cc(S(=O)(=O)[O-])cc7F)c7ccc([nH]7)c(-c7c(F)cc(S(=O)(=O)[O-])cc7F)c7nc(c(-c8c(F)cc(S(=O)(=O)[O-])cc8F)c8ccc5[nH]8)C=C7)C=C6)cc4)[C@@H]4C=C[C@H]3C4)sc2cc1C
REMARK SMILES IDX 16 1 15 2 14 3 12 4 13 5 11 7 10 8 90 9 87 10 89 11 91 12
REMARK SMILES IDX 88 13 8 14 7 15 9 17 6 18 1 19 2 20 3 21 95 22 4 23 94 24
REMARK SMILES IDX 96 25 5 26 93 27 92 28 17 29 18 30 19 31 20 33 21 34 22 35
REMARK SMILES IDX 86 36 23 37 85 38 24 39 25 40 26 41 79 42 27 43 84 44 78 45
REMARK SMILES IDX 80 46 28 47 83 48 77 49 76 50 29 52 63 53 42 54 62 55 43 56
REMARK SMILES IDX 46 57 61 58 81 59 44 60 45 61 60 63 82 64 47 65 30 66 31 67
REMARK SMILES IDX 40 68 32 69 33 70 39 71 41 72 34 73 35 74 36 75 37 76 38 77
REMARK SMILES IDX 64 78 65 79 74 80 66 81 67 82 73 83 75 84 68 85 69 86 70 87
REMARK SMILES IDX 71 88 72 89 48 90 49 91 58 92 50 93 51 94 57 95 59 96 52 97
REMARK SMILES IDX 53 98 54 99 55 100 56 101
REMARK H PARENT 14 6 7 16 18 32 80 51 46 62
REMARK Flexibility Score: inf
ROOT
ATOM      1  C   UNL A   1      32.164  29.932  26.726  1.00  0.00     0.042 C 
ENDROOT
BRANCH   1   2
ATOM      2  C   UNL A   1      31.328  30.477  25.578  1.00  0.00     0.117 C 
BRANCH   2   3
ATOM      3  N   UNL A   1      31.421  29.715  24.347  1.00  0.00    -0.356 N 
ATOM      4  C   UNL A   1      31.209  28.413  24.035  1.00  0.00     0.224 C 
ATOM      5  O   UNL A   1      31.271  28.160  22.821  1.00  0.00    -0.275 OA
ATOM      6  H   UNL A   1      31.697  30.259  23.574  1.00  0.00     0.163 HD
BRANCH   4   7
ATOM      7  C   UNL A   1      31.020  27.248  25.013  1.00  0.00     0.098 C 
ATOM      8  C   UNL A   1      32.106  26.168  25.305  1.00  0.00     0.099 C 
ATOM      9  C   UNL A   1      31.369  24.861  24.835  1.00  0.00     0.025 C 
ATOM     10  C   UNL A   1      29.762  26.410  24.661  1.00  0.00     0.025 C 
ATOM     11  C   UNL A   1      30.349  24.562  25.916  1.00  0.00    -0.027 C 
ATOM     12  C   UNL A   1      30.357  25.325  23.775  1.00  0.00     0.017 C 
ATOM     13  C   UNL A   1      29.404  25.514  25.838  1.00  0.00    -0.027 C 
BRANCH   8  14
ATOM     14  C   UNL A   1      33.533  26.316  24.786  1.00  0.00     0.230 C 
ATOM     15  N   UNL A   1      34.348  25.245  24.582  1.00  0.00    -0.302 N 
ATOM     16  H   UNL A   1      35.296  25.440  24.398  1.00  0.00     0.172 HD
ATOM     17  O   UNL A   1      34.002  27.428  24.525  1.00  0.00    -0.274 OA
BRANCH  15  18
ATOM     18  C   UNL A   1      33.988  23.934  24.603  1.00  0.00     0.190 A 
ATOM     19  C   UNL A   1      32.132  18.517  22.886  1.00  0.00     0.044 C 
ATOM     20  C   UNL A   1      32.610  19.595  23.818  1.00  0.00    -0.046 A 
ATOM     21  C   UNL A   1      32.798  20.878  23.272  1.00  0.00     0.033 A 
ATOM     22  C   UNL A   1      32.939  19.365  25.166  1.00  0.00    -0.047 A 
ATOM     23  C   UNL A   1      33.291  21.932  24.058  1.00  0.00     0.084 A 
ATOM     24  C   UNL A   1      33.386  20.431  25.979  1.00  0.00     0.025 A 
ATOM     25  C   UNL A   1      32.840  18.011  25.816  1.00  0.00     0.044 C 
ATOM     26  N   UNL A   1      33.549  23.210  23.613  1.00  0.00    -0.220 NA
ATOM     27  C   UNL A   1      33.569  21.697  25.404  1.00  0.00     0.057 A 
ATOM     28  S   UNL A   1      34.153  23.161  26.109  1.00  0.00    -0.097 S 
ENDBRANCH  15  18
ENDBRANCH   8  14
ENDBRANCH   4   7
ENDBRANCH   2   3
ENDBRANCH   1   2
BRANCH   1  29
ATOM     29  C   UNL A   1      33.571  30.503  26.840  1.00  0.00     0.118 C 
BRANCH  29  30
ATOM     30  N   UNL A   1      33.812  31.286  28.034  1.00  0.00    -0.352 N 
ATOM     31  C   UNL A   1      34.899  31.575  28.810  1.00  0.00     0.251 C 
ATOM     32  H   UNL A   1      32.991  31.716  28.369  1.00  0.00     0.163 HD
ATOM     33  O   UNL A   1      34.711  32.442  29.669  1.00  0.00    -0.269 OA
BRANCH  31  34
ATOM     34  C   UNL A   1      36.232  30.913  28.744  1.00  0.00     0.039 A 
ATOM     35  C   UNL A   1      36.469  29.574  28.440  1.00  0.00     0.014 A 
ATOM     36  C   UNL A   1      37.330  31.715  29.114  1.00  0.00     0.014 A 
ATOM     37  C   UNL A   1      37.742  29.027  28.620  1.00  0.00     0.010 A 
ATOM     38  C   UNL A   1      38.606  31.182  29.264  1.00  0.00     0.010 A 
ATOM     39  C   UNL A   1      38.804  29.822  29.071  1.00  0.00    -0.014 A 
BRANCH  39  40
ATOM     40  C   UNL A   1      40.133  29.214  29.185  1.00  0.00     0.031 A 
ATOM     41  C   UNL A   1      40.602  29.049  30.592  1.00  0.00     0.074 A 
ATOM     42  C   UNL A   1      40.850  28.712  28.155  1.00  0.00     0.049 A 
ATOM     43  N   UNL A   1      41.578  29.654  31.184  1.00  0.00    -0.248 NA
ATOM     44  C   UNL A   1      39.787  28.215  31.491  1.00  0.00     0.031 C 
ATOM     45  C   UNL A   1      40.428  28.526  26.765  1.00  0.00     0.029 A 
ATOM     46  N   UNL A   1      42.107  28.176  28.158  1.00  0.00    -0.354 N 
ATOM     47  C   UNL A   1      41.645  29.110  32.465  1.00  0.00     0.074 A 
ATOM     48  C   UNL A   1      40.424  28.369  32.651  1.00  0.00     0.031 C 
ATOM     49  C   UNL A   1      41.317  27.731  26.124  1.00  0.00     0.029 A 
ATOM     50  C   UNL A   1      42.443  27.469  27.005  1.00  0.00     0.049 A 
ATOM     51  H   UNL A   1      42.729  28.283  28.914  1.00  0.00     0.167 HD
ATOM     52  C   UNL A   1      42.803  29.114  33.182  1.00  0.00     0.037 A 
ATOM     53  C   UNL A   1      43.544  26.695  26.804  1.00  0.00     0.037 A 
ATOM     54  C   UNL A   1      43.738  30.079  32.665  1.00  0.00     0.049 A 
ATOM     55  C   UNL A   1      44.563  27.123  27.796  1.00  0.00     0.074 A 
ATOM     56  C   UNL A   1      43.724  31.448  32.476  1.00  0.00     0.029 A 
ATOM     57  N   UNL A   1      44.788  29.613  31.913  1.00  0.00    -0.354 N 
ATOM     58  N   UNL A   1      45.153  28.285  27.783  1.00  0.00    -0.248 NA
ATOM     59  C   UNL A   1      44.611  26.410  29.062  1.00  0.00     0.031 C 
ATOM     60  C   UNL A   1      44.434  31.660  31.258  1.00  0.00     0.029 A 
ATOM     61  C   UNL A   1      44.890  30.419  30.811  1.00  0.00     0.049 A 
ATOM     62  H   UNL A   1      45.360  28.841  32.127  1.00  0.00     0.167 HD
ATOM     63  C   UNL A   1      45.262  28.639  29.119  1.00  0.00     0.074 A 
ATOM     64  C   UNL A   1      44.992  27.409  29.861  1.00  0.00     0.031 C 
ATOM     65  C   UNL A   1      45.290  29.948  29.503  1.00  0.00     0.037 A 
BRANCH  52  66
ATOM     66  C   UNL A   1      43.237  27.989  34.097  1.00  0.00     0.058 A 
ATOM     67  C   UNL A   1      43.551  28.273  35.443  1.00  0.00     0.135 A 
ATOM     68  C   UNL A   1      43.643  26.716  33.635  1.00  0.00     0.135 A 
ATOM     69  F   UNL A   1      43.221  29.455  35.987  1.00  0.00    -0.206 F 
ATOM     70  C   UNL A   1      44.285  27.394  36.242  1.00  0.00     0.059 A 
ATOM     71  C   UNL A   1      44.326  25.805  34.431  1.00  0.00     0.059 A 
ATOM     72  F   UNL A   1      43.486  26.332  32.364  1.00  0.00    -0.206 F 
ATOM     73  C   UNL A   1      44.682  26.167  35.718  1.00  0.00     0.060 A 
BRANCH  73  74
ATOM     74  S   UNL A   1      45.720  25.079  36.708  1.00  0.00     0.124 S 
ATOM     75  O   UNL A   1      45.103  23.784  36.461  1.00  0.00    -0.237 OA
ATOM     76  O   UNL A   1      47.034  25.291  36.112  1.00  0.00    -0.237 OA
ATOM     77  O   UNL A   1      45.561  25.608  38.063  1.00  0.00    -0.744 OA
ENDBRANCH  73  74
ENDBRANCH  52  66
BRANCH  53  78
ATOM     78  C   UNL A   1      43.672  25.409  26.060  1.00  0.00     0.058 A 
ATOM     79  C   UNL A   1      44.782  25.151  25.227  1.00  0.00     0.135 A 
ATOM     80  C   UNL A   1      42.879  24.292  26.385  1.00  0.00     0.135 A 
ATOM     81  F   UNL A   1      45.606  26.149  24.874  1.00  0.00    -0.206 F 
ATOM     82  C   UNL A   1      45.119  23.860  24.801  1.00  0.00     0.059 A 
ATOM     83  C   UNL A   1      43.190  22.997  25.965  1.00  0.00     0.059 A 
ATOM     84  F   UNL A   1      41.825  24.409  27.206  1.00  0.00    -0.206 F 
ATOM     85  C   UNL A   1      44.328  22.782  25.198  1.00  0.00     0.060 A 
BRANCH  85  86
ATOM     86  S   UNL A   1      44.859  21.095  24.810  1.00  0.00     0.124 S 
ATOM     87  O   UNL A   1      44.632  21.029  23.371  1.00  0.00    -0.237 OA
ATOM     88  O   UNL A   1      46.255  21.105  25.235  1.00  0.00    -0.237 OA
ATOM     89  O   UNL A   1      43.970  20.266  25.619  1.00  0.00    -0.744 OA
ENDBRANCH  85  86
ENDBRANCH  53  78
BRANCH  65  90
ATOM     90  C   UNL A   1      45.532  31.000  28.453  1.00  0.00     0.058 A 
ATOM     91  C   UNL A   1      44.548  31.515  27.591  1.00  0.00     0.135 A 
ATOM     92  C   UNL A   1      46.789  31.625  28.437  1.00  0.00     0.135 A 
ATOM     93  F   UNL A   1      43.295  31.038  27.611  1.00  0.00    -0.206 F 
ATOM     94  C   UNL A   1      44.812  32.586  26.732  1.00  0.00     0.059 A 
ATOM     95  C   UNL A   1      47.065  32.712  27.612  1.00  0.00     0.059 A 
ATOM     96  F   UNL A   1      47.755  31.215  29.276  1.00  0.00    -0.206 F 
ATOM     97  C   UNL A   1      46.073  33.182  26.756  1.00  0.00     0.060 A 
BRANCH  97  98
ATOM     98  S   UNL A   1      46.389  34.623  25.713  1.00  0.00     0.124 S 
ATOM     99  O   UNL A   1      46.086  35.730  26.613  1.00  0.00    -0.237 OA
ATOM    100  O   UNL A   1      47.797  34.456  25.363  1.00  0.00    -0.237 OA
ATOM    101  O   UNL A   1      45.458  34.450  24.600  1.00  0.00    -0.744 OA
ENDBRANCH  97  98
ENDBRANCH  65  90
ENDBRANCH  39  40
ENDBRANCH  31  34
ENDBRANCH  29  30
ENDBRANCH   1  29
TORSDOF 15
ENDMDL
