MODEL 1
REMARK VINA RESULT:     -12.9      0.000      0.000
REMARK SMILES O=C(NCCCNC(=O)[C@@H](c1ccccc1)N1C(=O)/C(=C\c2ccc(-c3ccc(F)cc3)o2)SC1=S)c1ccc(-c2c3nc(c(-c4c(F)cc(S(=O)(=O)[O-])cc4F)c4ccc([nH]4)c(-c4c(F)cc(S(=O)(=O)[O-])cc4F)c4nc(c(-c5c(F)cc(S(=O)(=O)[O-])cc5F)c5ccc2[nH]5)C=C4)C=C3)cc1
REMARK SMILES IDX 5 1 4 2 3 3 1 4 2 5 37 7 38 8 102 9 39 10 101 11 40 12 41 13
REMARK SMILES IDX 42 14 95 15 43 16 100 17 94 18 96 19 44 20 99 21 93 22 92 23
REMARK SMILES IDX 45 25 79 26 58 27 78 28 59 29 62 30 77 31 97 32 60 33 61 34
REMARK SMILES IDX 76 36 98 37 63 38 46 39 47 40 56 41 48 42 49 43 55 44 57 45
REMARK SMILES IDX 50 46 51 47 52 48 53 49 54 50 80 51 81 52 90 53 82 54 83 55
REMARK SMILES IDX 89 56 91 57 84 58 85 59 86 60 87 61 88 62 64 63 65 64 74 65
REMARK SMILES IDX 66 66 67 67 73 68 75 69 68 70 69 71 70 72 71 73 72 74 6 75
REMARK SMILES IDX 7 76 8 77 9 79 10 80 11 81 12 82 16 83 13 84 15 85 14 86
REMARK SMILES IDX 17 87 18 88 35 89 19 90 20 91 34 92 36 93 21 94 22 95 23 96
REMARK SMILES IDX 33 97 24 98 25 99 26 100 27 101 32 102 28 103 31 104 29 105
REMARK SMILES IDX 30 106
REMARK H PARENT 3 6 96 24 62 35 7 78
REMARK Flexibility Score: inf
ROOT
ATOM      1  C   UNL A   1      38.178  22.777  26.136  1.00  0.00     0.042 C 
ENDROOT
BRANCH   1   2
ATOM      2  C   UNL A   1      38.851  24.022  26.697  1.00  0.00     0.118 C 
BRANCH   2   3
ATOM      3  N   UNL A   1      40.040  24.389  25.941  1.00  0.00    -0.352 N 
ATOM      4  O   UNL A   1      41.680  25.733  25.194  1.00  0.00    -0.269 OA
ATOM      5  C   UNL A   1      40.860  25.483  26.074  1.00  0.00     0.251 C 
ATOM      6  H   UNL A   1      40.294  23.760  25.226  1.00  0.00     0.163 HD
BRANCH   5   7
ATOM      7  C   UNL A   1      40.750  26.356  27.264  1.00  0.00     0.039 A 
ATOM      8  C   UNL A   1      41.453  27.561  27.332  1.00  0.00     0.014 A 
ATOM      9  C   UNL A   1      39.896  25.985  28.307  1.00  0.00     0.014 A 
ATOM     10  C   UNL A   1      41.406  28.327  28.491  1.00  0.00     0.010 A 
ATOM     11  C   UNL A   1      39.785  26.800  29.437  1.00  0.00     0.010 A 
ATOM     12  C   UNL A   1      40.555  27.967  29.547  1.00  0.00    -0.014 A 
BRANCH  12  13
ATOM     13  C   UNL A   1      40.432  28.872  30.717  1.00  0.00     0.031 A 
ATOM     14  C   UNL A   1      41.343  28.742  31.904  1.00  0.00     0.074 A 
ATOM     15  C   UNL A   1      39.490  29.835  30.684  1.00  0.00     0.049 A 
ATOM     16  N   UNL A   1      41.378  29.464  32.994  1.00  0.00    -0.248 NA
ATOM     17  C   UNL A   1      42.339  27.660  31.869  1.00  0.00     0.031 C 
ATOM     18  C   UNL A   1      38.532  30.039  29.593  1.00  0.00     0.029 A 
ATOM     19  N   UNL A   1      39.190  30.831  31.577  1.00  0.00    -0.354 N 
ATOM     20  C   UNL A   1      42.380  28.916  33.785  1.00  0.00     0.074 A 
ATOM     21  C   UNL A   1      42.917  27.786  33.057  1.00  0.00     0.031 C 
ATOM     22  C   UNL A   1      37.781  31.116  29.861  1.00  0.00     0.029 A 
ATOM     23  C   UNL A   1      38.164  31.647  31.164  1.00  0.00     0.049 A 
ATOM     24  H   UNL A   1      39.664  30.950  32.432  1.00  0.00     0.167 HD
ATOM     25  C   UNL A   1      42.813  29.322  35.004  1.00  0.00     0.037 A 
ATOM     26  C   UNL A   1      37.584  32.699  31.771  1.00  0.00     0.037 A 
ATOM     27  C   UNL A   1      42.284  30.460  35.712  1.00  0.00     0.049 A 
ATOM     28  C   UNL A   1      38.087  33.132  33.115  1.00  0.00     0.074 A 
ATOM     29  C   UNL A   1      42.685  30.977  36.932  1.00  0.00     0.029 A 
ATOM     30  N   UNL A   1      41.238  31.256  35.266  1.00  0.00    -0.354 N 
ATOM     31  N   UNL A   1      39.059  32.621  33.831  1.00  0.00    -0.248 NA
ATOM     32  C   UNL A   1      37.416  34.282  33.735  1.00  0.00     0.031 C 
ATOM     33  C   UNL A   1      41.858  32.065  37.239  1.00  0.00     0.029 A 
ATOM     34  C   UNL A   1      40.967  32.248  36.194  1.00  0.00     0.049 A 
ATOM     35  H   UNL A   1      40.759  31.134  34.415  1.00  0.00     0.167 HD
ATOM     36  C   UNL A   1      39.121  33.388  34.988  1.00  0.00     0.074 A 
ATOM     37  C   UNL A   1      38.101  34.412  34.863  1.00  0.00     0.031 C 
ATOM     38  C   UNL A   1      39.944  33.253  36.057  1.00  0.00     0.037 A 
BRANCH  25  39
ATOM     39  C   UNL A   1      43.905  28.522  35.657  1.00  0.00     0.058 A 
ATOM     40  C   UNL A   1      45.262  28.812  35.444  1.00  0.00     0.135 A 
ATOM     41  C   UNL A   1      43.589  27.471  36.534  1.00  0.00     0.135 A 
ATOM     42  F   UNL A   1      45.619  29.797  34.606  1.00  0.00    -0.206 F 
ATOM     43  C   UNL A   1      46.268  28.071  36.056  1.00  0.00     0.059 A 
ATOM     44  C   UNL A   1      44.580  26.729  37.173  1.00  0.00     0.059 A 
ATOM     45  F   UNL A   1      42.308  27.152  36.772  1.00  0.00    -0.206 F 
ATOM     46  C   UNL A   1      45.917  27.028  36.915  1.00  0.00     0.060 A 
BRANCH  46  47
ATOM     47  S   UNL A   1      47.233  26.067  37.694  1.00  0.00     0.124 S 
ATOM     48  O   UNL A   1      48.191  27.114  38.036  1.00  0.00    -0.237 OA
ATOM     49  O   UNL A   1      46.545  25.447  38.822  1.00  0.00    -0.237 OA
ATOM     50  O   UNL A   1      47.654  25.150  36.640  1.00  0.00    -0.744 OA
ENDBRANCH  46  47
ENDBRANCH  25  39
BRANCH  26  51
ATOM     51  C   UNL A   1      36.459  33.399  31.100  1.00  0.00     0.058 A 
ATOM     52  C   UNL A   1      35.162  33.353  31.627  1.00  0.00     0.135 A 
ATOM     53  C   UNL A   1      36.675  34.173  29.949  1.00  0.00     0.135 A 
ATOM     54  F   UNL A   1      34.909  32.625  32.724  1.00  0.00    -0.206 F 
ATOM     55  C   UNL A   1      34.113  34.049  31.036  1.00  0.00     0.059 A 
ATOM     56  C   UNL A   1      35.647  34.896  29.353  1.00  0.00     0.059 A 
ATOM     57  F   UNL A   1      37.905  34.263  29.420  1.00  0.00    -0.206 F 
ATOM     58  C   UNL A   1      34.367  34.821  29.901  1.00  0.00     0.060 A 
BRANCH  58  59
ATOM     59  S   UNL A   1      33.019  35.783  29.180  1.00  0.00     0.124 S 
ATOM     60  O   UNL A   1      32.384  34.795  28.316  1.00  0.00    -0.237 OA
ATOM     61  O   UNL A   1      32.258  36.183  30.359  1.00  0.00    -0.237 OA
ATOM     62  O   UNL A   1      33.713  36.870  28.496  1.00  0.00    -0.744 OA
ENDBRANCH  58  59
ENDBRANCH  26  51
BRANCH  38  63
ATOM     63  C   UNL A   1      39.776  34.245  37.172  1.00  0.00     0.058 A 
ATOM     64  C   UNL A   1      40.321  35.536  37.089  1.00  0.00     0.135 A 
ATOM     65  C   UNL A   1      39.035  33.912  38.315  1.00  0.00     0.135 A 
ATOM     66  F   UNL A   1      41.045  35.896  36.018  1.00  0.00    -0.206 F 
ATOM     67  C   UNL A   1      40.155  36.457  38.115  1.00  0.00     0.059 A 
ATOM     68  C   UNL A   1      38.839  34.828  39.345  1.00  0.00     0.059 A 
ATOM     69  F   UNL A   1      38.488  32.693  38.437  1.00  0.00    -0.206 F 
ATOM     70  C   UNL A   1      39.412  36.094  39.241  1.00  0.00     0.060 A 
BRANCH  70  71
ATOM     71  S   UNL A   1      39.179  37.308  40.557  1.00  0.00     0.124 S 
ATOM     72  O   UNL A   1      38.616  36.483  41.620  1.00  0.00    -0.237 OA
ATOM     73  O   UNL A   1      40.537  37.795  40.782  1.00  0.00    -0.237 OA
ATOM     74  O   UNL A   1      38.264  38.278  39.962  1.00  0.00    -0.744 OA
ENDBRANCH  70  71
ENDBRANCH  38  63
ENDBRANCH  12  13
ENDBRANCH   5   7
ENDBRANCH   2   3
ENDBRANCH   1   2
BRANCH   1  75
ATOM     75  C   UNL A   1      36.820  23.059  25.509  1.00  0.00     0.117 C 
BRANCH  75  76
ATOM     76  N   UNL A   1      35.732  22.699  26.400  1.00  0.00    -0.354 N 
ATOM     77  C   UNL A   1      34.522  22.117  26.135  1.00  0.00     0.247 C 
ATOM     78  H   UNL A   1      35.891  22.906  27.349  1.00  0.00     0.163 HD
ATOM     79  O   UNL A   1      33.670  22.145  27.031  1.00  0.00    -0.272 OA
BRANCH  77  80
ATOM     80  C   UNL A   1      34.170  21.555  24.713  1.00  0.00     0.211 C 
BRANCH  80  81
ATOM     81  C   UNL A   1      33.980  20.033  24.889  1.00  0.00    -0.016 A 
ATOM     82  C   UNL A   1      35.018  19.184  24.450  1.00  0.00     0.006 A 
ATOM     83  C   UNL A   1      32.889  19.435  25.543  1.00  0.00     0.006 A 
ATOM     84  C   UNL A   1      34.966  17.803  24.656  1.00  0.00     0.000 A 
ATOM     85  C   UNL A   1      32.821  18.048  25.716  1.00  0.00     0.000 A 
ATOM     86  C   UNL A   1      33.861  17.234  25.280  1.00  0.00     0.000 A 
ENDBRANCH  80  81
BRANCH  80  87
ATOM     87  N   UNL A   1      33.062  22.307  24.070  1.00  0.00    -0.276 N 
ATOM     88  C   UNL A   1      33.227  23.667  23.856  1.00  0.00     0.267 C 
ATOM     89  C   UNL A   1      32.113  21.797  23.218  1.00  0.00     0.149 C 
ATOM     90  O   UNL A   1      34.290  24.272  23.912  1.00  0.00    -0.268 OA
ATOM     91  C   UNL A   1      31.943  24.290  23.432  1.00  0.00     0.084 C 
ATOM     92  S   UNL A   1      30.868  23.025  22.960  1.00  0.00    -0.054 SA
ATOM     93  S   UNL A   1      32.072  20.329  22.428  1.00  0.00    -0.052 S 
ATOM     94  C   UNL A   1      31.610  25.588  23.406  1.00  0.00     0.068 C 
BRANCH  94  95
ATOM     95  C   UNL A   1      32.525  26.646  23.665  1.00  0.00     0.128 A 
ATOM     96  C   UNL A   1      33.391  27.278  22.779  1.00  0.00     0.051 A 
ATOM     97  O   UNL A   1      32.628  27.292  24.880  1.00  0.00    -0.457 OA
ATOM     98  C   UNL A   1      34.045  28.316  23.473  1.00  0.00     0.051 A 
ATOM     99  C   UNL A   1      33.552  28.291  24.756  1.00  0.00     0.134 A 
BRANCH  99 100
ATOM    100  C   UNL A   1      33.808  29.117  25.927  1.00  0.00     0.017 A 
ATOM    101  C   UNL A   1      34.889  28.858  26.780  1.00  0.00     0.015 A 
ATOM    102  C   UNL A   1      32.992  30.233  26.181  1.00  0.00     0.015 A 
ATOM    103  C   UNL A   1      35.159  29.709  27.857  1.00  0.00     0.040 A 
ATOM    104  C   UNL A   1      33.254  31.075  27.263  1.00  0.00     0.040 A 
ATOM    105  C   UNL A   1      34.339  30.808  28.089  1.00  0.00     0.123 A 
ATOM    106  F   UNL A   1      34.598  31.625  29.118  1.00  0.00    -0.207 F 
ENDBRANCH  99 100
ENDBRANCH  94  95
ENDBRANCH  80  87
ENDBRANCH  77  80
ENDBRANCH  75  76
ENDBRANCH   1  75
TORSDOF 17
ENDMDL
MODEL 2
REMARK VINA RESULT:     -12.3      0.471      7.821
REMARK SMILES O=C(NCCCNC(=O)[C@@H](c1ccccc1)N1C(=O)/C(=C\c2ccc(-c3ccc(F)cc3)o2)SC1=S)c1ccc(-c2c3nc(c(-c4c(F)cc(S(=O)(=O)[O-])cc4F)c4ccc([nH]4)c(-c4c(F)cc(S(=O)(=O)[O-])cc4F)c4nc(c(-c5c(F)cc(S(=O)(=O)[O-])cc5F)c5ccc2[nH]5)C=C4)C=C3)cc1
REMARK SMILES IDX 5 1 4 2 3 3 1 4 2 5 37 7 38 8 102 9 39 10 101 11 40 12 41 13
REMARK SMILES IDX 42 14 95 15 43 16 100 17 94 18 96 19 44 20 99 21 93 22 92 23
REMARK SMILES IDX 45 25 79 26 58 27 78 28 59 29 62 30 77 31 97 32 60 33 61 34
REMARK SMILES IDX 76 36 98 37 63 38 46 39 47 40 56 41 48 42 49 43 55 44 57 45
REMARK SMILES IDX 50 46 51 47 52 48 53 49 54 50 80 51 81 52 90 53 82 54 83 55
REMARK SMILES IDX 89 56 91 57 84 58 85 59 86 60 87 61 88 62 64 63 65 64 74 65
REMARK SMILES IDX 66 66 67 67 73 68 75 69 68 70 69 71 70 72 71 73 72 74 6 75
REMARK SMILES IDX 7 76 8 77 9 79 10 80 11 81 12 82 16 83 13 84 15 85 14 86
REMARK SMILES IDX 17 87 18 88 35 89 19 90 20 91 34 92 36 93 21 94 22 95 23 96
REMARK SMILES IDX 33 97 24 98 25 99 26 100 27 101 32 102 28 103 31 104 29 105
REMARK SMILES IDX 30 106
REMARK H PARENT 3 6 96 24 62 35 7 78
REMARK Flexibility Score: inf
ROOT
ATOM      1  C   UNL A   1      38.122  22.923  26.253  1.00  0.00     0.042 C 
ENDROOT
BRANCH   1   2
ATOM      2  C   UNL A   1      38.779  24.206  26.746  1.00  0.00     0.118 C 
BRANCH   2   3
ATOM      3  N   UNL A   1      39.943  24.565  25.949  1.00  0.00    -0.352 N 
ATOM      4  O   UNL A   1      41.565  25.900  25.147  1.00  0.00    -0.269 OA
ATOM      5  C   UNL A   1      40.774  25.654  26.054  1.00  0.00     0.251 C 
ATOM      6  H   UNL A   1      40.168  23.935  25.226  1.00  0.00     0.163 HD
BRANCH   5   7
ATOM      7  C   UNL A   1      40.712  26.527  27.247  1.00  0.00     0.039 A 
ATOM      8  C   UNL A   1      41.394  27.746  27.277  1.00  0.00     0.014 A 
ATOM      9  C   UNL A   1      39.922  26.141  28.335  1.00  0.00     0.014 A 
ATOM     10  C   UNL A   1      41.394  28.512  28.436  1.00  0.00     0.010 A 
ATOM     11  C   UNL A   1      39.856  26.956  29.469  1.00  0.00     0.010 A 
ATOM     12  C   UNL A   1      40.608  28.138  29.537  1.00  0.00    -0.014 A 
BRANCH  12  13
ATOM     13  C   UNL A   1      40.530  29.042  30.710  1.00  0.00     0.031 A 
ATOM     14  C   UNL A   1      39.485  30.118  30.799  1.00  0.00     0.074 A 
ATOM     15  C   UNL A   1      41.410  28.865  31.715  1.00  0.00     0.049 A 
ATOM     16  N   UNL A   1      39.271  30.977  31.763  1.00  0.00    -0.248 NA
ATOM     17  C   UNL A   1      38.567  30.256  29.659  1.00  0.00     0.031 C 
ATOM     18  C   UNL A   1      42.484  27.867  31.726  1.00  0.00     0.029 A 
ATOM     19  N   UNL A   1      41.537  29.500  32.923  1.00  0.00    -0.354 N 
ATOM     20  C   UNL A   1      38.211  31.770  31.341  1.00  0.00     0.074 A 
ATOM     21  C   UNL A   1      37.837  31.302  30.023  1.00  0.00     0.031 C 
ATOM     22  C   UNL A   1      43.132  27.929  32.898  1.00  0.00     0.029 A 
ATOM     23  C   UNL A   1      42.557  29.003  33.699  1.00  0.00     0.049 A 
ATOM     24  H   UNL A   1      40.953  30.239  33.208  1.00  0.00     0.167 HD
ATOM     25  C   UNL A   1      37.605  32.790  31.996  1.00  0.00     0.037 A 
ATOM     26  C   UNL A   1      42.994  29.378  34.916  1.00  0.00     0.037 A 
ATOM     27  C   UNL A   1      37.973  33.235  33.317  1.00  0.00     0.049 A 
ATOM     28  C   UNL A   1      42.301  30.504  35.622  1.00  0.00     0.074 A 
ATOM     29  C   UNL A   1      37.392  34.231  34.082  1.00  0.00     0.029 A 
ATOM     30  N   UNL A   1      39.019  32.714  34.067  1.00  0.00    -0.354 N 
ATOM     31  N   UNL A   1      41.278  31.219  35.221  1.00  0.00    -0.248 NA
ATOM     32  C   UNL A   1      42.820  30.877  36.944  1.00  0.00     0.031 C 
ATOM     33  C   UNL A   1      38.109  34.335  35.281  1.00  0.00     0.029 A 
ATOM     34  C   UNL A   1      39.112  33.380  35.277  1.00  0.00     0.049 A 
ATOM     35  H   UNL A   1      39.608  31.979  33.780  1.00  0.00     0.167 HD
ATOM     36  C   UNL A   1      41.026  32.127  36.242  1.00  0.00     0.074 A 
ATOM     37  C   UNL A   1      41.991  31.854  37.289  1.00  0.00     0.031 C 
ATOM     38  C   UNL A   1      40.084  33.100  36.303  1.00  0.00     0.037 A 
BRANCH  25  39
ATOM     39  C   UNL A   1      36.488  33.506  31.290  1.00  0.00     0.058 A 
ATOM     40  C   UNL A   1      36.714  34.265  30.131  1.00  0.00     0.135 A 
ATOM     41  C   UNL A   1      35.169  33.405  31.761  1.00  0.00     0.135 A 
ATOM     42  F   UNL A   1      37.957  34.405  29.646  1.00  0.00    -0.206 F 
ATOM     43  C   UNL A   1      35.675  34.921  29.478  1.00  0.00     0.059 A 
ATOM     44  C   UNL A   1      34.111  34.037  31.111  1.00  0.00     0.059 A 
ATOM     45  F   UNL A   1      34.898  32.691  32.865  1.00  0.00    -0.206 F 
ATOM     46  C   UNL A   1      34.377  34.805  29.980  1.00  0.00     0.060 A 
BRANCH  46  47
ATOM     47  S   UNL A   1      33.039  35.670  29.129  1.00  0.00     0.124 S 
ATOM     48  O   UNL A   1      32.437  34.586  28.360  1.00  0.00    -0.237 OA
ATOM     49  O   UNL A   1      32.238  36.180  30.238  1.00  0.00    -0.237 OA
ATOM     50  O   UNL A   1      33.736  36.686  28.345  1.00  0.00    -0.744 OA
ENDBRANCH  46  47
ENDBRANCH  25  39
BRANCH  26  51
ATOM     51  C   UNL A   1      44.151  28.674  35.525  1.00  0.00     0.058 A 
ATOM     52  C   UNL A   1      43.963  27.577  36.375  1.00  0.00     0.135 A 
ATOM     53  C   UNL A   1      45.468  29.054  35.221  1.00  0.00     0.135 A 
ATOM     54  F   UNL A   1      42.723  27.179  36.694  1.00  0.00    -0.206 F 
ATOM     55  C   UNL A   1      45.041  26.878  36.908  1.00  0.00     0.059 A 
ATOM     56  C   UNL A   1      46.562  28.358  35.724  1.00  0.00     0.059 A 
ATOM     57  F   UNL A   1      45.696  30.087  34.396  1.00  0.00    -0.206 F 
ATOM     58  C   UNL A   1      46.337  27.274  36.572  1.00  0.00     0.060 A 
BRANCH  58  59
ATOM     59  S   UNL A   1      47.733  26.319  37.206  1.00  0.00     0.124 S 
ATOM     60  O   UNL A   1      48.847  26.906  36.470  1.00  0.00    -0.237 OA
ATOM     61  O   UNL A   1      47.686  26.611  38.635  1.00  0.00    -0.237 OA
ATOM     62  O   UNL A   1      47.389  24.947  36.845  1.00  0.00    -0.744 OA
ENDBRANCH  58  59
ENDBRANCH  26  51
BRANCH  38  63
ATOM     63  C   UNL A   1      40.052  33.935  37.552  1.00  0.00     0.058 A 
ATOM     64  C   UNL A   1      39.229  33.594  38.636  1.00  0.00     0.135 A 
ATOM     65  C   UNL A   1      40.876  35.063  37.675  1.00  0.00     0.135 A 
ATOM     66  F   UNL A   1      38.417  32.529  38.560  1.00  0.00    -0.206 F 
ATOM     67  C   UNL A   1      39.209  34.359  39.796  1.00  0.00     0.059 A 
ATOM     68  C   UNL A   1      40.886  35.830  38.837  1.00  0.00     0.059 A 
ATOM     69  F   UNL A   1      41.686  35.424  36.669  1.00  0.00    -0.206 F 
ATOM     70  C   UNL A   1      40.041  35.478  39.887  1.00  0.00     0.060 A 
BRANCH  70  71
ATOM     71  S   UNL A   1      40.028  36.450  41.408  1.00  0.00     0.124 S 
ATOM     72  O   UNL A   1      41.366  37.029  41.398  1.00  0.00    -0.237 OA
ATOM     73  O   UNL A   1      38.930  37.384  41.177  1.00  0.00    -0.237 OA
ATOM     74  O   UNL A   1      39.782  35.451  42.444  1.00  0.00    -0.744 OA
ENDBRANCH  70  71
ENDBRANCH  38  63
ENDBRANCH  12  13
ENDBRANCH   5   7
ENDBRANCH   2   3
ENDBRANCH   1   2
BRANCH   1  75
ATOM     75  C   UNL A   1      36.765  23.155  25.603  1.00  0.00     0.117 C 
BRANCH  75  76
ATOM     76  N   UNL A   1      35.677  22.755  26.476  1.00  0.00    -0.354 N 
ATOM     77  C   UNL A   1      34.480  22.158  26.188  1.00  0.00     0.247 C 
ATOM     78  H   UNL A   1      35.824  22.944  27.431  1.00  0.00     0.163 HD
ATOM     79  O   UNL A   1      33.620  22.151  27.077  1.00  0.00    -0.272 OA
BRANCH  77  80
ATOM     80  C   UNL A   1      34.150  21.622  24.750  1.00  0.00     0.211 C 
BRANCH  80  81
ATOM     81  C   UNL A   1      33.949  20.099  24.897  1.00  0.00    -0.016 A 
ATOM     82  C   UNL A   1      34.969  19.250  24.417  1.00  0.00     0.006 A 
ATOM     83  C   UNL A   1      32.866  19.496  25.561  1.00  0.00     0.006 A 
ATOM     84  C   UNL A   1      34.909  17.866  24.593  1.00  0.00     0.000 A 
ATOM     85  C   UNL A   1      32.789  18.106  25.704  1.00  0.00     0.000 A 
ATOM     86  C   UNL A   1      33.813  17.293  25.228  1.00  0.00     0.000 A 
ENDBRANCH  80  81
BRANCH  80  87
ATOM     87  N   UNL A   1      33.057  22.392  24.101  1.00  0.00    -0.276 N 
ATOM     88  C   UNL A   1      33.240  23.750  23.895  1.00  0.00     0.267 C 
ATOM     89  C   UNL A   1      32.110  21.896  23.239  1.00  0.00     0.149 C 
ATOM     90  O   UNL A   1      34.309  24.341  23.964  1.00  0.00    -0.268 OA
ATOM     91  C   UNL A   1      31.968  24.390  23.464  1.00  0.00     0.084 C 
ATOM     92  S   UNL A   1      30.882  23.141  22.976  1.00  0.00    -0.054 SA
ATOM     93  S   UNL A   1      32.058  20.434  22.440  1.00  0.00    -0.052 S 
ATOM     94  C   UNL A   1      31.651  25.693  23.441  1.00  0.00     0.068 C 
BRANCH  94  95
ATOM     95  C   UNL A   1      32.576  26.739  23.713  1.00  0.00     0.128 A 
ATOM     96  C   UNL A   1      33.461  27.360  22.840  1.00  0.00     0.051 A 
ATOM     97  O   UNL A   1      32.673  27.380  24.931  1.00  0.00    -0.457 OA
ATOM     98  C   UNL A   1      34.120  28.389  23.544  1.00  0.00     0.051 A 
ATOM     99  C   UNL A   1      33.610  28.368  24.821  1.00  0.00     0.134 A 
BRANCH  99 100
ATOM    100  C   UNL A   1      33.863  29.188  25.996  1.00  0.00     0.017 A 
ATOM    101  C   UNL A   1      34.990  28.980  26.803  1.00  0.00     0.015 A 
ATOM    102  C   UNL A   1      32.993  30.249  26.302  1.00  0.00     0.015 A 
ATOM    103  C   UNL A   1      35.250  29.828  27.885  1.00  0.00     0.040 A 
ATOM    104  C   UNL A   1      33.246  31.087  27.389  1.00  0.00     0.040 A 
ATOM    105  C   UNL A   1      34.376  30.872  28.168  1.00  0.00     0.123 A 
ATOM    106  F   UNL A   1      34.626  31.686  29.202  1.00  0.00    -0.207 F 
ENDBRANCH  99 100
ENDBRANCH  94  95
ENDBRANCH  80  87
ENDBRANCH  77  80
ENDBRANCH  75  76
ENDBRANCH   1  75
TORSDOF 17
ENDMDL
MODEL 3
REMARK VINA RESULT:     -12.2      4.916     10.746
REMARK SMILES O=C(NCCCNC(=O)[C@@H](c1ccccc1)N1C(=O)/C(=C\c2ccc(-c3ccc(F)cc3)o2)SC1=S)c1ccc(-c2c3nc(c(-c4c(F)cc(S(=O)(=O)[O-])cc4F)c4ccc([nH]4)c(-c4c(F)cc(S(=O)(=O)[O-])cc4F)c4nc(c(-c5c(F)cc(S(=O)(=O)[O-])cc5F)c5ccc2[nH]5)C=C4)C=C3)cc1
REMARK SMILES IDX 5 1 4 2 3 3 1 4 2 5 37 7 38 8 102 9 39 10 101 11 40 12 41 13
REMARK SMILES IDX 42 14 95 15 43 16 100 17 94 18 96 19 44 20 99 21 93 22 92 23
REMARK SMILES IDX 45 25 79 26 58 27 78 28 59 29 62 30 77 31 97 32 60 33 61 34
REMARK SMILES IDX 76 36 98 37 63 38 46 39 47 40 56 41 48 42 49 43 55 44 57 45
REMARK SMILES IDX 50 46 51 47 52 48 53 49 54 50 80 51 81 52 90 53 82 54 83 55
REMARK SMILES IDX 89 56 91 57 84 58 85 59 86 60 87 61 88 62 64 63 65 64 74 65
REMARK SMILES IDX 66 66 67 67 73 68 75 69 68 70 69 71 70 72 71 73 72 74 6 75
REMARK SMILES IDX 7 76 8 77 9 79 10 80 11 81 12 82 16 83 13 84 15 85 14 86
REMARK SMILES IDX 17 87 18 88 35 89 19 90 20 91 34 92 36 93 21 94 22 95 23 96
REMARK SMILES IDX 33 97 24 98 25 99 26 100 27 101 32 102 28 103 31 104 29 105
REMARK SMILES IDX 30 106
REMARK H PARENT 3 6 96 24 62 35 7 78
REMARK Flexibility Score: inf
ROOT
ATOM      1  C   UNL A   1      33.243  27.382  26.524  1.00  0.00     0.042 C 
ENDROOT
BRANCH   1   2
ATOM      2  C   UNL A   1      34.244  28.480  26.187  1.00  0.00     0.118 C 
BRANCH   2   3
ATOM      3  N   UNL A   1      33.921  29.736  26.848  1.00  0.00    -0.352 N 
ATOM      4  O   UNL A   1      34.080  31.352  28.403  1.00  0.00    -0.269 OA
ATOM      5  C   UNL A   1      34.625  30.429  27.802  1.00  0.00     0.251 C 
ATOM      6  H   UNL A   1      33.071  30.150  26.571  1.00  0.00     0.163 HD
BRANCH   5   7
ATOM      7  C   UNL A   1      36.025  30.063  28.108  1.00  0.00     0.039 A 
ATOM      8  C   UNL A   1      37.050  30.329  27.196  1.00  0.00     0.014 A 
ATOM      9  C   UNL A   1      36.325  29.485  29.346  1.00  0.00     0.014 A 
ATOM     10  C   UNL A   1      38.345  29.901  27.464  1.00  0.00     0.010 A 
ATOM     11  C   UNL A   1      37.643  29.133  29.648  1.00  0.00     0.010 A 
ATOM     12  C   UNL A   1      38.661  29.318  28.701  1.00  0.00    -0.014 A 
BRANCH  12  13
ATOM     13  C   UNL A   1      40.075  28.989  29.004  1.00  0.00     0.031 A 
ATOM     14  C   UNL A   1      40.974  29.973  29.697  1.00  0.00     0.074 A 
ATOM     15  C   UNL A   1      40.536  27.770  28.663  1.00  0.00     0.049 A 
ATOM     16  N   UNL A   1      42.226  29.833  30.051  1.00  0.00    -0.248 NA
ATOM     17  C   UNL A   1      40.401  31.286  30.029  1.00  0.00     0.031 C 
ATOM     18  C   UNL A   1      39.759  26.742  27.963  1.00  0.00     0.029 A 
ATOM     19  N   UNL A   1      41.757  27.180  28.866  1.00  0.00    -0.354 N 
ATOM     20  C   UNL A   1      42.599  31.041  30.627  1.00  0.00     0.074 A 
ATOM     21  C   UNL A   1      41.444  31.912  30.558  1.00  0.00     0.031 C 
ATOM     22  C   UNL A   1      40.506  25.637  27.833  1.00  0.00     0.029 A 
ATOM     23  C   UNL A   1      41.830  25.893  28.389  1.00  0.00     0.049 A 
ATOM     24  H   UNL A   1      42.509  27.634  29.310  1.00  0.00     0.167 HD
ATOM     25  C   UNL A   1      43.793  31.387  31.167  1.00  0.00     0.037 A 
ATOM     26  C   UNL A   1      42.851  25.017  28.385  1.00  0.00     0.037 A 
ATOM     27  C   UNL A   1      44.931  30.506  31.247  1.00  0.00     0.049 A 
ATOM     28  C   UNL A   1      44.159  25.423  28.996  1.00  0.00     0.074 A 
ATOM     29  C   UNL A   1      46.170  30.749  31.814  1.00  0.00     0.029 A 
ATOM     30  N   UNL A   1      44.970  29.212  30.744  1.00  0.00    -0.354 N 
ATOM     31  N   UNL A   1      44.481  26.558  29.567  1.00  0.00    -0.248 NA
ATOM     32  C   UNL A   1      45.243  24.432  28.961  1.00  0.00     0.031 C 
ATOM     33  C   UNL A   1      46.968  29.615  31.623  1.00  0.00     0.029 A 
ATOM     34  C   UNL A   1      46.215  28.653  30.970  1.00  0.00     0.049 A 
ATOM     35  H   UNL A   1      44.220  28.760  30.293  1.00  0.00     0.167 HD
ATOM     36  C   UNL A   1      45.806  26.420  29.964  1.00  0.00     0.074 A 
ATOM     37  C   UNL A   1      46.216  25.081  29.587  1.00  0.00     0.031 C 
ATOM     38  C   UNL A   1      46.608  27.322  30.581  1.00  0.00     0.037 A 
BRANCH  25  39
ATOM     39  C   UNL A   1      43.937  32.785  31.702  1.00  0.00     0.058 A 
ATOM     40  C   UNL A   1      44.309  33.857  30.876  1.00  0.00     0.135 A 
ATOM     41  C   UNL A   1      43.667  33.061  33.052  1.00  0.00     0.135 A 
ATOM     42  F   UNL A   1      44.591  33.646  29.581  1.00  0.00    -0.206 F 
ATOM     43  C   UNL A   1      44.435  35.149  31.375  1.00  0.00     0.059 A 
ATOM     44  C   UNL A   1      43.768  34.350  33.569  1.00  0.00     0.059 A 
ATOM     45  F   UNL A   1      43.307  32.072  33.885  1.00  0.00    -0.206 F 
ATOM     46  C   UNL A   1      44.167  35.385  32.725  1.00  0.00     0.060 A 
BRANCH  46  47
ATOM     47  S   UNL A   1      44.345  37.065  33.363  1.00  0.00     0.124 S 
ATOM     48  O   UNL A   1      42.989  37.344  33.824  1.00  0.00    -0.237 OA
ATOM     49  O   UNL A   1      45.348  36.900  34.411  1.00  0.00    -0.237 OA
ATOM     50  O   UNL A   1      44.782  37.827  32.198  1.00  0.00    -0.744 OA
ENDBRANCH  46  47
ENDBRANCH  25  39
BRANCH  26  51
ATOM     51  C   UNL A   1      42.662  23.677  27.774  1.00  0.00     0.058 A 
ATOM     52  C   UNL A   1      42.795  23.489  26.392  1.00  0.00     0.135 A 
ATOM     53  C   UNL A   1      42.400  22.551  28.569  1.00  0.00     0.135 A 
ATOM     54  F   UNL A   1      43.044  24.536  25.592  1.00  0.00    -0.206 F 
ATOM     55  C   UNL A   1      42.672  22.228  25.816  1.00  0.00     0.059 A 
ATOM     56  C   UNL A   1      42.295  21.278  28.020  1.00  0.00     0.059 A 
ATOM     57  F   UNL A   1      42.284  22.681  29.900  1.00  0.00    -0.206 F 
ATOM     58  C   UNL A   1      42.426  21.129  26.640  1.00  0.00     0.060 A 
BRANCH  58  59
ATOM     59  S   UNL A   1      42.343  19.484  25.897  1.00  0.00     0.124 S 
ATOM     60  O   UNL A   1      43.222  19.639  24.745  1.00  0.00    -0.237 OA
ATOM     61  O   UNL A   1      42.842  18.633  26.972  1.00  0.00    -0.237 OA
ATOM     62  O   UNL A   1      40.923  19.328  25.594  1.00  0.00    -0.744 OA
ENDBRANCH  58  59
ENDBRANCH  26  51
BRANCH  38  63
ATOM     63  C   UNL A   1      48.010  26.882  30.891  1.00  0.00     0.058 A 
ATOM     64  C   UNL A   1      49.085  27.223  30.054  1.00  0.00     0.135 A 
ATOM     65  C   UNL A   1      48.284  26.142  32.050  1.00  0.00     0.135 A 
ATOM     66  F   UNL A   1      48.870  27.922  28.929  1.00  0.00    -0.206 F 
ATOM     67  C   UNL A   1      50.383  26.826  30.348  1.00  0.00     0.059 A 
ATOM     68  C   UNL A   1      49.581  25.753  32.373  1.00  0.00     0.059 A 
ATOM     69  F   UNL A   1      47.291  25.798  32.884  1.00  0.00    -0.206 F 
ATOM     70  C   UNL A   1      50.623  26.089  31.511  1.00  0.00     0.060 A 
BRANCH  70  71
ATOM     71  S   UNL A   1      52.316  25.602  31.898  1.00  0.00     0.124 S 
ATOM     72  O   UNL A   1      52.648  26.524  32.978  1.00  0.00    -0.237 OA
ATOM     73  O   UNL A   1      52.162  24.202  32.284  1.00  0.00    -0.237 OA
ATOM     74  O   UNL A   1      53.026  25.822  30.641  1.00  0.00    -0.744 OA
ENDBRANCH  70  71
ENDBRANCH  38  63
ENDBRANCH  12  13
ENDBRANCH   5   7
ENDBRANCH   2   3
ENDBRANCH   1   2
BRANCH   1  75
ATOM     75  C   UNL A   1      31.794  27.824  26.377  1.00  0.00     0.117 C 
BRANCH  75  76
ATOM     76  N   UNL A   1      30.871  26.758  26.717  1.00  0.00    -0.354 N 
ATOM     77  C   UNL A   1      30.093  25.966  25.916  1.00  0.00     0.247 C 
ATOM     78  H   UNL A   1      30.792  26.573  27.681  1.00  0.00     0.163 HD
ATOM     79  O   UNL A   1      29.206  25.302  26.464  1.00  0.00    -0.272 OA
BRANCH  77  80
ATOM     80  C   UNL A   1      30.224  25.993  24.353  1.00  0.00     0.211 C 
BRANCH  80  81
ATOM     81  C   UNL A   1      29.484  27.264  23.883  1.00  0.00    -0.016 A 
ATOM     82  C   UNL A   1      28.103  27.160  23.611  1.00  0.00     0.006 A 
ATOM     83  C   UNL A   1      30.064  28.541  23.797  1.00  0.00     0.006 A 
ATOM     84  C   UNL A   1      27.341  28.279  23.270  1.00  0.00     0.000 A 
ATOM     85  C   UNL A   1      29.307  29.656  23.420  1.00  0.00     0.000 A 
ATOM     86  C   UNL A   1      27.946  29.527  23.165  1.00  0.00     0.000 A 
ENDBRANCH  80  81
BRANCH  80  87
ATOM     87  N   UNL A   1      31.630  25.822  23.904  1.00  0.00    -0.276 N 
ATOM     88  C   UNL A   1      32.300  24.664  24.265  1.00  0.00     0.267 C 
ATOM     89  C   UNL A   1      32.208  26.387  22.794  1.00  0.00     0.149 C 
ATOM     90  O   UNL A   1      31.777  23.648  24.706  1.00  0.00    -0.268 OA
ATOM     91  C   UNL A   1      33.748  24.773  23.940  1.00  0.00     0.084 C 
ATOM     92  S   UNL A   1      33.952  26.105  22.862  1.00  0.00    -0.054 SA
ATOM     93  S   UNL A   1      31.495  27.151  21.495  1.00  0.00    -0.052 S 
ATOM     94  C   UNL A   1      34.764  24.016  24.377  1.00  0.00     0.068 C 
BRANCH  94  95
ATOM     95  C   UNL A   1      34.598  22.839  25.158  1.00  0.00     0.128 A 
ATOM     96  C   UNL A   1      34.551  22.717  26.542  1.00  0.00     0.051 A 
ATOM     97  O   UNL A   1      34.359  21.590  24.622  1.00  0.00    -0.457 OA
ATOM     98  C   UNL A   1      34.296  21.366  26.853  1.00  0.00     0.051 A 
ATOM     99  C   UNL A   1      34.186  20.709  25.652  1.00  0.00     0.134 A 
BRANCH  99 100
ATOM    100  C   UNL A   1      33.905  19.322  25.308  1.00  0.00     0.017 A 
ATOM    101  C   UNL A   1      32.699  18.709  25.676  1.00  0.00     0.015 A 
ATOM    102  C   UNL A   1      34.832  18.596  24.542  1.00  0.00     0.015 A 
ATOM    103  C   UNL A   1      32.420  17.399  25.271  1.00  0.00     0.040 A 
ATOM    104  C   UNL A   1      34.559  17.284  24.149  1.00  0.00     0.040 A 
ATOM    105  C   UNL A   1      33.353  16.700  24.512  1.00  0.00     0.123 A 
ATOM    106  F   UNL A   1      33.085  15.447  24.122  1.00  0.00    -0.207 F 
ENDBRANCH  99 100
ENDBRANCH  94  95
ENDBRANCH  80  87
ENDBRANCH  77  80
ENDBRANCH  75  76
ENDBRANCH   1  75
TORSDOF 17
ENDMDL
