MODEL 1
REMARK VINA RESULT:     -12.8      0.000      0.000
REMARK SMILES O=C(NCCCNC(=O)[C@H]1[C@H](C(=O)NC2CC[NH+](Cc3ccccc3)CC2)[C@H]2C=C[C@@H]1C2)c1ccc(-c2c3nc(c(-c4c(F)cc(S(=O)(=O)[O-])cc4F)c4ccc([nH]4)c(-c4c(F)cc(S(=O)(=O)[O-])cc4F)c4nc(c(-c5c(F)cc(S(=O)(=O)[O-])cc5F)c5ccc2[nH]5)C=C4)C=C3)cc1
REMARK SMILES IDX 5 1 4 2 3 3 1 4 2 5 33 7 34 8 98 9 35 10 97 11 36 12 37 13
REMARK SMILES IDX 38 14 91 15 39 16 96 17 90 18 92 19 40 20 95 21 89 22 88 23
REMARK SMILES IDX 41 25 75 26 54 27 74 28 55 29 58 30 73 31 93 32 56 33 57 34
REMARK SMILES IDX 72 36 94 37 59 38 42 39 43 40 52 41 44 42 45 43 51 44 53 45
REMARK SMILES IDX 46 46 47 47 48 48 49 49 50 50 76 51 77 52 86 53 78 54 79 55
REMARK SMILES IDX 85 56 87 57 80 58 81 59 82 60 83 61 84 62 60 63 61 64 70 65
REMARK SMILES IDX 62 66 63 67 69 68 71 69 64 70 65 71 66 72 67 73 68 74 6 75
REMARK SMILES IDX 7 76 8 77 9 79 10 80 11 81 31 82 28 83 30 84 32 85 29 86
REMARK SMILES IDX 12 87 13 88 14 89 15 91 16 92 27 93 17 94 26 95 18 96 19 98
REMARK SMILES IDX 20 99 21 100 25 101 22 102 24 103 23 104
REMARK H PARENT 3 6 92 24 58 35 7 78 14 90 18 97
REMARK Flexibility Score: inf
ROOT
ATOM      1  C   UNL A   1      37.781  20.506  25.032  1.00  0.00     0.042 C 
ENDROOT
BRANCH   1   2
ATOM      2  C   UNL A   1      39.040  20.975  25.761  1.00  0.00     0.118 C 
BRANCH   2   3
ATOM      3  N   UNL A   1      39.944  19.855  26.011  1.00  0.00    -0.352 N 
ATOM      4  O   UNL A   1      42.005  18.932  25.844  1.00  0.00    -0.269 OA
ATOM      5  C   UNL A   1      41.308  19.913  26.114  1.00  0.00     0.251 C 
ATOM      6  H   UNL A   1      39.530  18.967  26.118  1.00  0.00     0.163 HD
BRANCH   5   7
ATOM      7  C   UNL A   1      41.904  21.188  26.536  1.00  0.00     0.039 A 
ATOM      8  C   UNL A   1      42.133  22.157  25.558  1.00  0.00     0.014 A 
ATOM      9  C   UNL A   1      42.275  21.408  27.861  1.00  0.00     0.014 A 
ATOM     10  C   UNL A   1      42.908  23.257  25.853  1.00  0.00     0.010 A 
ATOM     11  C   UNL A   1      42.903  22.607  28.192  1.00  0.00     0.010 A 
ATOM     12  C   UNL A   1      43.234  23.530  27.184  1.00  0.00    -0.014 A 
BRANCH  12  13
ATOM     13  C   UNL A   1      43.806  24.853  27.506  1.00  0.00     0.031 A 
ATOM     14  C   UNL A   1      42.942  25.955  28.028  1.00  0.00     0.074 A 
ATOM     15  C   UNL A   1      45.126  25.030  27.298  1.00  0.00     0.049 A 
ATOM     16  N   UNL A   1      43.252  27.206  28.239  1.00  0.00    -0.248 NA
ATOM     17  C   UNL A   1      41.544  25.616  28.338  1.00  0.00     0.031 C 
ATOM     18  C   UNL A   1      46.049  24.000  26.804  1.00  0.00     0.029 A 
ATOM     19  N   UNL A   1      45.925  26.127  27.470  1.00  0.00    -0.354 N 
ATOM     20  C   UNL A   1      42.080  27.818  28.665  1.00  0.00     0.074 A 
ATOM     21  C   UNL A   1      41.050  26.801  28.670  1.00  0.00     0.031 C 
ATOM     22  C   UNL A   1      47.287  24.502  26.745  1.00  0.00     0.029 A 
ATOM     23  C   UNL A   1      47.226  25.915  27.084  1.00  0.00     0.049 A 
ATOM     24  H   UNL A   1      45.599  26.983  27.833  1.00  0.00     0.167 HD
ATOM     25  C   UNL A   1      41.897  29.114  29.012  1.00  0.00     0.037 A 
ATOM     26  C   UNL A   1      48.250  26.774  26.954  1.00  0.00     0.037 A 
ATOM     27  C   UNL A   1      42.954  30.093  28.994  1.00  0.00     0.049 A 
ATOM     28  C   UNL A   1      48.013  28.211  27.297  1.00  0.00     0.074 A 
ATOM     29  C   UNL A   1      42.896  31.430  29.343  1.00  0.00     0.029 A 
ATOM     30  N   UNL A   1      44.262  29.842  28.591  1.00  0.00    -0.354 N 
ATOM     31  N   UNL A   1      46.904  28.781  27.702  1.00  0.00    -0.248 NA
ATOM     32  C   UNL A   1      49.154  29.121  27.168  1.00  0.00     0.031 C 
ATOM     33  C   UNL A   1      44.149  31.999  29.095  1.00  0.00     0.029 A 
ATOM     34  C   UNL A   1      45.012  31.003  28.660  1.00  0.00     0.049 A 
ATOM     35  H   UNL A   1      44.604  28.966  28.300  1.00  0.00     0.167 HD
ATOM     36  C   UNL A   1      47.216  30.116  27.905  1.00  0.00     0.074 A 
ATOM     37  C   UNL A   1      48.621  30.266  27.575  1.00  0.00     0.031 C 
ATOM     38  C   UNL A   1      46.415  31.121  28.337  1.00  0.00     0.037 A 
BRANCH  25  39
ATOM     39  C   UNL A   1      40.501  29.547  29.375  1.00  0.00     0.058 A 
ATOM     40  C   UNL A   1      39.497  29.727  28.409  1.00  0.00     0.135 A 
ATOM     41  C   UNL A   1      40.166  29.798  30.716  1.00  0.00     0.135 A 
ATOM     42  F   UNL A   1      39.760  29.515  27.110  1.00  0.00    -0.206 F 
ATOM     43  C   UNL A   1      38.230  30.191  28.754  1.00  0.00     0.059 A 
ATOM     44  C   UNL A   1      38.896  30.228  31.088  1.00  0.00     0.059 A 
ATOM     45  F   UNL A   1      41.083  29.639  31.684  1.00  0.00    -0.206 F 
ATOM     46  C   UNL A   1      37.942  30.447  30.097  1.00  0.00     0.060 A 
BRANCH  46  47
ATOM     47  S   UNL A   1      36.309  31.087  30.523  1.00  0.00     0.124 S 
ATOM     48  O   UNL A   1      36.621  32.469  30.873  1.00  0.00    -0.237 OA
ATOM     49  O   UNL A   1      35.566  30.902  29.281  1.00  0.00    -0.237 OA
ATOM     50  O   UNL A   1      35.890  30.239  31.634  1.00  0.00    -0.744 OA
ENDBRANCH  46  47
ENDBRANCH  25  39
BRANCH  26  51
ATOM     51  C   UNL A   1      49.553  26.270  26.449  1.00  0.00     0.058 A 
ATOM     52  C   UNL A   1      49.896  26.385  25.097  1.00  0.00     0.135 A 
ATOM     53  C   UNL A   1      50.525  25.769  27.332  1.00  0.00     0.135 A 
ATOM     54  F   UNL A   1      49.002  26.862  24.217  1.00  0.00    -0.206 F 
ATOM     55  C   UNL A   1      51.158  26.026  24.635  1.00  0.00     0.059 A 
ATOM     56  C   UNL A   1      51.803  25.432  26.900  1.00  0.00     0.059 A 
ATOM     57  F   UNL A   1      50.255  25.669  28.644  1.00  0.00    -0.206 F 
ATOM     58  C   UNL A   1      52.108  25.562  25.548  1.00  0.00     0.060 A 
BRANCH  58  59
ATOM     59  S   UNL A   1      53.769  25.186  24.948  1.00  0.00     0.124 S 
ATOM     60  O   UNL A   1      53.723  23.731  24.851  1.00  0.00    -0.237 OA
ATOM     61  O   UNL A   1      53.807  25.910  23.681  1.00  0.00    -0.237 OA
ATOM     62  O   UNL A   1      54.635  25.722  25.994  1.00  0.00    -0.744 OA
ENDBRANCH  58  59
ENDBRANCH  26  51
BRANCH  38  63
ATOM     63  C   UNL A   1      47.050  32.467  28.537  1.00  0.00     0.058 A 
ATOM     64  C   UNL A   1      47.677  32.821  29.740  1.00  0.00     0.135 A 
ATOM     65  C   UNL A   1      47.112  33.374  27.466  1.00  0.00     0.135 A 
ATOM     66  F   UNL A   1      47.630  31.995  30.798  1.00  0.00    -0.206 F 
ATOM     67  C   UNL A   1      48.349  34.031  29.874  1.00  0.00     0.059 A 
ATOM     68  C   UNL A   1      47.803  34.574  27.569  1.00  0.00     0.059 A 
ATOM     69  F   UNL A   1      46.528  33.077  26.294  1.00  0.00    -0.206 F 
ATOM     70  C   UNL A   1      48.419  34.894  28.777  1.00  0.00     0.060 A 
BRANCH  70  71
ATOM     71  S   UNL A   1      49.370  36.418  28.938  1.00  0.00     0.124 S 
ATOM     72  O   UNL A   1      50.636  36.043  28.316  1.00  0.00    -0.237 OA
ATOM     73  O   UNL A   1      48.555  37.372  28.191  1.00  0.00    -0.237 OA
ATOM     74  O   UNL A   1      49.420  36.639  30.379  1.00  0.00    -0.744 OA
ENDBRANCH  70  71
ENDBRANCH  38  63
ENDBRANCH  12  13
ENDBRANCH   5   7
ENDBRANCH   2   3
ENDBRANCH   1   2
BRANCH   1  75
ATOM     75  C   UNL A   1      36.646  21.509  25.180  1.00  0.00     0.117 C 
BRANCH  75  76
ATOM     76  N   UNL A   1      35.466  20.827  25.649  1.00  0.00    -0.356 N 
ATOM     77  C   UNL A   1      34.429  21.534  26.170  1.00  0.00     0.224 C 
ATOM     78  H   UNL A   1      35.411  19.846  25.591  1.00  0.00     0.163 HD
ATOM     79  O   UNL A   1      34.087  21.278  27.330  1.00  0.00    -0.275 OA
BRANCH  77  80
ATOM     80  C   UNL A   1      33.651  22.520  25.302  1.00  0.00     0.098 C 
ATOM     81  C   UNL A   1      33.812  22.499  23.722  1.00  0.00     0.098 C 
ATOM     82  C   UNL A   1      32.195  21.945  25.496  1.00  0.00     0.025 C 
ATOM     83  C   UNL A   1      32.593  21.742  23.328  1.00  0.00     0.025 C 
ATOM     84  C   UNL A   1      32.221  20.463  25.170  1.00  0.00    -0.027 C 
ATOM     85  C   UNL A   1      31.548  22.406  24.234  1.00  0.00     0.017 C 
ATOM     86  C   UNL A   1      32.657  20.379  23.909  1.00  0.00    -0.027 C 
BRANCH  81  87
ATOM     87  C   UNL A   1      33.771  23.849  22.984  1.00  0.00     0.224 C 
ATOM     88  O   UNL A   1      33.846  23.826  21.747  1.00  0.00    -0.275 OA
ATOM     89  N   UNL A   1      33.633  25.099  23.542  1.00  0.00    -0.353 N 
ATOM     90  H   UNL A   1      33.697  25.753  22.810  1.00  0.00     0.163 HD
BRANCH  89  91
ATOM     91  C   UNL A   1      33.421  25.889  24.839  1.00  0.00     0.093 C 
ATOM     92  C   UNL A   1      32.052  25.968  25.557  1.00  0.00     0.086 C 
ATOM     93  C   UNL A   1      34.220  27.186  25.036  1.00  0.00     0.086 C 
ATOM     94  C   UNL A   1      31.470  27.396  25.786  1.00  0.00     0.264 C 
ATOM     95  C   UNL A   1      33.443  28.524  24.974  1.00  0.00     0.264 C 
ATOM     96  N   UNL A   1      31.987  28.414  24.871  1.00  0.00    -0.331 N 
ATOM     97  H   UNL A   1      31.774  28.084  23.929  1.00  0.00     0.348 HD
BRANCH  96  98
ATOM     98  C   UNL A   1      31.276  29.721  24.925  1.00  0.00     0.299 C 
BRANCH  98  99
ATOM     99  C   UNL A   1      30.065  29.875  23.993  1.00  0.00     0.006 A 
ATOM    100  C   UNL A   1      29.591  28.814  23.200  1.00  0.00     0.009 A 
ATOM    101  C   UNL A   1      29.346  31.088  23.940  1.00  0.00     0.009 A 
ATOM    102  C   UNL A   1      28.389  28.924  22.478  1.00  0.00     0.001 A 
ATOM    103  C   UNL A   1      28.144  31.199  23.217  1.00  0.00     0.001 A 
ATOM    104  C   UNL A   1      27.649  30.106  22.511  1.00  0.00     0.000 A 
ENDBRANCH  98  99
ENDBRANCH  96  98
ENDBRANCH  89  91
ENDBRANCH  81  87
ENDBRANCH  77  80
ENDBRANCH  75  76
ENDBRANCH   1  75
TORSDOF 17
ENDMDL
MODEL 2
REMARK VINA RESULT:     -12.7      2.667      8.403
REMARK SMILES O=C(NCCCNC(=O)[C@H]1[C@H](C(=O)NC2CC[NH+](Cc3ccccc3)CC2)[C@H]2C=C[C@@H]1C2)c1ccc(-c2c3nc(c(-c4c(F)cc(S(=O)(=O)[O-])cc4F)c4ccc([nH]4)c(-c4c(F)cc(S(=O)(=O)[O-])cc4F)c4nc(c(-c5c(F)cc(S(=O)(=O)[O-])cc5F)c5ccc2[nH]5)C=C4)C=C3)cc1
REMARK SMILES IDX 5 1 4 2 3 3 1 4 2 5 33 7 34 8 98 9 35 10 97 11 36 12 37 13
REMARK SMILES IDX 38 14 91 15 39 16 96 17 90 18 92 19 40 20 95 21 89 22 88 23
REMARK SMILES IDX 41 25 75 26 54 27 74 28 55 29 58 30 73 31 93 32 56 33 57 34
REMARK SMILES IDX 72 36 94 37 59 38 42 39 43 40 52 41 44 42 45 43 51 44 53 45
REMARK SMILES IDX 46 46 47 47 48 48 49 49 50 50 76 51 77 52 86 53 78 54 79 55
REMARK SMILES IDX 85 56 87 57 80 58 81 59 82 60 83 61 84 62 60 63 61 64 70 65
REMARK SMILES IDX 62 66 63 67 69 68 71 69 64 70 65 71 66 72 67 73 68 74 6 75
REMARK SMILES IDX 7 76 8 77 9 79 10 80 11 81 31 82 28 83 30 84 32 85 29 86
REMARK SMILES IDX 12 87 13 88 14 89 15 91 16 92 27 93 17 94 26 95 18 96 19 98
REMARK SMILES IDX 20 99 21 100 25 101 22 102 24 103 23 104
REMARK H PARENT 3 6 92 24 58 35 7 78 14 90 18 97
REMARK Flexibility Score: inf
ROOT
ATOM      1  C   UNL A   1      33.435  28.422  26.679  1.00  0.00     0.042 C 
ENDROOT
BRANCH   1   2
ATOM      2  C   UNL A   1      34.714  28.948  27.329  1.00  0.00     0.118 C 
BRANCH   2   3
ATOM      3  N   UNL A   1      34.472  30.230  27.989  1.00  0.00    -0.352 N 
ATOM      4  O   UNL A   1      34.725  31.577  29.792  1.00  0.00    -0.269 OA
ATOM      5  C   UNL A   1      35.226  30.790  28.985  1.00  0.00     0.251 C 
ATOM      6  H   UNL A   1      33.687  30.743  27.686  1.00  0.00     0.163 HD
BRANCH   5   7
ATOM      7  C   UNL A   1      36.641  30.404  29.066  1.00  0.00     0.039 A 
ATOM      8  C   UNL A   1      37.408  30.489  27.902  1.00  0.00     0.014 A 
ATOM      9  C   UNL A   1      37.192  29.924  30.251  1.00  0.00     0.014 A 
ATOM     10  C   UNL A   1      38.658  29.911  27.863  1.00  0.00     0.010 A 
ATOM     11  C   UNL A   1      38.521  29.504  30.252  1.00  0.00     0.010 A 
ATOM     12  C   UNL A   1      39.254  29.483  29.053  1.00  0.00    -0.014 A 
BRANCH  12  13
ATOM     13  C   UNL A   1      40.691  29.143  29.031  1.00  0.00     0.031 A 
ATOM     14  C   UNL A   1      41.729  30.180  29.319  1.00  0.00     0.074 A 
ATOM     15  C   UNL A   1      41.027  27.873  28.729  1.00  0.00     0.049 A 
ATOM     16  N   UNL A   1      43.027  30.086  29.217  1.00  0.00    -0.248 NA
ATOM     17  C   UNL A   1      41.249  31.499  29.760  1.00  0.00     0.031 C 
ATOM     18  C   UNL A   1      40.075  26.790  28.450  1.00  0.00     0.029 A 
ATOM     19  N   UNL A   1      42.250  27.272  28.605  1.00  0.00    -0.354 N 
ATOM     20  C   UNL A   1      43.522  31.343  29.540  1.00  0.00     0.074 A 
ATOM     21  C   UNL A   1      42.381  32.185  29.827  1.00  0.00     0.031 C 
ATOM     22  C   UNL A   1      40.745  25.656  28.220  1.00  0.00     0.029 A 
ATOM     23  C   UNL A   1      42.168  25.955  28.223  1.00  0.00     0.049 A 
ATOM     24  H   UNL A   1      43.102  27.737  28.772  1.00  0.00     0.167 HD
ATOM     25  C   UNL A   1      44.815  31.742  29.581  1.00  0.00     0.037 A 
ATOM     26  C   UNL A   1      43.128  25.092  27.850  1.00  0.00     0.037 A 
ATOM     27  C   UNL A   1      45.922  30.867  29.289  1.00  0.00     0.049 A 
ATOM     28  C   UNL A   1      44.546  25.568  27.858  1.00  0.00     0.074 A 
ATOM     29  C   UNL A   1      47.275  31.149  29.318  1.00  0.00     0.029 A 
ATOM     30  N   UNL A   1      45.800  29.537  28.898  1.00  0.00    -0.354 N 
ATOM     31  N   UNL A   1      45.006  26.756  28.166  1.00  0.00    -0.248 NA
ATOM     32  C   UNL A   1      45.574  24.599  27.470  1.00  0.00     0.031 C 
ATOM     33  C   UNL A   1      47.967  30.012  28.889  1.00  0.00     0.029 A 
ATOM     34  C   UNL A   1      47.051  28.995  28.661  1.00  0.00     0.049 A 
ATOM     35  H   UNL A   1      44.948  29.052  28.805  1.00  0.00     0.167 HD
ATOM     36  C   UNL A   1      46.384  26.674  28.039  1.00  0.00     0.074 A 
ATOM     37  C   UNL A   1      46.679  25.316  27.620  1.00  0.00     0.031 C 
ATOM     38  C   UNL A   1      47.317  27.633  28.258  1.00  0.00     0.037 A 
BRANCH  25  39
ATOM     39  C   UNL A   1      45.087  33.190  29.894  1.00  0.00     0.058 A 
ATOM     40  C   UNL A   1      45.385  33.633  31.193  1.00  0.00     0.135 A 
ATOM     41  C   UNL A   1      45.037  34.154  28.873  1.00  0.00     0.135 A 
ATOM     42  F   UNL A   1      45.435  32.760  32.212  1.00  0.00    -0.206 F 
ATOM     43  C   UNL A   1      45.569  34.984  31.478  1.00  0.00     0.059 A 
ATOM     44  C   UNL A   1      45.252  35.505  29.128  1.00  0.00     0.059 A 
ATOM     45  F   UNL A   1      44.760  33.790  27.611  1.00  0.00    -0.206 F 
ATOM     46  C   UNL A   1      45.493  35.914  30.438  1.00  0.00     0.060 A 
BRANCH  46  47
ATOM     47  S   UNL A   1      45.692  37.664  30.829  1.00  0.00     0.124 S 
ATOM     48  O   UNL A   1      46.328  37.599  32.141  1.00  0.00    -0.237 OA
ATOM     49  O   UNL A   1      46.540  38.134  29.738  1.00  0.00    -0.237 OA
ATOM     50  O   UNL A   1      44.325  38.174  30.820  1.00  0.00    -0.744 OA
ENDBRANCH  46  47
ENDBRANCH  25  39
BRANCH  26  51
ATOM     51  C   UNL A   1      42.739  23.724  27.420  1.00  0.00     0.058 A 
ATOM     52  C   UNL A   1      42.653  23.392  26.063  1.00  0.00     0.135 A 
ATOM     53  C   UNL A   1      42.559  22.695  28.361  1.00  0.00     0.135 A 
ATOM     54  F   UNL A   1      42.822  24.340  25.128  1.00  0.00    -0.206 F 
ATOM     55  C   UNL A   1      42.407  22.086  25.650  1.00  0.00     0.059 A 
ATOM     56  C   UNL A   1      42.342  21.378  27.972  1.00  0.00     0.059 A 
ATOM     57  F   UNL A   1      42.663  22.958  29.673  1.00  0.00    -0.206 F 
ATOM     58  C   UNL A   1      42.265  21.084  26.613  1.00  0.00     0.060 A 
BRANCH  58  59
ATOM     59  S   UNL A   1      42.036  19.382  26.059  1.00  0.00     0.124 S 
ATOM     60  O   UNL A   1      42.386  18.633  27.262  1.00  0.00    -0.237 OA
ATOM     61  O   UNL A   1      40.625  19.369  25.687  1.00  0.00    -0.237 OA
ATOM     62  O   UNL A   1      42.972  19.260  24.945  1.00  0.00    -0.744 OA
ENDBRANCH  58  59
ENDBRANCH  26  51
BRANCH  38  63
ATOM     63  C   UNL A   1      48.758  27.235  28.110  1.00  0.00     0.058 A 
ATOM     64  C   UNL A   1      49.445  27.373  26.896  1.00  0.00     0.135 A 
ATOM     65  C   UNL A   1      49.479  26.802  29.235  1.00  0.00     0.135 A 
ATOM     66  F   UNL A   1      48.796  27.767  25.789  1.00  0.00    -0.206 F 
ATOM     67  C   UNL A   1      50.805  27.096  26.803  1.00  0.00     0.059 A 
ATOM     68  C   UNL A   1      50.843  26.548  29.170  1.00  0.00     0.059 A 
ATOM     69  F   UNL A   1      48.863  26.657  30.419  1.00  0.00    -0.206 F 
ATOM     70  C   UNL A   1      51.498  26.699  27.949  1.00  0.00     0.060 A 
BRANCH  70  71
ATOM     71  S   UNL A   1      53.278  26.431  27.833  1.00  0.00     0.124 S 
ATOM     72  O   UNL A   1      53.732  27.701  27.275  1.00  0.00    -0.237 OA
ATOM     73  O   UNL A   1      53.645  26.181  29.224  1.00  0.00    -0.237 OA
ATOM     74  O   UNL A   1      53.392  25.279  26.944  1.00  0.00    -0.744 OA
ENDBRANCH  70  71
ENDBRANCH  38  63
ENDBRANCH  12  13
ENDBRANCH   5   7
ENDBRANCH   2   3
ENDBRANCH   1   2
BRANCH   1  75
ATOM     75  C   UNL A   1      32.935  29.364  25.593  1.00  0.00     0.117 C 
BRANCH  75  76
ATOM     76  N   UNL A   1      31.544  29.095  25.333  1.00  0.00    -0.356 N 
ATOM     77  C   UNL A   1      31.104  28.934  24.057  1.00  0.00     0.224 C 
ATOM     78  H   UNL A   1      30.908  29.026  26.083  1.00  0.00     0.163 HD
ATOM     79  O   UNL A   1      30.224  29.702  23.653  1.00  0.00    -0.275 OA
BRANCH  77  80
ATOM     80  C   UNL A   1      31.605  27.770  23.207  1.00  0.00     0.098 C 
ATOM     81  C   UNL A   1      32.483  26.617  23.861  1.00  0.00     0.098 C 
ATOM     82  C   UNL A   1      30.236  27.033  22.941  1.00  0.00     0.025 C 
ATOM     83  C   UNL A   1      31.453  25.563  24.060  1.00  0.00     0.025 C 
ATOM     84  C   UNL A   1      29.556  26.795  24.276  1.00  0.00    -0.027 C 
ATOM     85  C   UNL A   1      30.713  25.638  22.719  1.00  0.00     0.017 C 
ATOM     86  C   UNL A   1      30.416  26.065  24.994  1.00  0.00    -0.027 C 
BRANCH  81  87
ATOM     87  C   UNL A   1      33.606  26.005  23.006  1.00  0.00     0.224 C 
ATOM     88  O   UNL A   1      33.719  26.405  21.838  1.00  0.00    -0.275 OA
ATOM     89  N   UNL A   1      34.534  25.068  23.398  1.00  0.00    -0.353 N 
ATOM     90  H   UNL A   1      35.078  24.848  22.608  1.00  0.00     0.163 HD
BRANCH  89  91
ATOM     91  C   UNL A   1      35.068  24.226  24.564  1.00  0.00     0.093 C 
ATOM     92  C   UNL A   1      35.924  22.953  24.354  1.00  0.00     0.086 C 
ATOM     93  C   UNL A   1      34.201  24.104  25.825  1.00  0.00     0.086 C 
ATOM     94  C   UNL A   1      35.375  21.638  24.985  1.00  0.00     0.264 C 
ATOM     95  C   UNL A   1      33.545  22.732  26.115  1.00  0.00     0.264 C 
ATOM     96  N   UNL A   1      33.932  21.636  25.224  1.00  0.00    -0.331 N 
ATOM     97  H   UNL A   1      33.494  21.814  24.320  1.00  0.00     0.348 HD
BRANCH  96  98
ATOM     98  C   UNL A   1      33.363  20.315  25.607  1.00  0.00     0.299 C 
BRANCH  98  99
ATOM     99  C   UNL A   1      33.483  19.196  24.561  1.00  0.00     0.006 A 
ATOM    100  C   UNL A   1      34.459  18.188  24.651  1.00  0.00     0.009 A 
ATOM    101  C   UNL A   1      32.569  19.112  23.489  1.00  0.00     0.009 A 
ATOM    102  C   UNL A   1      34.451  17.085  23.778  1.00  0.00     0.001 A 
ATOM    103  C   UNL A   1      32.561  18.009  22.615  1.00  0.00     0.001 A 
ATOM    104  C   UNL A   1      33.483  16.979  22.779  1.00  0.00     0.000 A 
ENDBRANCH  98  99
ENDBRANCH  96  98
ENDBRANCH  89  91
ENDBRANCH  81  87
ENDBRANCH  77  80
ENDBRANCH  75  76
ENDBRANCH   1  75
TORSDOF 17
ENDMDL
MODEL 3
REMARK VINA RESULT:     -12.7      5.166     11.565
REMARK SMILES O=C(NCCCNC(=O)[C@H]1[C@H](C(=O)NC2CC[NH+](Cc3ccccc3)CC2)[C@H]2C=C[C@@H]1C2)c1ccc(-c2c3nc(c(-c4c(F)cc(S(=O)(=O)[O-])cc4F)c4ccc([nH]4)c(-c4c(F)cc(S(=O)(=O)[O-])cc4F)c4nc(c(-c5c(F)cc(S(=O)(=O)[O-])cc5F)c5ccc2[nH]5)C=C4)C=C3)cc1
REMARK SMILES IDX 5 1 4 2 3 3 1 4 2 5 33 7 34 8 98 9 35 10 97 11 36 12 37 13
REMARK SMILES IDX 38 14 91 15 39 16 96 17 90 18 92 19 40 20 95 21 89 22 88 23
REMARK SMILES IDX 41 25 75 26 54 27 74 28 55 29 58 30 73 31 93 32 56 33 57 34
REMARK SMILES IDX 72 36 94 37 59 38 42 39 43 40 52 41 44 42 45 43 51 44 53 45
REMARK SMILES IDX 46 46 47 47 48 48 49 49 50 50 76 51 77 52 86 53 78 54 79 55
REMARK SMILES IDX 85 56 87 57 80 58 81 59 82 60 83 61 84 62 60 63 61 64 70 65
REMARK SMILES IDX 62 66 63 67 69 68 71 69 64 70 65 71 66 72 67 73 68 74 6 75
REMARK SMILES IDX 7 76 8 77 9 79 10 80 11 81 31 82 28 83 30 84 32 85 29 86
REMARK SMILES IDX 12 87 13 88 14 89 15 91 16 92 27 93 17 94 26 95 18 96 19 98
REMARK SMILES IDX 20 99 21 100 25 101 22 102 24 103 23 104
REMARK H PARENT 3 6 92 24 58 35 7 78 14 90 18 97
REMARK Flexibility Score: inf
ROOT
ATOM      1  C   UNL A   1      42.009  22.186  26.329  1.00  0.00     0.042 C 
ENDROOT
BRANCH   1   2
ATOM      2  C   UNL A   1      40.683  21.619  26.835  1.00  0.00     0.118 C 
BRANCH   2   3
ATOM      3  N   UNL A   1      39.590  21.966  25.928  1.00  0.00    -0.352 N 
ATOM      4  O   UNL A   1      37.620  23.020  25.556  1.00  0.00    -0.269 OA
ATOM      5  C   UNL A   1      38.760  23.050  26.027  1.00  0.00     0.251 C 
ATOM      6  H   UNL A   1      39.435  21.357  25.169  1.00  0.00     0.163 HD
BRANCH   5   7
ATOM      7  C   UNL A   1      39.271  24.236  26.728  1.00  0.00     0.039 A 
ATOM      8  C   UNL A   1      38.949  24.384  28.079  1.00  0.00     0.014 A 
ATOM      9  C   UNL A   1      40.011  25.208  26.059  1.00  0.00     0.014 A 
ATOM     10  C   UNL A   1      39.188  25.584  28.712  1.00  0.00     0.010 A 
ATOM     11  C   UNL A   1      40.408  26.347  26.756  1.00  0.00     0.010 A 
ATOM     12  C   UNL A   1      39.985  26.544  28.082  1.00  0.00    -0.014 A 
BRANCH  12  13
ATOM     13  C   UNL A   1      40.467  27.686  28.885  1.00  0.00     0.031 A 
ATOM     14  C   UNL A   1      41.791  27.632  29.577  1.00  0.00     0.074 A 
ATOM     15  C   UNL A   1      39.666  28.765  28.982  1.00  0.00     0.049 A 
ATOM     16  N   UNL A   1      42.308  28.484  30.420  1.00  0.00    -0.248 NA
ATOM     17  C   UNL A   1      42.639  26.461  29.302  1.00  0.00     0.031 C 
ATOM     18  C   UNL A   1      38.360  28.909  28.324  1.00  0.00     0.029 A 
ATOM     19  N   UNL A   1      39.819  29.942  29.662  1.00  0.00    -0.354 N 
ATOM     20  C   UNL A   1      43.523  27.937  30.812  1.00  0.00     0.074 A 
ATOM     21  C   UNL A   1      43.658  26.671  30.123  1.00  0.00     0.031 C 
ATOM     22  C   UNL A   1      37.850  30.112  28.605  1.00  0.00     0.029 A 
ATOM     23  C   UNL A   1      38.733  30.776  29.551  1.00  0.00     0.049 A 
ATOM     24  H   UNL A   1      40.626  30.168  30.179  1.00  0.00     0.167 HD
ATOM     25  C   UNL A   1      44.429  28.455  31.675  1.00  0.00     0.037 A 
ATOM     26  C   UNL A   1      38.443  31.924  30.187  1.00  0.00     0.037 A 
ATOM     27  C   UNL A   1      44.253  29.723  32.339  1.00  0.00     0.049 A 
ATOM     28  C   UNL A   1      39.437  32.454  31.171  1.00  0.00     0.074 A 
ATOM     29  C   UNL A   1      45.109  30.362  33.216  1.00  0.00     0.029 A 
ATOM     30  N   UNL A   1      43.135  30.540  32.205  1.00  0.00    -0.354 N 
ATOM     31  N   UNL A   1      40.584  31.933  31.535  1.00  0.00    -0.248 NA
ATOM     32  C   UNL A   1      39.106  33.719  31.833  1.00  0.00     0.031 C 
ATOM     33  C   UNL A   1      44.484  31.532  33.659  1.00  0.00     0.029 A 
ATOM     34  C   UNL A   1      43.269  31.663  33.003  1.00  0.00     0.049 A 
ATOM     35  H   UNL A   1      42.361  30.347  31.627  1.00  0.00     0.167 HD
ATOM     36  C   UNL A   1      41.130  32.819  32.449  1.00  0.00     0.074 A 
ATOM     37  C   UNL A   1      40.183  33.910  32.584  1.00  0.00     0.031 C 
ATOM     38  C   UNL A   1      42.313  32.742  33.108  1.00  0.00     0.037 A 
BRANCH  25  39
ATOM     39  C   UNL A   1      45.645  27.625  31.989  1.00  0.00     0.058 A 
ATOM     40  C   UNL A   1      45.683  26.729  33.070  1.00  0.00     0.135 A 
ATOM     41  C   UNL A   1      46.801  27.739  31.197  1.00  0.00     0.135 A 
ATOM     42  F   UNL A   1      44.614  26.586  33.869  1.00  0.00    -0.206 F 
ATOM     43  C   UNL A   1      46.838  26.017  33.386  1.00  0.00     0.059 A 
ATOM     44  C   UNL A   1      47.954  27.011  31.474  1.00  0.00     0.059 A 
ATOM     45  F   UNL A   1      46.823  28.577  30.149  1.00  0.00    -0.206 F 
ATOM     46  C   UNL A   1      47.972  26.172  32.586  1.00  0.00     0.060 A 
BRANCH  46  47
ATOM     47  S   UNL A   1      49.473  25.275  33.032  1.00  0.00     0.124 S 
ATOM     48  O   UNL A   1      48.928  24.153  33.788  1.00  0.00    -0.237 OA
ATOM     49  O   UNL A   1      50.040  24.944  31.729  1.00  0.00    -0.237 OA
ATOM     50  O   UNL A   1      50.232  26.247  33.813  1.00  0.00    -0.744 OA
ENDBRANCH  46  47
ENDBRANCH  25  39
BRANCH  26  51
ATOM     51  C   UNL A   1      37.146  32.593  29.910  1.00  0.00     0.058 A 
ATOM     52  C   UNL A   1      35.997  32.267  30.640  1.00  0.00     0.135 A 
ATOM     53  C   UNL A   1      37.061  33.651  28.989  1.00  0.00     0.135 A 
ATOM     54  F   UNL A   1      36.031  31.268  31.535  1.00  0.00    -0.206 F 
ATOM     55  C   UNL A   1      34.808  32.970  30.472  1.00  0.00     0.059 A 
ATOM     56  C   UNL A   1      35.893  34.387  28.825  1.00  0.00     0.059 A 
ATOM     57  F   UNL A   1      38.144  34.021  28.287  1.00  0.00    -0.206 F 
ATOM     58  C   UNL A   1      34.770  34.036  29.571  1.00  0.00     0.060 A 
BRANCH  58  59
ATOM     59  S   UNL A   1      33.247  34.994  29.430  1.00  0.00     0.124 S 
ATOM     60  O   UNL A   1      33.754  36.288  28.986  1.00  0.00    -0.237 OA
ATOM     61  O   UNL A   1      32.496  34.229  28.439  1.00  0.00    -0.237 OA
ATOM     62  O   UNL A   1      32.700  34.960  30.783  1.00  0.00    -0.744 OA
ENDBRANCH  58  59
ENDBRANCH  26  51
BRANCH  38  63
ATOM     63  C   UNL A   1      42.684  33.897  33.992  1.00  0.00     0.058 A 
ATOM     64  C   UNL A   1      42.459  33.876  35.375  1.00  0.00     0.135 A 
ATOM     65  C   UNL A   1      43.365  34.999  33.448  1.00  0.00     0.135 A 
ATOM     66  F   UNL A   1      41.797  32.853  35.939  1.00  0.00    -0.206 F 
ATOM     67  C   UNL A   1      42.901  34.910  36.193  1.00  0.00     0.059 A 
ATOM     68  C   UNL A   1      43.841  36.027  34.250  1.00  0.00     0.059 A 
ATOM     69  F   UNL A   1      43.605  35.062  32.128  1.00  0.00    -0.206 F 
ATOM     70  C   UNL A   1      43.604  35.974  35.623  1.00  0.00     0.060 A 
BRANCH  70  71
ATOM     71  S   UNL A   1      44.250  37.263  36.707  1.00  0.00     0.124 S 
ATOM     72  O   UNL A   1      45.421  36.607  37.281  1.00  0.00    -0.237 OA
ATOM     73  O   UNL A   1      44.525  38.348  35.770  1.00  0.00    -0.237 OA
ATOM     74  O   UNL A   1      43.151  37.509  37.637  1.00  0.00    -0.744 OA
ENDBRANCH  70  71
ENDBRANCH  38  63
ENDBRANCH  12  13
ENDBRANCH   5   7
ENDBRANCH   2   3
ENDBRANCH   1   2
BRANCH   1  75
ATOM     75  C   UNL A   1      42.727  22.975  27.414  1.00  0.00     0.117 C 
BRANCH  75  76
ATOM     76  N   UNL A   1      44.148  22.769  27.291  1.00  0.00    -0.356 N 
ATOM     77  C   UNL A   1      44.765  22.953  26.094  1.00  0.00     0.224 C 
ATOM     78  H   UNL A   1      44.674  22.494  28.076  1.00  0.00     0.163 HD
ATOM     79  O   UNL A   1      45.373  21.993  25.608  1.00  0.00    -0.275 OA
BRANCH  77  80
ATOM     80  C   UNL A   1      44.794  24.334  25.444  1.00  0.00     0.098 C 
ATOM     81  C   UNL A   1      44.531  25.637  26.314  1.00  0.00     0.098 C 
ATOM     82  C   UNL A   1      46.338  24.445  25.138  1.00  0.00     0.025 C 
ATOM     83  C   UNL A   1      45.925  26.107  26.539  1.00  0.00     0.025 C 
ATOM     84  C   UNL A   1      47.099  24.164  26.420  1.00  0.00    -0.027 C 
ATOM     85  C   UNL A   1      46.511  25.926  25.133  1.00  0.00     0.017 C 
ATOM     86  C   UNL A   1      46.670  25.075  27.301  1.00  0.00    -0.027 C 
BRANCH  81  87
ATOM     87  C   UNL A   1      43.760  26.792  25.651  1.00  0.00     0.224 C 
ATOM     88  O   UNL A   1      43.016  26.512  24.701  1.00  0.00    -0.275 OA
ATOM     89  N   UNL A   1      43.779  28.120  26.012  1.00  0.00    -0.353 N 
ATOM     90  H   UNL A   1      43.223  28.606  25.362  1.00  0.00     0.163 HD
BRANCH  89  91
ATOM     91  C   UNL A   1      44.311  29.152  27.013  1.00  0.00     0.093 C 
ATOM     92  C   UNL A   1      43.435  30.292  27.588  1.00  0.00     0.086 C 
ATOM     93  C   UNL A   1      45.776  29.598  26.885  1.00  0.00     0.086 C 
ATOM     94  C   UNL A   1      43.952  31.745  27.363  1.00  0.00     0.264 C 
ATOM     95  C   UNL A   1      46.046  31.040  26.394  1.00  0.00     0.264 C 
ATOM     96  N   UNL A   1      44.868  31.893  26.231  1.00  0.00    -0.331 N 
ATOM     97  H   UNL A   1      44.363  31.558  25.411  1.00  0.00     0.348 HD
BRANCH  96  98
ATOM     98  C   UNL A   1      45.185  33.301  25.865  1.00  0.00     0.299 C 
BRANCH  98  99
ATOM     99  C   UNL A   1      44.342  34.387  26.550  1.00  0.00     0.006 A 
ATOM    100  C   UNL A   1      43.202  34.945  25.944  1.00  0.00     0.009 A 
ATOM    101  C   UNL A   1      44.658  34.828  27.853  1.00  0.00     0.009 A 
ATOM    102  C   UNL A   1      42.353  35.816  26.650  1.00  0.00     0.001 A 
ATOM    103  C   UNL A   1      43.809  35.700  28.560  1.00  0.00     0.001 A 
ATOM    104  C   UNL A   1      42.640  36.170  27.969  1.00  0.00     0.000 A 
ENDBRANCH  98  99
ENDBRANCH  96  98
ENDBRANCH  89  91
ENDBRANCH  81  87
ENDBRANCH  77  80
ENDBRANCH  75  76
ENDBRANCH   1  75
TORSDOF 17
ENDMDL
