MODEL 1
REMARK VINA RESULT:     -10.8      0.000      0.000
REMARK SMILES C[C@H](NC(=O)c1ccc(C(C)(C)C)cc1)C(=O)N[C@@H](C(=O)NCCCNC(=O)c1ccc(-c2c3nc(c(-c4c(F)cc(S(=O)(=O)[O-])cc4F)c4ccc([nH]4)c(-c4c(F)cc(S(=O)(=O)[O-])cc4F)c4nc(c(-c5c(F)cc(S(=O)(=O)[O-])cc5F)c5ccc2[nH]5)C=C4)C=C3)cc1)[C@H](C)O
REMARK SMILES IDX 23 1 22 2 20 3 21 4 19 6 18 7 16 8 17 9 2 11 1 12 3 13 4 14
REMARK SMILES IDX 5 16 6 17 7 18 15 19 8 20 14 21 9 22 10 23 11 24 12 25 13 26
REMARK SMILES IDX 95 27 96 28 97 29 24 31 25 32 26 33 27 34 28 36 29 37 30 38
REMARK SMILES IDX 94 39 31 40 93 41 32 42 33 43 34 44 87 45 35 46 92 47 86 48
REMARK SMILES IDX 88 49 36 50 91 51 85 52 84 53 37 55 71 56 50 57 70 58 51 59
REMARK SMILES IDX 54 60 69 61 89 62 52 63 53 64 68 66 90 67 55 68 38 69 39 70
REMARK SMILES IDX 48 71 40 72 41 73 47 74 49 75 42 76 43 77 44 78 45 79 46 80
REMARK SMILES IDX 72 81 73 82 82 83 74 84 75 85 81 86 83 87 76 88 77 89 78 90
REMARK SMILES IDX 79 91 80 92 56 93 57 94 66 95 58 96 59 97 65 98 67 99 60 100
REMARK SMILES IDX 61 101 62 102 63 103 64 104
REMARK H PARENT 22 5 18 10 3 15 97 30 26 35 88 54 54 65
REMARK Flexibility Score: inf
ROOT
ATOM      1  C   UNL A   1      34.788  30.113  27.784  1.00  0.00     0.117 C 
ENDROOT
BRANCH   1   2
ATOM      2  N   UNL A   1      33.446  30.607  27.540  1.00  0.00    -0.354 N 
ATOM      3  C   UNL A   1      32.418  30.132  26.787  1.00  0.00     0.245 C 
ATOM      4  O   UNL A   1      31.357  30.768  26.866  1.00  0.00    -0.273 OA
ATOM      5  H   UNL A   1      33.242  31.448  28.008  1.00  0.00     0.163 HD
BRANCH   3   6
ATOM      6  C   UNL A   1      32.470  28.787  26.010  1.00  0.00     0.200 C 
BRANCH   6   7
ATOM      7  N   UNL A   1      31.633  28.776  24.815  1.00  0.00    -0.340 N 
ATOM      8  C   UNL A   1      31.850  28.309  23.557  1.00  0.00     0.243 C 
ATOM      9  O   UNL A   1      30.883  28.312  22.789  1.00  0.00    -0.273 OA
ATOM     10  H   UNL A   1      30.746  29.181  24.943  1.00  0.00     0.164 HD
BRANCH   8  11
ATOM     11  C   UNL A   1      33.216  27.773  23.067  1.00  0.00     0.168 C 
ATOM     12  C   UNL A   1      34.321  28.815  23.033  1.00  0.00     0.041 C 
BRANCH  11  13
ATOM     13  N   UNL A   1      33.126  27.052  21.788  1.00  0.00    -0.341 N 
ATOM     14  C   UNL A   1      33.042  25.706  21.554  1.00  0.00     0.251 C 
ATOM     15  H   UNL A   1      33.128  27.620  20.984  1.00  0.00     0.164 HD
ATOM     16  O   UNL A   1      32.971  25.274  20.414  1.00  0.00    -0.269 OA
BRANCH  14  17
ATOM     17  C   UNL A   1      33.185  24.782  22.698  1.00  0.00     0.039 A 
ATOM     18  C   UNL A   1      32.029  24.158  23.155  1.00  0.00     0.014 A 
ATOM     19  C   UNL A   1      34.433  24.438  23.209  1.00  0.00     0.014 A 
ATOM     20  C   UNL A   1      32.143  23.082  24.031  1.00  0.00     0.005 A 
ATOM     21  C   UNL A   1      34.534  23.346  24.071  1.00  0.00     0.005 A 
ATOM     22  C   UNL A   1      33.400  22.603  24.444  1.00  0.00    -0.043 A 
BRANCH  22  23
ATOM     23  C   UNL A   1      33.499  21.288  25.237  1.00  0.00    -0.013 C 
ATOM     24  C   UNL A   1      33.567  21.605  26.740  1.00  0.00     0.016 C 
ATOM     25  C   UNL A   1      32.258  20.406  24.954  1.00  0.00     0.016 C 
ATOM     26  C   UNL A   1      34.733  20.435  24.863  1.00  0.00     0.016 C 
ENDBRANCH  22  23
ENDBRANCH  14  17
ENDBRANCH  11  13
ENDBRANCH   8  11
ENDBRANCH   6   7
BRANCH   6  27
ATOM     27  C   UNL A   1      32.036  27.656  26.994  1.00  0.00     0.143 C 
ATOM     28  C   UNL A   1      31.277  26.505  26.343  1.00  0.00     0.041 C 
BRANCH  27  29
ATOM     29  O   UNL A   1      31.171  28.183  28.011  1.00  0.00    -0.391 OA
ATOM     30  H   UNL A   1      31.669  28.286  28.838  1.00  0.00     0.211 HD
ENDBRANCH  27  29
ENDBRANCH   6  27
ENDBRANCH   3   6
ENDBRANCH   1   2
BRANCH   1  31
ATOM     31  C   UNL A   1      35.516  30.851  28.897  1.00  0.00     0.042 C 
BRANCH  31  32
ATOM     32  C   UNL A   1      35.927  29.964  30.066  1.00  0.00     0.118 C 
BRANCH  32  33
ATOM     33  N   UNL A   1      36.198  30.720  31.281  1.00  0.00    -0.352 N 
ATOM     34  C   UNL A   1      37.377  30.961  31.942  1.00  0.00     0.251 C 
ATOM     35  H   UNL A   1      35.403  31.124  31.699  1.00  0.00     0.163 HD
ATOM     36  O   UNL A   1      37.341  31.486  33.054  1.00  0.00    -0.269 OA
BRANCH  34  37
ATOM     37  C   UNL A   1      38.680  30.591  31.347  1.00  0.00     0.039 A 
ATOM     38  C   UNL A   1      39.538  29.755  32.070  1.00  0.00     0.014 A 
ATOM     39  C   UNL A   1      39.087  31.098  30.110  1.00  0.00     0.014 A 
ATOM     40  C   UNL A   1      40.770  29.378  31.527  1.00  0.00     0.010 A 
ATOM     41  C   UNL A   1      40.281  30.667  29.538  1.00  0.00     0.010 A 
ATOM     42  C   UNL A   1      41.138  29.808  30.243  1.00  0.00    -0.014 A 
BRANCH  42  43
ATOM     43  C   UNL A   1      42.419  29.393  29.619  1.00  0.00     0.031 A 
ATOM     44  C   UNL A   1      42.530  28.042  28.964  1.00  0.00     0.074 A 
ATOM     45  C   UNL A   1      43.506  30.182  29.727  1.00  0.00     0.049 A 
ATOM     46  N   UNL A   1      43.593  27.428  28.512  1.00  0.00    -0.248 NA
ATOM     47  C   UNL A   1      41.287  27.264  28.835  1.00  0.00     0.031 C 
ATOM     48  C   UNL A   1      43.546  31.489  30.390  1.00  0.00     0.029 A 
ATOM     49  N   UNL A   1      44.795  29.989  29.300  1.00  0.00    -0.354 N 
ATOM     50  C   UNL A   1      43.159  26.173  28.103  1.00  0.00     0.074 A 
ATOM     51  C   UNL A   1      41.736  26.111  28.362  1.00  0.00     0.031 C 
ATOM     52  C   UNL A   1      44.794  31.981  30.318  1.00  0.00     0.029 A 
ATOM     53  C   UNL A   1      45.646  31.016  29.631  1.00  0.00     0.049 A 
ATOM     54  H   UNL A   1      45.084  29.189  28.804  1.00  0.00     0.167 HD
ATOM     55  C   UNL A   1      43.880  25.165  27.557  1.00  0.00     0.037 A 
ATOM     56  C   UNL A   1      46.968  31.159  29.413  1.00  0.00     0.037 A 
ATOM     57  C   UNL A   1      45.276  25.258  27.221  1.00  0.00     0.049 A 
ATOM     58  C   UNL A   1      47.719  30.074  28.697  1.00  0.00     0.074 A 
ATOM     59  C   UNL A   1      46.072  24.323  26.583  1.00  0.00     0.029 A 
ATOM     60  N   UNL A   1      46.077  26.358  27.481  1.00  0.00    -0.354 N 
ATOM     61  N   UNL A   1      47.284  28.910  28.281  1.00  0.00    -0.248 NA
ATOM     62  C   UNL A   1      49.141  30.322  28.416  1.00  0.00     0.031 C 
ATOM     63  C   UNL A   1      47.360  24.859  26.458  1.00  0.00     0.029 A 
ATOM     64  C   UNL A   1      47.357  26.131  27.009  1.00  0.00     0.049 A 
ATOM     65  H   UNL A   1      45.779  27.180  27.933  1.00  0.00     0.167 HD
ATOM     66  C   UNL A   1      48.372  28.293  27.676  1.00  0.00     0.074 A 
ATOM     67  C   UNL A   1      49.485  29.215  27.772  1.00  0.00     0.031 C 
ATOM     68  C   UNL A   1      48.444  27.070  27.098  1.00  0.00     0.037 A 
BRANCH  55  69
ATOM     69  C   UNL A   1      43.167  23.874  27.286  1.00  0.00     0.058 A 
ATOM     70  C   UNL A   1      43.017  22.894  28.278  1.00  0.00     0.135 A 
ATOM     71  C   UNL A   1      42.605  23.625  26.023  1.00  0.00     0.135 A 
ATOM     72  F   UNL A   1      43.552  23.078  29.496  1.00  0.00    -0.206 F 
ATOM     73  C   UNL A   1      42.355  21.698  28.021  1.00  0.00     0.059 A 
ATOM     74  C   UNL A   1      41.924  22.444  25.750  1.00  0.00     0.059 A 
ATOM     75  F   UNL A   1      42.727  24.531  25.040  1.00  0.00    -0.206 F 
ATOM     76  C   UNL A   1      41.818  21.479  26.752  1.00  0.00     0.060 A 
BRANCH  76  77
ATOM     77  S   UNL A   1      40.958  19.926  26.420  1.00  0.00     0.124 S 
ATOM     78  O   UNL A   1      40.918  19.329  27.752  1.00  0.00    -0.237 OA
ATOM     79  O   UNL A   1      39.675  20.376  25.891  1.00  0.00    -0.237 OA
ATOM     80  O   UNL A   1      41.829  19.259  25.458  1.00  0.00    -0.744 OA
ENDBRANCH  76  77
ENDBRANCH  55  69
BRANCH  56  81
ATOM     81  C   UNL A   1      47.663  32.390  29.861  1.00  0.00     0.058 A 
ATOM     82  C   UNL A   1      48.297  32.439  31.111  1.00  0.00     0.135 A 
ATOM     83  C   UNL A   1      47.715  33.533  29.050  1.00  0.00     0.135 A 
ATOM     84  F   UNL A   1      48.268  31.368  31.918  1.00  0.00    -0.206 F 
ATOM     85  C   UNL A   1      48.945  33.587  31.552  1.00  0.00     0.059 A 
ATOM     86  C   UNL A   1      48.370  34.688  29.464  1.00  0.00     0.059 A 
ATOM     87  F   UNL A   1      47.136  33.524  27.839  1.00  0.00    -0.206 F 
ATOM     88  C   UNL A   1      48.972  34.709  30.722  1.00  0.00     0.060 A 
BRANCH  88  89
ATOM     89  S   UNL A   1      49.851  36.188  31.274  1.00  0.00     0.124 S 
ATOM     90  O   UNL A   1      51.151  35.637  31.635  1.00  0.00    -0.237 OA
ATOM     91  O   UNL A   1      49.825  37.035  30.085  1.00  0.00    -0.237 OA
ATOM     92  O   UNL A   1      49.030  36.661  32.385  1.00  0.00    -0.744 OA
ENDBRANCH  88  89
ENDBRANCH  56  81
BRANCH  68  93
ATOM     93  C   UNL A   1      49.759  26.674  26.499  1.00  0.00     0.058 A 
ATOM     94  C   UNL A   1      50.696  25.929  27.227  1.00  0.00     0.135 A 
ATOM     95  C   UNL A   1      50.064  27.008  25.170  1.00  0.00     0.135 A 
ATOM     96  F   UNL A   1      50.448  25.593  28.503  1.00  0.00    -0.206 F 
ATOM     97  C   UNL A   1      51.903  25.534  26.661  1.00  0.00     0.059 A 
ATOM     98  C   UNL A   1      51.260  26.612  24.580  1.00  0.00     0.059 A 
ATOM     99  F   UNL A   1      49.195  27.717  24.434  1.00  0.00    -0.206 F 
ATOM    100  C   UNL A   1      52.178  25.883  25.337  1.00  0.00     0.060 A 
BRANCH 100 101
ATOM    101  S   UNL A   1      53.728  25.339  24.589  1.00  0.00     0.124 S 
ATOM    102  O   UNL A   1      54.707  26.095  25.362  1.00  0.00    -0.237 OA
ATOM    103  O   UNL A   1      53.711  23.898  24.824  1.00  0.00    -0.237 OA
ATOM    104  O   UNL A   1      53.583  25.740  23.192  1.00  0.00    -0.744 OA
ENDBRANCH 100 101
ENDBRANCH  68  93
ENDBRANCH  42  43
ENDBRANCH  34  37
ENDBRANCH  32  33
ENDBRANCH  31  32
ENDBRANCH   1  31
TORSDOF 20
ENDMDL
MODEL 2
REMARK VINA RESULT:     -10.7      7.533     14.748
REMARK SMILES C[C@H](NC(=O)c1ccc(C(C)(C)C)cc1)C(=O)N[C@@H](C(=O)NCCCNC(=O)c1ccc(-c2c3nc(c(-c4c(F)cc(S(=O)(=O)[O-])cc4F)c4ccc([nH]4)c(-c4c(F)cc(S(=O)(=O)[O-])cc4F)c4nc(c(-c5c(F)cc(S(=O)(=O)[O-])cc5F)c5ccc2[nH]5)C=C4)C=C3)cc1)[C@H](C)O
REMARK SMILES IDX 23 1 22 2 20 3 21 4 19 6 18 7 16 8 17 9 2 11 1 12 3 13 4 14
REMARK SMILES IDX 5 16 6 17 7 18 15 19 8 20 14 21 9 22 10 23 11 24 12 25 13 26
REMARK SMILES IDX 95 27 96 28 97 29 24 31 25 32 26 33 27 34 28 36 29 37 30 38
REMARK SMILES IDX 94 39 31 40 93 41 32 42 33 43 34 44 87 45 35 46 92 47 86 48
REMARK SMILES IDX 88 49 36 50 91 51 85 52 84 53 37 55 71 56 50 57 70 58 51 59
REMARK SMILES IDX 54 60 69 61 89 62 52 63 53 64 68 66 90 67 55 68 38 69 39 70
REMARK SMILES IDX 48 71 40 72 41 73 47 74 49 75 42 76 43 77 44 78 45 79 46 80
REMARK SMILES IDX 72 81 73 82 82 83 74 84 75 85 81 86 83 87 76 88 77 89 78 90
REMARK SMILES IDX 79 91 80 92 56 93 57 94 66 95 58 96 59 97 65 98 67 99 60 100
REMARK SMILES IDX 61 101 62 102 63 103 64 104
REMARK H PARENT 22 5 18 10 3 15 97 30 26 35 88 54 54 65
REMARK Flexibility Score: inf
ROOT
ATOM      1  C   UNL A   1      50.497  24.238  36.468  1.00  0.00     0.117 C 
ENDROOT
BRANCH   1   2
ATOM      2  N   UNL A   1      51.663  23.493  36.033  1.00  0.00    -0.354 N 
ATOM      3  C   UNL A   1      51.861  22.175  35.761  1.00  0.00     0.245 C 
ATOM      4  O   UNL A   1      52.981  21.879  35.323  1.00  0.00    -0.273 OA
ATOM      5  H   UNL A   1      52.467  24.049  35.912  1.00  0.00     0.163 HD
BRANCH   3   6
ATOM      6  C   UNL A   1      50.731  21.109  35.811  1.00  0.00     0.200 C 
BRANCH   6   7
ATOM      7  N   UNL A   1      50.921  20.112  36.861  1.00  0.00    -0.340 N 
ATOM      8  C   UNL A   1      50.140  19.734  37.907  1.00  0.00     0.243 C 
ATOM      9  O   UNL A   1      50.511  18.747  38.548  1.00  0.00    -0.273 OA
ATOM     10  H   UNL A   1      51.772  19.623  36.800  1.00  0.00     0.164 HD
BRANCH   8  11
ATOM     11  C   UNL A   1      48.832  20.458  38.304  1.00  0.00     0.168 C 
ATOM     12  C   UNL A   1      48.966  21.375  39.508  1.00  0.00     0.041 C 
BRANCH  11  13
ATOM     13  N   UNL A   1      47.691  19.542  38.458  1.00  0.00    -0.341 N 
ATOM     14  C   UNL A   1      46.484  19.542  37.812  1.00  0.00     0.251 C 
ATOM     15  H   UNL A   1      47.813  18.826  39.123  1.00  0.00     0.164 HD
ATOM     16  O   UNL A   1      45.641  18.696  38.065  1.00  0.00    -0.269 OA
BRANCH  14  17
ATOM     17  C   UNL A   1      46.167  20.671  36.913  1.00  0.00     0.039 A 
ATOM     18  C   UNL A   1      45.925  20.366  35.578  1.00  0.00     0.014 A 
ATOM     19  C   UNL A   1      45.978  21.962  37.397  1.00  0.00     0.014 A 
ATOM     20  C   UNL A   1      45.354  21.333  34.756  1.00  0.00     0.005 A 
ATOM     21  C   UNL A   1      45.388  22.917  36.568  1.00  0.00     0.005 A 
ATOM     22  C   UNL A   1      45.001  22.602  35.253  1.00  0.00    -0.043 A 
BRANCH  22  23
ATOM     23  C   UNL A   1      44.182  23.569  34.381  1.00  0.00    -0.013 C 
ATOM     24  C   UNL A   1      42.902  23.971  35.132  1.00  0.00     0.016 C 
ATOM     25  C   UNL A   1      45.016  24.838  34.073  1.00  0.00     0.016 C 
ATOM     26  C   UNL A   1      43.777  22.973  33.014  1.00  0.00     0.016 C 
ENDBRANCH  22  23
ENDBRANCH  14  17
ENDBRANCH  11  13
ENDBRANCH   8  11
ENDBRANCH   6   7
BRANCH   6  27
ATOM     27  C   UNL A   1      50.667  20.423  34.410  1.00  0.00     0.143 C 
ATOM     28  C   UNL A   1      49.266  20.023  33.963  1.00  0.00     0.041 C 
BRANCH  27  29
ATOM     29  O   UNL A   1      51.449  19.218  34.407  1.00  0.00    -0.391 OA
ATOM     30  H   UNL A   1      52.243  19.347  34.950  1.00  0.00     0.211 HD
ENDBRANCH  27  29
ENDBRANCH   6  27
ENDBRANCH   3   6
ENDBRANCH   1   2
BRANCH   1  31
ATOM     31  C   UNL A   1      49.611  24.706  35.323  1.00  0.00     0.042 C 
BRANCH  31  32
ATOM     32  C   UNL A   1      48.232  25.186  35.761  1.00  0.00     0.118 C 
BRANCH  32  33
ATOM     33  N   UNL A   1      48.225  25.722  37.115  1.00  0.00    -0.352 N 
ATOM     34  C   UNL A   1      47.465  26.718  37.680  1.00  0.00     0.251 C 
ATOM     35  H   UNL A   1      48.871  25.302  37.727  1.00  0.00     0.163 HD
ATOM     36  O   UNL A   1      47.754  27.123  38.805  1.00  0.00    -0.269 OA
BRANCH  34  37
ATOM     37  C   UNL A   1      46.321  27.315  36.956  1.00  0.00     0.039 A 
ATOM     38  C   UNL A   1      45.036  26.820  37.203  1.00  0.00     0.014 A 
ATOM     39  C   UNL A   1      46.506  28.318  36.002  1.00  0.00     0.014 A 
ATOM     40  C   UNL A   1      43.935  27.373  36.543  1.00  0.00     0.010 A 
ATOM     41  C   UNL A   1      45.404  28.917  35.397  1.00  0.00     0.010 A 
ATOM     42  C   UNL A   1      44.108  28.447  35.656  1.00  0.00    -0.014 A 
BRANCH  42  43
ATOM     43  C   UNL A   1      42.956  29.085  34.971  1.00  0.00     0.031 A 
ATOM     44  C   UNL A   1      42.559  28.628  33.592  1.00  0.00     0.074 A 
ATOM     45  C   UNL A   1      42.333  30.135  35.540  1.00  0.00     0.049 A 
ATOM     46  N   UNL A   1      41.698  29.158  32.762  1.00  0.00    -0.248 NA
ATOM     47  C   UNL A   1      43.248  27.439  33.064  1.00  0.00     0.031 C 
ATOM     48  C   UNL A   1      42.661  30.714  36.846  1.00  0.00     0.029 A 
ATOM     49  N   UNL A   1      41.306  30.919  35.079  1.00  0.00    -0.354 N 
ATOM     50  C   UNL A   1      41.786  28.409  31.596  1.00  0.00     0.074 A 
ATOM     51  C   UNL A   1      42.787  27.387  31.823  1.00  0.00     0.031 C 
ATOM     52  C   UNL A   1      41.845  31.755  37.083  1.00  0.00     0.029 A 
ATOM     53  C   UNL A   1      40.959  31.935  35.938  1.00  0.00     0.049 A 
ATOM     54  H   UNL A   1      40.859  30.770  34.215  1.00  0.00     0.167 HD
ATOM     55  C   UNL A   1      41.094  28.556  30.441  1.00  0.00     0.037 A 
ATOM     56  C   UNL A   1      40.036  32.908  35.812  1.00  0.00     0.037 A 
ATOM     57  C   UNL A   1      40.041  29.516  30.245  1.00  0.00     0.049 A 
ATOM     58  C   UNL A   1      39.199  32.974  34.567  1.00  0.00     0.074 A 
ATOM     59  C   UNL A   1      39.221  29.682  29.143  1.00  0.00     0.029 A 
ATOM     60  N   UNL A   1      39.652  30.460  31.182  1.00  0.00    -0.354 N 
ATOM     61  N   UNL A   1      39.268  32.231  33.490  1.00  0.00    -0.248 NA
ATOM     62  C   UNL A   1      38.153  34.007  34.522  1.00  0.00     0.031 C 
ATOM     63  C   UNL A   1      38.334  30.732  29.414  1.00  0.00     0.029 A 
ATOM     64  C   UNL A   1      38.598  31.208  30.688  1.00  0.00     0.049 A 
ATOM     65  H   UNL A   1      40.064  30.581  32.068  1.00  0.00     0.167 HD
ATOM     66  C   UNL A   1      38.268  32.696  32.644  1.00  0.00     0.074 A 
ATOM     67  C   UNL A   1      37.602  33.778  33.338  1.00  0.00     0.031 C 
ATOM     68  C   UNL A   1      37.936  32.268  31.403  1.00  0.00     0.037 A 
BRANCH  55  69
ATOM     69  C   UNL A   1      41.454  27.652  29.300  1.00  0.00     0.058 A 
ATOM     70  C   UNL A   1      40.641  26.569  28.935  1.00  0.00     0.135 A 
ATOM     71  C   UNL A   1      42.616  27.887  28.548  1.00  0.00     0.135 A 
ATOM     72  F   UNL A   1      39.529  26.293  29.634  1.00  0.00    -0.206 F 
ATOM     73  C   UNL A   1      40.980  25.733  27.876  1.00  0.00     0.059 A 
ATOM     74  C   UNL A   1      42.965  27.075  27.475  1.00  0.00     0.059 A 
ATOM     75  F   UNL A   1      43.429  28.909  28.863  1.00  0.00    -0.206 F 
ATOM     76  C   UNL A   1      42.147  25.991  27.156  1.00  0.00     0.060 A 
BRANCH  76  77
ATOM     77  S   UNL A   1      42.586  24.905  25.781  1.00  0.00     0.124 S 
ATOM     78  O   UNL A   1      42.349  25.780  24.636  1.00  0.00    -0.237 OA
ATOM     79  O   UNL A   1      43.983  24.587  26.056  1.00  0.00    -0.237 OA
ATOM     80  O   UNL A   1      41.655  23.790  25.923  1.00  0.00    -0.744 OA
ENDBRANCH  76  77
ENDBRANCH  55  69
BRANCH  56  81
ATOM     81  C   UNL A   1      39.840  33.889  36.906  1.00  0.00     0.058 A 
ATOM     82  C   UNL A   1      40.374  35.183  36.811  1.00  0.00     0.135 A 
ATOM     83  C   UNL A   1      39.114  33.559  38.060  1.00  0.00     0.135 A 
ATOM     84  F   UNL A   1      41.078  35.538  35.727  1.00  0.00    -0.206 F 
ATOM     85  C   UNL A   1      40.209  36.113  37.831  1.00  0.00     0.059 A 
ATOM     86  C   UNL A   1      38.923  34.478  39.086  1.00  0.00     0.059 A 
ATOM     87  F   UNL A   1      38.572  32.338  38.184  1.00  0.00    -0.206 F 
ATOM     88  C   UNL A   1      39.485  35.749  38.968  1.00  0.00     0.060 A 
BRANCH  88  89
ATOM     89  S   UNL A   1      39.232  36.970  40.276  1.00  0.00     0.124 S 
ATOM     90  O   UNL A   1      40.546  36.999  40.905  1.00  0.00    -0.237 OA
ATOM     91  O   UNL A   1      38.856  38.165  39.526  1.00  0.00    -0.237 OA
ATOM     92  O   UNL A   1      38.160  36.380  41.071  1.00  0.00    -0.744 OA
ENDBRANCH  88  89
ENDBRANCH  56  81
BRANCH  68  93
ATOM     93  C   UNL A   1      36.784  32.949  30.731  1.00  0.00     0.058 A 
ATOM     94  C   UNL A   1      35.459  32.652  31.080  1.00  0.00     0.135 A 
ATOM     95  C   UNL A   1      37.009  33.937  29.761  1.00  0.00     0.135 A 
ATOM     96  F   UNL A   1      35.197  31.709  31.999  1.00  0.00    -0.206 F 
ATOM     97  C   UNL A   1      34.389  33.307  30.480  1.00  0.00     0.059 A 
ATOM     98  C   UNL A   1      35.955  34.614  29.157  1.00  0.00     0.059 A 
ATOM     99  F   UNL A   1      38.262  34.256  29.399  1.00  0.00    -0.206 F 
ATOM    100  C   UNL A   1      34.647  34.285  29.516  1.00  0.00     0.060 A 
BRANCH 100 101
ATOM    101  S   UNL A   1      33.261  35.163  28.763  1.00  0.00     0.124 S 
ATOM    102  O   UNL A   1      32.497  35.565  29.939  1.00  0.00    -0.237 OA
ATOM    103  O   UNL A   1      33.921  36.244  28.036  1.00  0.00    -0.237 OA
ATOM    104  O   UNL A   1      32.638  34.144  27.924  1.00  0.00    -0.744 OA
ENDBRANCH 100 101
ENDBRANCH  68  93
ENDBRANCH  42  43
ENDBRANCH  34  37
ENDBRANCH  32  33
ENDBRANCH  31  32
ENDBRANCH   1  31
TORSDOF 20
ENDMDL
MODEL 3
REMARK VINA RESULT:     -10.3      4.427     10.865
REMARK SMILES C[C@H](NC(=O)c1ccc(C(C)(C)C)cc1)C(=O)N[C@@H](C(=O)NCCCNC(=O)c1ccc(-c2c3nc(c(-c4c(F)cc(S(=O)(=O)[O-])cc4F)c4ccc([nH]4)c(-c4c(F)cc(S(=O)(=O)[O-])cc4F)c4nc(c(-c5c(F)cc(S(=O)(=O)[O-])cc5F)c5ccc2[nH]5)C=C4)C=C3)cc1)[C@H](C)O
REMARK SMILES IDX 23 1 22 2 20 3 21 4 19 6 18 7 16 8 17 9 2 11 1 12 3 13 4 14
REMARK SMILES IDX 5 16 6 17 7 18 15 19 8 20 14 21 9 22 10 23 11 24 12 25 13 26
REMARK SMILES IDX 95 27 96 28 97 29 24 31 25 32 26 33 27 34 28 36 29 37 30 38
REMARK SMILES IDX 94 39 31 40 93 41 32 42 33 43 34 44 87 45 35 46 92 47 86 48
REMARK SMILES IDX 88 49 36 50 91 51 85 52 84 53 37 55 71 56 50 57 70 58 51 59
REMARK SMILES IDX 54 60 69 61 89 62 52 63 53 64 68 66 90 67 55 68 38 69 39 70
REMARK SMILES IDX 48 71 40 72 41 73 47 74 49 75 42 76 43 77 44 78 45 79 46 80
REMARK SMILES IDX 72 81 73 82 82 83 74 84 75 85 81 86 83 87 76 88 77 89 78 90
REMARK SMILES IDX 79 91 80 92 56 93 57 94 66 95 58 96 59 97 65 98 67 99 60 100
REMARK SMILES IDX 61 101 62 102 63 103 64 104
REMARK H PARENT 22 5 18 10 3 15 97 30 26 35 88 54 54 65
REMARK Flexibility Score: inf
ROOT
ATOM      1  C   UNL A   1      37.622  31.090  33.831  1.00  0.00     0.117 C 
ENDROOT
BRANCH   1   2
ATOM      2  N   UNL A   1      37.762  31.075  35.275  1.00  0.00    -0.354 N 
ATOM      3  C   UNL A   1      38.667  31.646  36.114  1.00  0.00     0.245 C 
ATOM      4  O   UNL A   1      38.444  31.499  37.324  1.00  0.00    -0.273 OA
ATOM      5  H   UNL A   1      37.069  30.549  35.735  1.00  0.00     0.163 HD
BRANCH   3   6
ATOM      6  C   UNL A   1      39.814  32.579  35.636  1.00  0.00     0.200 C 
BRANCH   6   7
ATOM      7  N   UNL A   1      41.109  32.256  36.228  1.00  0.00    -0.340 N 
ATOM      8  C   UNL A   1      42.190  31.592  35.743  1.00  0.00     0.243 C 
ATOM      9  O   UNL A   1      43.209  31.606  36.441  1.00  0.00    -0.273 OA
ATOM     10  H   UNL A   1      41.218  32.580  37.151  1.00  0.00     0.164 HD
BRANCH   8  11
ATOM     11  C   UNL A   1      42.204  30.858  34.382  1.00  0.00     0.168 C 
ATOM     12  C   UNL A   1      42.462  31.760  33.187  1.00  0.00     0.041 C 
BRANCH  11  13
ATOM     13  N   UNL A   1      41.013  30.021  34.167  1.00  0.00    -0.341 N 
ATOM     14  C   UNL A   1      40.932  28.700  33.816  1.00  0.00     0.251 C 
ATOM     15  H   UNL A   1      40.150  30.478  34.293  1.00  0.00     0.164 HD
ATOM     16  O   UNL A   1      39.846  28.157  33.681  1.00  0.00    -0.269 OA
BRANCH  14  17
ATOM     17  C   UNL A   1      42.176  27.988  33.462  1.00  0.00     0.039 A 
ATOM     18  C   UNL A   1      42.652  27.055  34.377  1.00  0.00     0.014 A 
ATOM     19  C   UNL A   1      42.773  28.133  32.214  1.00  0.00     0.014 A 
ATOM     20  C   UNL A   1      43.646  26.165  33.980  1.00  0.00     0.005 A 
ATOM     21  C   UNL A   1      43.755  27.223  31.822  1.00  0.00     0.005 A 
ATOM     22  C   UNL A   1      44.162  26.179  32.670  1.00  0.00    -0.043 A 
BRANCH  22  23
ATOM     23  C   UNL A   1      45.100  25.052  32.202  1.00  0.00    -0.013 C 
ATOM     24  C   UNL A   1      45.207  25.087  30.668  1.00  0.00     0.016 C 
ATOM     25  C   UNL A   1      46.508  25.246  32.819  1.00  0.00     0.016 C 
ATOM     26  C   UNL A   1      44.630  23.643  32.626  1.00  0.00     0.016 C 
ENDBRANCH  22  23
ENDBRANCH  14  17
ENDBRANCH  11  13
ENDBRANCH   8  11
ENDBRANCH   6   7
BRANCH   6  27
ATOM     27  C   UNL A   1      39.405  34.045  35.979  1.00  0.00     0.143 C 
ATOM     28  C   UNL A   1      40.140  34.647  37.171  1.00  0.00     0.041 C 
BRANCH  27  29
ATOM     29  O   UNL A   1      38.005  34.113  36.293  1.00  0.00    -0.391 OA
ATOM     30  H   UNL A   1      37.569  33.296  36.003  1.00  0.00     0.211 HD
ENDBRANCH  27  29
ENDBRANCH   6  27
ENDBRANCH   3   6
ENDBRANCH   1   2
BRANCH   1  31
ATOM     31  C   UNL A   1      37.044  32.388  33.288  1.00  0.00     0.042 C 
BRANCH  31  32
ATOM     32  C   UNL A   1      37.156  32.534  31.776  1.00  0.00     0.118 C 
BRANCH  32  33
ATOM     33  N   UNL A   1      36.202  31.702  31.055  1.00  0.00    -0.352 N 
ATOM     34  C   UNL A   1      36.400  30.735  30.100  1.00  0.00     0.251 C 
ATOM     35  H   UNL A   1      35.260  31.859  31.292  1.00  0.00     0.163 HD
ATOM     36  O   UNL A   1      35.426  30.281  29.502  1.00  0.00    -0.269 OA
BRANCH  34  37
ATOM     37  C   UNL A   1      37.757  30.245  29.773  1.00  0.00     0.039 A 
ATOM     38  C   UNL A   1      38.171  30.251  28.437  1.00  0.00     0.014 A 
ATOM     39  C   UNL A   1      38.604  29.734  30.759  1.00  0.00     0.014 A 
ATOM     40  C   UNL A   1      39.453  29.807  28.099  1.00  0.00     0.010 A 
ATOM     41  C   UNL A   1      39.905  29.357  30.433  1.00  0.00     0.010 A 
ATOM     42  C   UNL A   1      40.341  29.384  29.100  1.00  0.00    -0.014 A 
BRANCH  42  43
ATOM     43  C   UNL A   1      41.723  28.945  28.781  1.00  0.00     0.031 A 
ATOM     44  C   UNL A   1      42.842  29.952  28.761  1.00  0.00     0.074 A 
ATOM     45  C   UNL A   1      41.955  27.669  28.415  1.00  0.00     0.049 A 
ATOM     46  N   UNL A   1      44.076  29.807  28.352  1.00  0.00    -0.248 NA
ATOM     47  C   UNL A   1      42.520  31.310  29.229  1.00  0.00     0.031 C 
ATOM     48  C   UNL A   1      40.945  26.610  28.336  1.00  0.00     0.029 A 
ATOM     49  N   UNL A   1      43.114  27.053  28.018  1.00  0.00    -0.354 N 
ATOM     50  C   UNL A   1      44.658  31.064  28.454  1.00  0.00     0.074 A 
ATOM     51  C   UNL A   1      43.642  31.962  28.962  1.00  0.00     0.031 C 
ATOM     52  C   UNL A   1      41.532  25.474  27.923  1.00  0.00     0.029 A 
ATOM     53  C   UNL A   1      42.948  25.730  27.682  1.00  0.00     0.049 A 
ATOM     54  H   UNL A   1      43.983  27.513  27.976  1.00  0.00     0.167 HD
ATOM     55  C   UNL A   1      45.925  31.436  28.155  1.00  0.00     0.037 A 
ATOM     56  C   UNL A   1      43.836  24.828  27.222  1.00  0.00     0.037 A 
ATOM     57  C   UNL A   1      46.957  30.528  27.731  1.00  0.00     0.049 A 
ATOM     58  C   UNL A   1      45.265  25.240  27.013  1.00  0.00     0.074 A 
ATOM     59  C   UNL A   1      48.294  30.794  27.491  1.00  0.00     0.029 A 
ATOM     60  N   UNL A   1      46.769  29.174  27.503  1.00  0.00    -0.354 N 
ATOM     61  N   UNL A   1      45.808  26.425  27.154  1.00  0.00    -0.248 NA
ATOM     62  C   UNL A   1      46.205  24.192  26.588  1.00  0.00     0.031 C 
ATOM     63  C   UNL A   1      48.917  29.598  27.114  1.00  0.00     0.029 A 
ATOM     64  C   UNL A   1      47.967  28.589  27.132  1.00  0.00     0.049 A 
ATOM     65  H   UNL A   1      45.912  28.700  27.592  1.00  0.00     0.167 HD
ATOM     66  C   UNL A   1      47.154  26.263  26.849  1.00  0.00     0.074 A 
ATOM     67  C   UNL A   1      47.346  24.865  26.525  1.00  0.00     0.031 C 
ATOM     68  C   UNL A   1      48.140  27.191  26.833  1.00  0.00     0.037 A 
BRANCH  55  69
ATOM     69  C   UNL A   1      46.265  32.892  28.280  1.00  0.00     0.058 A 
ATOM     70  C   UNL A   1      46.126  33.775  27.199  1.00  0.00     0.135 A 
ATOM     71  C   UNL A   1      46.713  33.413  29.504  1.00  0.00     0.135 A 
ATOM     72  F   UNL A   1      45.717  33.321  26.004  1.00  0.00    -0.206 F 
ATOM     73  C   UNL A   1      46.443  35.124  27.321  1.00  0.00     0.059 A 
ATOM     74  C   UNL A   1      47.019  34.762  29.652  1.00  0.00     0.059 A 
ATOM     75  F   UNL A   1      46.867  32.606  30.566  1.00  0.00    -0.206 F 
ATOM     76  C   UNL A   1      46.895  35.606  28.550  1.00  0.00     0.060 A 
BRANCH  76  77
ATOM     77  S   UNL A   1      47.306  37.358  28.705  1.00  0.00     0.124 S 
ATOM     78  O   UNL A   1      46.577  37.927  27.575  1.00  0.00    -0.237 OA
ATOM     79  O   UNL A   1      46.784  37.694  30.026  1.00  0.00    -0.237 OA
ATOM     80  O   UNL A   1      48.760  37.374  28.588  1.00  0.00    -0.744 OA
ENDBRANCH  76  77
ENDBRANCH  55  69
BRANCH  56  81
ATOM     81  C   UNL A   1      43.404  23.436  26.947  1.00  0.00     0.058 A 
ATOM     82  C   UNL A   1      43.228  22.989  25.629  1.00  0.00     0.135 A 
ATOM     83  C   UNL A   1      43.167  22.528  27.988  1.00  0.00     0.135 A 
ATOM     84  F   UNL A   1      43.441  23.828  24.604  1.00  0.00    -0.206 F 
ATOM     85  C   UNL A   1      42.813  21.692  25.352  1.00  0.00     0.059 A 
ATOM     86  C   UNL A   1      42.766  21.220  27.735  1.00  0.00     0.059 A 
ATOM     87  F   UNL A   1      43.340  22.909  29.263  1.00  0.00    -0.206 F 
ATOM     88  C   UNL A   1      42.581  20.815  26.413  1.00  0.00     0.060 A 
BRANCH  88  89
ATOM     89  S   UNL A   1      42.084  19.115  26.054  1.00  0.00     0.124 S 
ATOM     90  O   UNL A   1      42.884  18.821  24.873  1.00  0.00    -0.237 OA
ATOM     91  O   UNL A   1      42.465  18.409  27.275  1.00  0.00    -0.237 OA
ATOM     92  O   UNL A   1      40.646  19.233  25.835  1.00  0.00    -0.744 OA
ENDBRANCH  88  89
ENDBRANCH  56  81
BRANCH  68  93
ATOM     93  C   UNL A   1      49.519  26.718  26.486  1.00  0.00     0.058 A 
ATOM     94  C   UNL A   1      50.368  26.176  27.460  1.00  0.00     0.135 A 
ATOM     95  C   UNL A   1      49.974  26.767  25.160  1.00  0.00     0.135 A 
ATOM     96  F   UNL A   1      49.976  26.115  28.742  1.00  0.00    -0.206 F 
ATOM     97  C   UNL A   1      51.636  25.706  27.132  1.00  0.00     0.059 A 
ATOM     98  C   UNL A   1      51.233  26.292  24.808  1.00  0.00     0.059 A 
ATOM     99  F   UNL A   1      49.192  27.274  24.194  1.00  0.00    -0.206 F 
ATOM    100  C   UNL A   1      52.061  25.772  25.803  1.00  0.00     0.060 A 
BRANCH 100 101
ATOM    101  S   UNL A   1      53.691  25.128  25.370  1.00  0.00     0.124 S 
ATOM    102  O   UNL A   1      53.887  25.699  24.042  1.00  0.00    -0.237 OA
ATOM    103  O   UNL A   1      54.542  25.671  26.425  1.00  0.00    -0.237 OA
ATOM    104  O   UNL A   1      53.500  23.681  25.413  1.00  0.00    -0.744 OA
ENDBRANCH 100 101
ENDBRANCH  68  93
ENDBRANCH  42  43
ENDBRANCH  34  37
ENDBRANCH  32  33
ENDBRANCH  31  32
ENDBRANCH   1  31
TORSDOF 20
ENDMDL
