MODEL 1
REMARK VINA RESULT:     -11.9      0.000      0.000
REMARK SMILES O=C(CC1(CC(=O)Nc2ccc(F)cc2F)CCCCC1)NCCCNC(=O)c1ccc(-c2c3nc(c(-c4c(F)cc(S(=O)(=O)[O-])cc4F)c4ccc([nH]4)c(-c4c(F)cc(S(=O)(=O)[O-])cc4F)c4nc(c(-c5c(F)cc(S(=O)(=O)[O-])cc5F)c5ccc2[nH]5)C=C4)C=C3)cc1
REMARK SMILES IDX 23 1 22 2 1 3 2 4 3 6 4 7 17 8 21 9 18 10 20 11 19 12 5 13
REMARK SMILES IDX 6 14 7 15 8 16 9 18 10 19 15 20 11 21 14 22 16 23 12 24
REMARK SMILES IDX 13 25 24 26 25 27 26 28 27 29 28 31 29 32 30 33 94 34 31 35
REMARK SMILES IDX 93 36 32 37 33 38 34 39 87 40 35 41 92 42 86 43 88 44 36 45
REMARK SMILES IDX 91 46 85 47 84 48 37 50 71 51 50 52 70 53 51 54 54 55 69 56
REMARK SMILES IDX 89 57 52 58 53 59 68 61 90 62 55 63 38 64 39 65 48 66 40 67
REMARK SMILES IDX 41 68 47 69 49 70 42 71 43 72 44 73 45 74 46 75 72 76 73 77
REMARK SMILES IDX 82 78 74 79 75 80 81 81 83 82 76 83 77 84 78 85 79 86 80 87
REMARK SMILES IDX 56 88 57 89 66 90 58 91 59 92 65 93 67 94 60 95 61 96 62 97
REMARK SMILES IDX 63 98 64 99
REMARK H PARENT 22 5 8 17 26 30 88 49 54 60
REMARK Flexibility Score: inf
ROOT
ATOM      1  C   UNL A   1      31.387  27.985  27.240  1.00  0.00     0.117 C 
ENDROOT
BRANCH   1   2
ATOM      2  N   UNL A   1      30.926  26.876  26.426  1.00  0.00    -0.356 N 
ATOM      3  O   UNL A   1      30.856  28.107  24.501  1.00  0.00    -0.275 OA
ATOM      4  C   UNL A   1      30.729  27.027  25.075  1.00  0.00     0.220 C 
ATOM      5  H   UNL A   1      30.753  26.003  26.848  1.00  0.00     0.163 HD
BRANCH   4   6
ATOM      6  C   UNL A   1      30.405  25.753  24.305  1.00  0.00     0.107 C 
BRANCH   6   7
ATOM      7  C   UNL A   1      31.574  24.717  24.214  1.00  0.00    -0.012 C 
ATOM      8  C   UNL A   1      31.757  24.348  22.701  1.00  0.00     0.008 C 
ATOM      9  C   UNL A   1      32.930  25.342  24.623  1.00  0.00     0.008 C 
ATOM     10  C   UNL A   1      32.963  23.441  22.416  1.00  0.00     0.001 C 
ATOM     11  C   UNL A   1      34.116  24.391  24.466  1.00  0.00     0.001 C 
ATOM     12  C   UNL A   1      34.267  23.963  23.015  1.00  0.00     0.000 C 
BRANCH   7  13
ATOM     13  C   UNL A   1      31.238  23.410  24.995  1.00  0.00     0.108 C 
BRANCH  13  14
ATOM     14  C   UNL A   1      31.528  23.284  26.490  1.00  0.00     0.225 C 
ATOM     15  O   UNL A   1      30.993  24.049  27.297  1.00  0.00    -0.275 OA
ATOM     16  N   UNL A   1      32.226  22.197  26.943  1.00  0.00    -0.324 N 
ATOM     17  H   UNL A   1      31.879  21.768  27.758  1.00  0.00     0.170 HD
BRANCH  16  18
ATOM     18  C   UNL A   1      33.376  21.622  26.383  1.00  0.00     0.077 A 
ATOM     19  C   UNL A   1      33.263  20.650  25.391  1.00  0.00     0.032 A 
ATOM     20  C   UNL A   1      34.641  22.122  26.693  1.00  0.00     0.149 A 
ATOM     21  C   UNL A   1      34.400  20.105  24.795  1.00  0.00     0.041 A 
ATOM     22  C   UNL A   1      35.786  21.578  26.116  1.00  0.00     0.080 A 
ATOM     23  F   UNL A   1      34.770  23.100  27.600  1.00  0.00    -0.205 F 
ATOM     24  C   UNL A   1      35.654  20.563  25.179  1.00  0.00     0.126 A 
ATOM     25  F   UNL A   1      36.749  20.021  24.628  1.00  0.00    -0.207 F 
ENDBRANCH  16  18
ENDBRANCH  13  14
ENDBRANCH   7  13
ENDBRANCH   6   7
ENDBRANCH   4   6
ENDBRANCH   1   2
BRANCH   1  26
ATOM     26  C   UNL A   1      32.888  28.018  27.484  1.00  0.00     0.042 C 
BRANCH  26  27
ATOM     27  C   UNL A   1      33.652  29.183  26.864  1.00  0.00     0.118 C 
BRANCH  27  28
ATOM     28  N   UNL A   1      33.654  30.408  27.653  1.00  0.00    -0.352 N 
ATOM     29  C   UNL A   1      34.657  30.953  28.429  1.00  0.00     0.251 C 
ATOM     30  H   UNL A   1      32.815  30.923  27.628  1.00  0.00     0.163 HD
ATOM     31  O   UNL A   1      34.457  31.996  29.037  1.00  0.00    -0.269 OA
BRANCH  29  32
ATOM     32  C   UNL A   1      35.957  30.249  28.566  1.00  0.00     0.039 A 
ATOM     33  C   UNL A   1      36.825  30.226  27.470  1.00  0.00     0.014 A 
ATOM     34  C   UNL A   1      36.345  29.666  29.775  1.00  0.00     0.014 A 
ATOM     35  C   UNL A   1      38.125  29.729  27.624  1.00  0.00     0.010 A 
ATOM     36  C   UNL A   1      37.662  29.240  29.946  1.00  0.00     0.010 A 
ATOM     37  C   UNL A   1      38.575  29.295  28.882  1.00  0.00    -0.014 A 
BRANCH  37  38
ATOM     38  C   UNL A   1      40.005  28.960  29.125  1.00  0.00     0.031 A 
ATOM     39  C   UNL A   1      40.958  30.001  29.644  1.00  0.00     0.074 A 
ATOM     40  C   UNL A   1      40.469  27.738  28.786  1.00  0.00     0.049 A 
ATOM     41  N   UNL A   1      42.255  29.929  29.796  1.00  0.00    -0.248 NA
ATOM     42  C   UNL A   1      40.380  31.301  30.019  1.00  0.00     0.031 C 
ATOM     43  C   UNL A   1      39.660  26.649  28.235  1.00  0.00     0.029 A 
ATOM     44  N   UNL A   1      41.737  27.210  28.841  1.00  0.00    -0.354 N 
ATOM     45  C   UNL A   1      42.652  31.174  30.270  1.00  0.00     0.074 A 
ATOM     46  C   UNL A   1      41.463  31.995  30.341  1.00  0.00     0.031 C 
ATOM     47  C   UNL A   1      40.443  25.580  28.021  1.00  0.00     0.029 A 
ATOM     48  C   UNL A   1      41.819  25.918  28.372  1.00  0.00     0.049 A 
ATOM     49  H   UNL A   1      42.513  27.709  29.181  1.00  0.00     0.167 HD
ATOM     50  C   UNL A   1      43.891  31.590  30.629  1.00  0.00     0.037 A 
ATOM     51  C   UNL A   1      42.881  25.100  28.226  1.00  0.00     0.037 A 
ATOM     52  C   UNL A   1      45.070  30.763  30.581  1.00  0.00     0.049 A 
ATOM     53  C   UNL A   1      44.248  25.589  28.615  1.00  0.00     0.074 A 
ATOM     54  C   UNL A   1      46.357  31.081  30.976  1.00  0.00     0.029 A 
ATOM     55  N   UNL A   1      45.107  29.459  30.110  1.00  0.00    -0.354 N 
ATOM     56  N   UNL A   1      44.596  26.756  29.100  1.00  0.00    -0.248 NA
ATOM     57  C   UNL A   1      45.369  24.655  28.431  1.00  0.00     0.031 C 
ATOM     58  C   UNL A   1      47.182  29.983  30.708  1.00  0.00     0.029 A 
ATOM     59  C   UNL A   1      46.400  28.966  30.186  1.00  0.00     0.049 A 
ATOM     60  H   UNL A   1      44.331  28.958  29.771  1.00  0.00     0.167 HD
ATOM     61  C   UNL A   1      45.971  26.691  29.300  1.00  0.00     0.074 A 
ATOM     62  C   UNL A   1      46.391  25.367  28.889  1.00  0.00     0.031 C 
ATOM     63  C   UNL A   1      46.806  27.644  29.779  1.00  0.00     0.037 A 
BRANCH  50  64
ATOM     64  C   UNL A   1      44.040  33.003  31.118  1.00  0.00     0.058 A 
ATOM     65  C   UNL A   1      43.803  33.323  32.464  1.00  0.00     0.135 A 
ATOM     66  C   UNL A   1      44.368  34.051  30.244  1.00  0.00     0.135 A 
ATOM     67  F   UNL A   1      43.486  32.359  33.342  1.00  0.00    -0.206 F 
ATOM     68  C   UNL A   1      43.884  34.633  32.929  1.00  0.00     0.059 A 
ATOM     69  C   UNL A   1      44.480  35.363  30.691  1.00  0.00     0.059 A 
ATOM     70  F   UNL A   1      44.618  33.798  28.949  1.00  0.00    -0.206 F 
ATOM     71  C   UNL A   1      44.236  35.644  32.036  1.00  0.00     0.060 A 
BRANCH  71  72
ATOM     72  S   UNL A   1      44.380  37.354  32.596  1.00  0.00     0.124 S 
ATOM     73  O   UNL A   1      43.670  37.303  33.871  1.00  0.00    -0.237 OA
ATOM     74  O   UNL A   1      45.827  37.530  32.685  1.00  0.00    -0.237 OA
ATOM     75  O   UNL A   1      43.721  38.116  31.542  1.00  0.00    -0.744 OA
ENDBRANCH  71  72
ENDBRANCH  50  64
BRANCH  51  76
ATOM     76  C   UNL A   1      42.685  23.725  27.697  1.00  0.00     0.058 A 
ATOM     77  C   UNL A   1      42.616  23.474  26.317  1.00  0.00     0.135 A 
ATOM     78  C   UNL A   1      42.535  22.635  28.567  1.00  0.00     0.135 A 
ATOM     79  F   UNL A   1      42.741  24.485  25.443  1.00  0.00    -0.206 F 
ATOM     80  C   UNL A   1      42.387  22.195  25.817  1.00  0.00     0.059 A 
ATOM     81  C   UNL A   1      42.327  21.345  28.091  1.00  0.00     0.059 A 
ATOM     82  F   UNL A   1      42.604  22.824  29.893  1.00  0.00    -0.206 F 
ATOM     83  C   UNL A   1      42.247  21.136  26.712  1.00  0.00     0.060 A 
BRANCH  83  84
ATOM     84  S   UNL A   1      41.913  19.466  26.111  1.00  0.00     0.124 S 
ATOM     85  O   UNL A   1      42.795  19.389  24.952  1.00  0.00    -0.237 OA
ATOM     86  O   UNL A   1      42.293  18.649  27.257  1.00  0.00    -0.237 OA
ATOM     87  O   UNL A   1      40.483  19.496  25.816  1.00  0.00    -0.744 OA
ENDBRANCH  83  84
ENDBRANCH  51  76
BRANCH  63  88
ATOM     88  C   UNL A   1      48.262  27.295  29.913  1.00  0.00     0.058 A 
ATOM     89  C   UNL A   1      48.767  26.803  31.129  1.00  0.00     0.135 A 
ATOM     90  C   UNL A   1      49.171  27.530  28.871  1.00  0.00     0.135 A 
ATOM     91  F   UNL A   1      47.938  26.567  32.158  1.00  0.00    -0.206 F 
ATOM     92  C   UNL A   1      50.126  26.574  31.315  1.00  0.00     0.059 A 
ATOM     93  C   UNL A   1      50.532  27.288  29.028  1.00  0.00     0.059 A 
ATOM     94  F   UNL A   1      48.737  27.991  27.688  1.00  0.00    -0.206 F 
ATOM     95  C   UNL A   1      51.002  26.818  30.257  1.00  0.00     0.060 A 
BRANCH  95  96
ATOM     96  S   UNL A   1      52.778  26.570  30.464  1.00  0.00     0.124 S 
ATOM     97  O   UNL A   1      52.813  25.422  31.364  1.00  0.00    -0.237 OA
ATOM     98  O   UNL A   1      53.217  26.315  29.095  1.00  0.00    -0.237 OA
ATOM     99  O   UNL A   1      53.234  27.832  31.038  1.00  0.00    -0.744 OA
ENDBRANCH  95  96
ENDBRANCH  63  88
ENDBRANCH  37  38
ENDBRANCH  29  32
ENDBRANCH  27  28
ENDBRANCH  26  27
ENDBRANCH   1  26
TORSDOF 17
ENDMDL
MODEL 2
REMARK VINA RESULT:     -11.5      4.958     10.550
REMARK SMILES O=C(CC1(CC(=O)Nc2ccc(F)cc2F)CCCCC1)NCCCNC(=O)c1ccc(-c2c3nc(c(-c4c(F)cc(S(=O)(=O)[O-])cc4F)c4ccc([nH]4)c(-c4c(F)cc(S(=O)(=O)[O-])cc4F)c4nc(c(-c5c(F)cc(S(=O)(=O)[O-])cc5F)c5ccc2[nH]5)C=C4)C=C3)cc1
REMARK SMILES IDX 23 1 22 2 1 3 2 4 3 6 4 7 17 8 21 9 18 10 20 11 19 12 5 13
REMARK SMILES IDX 6 14 7 15 8 16 9 18 10 19 15 20 11 21 14 22 16 23 12 24
REMARK SMILES IDX 13 25 24 26 25 27 26 28 27 29 28 31 29 32 30 33 94 34 31 35
REMARK SMILES IDX 93 36 32 37 33 38 34 39 87 40 35 41 92 42 86 43 88 44 36 45
REMARK SMILES IDX 91 46 85 47 84 48 37 50 71 51 50 52 70 53 51 54 54 55 69 56
REMARK SMILES IDX 89 57 52 58 53 59 68 61 90 62 55 63 38 64 39 65 48 66 40 67
REMARK SMILES IDX 41 68 47 69 49 70 42 71 43 72 44 73 45 74 46 75 72 76 73 77
REMARK SMILES IDX 82 78 74 79 75 80 81 81 83 82 76 83 77 84 78 85 79 86 80 87
REMARK SMILES IDX 56 88 57 89 66 90 58 91 59 92 65 93 67 94 60 95 61 96 62 97
REMARK SMILES IDX 63 98 64 99
REMARK H PARENT 22 5 8 17 26 30 88 49 54 60
REMARK Flexibility Score: inf
ROOT
ATOM      1  C   UNL A   1      36.545  22.031  25.735  1.00  0.00     0.117 C 
ENDROOT
BRANCH   1   2
ATOM      2  N   UNL A   1      35.189  22.049  25.218  1.00  0.00    -0.356 N 
ATOM      3  O   UNL A   1      34.246  21.498  27.226  1.00  0.00    -0.275 OA
ATOM      4  C   UNL A   1      34.118  21.809  26.044  1.00  0.00     0.220 C 
ATOM      5  H   UNL A   1      35.035  22.236  24.264  1.00  0.00     0.163 HD
BRANCH   4   6
ATOM      6  C   UNL A   1      32.742  22.017  25.423  1.00  0.00     0.107 C 
BRANCH   6   7
ATOM      7  C   UNL A   1      32.319  23.512  25.235  1.00  0.00    -0.012 C 
ATOM      8  C   UNL A   1      30.902  23.685  25.885  1.00  0.00     0.008 C 
ATOM      9  C   UNL A   1      33.228  24.474  26.037  1.00  0.00     0.008 C 
ATOM     10  C   UNL A   1      30.395  25.133  25.913  1.00  0.00     0.001 C 
ATOM     11  C   UNL A   1      32.800  25.938  25.954  1.00  0.00     0.001 C 
ATOM     12  C   UNL A   1      31.398  26.115  26.514  1.00  0.00     0.000 C 
BRANCH   7  13
ATOM     13  C   UNL A   1      32.208  23.886  23.725  1.00  0.00     0.108 C 
BRANCH  13  14
ATOM     14  C   UNL A   1      33.367  24.556  22.988  1.00  0.00     0.225 C 
ATOM     15  O   UNL A   1      34.462  23.994  22.906  1.00  0.00    -0.275 OA
ATOM     16  N   UNL A   1      33.124  25.686  22.254  1.00  0.00    -0.324 N 
ATOM     17  H   UNL A   1      33.548  25.725  21.366  1.00  0.00     0.170 HD
BRANCH  16  18
ATOM     18  C   UNL A   1      32.343  26.792  22.616  1.00  0.00     0.077 A 
ATOM     19  C   UNL A   1      30.956  26.745  22.487  1.00  0.00     0.032 A 
ATOM     20  C   UNL A   1      32.922  27.890  23.253  1.00  0.00     0.149 A 
ATOM     21  C   UNL A   1      30.166  27.823  22.887  1.00  0.00     0.041 A 
ATOM     22  C   UNL A   1      32.147  28.979  23.646  1.00  0.00     0.080 A 
ATOM     23  F   UNL A   1      34.248  27.932  23.443  1.00  0.00    -0.205 F 
ATOM     24  C   UNL A   1      30.774  28.940  23.446  1.00  0.00     0.126 A 
ATOM     25  F   UNL A   1      30.021  29.988  23.805  1.00  0.00    -0.207 F 
ENDBRANCH  16  18
ENDBRANCH  13  14
ENDBRANCH   7  13
ENDBRANCH   6   7
ENDBRANCH   4   6
ENDBRANCH   1   2
BRANCH   1  26
ATOM     26  C   UNL A   1      37.404  23.212  25.314  1.00  0.00     0.042 C 
BRANCH  26  27
ATOM     27  C   UNL A   1      38.263  23.850  26.401  1.00  0.00     0.118 C 
BRANCH  27  28
ATOM     28  N   UNL A   1      39.697  23.646  26.253  1.00  0.00    -0.352 N 
ATOM     29  C   UNL A   1      40.748  24.378  26.768  1.00  0.00     0.251 C 
ATOM     30  H   UNL A   1      39.956  22.871  25.701  1.00  0.00     0.163 HD
ATOM     31  O   UNL A   1      41.900  24.053  26.512  1.00  0.00    -0.269 OA
BRANCH  29  32
ATOM     32  C   UNL A   1      40.481  25.585  27.589  1.00  0.00     0.039 A 
ATOM     33  C   UNL A   1      39.540  25.501  28.620  1.00  0.00     0.014 A 
ATOM     34  C   UNL A   1      41.187  26.774  27.387  1.00  0.00     0.014 A 
ATOM     35  C   UNL A   1      39.398  26.563  29.521  1.00  0.00     0.010 A 
ATOM     36  C   UNL A   1      41.098  27.800  28.328  1.00  0.00     0.010 A 
ATOM     37  C   UNL A   1      40.225  27.694  29.421  1.00  0.00    -0.014 A 
BRANCH  37  38
ATOM     38  C   UNL A   1      40.244  28.741  30.480  1.00  0.00     0.031 A 
ATOM     39  C   UNL A   1      41.174  28.624  31.656  1.00  0.00     0.074 A 
ATOM     40  C   UNL A   1      39.353  29.753  30.430  1.00  0.00     0.049 A 
ATOM     41  N   UNL A   1      41.243  29.367  32.730  1.00  0.00    -0.248 NA
ATOM     42  C   UNL A   1      42.138  27.513  31.630  1.00  0.00     0.031 C 
ATOM     43  C   UNL A   1      38.368  29.962  29.366  1.00  0.00     0.029 A 
ATOM     44  N   UNL A   1      39.118  30.789  31.302  1.00  0.00    -0.354 N 
ATOM     45  C   UNL A   1      42.244  28.808  33.516  1.00  0.00     0.074 A 
ATOM     46  C   UNL A   1      42.726  27.639  32.812  1.00  0.00     0.031 C 
ATOM     47  C   UNL A   1      37.650  31.064  29.636  1.00  0.00     0.029 A 
ATOM     48  C   UNL A   1      38.088  31.617  30.915  1.00  0.00     0.049 A 
ATOM     49  H   UNL A   1      39.637  30.926  32.127  1.00  0.00     0.167 HD
ATOM     50  C   UNL A   1      42.728  29.238  34.706  1.00  0.00     0.037 A 
ATOM     51  C   UNL A   1      37.544  32.689  31.524  1.00  0.00     0.037 A 
ATOM     52  C   UNL A   1      42.263  30.416  35.393  1.00  0.00     0.049 A 
ATOM     53  C   UNL A   1      38.086  33.138  32.853  1.00  0.00     0.074 A 
ATOM     54  C   UNL A   1      42.731  30.960  36.575  1.00  0.00     0.029 A 
ATOM     55  N   UNL A   1      41.226  31.230  34.961  1.00  0.00    -0.354 N 
ATOM     56  N   UNL A   1      39.061  32.620  33.559  1.00  0.00    -0.248 NA
ATOM     57  C   UNL A   1      37.452  34.312  33.471  1.00  0.00     0.031 C 
ATOM     58  C   UNL A   1      41.952  32.081  36.881  1.00  0.00     0.029 A 
ATOM     59  C   UNL A   1      41.027  32.261  35.866  1.00  0.00     0.049 A 
ATOM     60  H   UNL A   1      40.707  31.095  34.136  1.00  0.00     0.167 HD
ATOM     61  C   UNL A   1      39.172  33.416  34.695  1.00  0.00     0.074 A 
ATOM     62  C   UNL A   1      38.170  34.454  34.577  1.00  0.00     0.031 C 
ATOM     63  C   UNL A   1      40.029  33.293  35.737  1.00  0.00     0.037 A 
BRANCH  50  64
ATOM     64  C   UNL A   1      43.828  28.438  35.344  1.00  0.00     0.058 A 
ATOM     65  C   UNL A   1      45.170  28.656  34.989  1.00  0.00     0.135 A 
ATOM     66  C   UNL A   1      43.553  27.419  36.269  1.00  0.00     0.135 A 
ATOM     67  F   UNL A   1      45.488  29.617  34.108  1.00  0.00    -0.206 F 
ATOM     68  C   UNL A   1      46.201  27.892  35.528  1.00  0.00     0.059 A 
ATOM     69  C   UNL A   1      44.570  26.661  36.840  1.00  0.00     0.059 A 
ATOM     70  F   UNL A   1      42.289  27.179  36.654  1.00  0.00    -0.206 F 
ATOM     71  C   UNL A   1      45.891  26.904  36.462  1.00  0.00     0.060 A 
BRANCH  71  72
ATOM     72  S   UNL A   1      47.196  25.906  37.209  1.00  0.00     0.124 S 
ATOM     73  O   UNL A   1      48.259  26.892  37.373  1.00  0.00    -0.237 OA
ATOM     74  O   UNL A   1      46.566  25.444  38.443  1.00  0.00    -0.237 OA
ATOM     75  O   UNL A   1      47.448  24.872  36.211  1.00  0.00    -0.744 OA
ENDBRANCH  71  72
ENDBRANCH  50  64
BRANCH  51  76
ATOM     76  C   UNL A   1      36.427  33.421  30.870  1.00  0.00     0.058 A 
ATOM     77  C   UNL A   1      36.641  34.227  29.741  1.00  0.00     0.135 A 
ATOM     78  C   UNL A   1      35.123  33.349  31.384  1.00  0.00     0.135 A 
ATOM     79  F   UNL A   1      37.873  34.340  29.220  1.00  0.00    -0.206 F 
ATOM     80  C   UNL A   1      35.609  34.952  29.153  1.00  0.00     0.059 A 
ATOM     81  C   UNL A   1      34.070  34.046  30.801  1.00  0.00     0.059 A 
ATOM     82  F   UNL A   1      34.868  32.583  32.455  1.00  0.00    -0.206 F 
ATOM     83  C   UNL A   1      34.325  34.852  29.688  1.00  0.00     0.060 A 
BRANCH  83  84
ATOM     84  S   UNL A   1      32.961  35.801  28.981  1.00  0.00     0.124 S 
ATOM     85  O   UNL A   1      33.671  36.902  28.340  1.00  0.00    -0.237 OA
ATOM     86  O   UNL A   1      32.348  34.829  28.083  1.00  0.00    -0.237 OA
ATOM     87  O   UNL A   1      32.161  36.160  30.147  1.00  0.00    -0.744 OA
ENDBRANCH  83  84
ENDBRANCH  51  76
BRANCH  63  88
ATOM     88  C   UNL A   1      39.945  34.316  36.835  1.00  0.00     0.058 A 
ATOM     89  C   UNL A   1      39.082  34.120  37.926  1.00  0.00     0.135 A 
ATOM     90  C   UNL A   1      40.650  35.526  36.764  1.00  0.00     0.135 A 
ATOM     91  F   UNL A   1      38.381  32.980  38.036  1.00  0.00    -0.206 F 
ATOM     92  C   UNL A   1      38.904  35.097  38.900  1.00  0.00     0.059 A 
ATOM     93  C   UNL A   1      40.503  36.509  37.739  1.00  0.00     0.059 A 
ATOM     94  F   UNL A   1      41.495  35.758  35.747  1.00  0.00    -0.206 F 
ATOM     95  C   UNL A   1      39.621  36.289  38.799  1.00  0.00     0.060 A 
BRANCH  95  96
ATOM     96  S   UNL A   1      39.395  37.599  40.019  1.00  0.00     0.124 S 
ATOM     97  O   UNL A   1      39.221  36.832  41.248  1.00  0.00    -0.237 OA
ATOM     98  O   UNL A   1      40.645  38.344  39.910  1.00  0.00    -0.237 OA
ATOM     99  O   UNL A   1      38.207  38.305  39.547  1.00  0.00    -0.744 OA
ENDBRANCH  95  96
ENDBRANCH  63  88
ENDBRANCH  37  38
ENDBRANCH  29  32
ENDBRANCH  27  28
ENDBRANCH  26  27
ENDBRANCH   1  26
TORSDOF 17
ENDMDL
MODEL 3
REMARK VINA RESULT:     -11.5      3.561      9.665
REMARK SMILES O=C(CC1(CC(=O)Nc2ccc(F)cc2F)CCCCC1)NCCCNC(=O)c1ccc(-c2c3nc(c(-c4c(F)cc(S(=O)(=O)[O-])cc4F)c4ccc([nH]4)c(-c4c(F)cc(S(=O)(=O)[O-])cc4F)c4nc(c(-c5c(F)cc(S(=O)(=O)[O-])cc5F)c5ccc2[nH]5)C=C4)C=C3)cc1
REMARK SMILES IDX 23 1 22 2 1 3 2 4 3 6 4 7 17 8 21 9 18 10 20 11 19 12 5 13
REMARK SMILES IDX 6 14 7 15 8 16 9 18 10 19 15 20 11 21 14 22 16 23 12 24
REMARK SMILES IDX 13 25 24 26 25 27 26 28 27 29 28 31 29 32 30 33 94 34 31 35
REMARK SMILES IDX 93 36 32 37 33 38 34 39 87 40 35 41 92 42 86 43 88 44 36 45
REMARK SMILES IDX 91 46 85 47 84 48 37 50 71 51 50 52 70 53 51 54 54 55 69 56
REMARK SMILES IDX 89 57 52 58 53 59 68 61 90 62 55 63 38 64 39 65 48 66 40 67
REMARK SMILES IDX 41 68 47 69 49 70 42 71 43 72 44 73 45 74 46 75 72 76 73 77
REMARK SMILES IDX 82 78 74 79 75 80 81 81 83 82 76 83 77 84 78 85 79 86 80 87
REMARK SMILES IDX 56 88 57 89 66 90 58 91 59 92 65 93 67 94 60 95 61 96 62 97
REMARK SMILES IDX 63 98 64 99
REMARK H PARENT 22 5 8 17 26 30 88 49 54 60
REMARK Flexibility Score: inf
ROOT
ATOM      1  C   UNL A   1      34.655  22.984  25.442  1.00  0.00     0.117 C 
ENDROOT
BRANCH   1   2
ATOM      2  N   UNL A   1      33.783  23.998  24.880  1.00  0.00    -0.356 N 
ATOM      3  O   UNL A   1      31.950  23.301  26.055  1.00  0.00    -0.275 OA
ATOM      4  C   UNL A   1      32.471  24.096  25.275  1.00  0.00     0.220 C 
ATOM      5  H   UNL A   1      34.135  24.624  24.207  1.00  0.00     0.163 HD
BRANCH   4   6
ATOM      6  C   UNL A   1      31.704  25.298  24.739  1.00  0.00     0.107 C 
BRANCH   6   7
ATOM      7  C   UNL A   1      32.261  26.691  25.184  1.00  0.00    -0.012 C 
ATOM      8  C   UNL A   1      31.196  27.341  26.135  1.00  0.00     0.008 C 
ATOM      9  C   UNL A   1      33.525  26.552  26.065  1.00  0.00     0.008 C 
ATOM     10  C   UNL A   1      31.647  28.660  26.777  1.00  0.00     0.001 C 
ATOM     11  C   UNL A   1      34.055  27.883  26.595  1.00  0.00     0.001 C 
ATOM     12  C   UNL A   1      33.008  28.565  27.462  1.00  0.00     0.000 C 
BRANCH   7  13
ATOM     13  C   UNL A   1      32.463  27.640  23.962  1.00  0.00     0.108 C 
BRANCH  13  14
ATOM     14  C   UNL A   1      32.018  27.229  22.559  1.00  0.00     0.225 C 
ATOM     15  O   UNL A   1      32.797  26.643  21.804  1.00  0.00    -0.275 OA
ATOM     16  N   UNL A   1      30.695  27.338  22.223  1.00  0.00    -0.324 N 
ATOM     17  H   UNL A   1      30.308  26.577  21.733  1.00  0.00     0.170 HD
BRANCH  16  18
ATOM     18  C   UNL A   1      29.827  28.406  22.493  1.00  0.00     0.077 A 
ATOM     19  C   UNL A   1      30.135  29.691  22.050  1.00  0.00     0.032 A 
ATOM     20  C   UNL A   1      28.576  28.174  23.067  1.00  0.00     0.149 A 
ATOM     21  C   UNL A   1      29.257  30.751  22.275  1.00  0.00     0.041 A 
ATOM     22  C   UNL A   1      27.695  29.225  23.308  1.00  0.00     0.080 A 
ATOM     23  F   UNL A   1      28.232  26.935  23.445  1.00  0.00    -0.205 F 
ATOM     24  C   UNL A   1      28.051  30.509  22.920  1.00  0.00     0.126 A 
ATOM     25  F   UNL A   1      27.218  31.531  23.161  1.00  0.00    -0.207 F 
ENDBRANCH  16  18
ENDBRANCH  13  14
ENDBRANCH   7  13
ENDBRANCH   6   7
ENDBRANCH   4   6
ENDBRANCH   1   2
BRANCH   1  26
ATOM     26  C   UNL A   1      36.000  23.498  25.931  1.00  0.00     0.042 C 
BRANCH  26  27
ATOM     27  C   UNL A   1      37.144  23.475  24.922  1.00  0.00     0.118 C 
BRANCH  27  28
ATOM     28  N   UNL A   1      38.276  22.638  25.293  1.00  0.00    -0.352 N 
ATOM     29  C   UNL A   1      39.345  22.919  26.120  1.00  0.00     0.251 C 
ATOM     30  H   UNL A   1      38.280  21.737  24.895  1.00  0.00     0.163 HD
ATOM     31  O   UNL A   1      40.217  22.078  26.296  1.00  0.00    -0.269 OA
BRANCH  29  32
ATOM     32  C   UNL A   1      39.463  24.256  26.753  1.00  0.00     0.039 A 
ATOM     33  C   UNL A   1      38.869  24.461  28.003  1.00  0.00     0.014 A 
ATOM     34  C   UNL A   1      40.197  25.284  26.155  1.00  0.00     0.014 A 
ATOM     35  C   UNL A   1      39.114  25.649  28.703  1.00  0.00     0.010 A 
ATOM     36  C   UNL A   1      40.500  26.433  26.884  1.00  0.00     0.010 A 
ATOM     37  C   UNL A   1      39.987  26.616  28.177  1.00  0.00    -0.014 A 
BRANCH  37  38
ATOM     38  C   UNL A   1      40.432  27.785  28.984  1.00  0.00     0.031 A 
ATOM     39  C   UNL A   1      41.739  27.752  29.727  1.00  0.00     0.074 A 
ATOM     40  C   UNL A   1      39.609  28.847  29.125  1.00  0.00     0.049 A 
ATOM     41  N   UNL A   1      42.228  28.619  30.574  1.00  0.00    -0.248 NA
ATOM     42  C   UNL A   1      42.597  26.578  29.504  1.00  0.00     0.031 C 
ATOM     43  C   UNL A   1      38.296  28.989  28.492  1.00  0.00     0.029 A 
ATOM     44  N   UNL A   1      39.747  30.000  29.859  1.00  0.00    -0.354 N 
ATOM     45  C   UNL A   1      43.443  28.093  30.999  1.00  0.00     0.074 A 
ATOM     46  C   UNL A   1      43.596  26.811  30.345  1.00  0.00     0.031 C 
ATOM     47  C   UNL A   1      37.758  30.167  28.847  1.00  0.00     0.029 A 
ATOM     48  C   UNL A   1      38.663  30.845  29.771  1.00  0.00     0.049 A 
ATOM     49  H   UNL A   1      40.544  30.203  30.398  1.00  0.00     0.167 HD
ATOM     50  C   UNL A   1      44.354  28.636  31.842  1.00  0.00     0.037 A 
ATOM     51  C   UNL A   1      38.415  32.025  30.375  1.00  0.00     0.037 A 
ATOM     52  C   UNL A   1      44.211  29.924  32.471  1.00  0.00     0.049 A 
ATOM     53  C   UNL A   1      39.434  32.599  31.320  1.00  0.00     0.074 A 
ATOM     54  C   UNL A   1      45.107  30.579  33.297  1.00  0.00     0.029 A 
ATOM     55  N   UNL A   1      43.104  30.750  32.347  1.00  0.00    -0.354 N 
ATOM     56  N   UNL A   1      40.594  32.105  31.675  1.00  0.00    -0.248 NA
ATOM     57  C   UNL A   1      39.108  33.887  31.951  1.00  0.00     0.031 C 
ATOM     58  C   UNL A   1      44.527  31.785  33.705  1.00  0.00     0.029 A 
ATOM     59  C   UNL A   1      43.287  31.901  33.098  1.00  0.00     0.049 A 
ATOM     60  H   UNL A   1      42.306  30.549  31.807  1.00  0.00     0.167 HD
ATOM     61  C   UNL A   1      41.148  33.030  32.555  1.00  0.00     0.074 A 
ATOM     62  C   UNL A   1      40.197  34.116  32.672  1.00  0.00     0.031 C 
ATOM     63  C   UNL A   1      42.336  32.979  33.204  1.00  0.00     0.037 A 
BRANCH  50  64
ATOM     64  C   UNL A   1      45.599  27.845  32.128  1.00  0.00     0.058 A 
ATOM     65  C   UNL A   1      46.745  28.000  31.332  1.00  0.00     0.135 A 
ATOM     66  C   UNL A   1      45.643  26.896  33.161  1.00  0.00     0.135 A 
ATOM     67  F   UNL A   1      46.756  28.893  30.330  1.00  0.00    -0.206 F 
ATOM     68  C   UNL A   1      47.892  27.241  31.545  1.00  0.00     0.059 A 
ATOM     69  C   UNL A   1      46.787  26.145  33.410  1.00  0.00     0.059 A 
ATOM     70  F   UNL A   1      44.580  26.718  33.962  1.00  0.00    -0.206 F 
ATOM     71  C   UNL A   1      47.906  26.324  32.596  1.00  0.00     0.060 A 
BRANCH  71  72
ATOM     72  S   UNL A   1      49.380  25.336  32.931  1.00  0.00     0.124 S 
ATOM     73  O   UNL A   1      49.791  24.960  31.582  1.00  0.00    -0.237 OA
ATOM     74  O   UNL A   1      50.246  26.292  33.614  1.00  0.00    -0.237 OA
ATOM     75  O   UNL A   1      48.878  24.245  33.760  1.00  0.00    -0.744 OA
ENDBRANCH  71  72
ENDBRANCH  50  64
BRANCH  51  76
ATOM     76  C   UNL A   1      37.147  32.747  30.090  1.00  0.00     0.058 A 
ATOM     77  C   UNL A   1      37.076  33.737  29.097  1.00  0.00     0.135 A 
ATOM     78  C   UNL A   1      35.985  32.479  30.828  1.00  0.00     0.135 A 
ATOM     79  F   UNL A   1      38.164  34.042  28.371  1.00  0.00    -0.206 F 
ATOM     80  C   UNL A   1      35.905  34.451  28.857  1.00  0.00     0.059 A 
ATOM     81  C   UNL A   1      34.797  33.162  30.593  1.00  0.00     0.059 A 
ATOM     82  F   UNL A   1      36.002  31.534  31.780  1.00  0.00    -0.206 F 
ATOM     83  C   UNL A   1      34.769  34.152  29.608  1.00  0.00     0.060 A 
BRANCH  83  84
ATOM     84  S   UNL A   1      33.237  35.075  29.357  1.00  0.00     0.124 S 
ATOM     85  O   UNL A   1      33.738  36.337  28.824  1.00  0.00    -0.237 OA
ATOM     86  O   UNL A   1      32.521  34.224  28.413  1.00  0.00    -0.237 OA
ATOM     87  O   UNL A   1      32.660  35.140  30.696  1.00  0.00    -0.744 OA
ENDBRANCH  83  84
ENDBRANCH  51  76
BRANCH  63  88
ATOM     88  C   UNL A   1      42.699  34.138  34.090  1.00  0.00     0.058 A 
ATOM     89  C   UNL A   1      43.378  35.250  33.563  1.00  0.00     0.135 A 
ATOM     90  C   UNL A   1      42.456  34.110  35.470  1.00  0.00     0.135 A 
ATOM     91  F   UNL A   1      43.639  35.321  32.248  1.00  0.00    -0.206 F 
ATOM     92  C   UNL A   1      43.821  36.287  34.378  1.00  0.00     0.059 A 
ATOM     93  C   UNL A   1      42.872  35.146  36.301  1.00  0.00     0.059 A 
ATOM     94  F   UNL A   1      41.803  33.075  36.021  1.00  0.00    -0.206 F 
ATOM     95  C   UNL A   1      43.562  36.227  35.746  1.00  0.00     0.060 A 
BRANCH  95  96
ATOM     96  S   UNL A   1      44.150  37.531  36.847  1.00  0.00     0.124 S 
ATOM     97  O   UNL A   1      45.444  37.003  37.267  1.00  0.00    -0.237 OA
ATOM     98  O   UNL A   1      44.198  38.689  35.958  1.00  0.00    -0.237 OA
ATOM     99  O   UNL A   1      43.128  37.588  37.887  1.00  0.00    -0.744 OA
ENDBRANCH  95  96
ENDBRANCH  63  88
ENDBRANCH  37  38
ENDBRANCH  29  32
ENDBRANCH  27  28
ENDBRANCH  26  27
ENDBRANCH   1  26
TORSDOF 17
ENDMDL
