MODEL 1
REMARK VINA RESULT:     -10.9      0.000      0.000
REMARK SMILES N#Cc1ccc(C[N@H+]2CCCC[C@H]2C(=O)NCCCNC(=O)c2ccc(-c3c4nc(c(-c5c(F)cc(S(=O)(=O)[O-])cc5F)c5ccc([nH]5)c(-c5c(F)cc(S(=O)(=O)[O-])cc5F)c5nc(c(-c6c(F)cc(S(=O)(=O)[O-])cc6F)c6ccc3[nH]6)C=C5)C=C4)cc2)c(F)c1
REMARK SMILES IDX 18 1 17 2 16 3 14 4 15 5 13 7 8 8 9 9 10 11 12 12 11 13 7 14
REMARK SMILES IDX 6 15 3 16 4 17 91 18 5 19 89 20 90 21 2 22 1 23 19 24 20 25
REMARK SMILES IDX 21 26 22 28 23 29 24 30 88 31 25 32 87 33 26 34 27 35 28 36
REMARK SMILES IDX 81 37 29 38 86 39 80 40 82 41 30 42 85 43 79 44 78 45 31 47
REMARK SMILES IDX 65 48 44 49 64 50 45 51 48 52 63 53 83 54 46 55 47 56 62 58
REMARK SMILES IDX 84 59 49 60 32 61 33 62 42 63 34 64 35 65 41 66 43 67 36 68
REMARK SMILES IDX 37 69 38 70 39 71 40 72 66 73 67 74 76 75 68 76 69 77 75 78
REMARK SMILES IDX 77 79 70 80 71 81 72 82 73 83 74 84 50 85 51 86 60 87 52 88
REMARK SMILES IDX 53 89 59 90 61 91 54 92 55 93 56 94 57 95 58 96
REMARK H PARENT 16 6 8 10 20 27 82 46 48 57
REMARK Flexibility Score: inf
ROOT
ATOM      1  C   UNL A   1      40.626  21.750  27.496  1.00  0.00     0.042 C 
ENDROOT
BRANCH   1   2
ATOM      2  C   UNL A   1      40.933  21.047  26.175  1.00  0.00     0.118 C 
BRANCH   2   3
ATOM      3  N   UNL A   1      42.293  20.556  26.190  1.00  0.00    -0.351 N 
ATOM      4  C   UNL A   1      43.428  21.156  25.736  1.00  0.00     0.278 C 
ATOM      5  O   UNL A   1      44.356  20.400  25.440  1.00  0.00    -0.268 OA
ATOM      6  H   UNL A   1      42.416  19.662  26.584  1.00  0.00     0.163 HD
BRANCH   4   7
ATOM      7  C   UNL A   1      43.496  22.706  25.663  1.00  0.00     0.274 C 
ATOM      8  N   UNL A   1      44.334  23.325  26.723  1.00  0.00    -0.321 N 
ATOM      9  C   UNL A   1      45.751  22.970  26.638  1.00  0.00     0.263 C 
ATOM     10  H   UNL A   1      44.313  24.318  26.494  1.00  0.00     0.349 HD
ATOM     11  C   UNL A   1      46.336  23.240  25.243  1.00  0.00     0.062 C 
ATOM     12  C   UNL A   1      44.020  23.144  24.291  1.00  0.00     0.076 C 
ATOM     13  C   UNL A   1      45.471  22.721  24.099  1.00  0.00     0.012 C 
BRANCH   8  14
ATOM     14  C   UNL A   1      43.758  23.331  28.079  1.00  0.00     0.302 C 
BRANCH  14  15
ATOM     15  C   UNL A   1      44.247  24.385  29.044  1.00  0.00     0.042 A 
ATOM     16  C   UNL A   1      45.548  26.113  30.837  1.00  0.00     0.055 A 
ATOM     17  C   UNL A   1      45.455  26.446  29.482  1.00  0.00     0.020 A 
ATOM     18  C   UNL A   1      44.903  24.973  31.316  1.00  0.00     0.059 A 
ATOM     19  C   UNL A   1      44.812  25.583  28.587  1.00  0.00     0.014 A 
ATOM     20  C   UNL A   1      44.233  24.143  30.423  1.00  0.00     0.133 A 
ATOM     21  F   UNL A   1      43.652  23.032  30.898  1.00  0.00    -0.206 F 
BRANCH  16  22
ATOM     22  C   UNL A   1      46.341  26.914  31.725  1.00  0.00     0.099 C 
ATOM     23  N   UNL A   1      46.975  27.569  32.440  1.00  0.00    -0.192 NA
ENDBRANCH  16  22
ENDBRANCH  14  15
ENDBRANCH   8  14
ENDBRANCH   4   7
ENDBRANCH   2   3
ENDBRANCH   1   2
BRANCH   1  24
ATOM     24  C   UNL A   1      39.994  23.131  27.323  1.00  0.00     0.118 C 
BRANCH  24  25
ATOM     25  N   UNL A   1      40.604  23.890  26.242  1.00  0.00    -0.352 N 
ATOM     26  C   UNL A   1      40.925  25.222  26.187  1.00  0.00     0.251 C 
ATOM     27  H   UNL A   1      40.817  23.372  25.433  1.00  0.00     0.163 HD
ATOM     28  O   UNL A   1      41.242  25.724  25.113  1.00  0.00    -0.269 OA
BRANCH  26  29
ATOM     29  C   UNL A   1      40.861  26.051  27.409  1.00  0.00     0.039 A 
ATOM     30  C   UNL A   1      41.818  27.051  27.590  1.00  0.00     0.014 A 
ATOM     31  C   UNL A   1      39.869  25.847  28.374  1.00  0.00     0.014 A 
ATOM     32  C   UNL A   1      41.742  27.884  28.707  1.00  0.00     0.010 A 
ATOM     33  C   UNL A   1      39.747  26.730  29.444  1.00  0.00     0.010 A 
ATOM     34  C   UNL A   1      40.682  27.760  29.623  1.00  0.00    -0.014 A 
BRANCH  34  35
ATOM     35  C   UNL A   1      40.536  28.723  30.746  1.00  0.00     0.031 A 
ATOM     36  C   UNL A   1      41.389  28.599  31.980  1.00  0.00     0.074 A 
ATOM     37  C   UNL A   1      39.607  29.699  30.660  1.00  0.00     0.049 A 
ATOM     38  N   UNL A   1      41.384  29.338  33.060  1.00  0.00    -0.248 NA
ATOM     39  C   UNL A   1      42.361  27.495  32.017  1.00  0.00     0.031 C 
ATOM     40  C   UNL A   1      38.686  29.892  29.536  1.00  0.00     0.029 A 
ATOM     41  N   UNL A   1      39.279  30.709  31.529  1.00  0.00    -0.354 N 
ATOM     42  C   UNL A   1      42.352  28.796  33.897  1.00  0.00     0.074 A 
ATOM     43  C   UNL A   1      42.881  27.627  33.229  1.00  0.00     0.031 C 
ATOM     44  C   UNL A   1      37.923  30.970  29.770  1.00  0.00     0.029 A 
ATOM     45  C   UNL A   1      38.259  31.518  31.080  1.00  0.00     0.049 A 
ATOM     46  H   UNL A   1      39.731  30.844  32.393  1.00  0.00     0.167 HD
ATOM     47  C   UNL A   1      42.782  29.248  35.100  1.00  0.00     0.037 A 
ATOM     48  C   UNL A   1      37.652  32.570  31.661  1.00  0.00     0.037 A 
ATOM     49  C   UNL A   1      42.254  30.418  35.758  1.00  0.00     0.049 A 
ATOM     50  C   UNL A   1      38.125  33.024  33.018  1.00  0.00     0.074 A 
ATOM     51  C   UNL A   1      42.647  30.975  36.963  1.00  0.00     0.029 A 
ATOM     52  N   UNL A   1      41.222  31.207  35.273  1.00  0.00    -0.354 N 
ATOM     53  N   UNL A   1      39.089  32.538  33.762  1.00  0.00    -0.248 NA
ATOM     54  C   UNL A   1      37.432  34.177  33.610  1.00  0.00     0.031 C 
ATOM     55  C   UNL A   1      41.814  32.062  37.236  1.00  0.00     0.029 A 
ATOM     56  C   UNL A   1      40.948  32.229  36.169  1.00  0.00     0.049 A 
ATOM     57  H   UNL A   1      40.753  31.062  34.421  1.00  0.00     0.167 HD
ATOM     58  C   UNL A   1      39.138  33.345  34.895  1.00  0.00     0.074 A 
ATOM     59  C   UNL A   1      38.126  34.365  34.722  1.00  0.00     0.031 C 
ATOM     60  C   UNL A   1      39.944  33.247  35.982  1.00  0.00     0.037 A 
BRANCH  47  61
ATOM     61  C   UNL A   1      43.890  28.493  35.787  1.00  0.00     0.058 A 
ATOM     62  C   UNL A   1      43.618  27.439  36.674  1.00  0.00     0.135 A 
ATOM     63  C   UNL A   1      45.236  28.766  35.489  1.00  0.00     0.135 A 
ATOM     64  F   UNL A   1      42.351  27.145  37.009  1.00  0.00    -0.206 F 
ATOM     65  C   UNL A   1      44.639  26.688  37.247  1.00  0.00     0.059 A 
ATOM     66  C   UNL A   1      46.271  28.007  36.026  1.00  0.00     0.059 A 
ATOM     67  F   UNL A   1      45.553  29.764  34.650  1.00  0.00    -0.206 F 
ATOM     68  C   UNL A   1      45.962  26.972  36.908  1.00  0.00     0.060 A 
BRANCH  68  69
ATOM     69  S   UNL A   1      47.269  25.952  37.622  1.00  0.00     0.124 S 
ATOM     70  O   UNL A   1      48.048  26.944  38.355  1.00  0.00    -0.237 OA
ATOM     71  O   UNL A   1      46.512  25.010  38.441  1.00  0.00    -0.237 OA
ATOM     72  O   UNL A   1      47.929  25.375  36.455  1.00  0.00    -0.744 OA
ENDBRANCH  68  69
ENDBRANCH  47  61
BRANCH  48  73
ATOM     73  C   UNL A   1      36.522  33.263  30.980  1.00  0.00     0.058 A 
ATOM     74  C   UNL A   1      36.741  34.119  29.890  1.00  0.00     0.135 A 
ATOM     75  C   UNL A   1      35.201  33.113  31.432  1.00  0.00     0.135 A 
ATOM     76  F   UNL A   1      37.985  34.301  29.418  1.00  0.00    -0.206 F 
ATOM     77  C   UNL A   1      35.703  34.837  29.303  1.00  0.00     0.059 A 
ATOM     78  C   UNL A   1      34.141  33.789  30.837  1.00  0.00     0.059 A 
ATOM     79  F   UNL A   1      34.929  32.292  32.458  1.00  0.00    -0.206 F 
ATOM     80  C   UNL A   1      34.406  34.666  29.788  1.00  0.00     0.060 A 
BRANCH  80  81
ATOM     81  S   UNL A   1      33.064  35.599  29.020  1.00  0.00     0.124 S 
ATOM     82  O   UNL A   1      32.340  36.087  30.188  1.00  0.00    -0.237 OA
ATOM     83  O   UNL A   1      33.793  36.605  28.252  1.00  0.00    -0.237 OA
ATOM     84  O   UNL A   1      32.371  34.593  28.221  1.00  0.00    -0.744 OA
ENDBRANCH  80  81
ENDBRANCH  48  73
BRANCH  60  85
ATOM     85  C   UNL A   1      39.795  34.298  37.051  1.00  0.00     0.058 A 
ATOM     86  C   UNL A   1      39.063  34.064  38.226  1.00  0.00     0.135 A 
ATOM     87  C   UNL A   1      40.420  35.548  36.911  1.00  0.00     0.135 A 
ATOM     88  F   UNL A   1      38.439  32.889  38.412  1.00  0.00    -0.206 F 
ATOM     89  C   UNL A   1      38.922  35.044  39.203  1.00  0.00     0.059 A 
ATOM     90  C   UNL A   1      40.326  36.528  37.893  1.00  0.00     0.059 A 
ATOM     91  F   UNL A   1      41.144  35.823  35.814  1.00  0.00    -0.206 F 
ATOM     92  C   UNL A   1      39.560  36.273  39.028  1.00  0.00     0.060 A 
BRANCH  92  93
ATOM     93  S   UNL A   1      39.383  37.527  40.314  1.00  0.00     0.124 S 
ATOM     94  O   UNL A   1      40.773  37.903  40.553  1.00  0.00    -0.237 OA
ATOM     95  O   UNL A   1      38.558  38.533  39.655  1.00  0.00    -0.237 OA
ATOM     96  O   UNL A   1      38.733  36.806  41.405  1.00  0.00    -0.744 OA
ENDBRANCH  92  93
ENDBRANCH  60  85
ENDBRANCH  34  35
ENDBRANCH  26  29
ENDBRANCH  24  25
ENDBRANCH   1  24
TORSDOF 16
ENDMDL
MODEL 2
REMARK VINA RESULT:     -10.8      6.711     13.531
REMARK SMILES N#Cc1ccc(C[N@H+]2CCCC[C@H]2C(=O)NCCCNC(=O)c2ccc(-c3c4nc(c(-c5c(F)cc(S(=O)(=O)[O-])cc5F)c5ccc([nH]5)c(-c5c(F)cc(S(=O)(=O)[O-])cc5F)c5nc(c(-c6c(F)cc(S(=O)(=O)[O-])cc6F)c6ccc3[nH]6)C=C5)C=C4)cc2)c(F)c1
REMARK SMILES IDX 18 1 17 2 16 3 14 4 15 5 13 7 8 8 9 9 10 11 12 12 11 13 7 14
REMARK SMILES IDX 6 15 3 16 4 17 91 18 5 19 89 20 90 21 2 22 1 23 19 24 20 25
REMARK SMILES IDX 21 26 22 28 23 29 24 30 88 31 25 32 87 33 26 34 27 35 28 36
REMARK SMILES IDX 81 37 29 38 86 39 80 40 82 41 30 42 85 43 79 44 78 45 31 47
REMARK SMILES IDX 65 48 44 49 64 50 45 51 48 52 63 53 83 54 46 55 47 56 62 58
REMARK SMILES IDX 84 59 49 60 32 61 33 62 42 63 34 64 35 65 41 66 43 67 36 68
REMARK SMILES IDX 37 69 38 70 39 71 40 72 66 73 67 74 76 75 68 76 69 77 75 78
REMARK SMILES IDX 77 79 70 80 71 81 72 82 73 83 74 84 50 85 51 86 60 87 52 88
REMARK SMILES IDX 53 89 59 90 61 91 54 92 55 93 56 94 57 95 58 96
REMARK H PARENT 16 6 8 10 20 27 82 46 48 57
REMARK Flexibility Score: inf
ROOT
ATOM      1  C   UNL A   1      34.617  31.186  27.691  1.00  0.00     0.042 C 
ENDROOT
BRANCH   1   2
ATOM      2  C   UNL A   1      34.802  29.705  27.362  1.00  0.00     0.118 C 
BRANCH   2   3
ATOM      3  N   UNL A   1      33.640  28.963  27.798  1.00  0.00    -0.351 N 
ATOM      4  C   UNL A   1      32.691  28.336  27.049  1.00  0.00     0.278 C 
ATOM      5  O   UNL A   1      31.595  28.175  27.592  1.00  0.00    -0.268 OA
ATOM      6  H   UNL A   1      33.517  28.902  28.773  1.00  0.00     0.163 HD
BRANCH   4   7
ATOM      7  C   UNL A   1      33.049  27.840  25.622  1.00  0.00     0.274 C 
ATOM      8  N   UNL A   1      32.401  26.556  25.247  1.00  0.00    -0.321 N 
ATOM      9  C   UNL A   1      30.942  26.632  25.168  1.00  0.00     0.263 C 
ATOM     10  H   UNL A   1      32.695  26.413  24.281  1.00  0.00     0.349 HD
ATOM     11  C   UNL A   1      30.467  27.776  24.259  1.00  0.00     0.062 C 
ATOM     12  C   UNL A   1      32.679  28.908  24.587  1.00  0.00     0.076 C 
ATOM     13  C   UNL A   1      31.169  29.105  24.521  1.00  0.00     0.012 C 
BRANCH   8  14
ATOM     14  C   UNL A   1      32.943  25.348  25.893  1.00  0.00     0.302 C 
BRANCH  14  15
ATOM     15  C   UNL A   1      32.641  24.014  25.251  1.00  0.00     0.042 A 
ATOM     16  C   UNL A   1      32.458  21.390  24.266  1.00  0.00     0.055 A 
ATOM     17  C   UNL A   1      31.703  21.777  25.378  1.00  0.00     0.020 A 
ATOM     18  C   UNL A   1      33.221  22.335  23.583  1.00  0.00     0.059 A 
ATOM     19  C   UNL A   1      31.799  23.083  25.874  1.00  0.00     0.014 A 
ATOM     20  C   UNL A   1      33.277  23.641  24.062  1.00  0.00     0.133 A 
ATOM     21  F   UNL A   1      34.048  24.526  23.412  1.00  0.00    -0.206 F 
BRANCH  16  22
ATOM     22  C   UNL A   1      32.484  20.015  23.854  1.00  0.00     0.099 C 
ATOM     23  N   UNL A   1      32.495  18.907  23.518  1.00  0.00    -0.192 NA
ENDBRANCH  16  22
ENDBRANCH  14  15
ENDBRANCH   8  14
ENDBRANCH   4   7
ENDBRANCH   2   3
ENDBRANCH   1   2
BRANCH   1  24
ATOM     24  C   UNL A   1      35.701  31.748  28.611  1.00  0.00     0.118 C 
BRANCH  24  25
ATOM     25  N   UNL A   1      35.579  31.260  29.976  1.00  0.00    -0.352 N 
ATOM     26  C   UNL A   1      36.455  30.503  30.711  1.00  0.00     0.251 C 
ATOM     27  H   UNL A   1      34.747  31.510  30.439  1.00  0.00     0.163 HD
ATOM     28  O   UNL A   1      36.087  30.014  31.775  1.00  0.00    -0.269 OA
BRANCH  26  29
ATOM     29  C   UNL A   1      37.824  30.257  30.211  1.00  0.00     0.039 A 
ATOM     30  C   UNL A   1      38.866  30.158  31.133  1.00  0.00     0.014 A 
ATOM     31  C   UNL A   1      38.083  30.128  28.842  1.00  0.00     0.014 A 
ATOM     32  C   UNL A   1      40.157  29.867  30.688  1.00  0.00     0.010 A 
ATOM     33  C   UNL A   1      39.354  29.757  28.408  1.00  0.00     0.010 A 
ATOM     34  C   UNL A   1      40.406  29.622  29.326  1.00  0.00    -0.014 A 
BRANCH  34  35
ATOM     35  C   UNL A   1      41.755  29.197  28.868  1.00  0.00     0.031 A 
ATOM     36  C   UNL A   1      42.887  30.185  28.791  1.00  0.00     0.074 A 
ATOM     37  C   UNL A   1      41.949  27.914  28.494  1.00  0.00     0.049 A 
ATOM     38  N   UNL A   1      44.121  29.993  28.399  1.00  0.00    -0.248 NA
ATOM     39  C   UNL A   1      42.596  31.573  29.188  1.00  0.00     0.031 C 
ATOM     40  C   UNL A   1      40.917  26.874  28.476  1.00  0.00     0.029 A 
ATOM     41  N   UNL A   1      43.075  27.265  28.054  1.00  0.00    -0.354 N 
ATOM     42  C   UNL A   1      44.753  31.226  28.510  1.00  0.00     0.074 A 
ATOM     43  C   UNL A   1      43.751  32.176  28.944  1.00  0.00     0.031 C 
ATOM     44  C   UNL A   1      41.464  25.714  28.080  1.00  0.00     0.029 A 
ATOM     45  C   UNL A   1      42.871  25.934  27.765  1.00  0.00     0.049 A 
ATOM     46  H   UNL A   1      43.949  27.709  27.955  1.00  0.00     0.167 HD
ATOM     47  C   UNL A   1      46.055  31.533  28.298  1.00  0.00     0.037 A 
ATOM     48  C   UNL A   1      43.715  25.001  27.284  1.00  0.00     0.037 A 
ATOM     49  C   UNL A   1      47.050  30.581  27.871  1.00  0.00     0.049 A 
ATOM     50  C   UNL A   1      45.148  25.383  27.019  1.00  0.00     0.074 A 
ATOM     51  C   UNL A   1      48.402  30.788  27.660  1.00  0.00     0.029 A 
ATOM     52  N   UNL A   1      46.804  29.246  27.586  1.00  0.00    -0.354 N 
ATOM     53  N   UNL A   1      45.741  26.540  27.195  1.00  0.00    -0.248 NA
ATOM     54  C   UNL A   1      46.030  24.330  26.497  1.00  0.00     0.031 C 
ATOM     55  C   UNL A   1      48.961  29.597  27.190  1.00  0.00     0.029 A 
ATOM     56  C   UNL A   1      47.974  28.626  27.176  1.00  0.00     0.049 A 
ATOM     57  H   UNL A   1      45.928  28.804  27.662  1.00  0.00     0.167 HD
ATOM     58  C   UNL A   1      47.071  26.343  26.836  1.00  0.00     0.074 A 
ATOM     59  C   UNL A   1      47.199  24.952  26.460  1.00  0.00     0.031 C 
ATOM     60  C   UNL A   1      48.093  27.235  26.814  1.00  0.00     0.037 A 
BRANCH  47  61
ATOM     61  C   UNL A   1      46.497  32.953  28.537  1.00  0.00     0.058 A 
ATOM     62  C   UNL A   1      46.518  33.899  27.499  1.00  0.00     0.135 A 
ATOM     63  C   UNL A   1      46.818  33.397  29.831  1.00  0.00     0.135 A 
ATOM     64  F   UNL A   1      46.236  33.529  26.240  1.00  0.00    -0.206 F 
ATOM     65  C   UNL A   1      46.847  35.230  27.733  1.00  0.00     0.059 A 
ATOM     66  C   UNL A   1      47.121  34.729  30.093  1.00  0.00     0.059 A 
ATOM     67  F   UNL A   1      46.818  32.535  30.860  1.00  0.00    -0.206 F 
ATOM     68  C   UNL A   1      47.137  35.639  29.036  1.00  0.00     0.060 A 
BRANCH  68  69
ATOM     69  S   UNL A   1      47.511  37.380  29.326  1.00  0.00     0.124 S 
ATOM     70  O   UNL A   1      47.305  37.949  27.998  1.00  0.00    -0.237 OA
ATOM     71  O   UNL A   1      46.518  37.745  30.332  1.00  0.00    -0.237 OA
ATOM     72  O   UNL A   1      48.893  37.361  29.792  1.00  0.00    -0.744 OA
ENDBRANCH  68  69
ENDBRANCH  47  61
BRANCH  48  73
ATOM     73  C   UNL A   1      43.235  23.618  27.006  1.00  0.00     0.058 A 
ATOM     74  C   UNL A   1      43.032  22.693  28.043  1.00  0.00     0.135 A 
ATOM     75  C   UNL A   1      43.005  23.180  25.692  1.00  0.00     0.135 A 
ATOM     76  F   UNL A   1      43.240  23.058  29.318  1.00  0.00    -0.206 F 
ATOM     77  C   UNL A   1      42.668  21.375  27.786  1.00  0.00     0.059 A 
ATOM     78  C   UNL A   1      42.601  21.879  25.412  1.00  0.00     0.059 A 
ATOM     79  F   UNL A   1      43.162  24.027  24.662  1.00  0.00    -0.206 F 
ATOM     80  C   UNL A   1      42.457  20.978  26.464  1.00  0.00     0.060 A 
BRANCH  80  81
ATOM     81  S   UNL A   1      41.982  19.266  26.140  1.00  0.00     0.124 S 
ATOM     82  O   UNL A   1      42.762  18.967  24.944  1.00  0.00    -0.237 OA
ATOM     83  O   UNL A   1      42.404  18.595  27.365  1.00  0.00    -0.237 OA
ATOM     84  O   UNL A   1      40.537  19.351  25.947  1.00  0.00    -0.744 OA
ENDBRANCH  80  81
ENDBRANCH  48  73
BRANCH  60  85
ATOM     85  C   UNL A   1      49.450  26.723  26.410  1.00  0.00     0.058 A 
ATOM     86  C   UNL A   1      49.937  26.859  25.100  1.00  0.00     0.135 A 
ATOM     87  C   UNL A   1      50.290  26.114  27.358  1.00  0.00     0.135 A 
ATOM     88  F   UNL A   1      49.176  27.428  24.152  1.00  0.00    -0.206 F 
ATOM     89  C   UNL A   1      51.189  26.373  24.735  1.00  0.00     0.059 A 
ATOM     90  C   UNL A   1      51.561  25.657  27.024  1.00  0.00     0.059 A 
ATOM     91  F   UNL A   1      49.883  25.968  28.629  1.00  0.00    -0.206 F 
ATOM     92  C   UNL A   1      51.995  25.775  25.706  1.00  0.00     0.060 A 
BRANCH  92  93
ATOM     93  S   UNL A   1      53.623  25.168  25.219  1.00  0.00     0.124 S 
ATOM     94  O   UNL A   1      53.446  23.724  25.335  1.00  0.00    -0.237 OA
ATOM     95  O   UNL A   1      53.753  25.684  23.861  1.00  0.00    -0.237 OA
ATOM     96  O   UNL A   1      54.519  25.771  26.202  1.00  0.00    -0.744 OA
ENDBRANCH  92  93
ENDBRANCH  60  85
ENDBRANCH  34  35
ENDBRANCH  26  29
ENDBRANCH  24  25
ENDBRANCH   1  24
TORSDOF 16
ENDMDL
MODEL 3
REMARK VINA RESULT:     -10.8      3.723      6.063
REMARK SMILES N#Cc1ccc(C[N@H+]2CCCC[C@H]2C(=O)NCCCNC(=O)c2ccc(-c3c4nc(c(-c5c(F)cc(S(=O)(=O)[O-])cc5F)c5ccc([nH]5)c(-c5c(F)cc(S(=O)(=O)[O-])cc5F)c5nc(c(-c6c(F)cc(S(=O)(=O)[O-])cc6F)c6ccc3[nH]6)C=C5)C=C4)cc2)c(F)c1
REMARK SMILES IDX 18 1 17 2 16 3 14 4 15 5 13 7 8 8 9 9 10 11 12 12 11 13 7 14
REMARK SMILES IDX 6 15 3 16 4 17 91 18 5 19 89 20 90 21 2 22 1 23 19 24 20 25
REMARK SMILES IDX 21 26 22 28 23 29 24 30 88 31 25 32 87 33 26 34 27 35 28 36
REMARK SMILES IDX 81 37 29 38 86 39 80 40 82 41 30 42 85 43 79 44 78 45 31 47
REMARK SMILES IDX 65 48 44 49 64 50 45 51 48 52 63 53 83 54 46 55 47 56 62 58
REMARK SMILES IDX 84 59 49 60 32 61 33 62 42 63 34 64 35 65 41 66 43 67 36 68
REMARK SMILES IDX 37 69 38 70 39 71 40 72 66 73 67 74 76 75 68 76 69 77 75 78
REMARK SMILES IDX 77 79 70 80 71 81 72 82 73 83 74 84 50 85 51 86 60 87 52 88
REMARK SMILES IDX 53 89 59 90 61 91 54 92 55 93 56 94 57 95 58 96
REMARK H PARENT 16 6 8 10 20 27 82 46 48 57
REMARK Flexibility Score: inf
ROOT
ATOM      1  C   UNL A   1      39.064  22.542  26.512  1.00  0.00     0.042 C 
ENDROOT
BRANCH   1   2
ATOM      2  C   UNL A   1      38.042  23.609  26.126  1.00  0.00     0.118 C 
BRANCH   2   3
ATOM      3  N   UNL A   1      37.713  23.481  24.723  1.00  0.00    -0.351 N 
ATOM      4  C   UNL A   1      36.509  23.221  24.144  1.00  0.00     0.278 C 
ATOM      5  O   UNL A   1      36.550  22.719  23.018  1.00  0.00    -0.268 OA
ATOM      6  H   UNL A   1      38.466  23.599  24.100  1.00  0.00     0.163 HD
BRANCH   4   7
ATOM      7  C   UNL A   1      35.202  23.601  24.893  1.00  0.00     0.274 C 
ATOM      8  N   UNL A   1      34.033  23.814  24.001  1.00  0.00    -0.321 N 
ATOM      9  C   UNL A   1      33.613  22.611  23.280  1.00  0.00     0.263 C 
ATOM     10  H   UNL A   1      33.268  23.995  24.649  1.00  0.00     0.349 HD
ATOM     11  C   UNL A   1      33.379  21.420  24.223  1.00  0.00     0.062 C 
ATOM     12  C   UNL A   1      34.856  22.520  25.923  1.00  0.00     0.076 C 
ATOM     13  C   UNL A   1      34.497  21.207  25.238  1.00  0.00     0.012 C 
BRANCH   8  14
ATOM     14  C   UNL A   1      34.042  25.059  23.213  1.00  0.00     0.302 C 
BRANCH  14  15
ATOM     15  C   UNL A   1      32.861  25.990  23.359  1.00  0.00     0.042 A 
ATOM     16  C   UNL A   1      30.950  28.045  23.488  1.00  0.00     0.055 A 
ATOM     17  C   UNL A   1      30.987  27.188  22.383  1.00  0.00     0.020 A 
ATOM     18  C   UNL A   1      31.794  27.813  24.573  1.00  0.00     0.059 A 
ATOM     19  C   UNL A   1      31.943  26.167  22.316  1.00  0.00     0.014 A 
ATOM     20  C   UNL A   1      32.714  26.771  24.511  1.00  0.00     0.133 A 
ATOM     21  F   UNL A   1      33.543  26.588  25.550  1.00  0.00    -0.206 F 
BRANCH  16  22
ATOM     22  C   UNL A   1      30.080  29.186  23.488  1.00  0.00     0.099 C 
ATOM     23  N   UNL A   1      29.382  30.111  23.480  1.00  0.00    -0.192 NA
ENDBRANCH  16  22
ENDBRANCH  14  15
ENDBRANCH   8  14
ENDBRANCH   4   7
ENDBRANCH   2   3
ENDBRANCH   1   2
BRANCH   1  24
ATOM     24  C   UNL A   1      40.360  23.115  27.086  1.00  0.00     0.118 C 
BRANCH  24  25
ATOM     25  N   UNL A   1      41.130  23.850  26.095  1.00  0.00    -0.352 N 
ATOM     26  C   UNL A   1      41.535  25.161  26.103  1.00  0.00     0.251 C 
ATOM     27  H   UNL A   1      41.400  23.331  25.303  1.00  0.00     0.163 HD
ATOM     28  O   UNL A   1      41.998  25.657  25.081  1.00  0.00    -0.269 OA
BRANCH  26  29
ATOM     29  C   UNL A   1      41.387  25.974  27.328  1.00  0.00     0.039 A 
ATOM     30  C   UNL A   1      42.417  26.846  27.680  1.00  0.00     0.014 A 
ATOM     31  C   UNL A   1      40.243  25.880  28.128  1.00  0.00     0.014 A 
ATOM     32  C   UNL A   1      42.274  27.668  28.800  1.00  0.00     0.010 A 
ATOM     33  C   UNL A   1      40.068  26.757  29.196  1.00  0.00     0.010 A 
ATOM     34  C   UNL A   1      41.081  27.662  29.544  1.00  0.00    -0.014 A 
BRANCH  34  35
ATOM     35  C   UNL A   1      40.883  28.620  30.663  1.00  0.00     0.031 A 
ATOM     36  C   UNL A   1      41.708  28.517  31.918  1.00  0.00     0.074 A 
ATOM     37  C   UNL A   1      39.931  29.572  30.555  1.00  0.00     0.049 A 
ATOM     38  N   UNL A   1      41.658  29.256  32.997  1.00  0.00    -0.248 NA
ATOM     39  C   UNL A   1      42.707  27.438  31.978  1.00  0.00     0.031 C 
ATOM     40  C   UNL A   1      39.033  29.742  29.409  1.00  0.00     0.029 A 
ATOM     41  N   UNL A   1      39.557  30.573  31.415  1.00  0.00    -0.354 N 
ATOM     42  C   UNL A   1      42.619  28.738  33.858  1.00  0.00     0.074 A 
ATOM     43  C   UNL A   1      43.194  27.583  33.203  1.00  0.00     0.031 C 
ATOM     44  C   UNL A   1      38.238  30.801  29.624  1.00  0.00     0.029 A 
ATOM     45  C   UNL A   1      38.528  31.356  30.941  1.00  0.00     0.049 A 
ATOM     46  H   UNL A   1      39.984  30.719  32.290  1.00  0.00     0.167 HD
ATOM     47  C   UNL A   1      43.008  29.200  35.070  1.00  0.00     0.037 A 
ATOM     48  C   UNL A   1      37.880  32.392  31.508  1.00  0.00     0.037 A 
ATOM     49  C   UNL A   1      42.435  30.356  35.716  1.00  0.00     0.049 A 
ATOM     50  C   UNL A   1      38.308  32.858  32.875  1.00  0.00     0.074 A 
ATOM     51  C   UNL A   1      42.783  30.922  36.930  1.00  0.00     0.029 A 
ATOM     52  N   UNL A   1      41.394  31.118  35.206  1.00  0.00    -0.354 N 
ATOM     53  N   UNL A   1      39.265  32.395  33.643  1.00  0.00    -0.248 NA
ATOM     54  C   UNL A   1      37.572  33.992  33.450  1.00  0.00     0.031 C 
ATOM     55  C   UNL A   1      41.916  31.988  37.182  1.00  0.00     0.029 A 
ATOM     56  C   UNL A   1      41.072  32.132  36.094  1.00  0.00     0.049 A 
ATOM     57  H   UNL A   1      40.950  30.962  34.342  1.00  0.00     0.167 HD
ATOM     58  C   UNL A   1      39.266  33.203  34.777  1.00  0.00     0.074 A 
ATOM     59  C   UNL A   1      38.233  34.197  34.579  1.00  0.00     0.031 C 
ATOM     60  C   UNL A   1      40.048  33.125  35.883  1.00  0.00     0.037 A 
BRANCH  47  61
ATOM     61  C   UNL A   1      44.117  28.474  35.784  1.00  0.00     0.058 A 
ATOM     62  C   UNL A   1      45.464  28.829  35.601  1.00  0.00     0.135 A 
ATOM     63  C   UNL A   1      43.829  27.472  36.726  1.00  0.00     0.135 A 
ATOM     64  F   UNL A   1      45.800  29.768  34.701  1.00  0.00    -0.206 F 
ATOM     65  C   UNL A   1      46.484  28.214  36.319  1.00  0.00     0.059 A 
ATOM     66  C   UNL A   1      44.831  26.865  37.478  1.00  0.00     0.059 A 
ATOM     67  F   UNL A   1      42.560  27.090  36.940  1.00  0.00    -0.206 F 
ATOM     68  C   UNL A   1      46.157  27.241  37.264  1.00  0.00     0.060 A 
BRANCH  68  69
ATOM     69  S   UNL A   1      47.490  26.493  38.223  1.00  0.00     0.124 S 
ATOM     70  O   UNL A   1      47.674  25.223  37.528  1.00  0.00    -0.237 OA
ATOM     71  O   UNL A   1      48.568  27.464  38.062  1.00  0.00    -0.237 OA
ATOM     72  O   UNL A   1      46.933  26.396  39.568  1.00  0.00    -0.744 OA
ENDBRANCH  68  69
ENDBRANCH  47  61
BRANCH  48  73
ATOM     73  C   UNL A   1      36.750  33.056  30.799  1.00  0.00     0.058 A 
ATOM     74  C   UNL A   1      36.975  33.945  29.736  1.00  0.00     0.135 A 
ATOM     75  C   UNL A   1      35.420  32.845  31.197  1.00  0.00     0.135 A 
ATOM     76  F   UNL A   1      38.228  34.185  29.316  1.00  0.00    -0.206 F 
ATOM     77  C   UNL A   1      35.932  34.636  29.126  1.00  0.00     0.059 A 
ATOM     78  C   UNL A   1      34.357  33.493  30.577  1.00  0.00     0.059 A 
ATOM     79  F   UNL A   1      35.142  31.991  32.194  1.00  0.00    -0.206 F 
ATOM     80  C   UNL A   1      34.626  34.403  29.557  1.00  0.00     0.060 A 
BRANCH  80  81
ATOM     81  S   UNL A   1      33.278  35.302  28.759  1.00  0.00     0.124 S 
ATOM     82  O   UNL A   1      34.008  36.303  27.990  1.00  0.00    -0.237 OA
ATOM     83  O   UNL A   1      32.625  34.249  27.986  1.00  0.00    -0.237 OA
ATOM     84  O   UNL A   1      32.502  35.813  29.886  1.00  0.00    -0.744 OA
ENDBRANCH  80  81
ENDBRANCH  48  73
BRANCH  60  85
ATOM     85  C   UNL A   1      39.846  34.171  36.948  1.00  0.00     0.058 A 
ATOM     86  C   UNL A   1      38.975  33.970  38.031  1.00  0.00     0.135 A 
ATOM     87  C   UNL A   1      40.558  35.380  36.900  1.00  0.00     0.135 A 
ATOM     88  F   UNL A   1      38.264  32.835  38.126  1.00  0.00    -0.206 F 
ATOM     89  C   UNL A   1      38.787  34.946  39.004  1.00  0.00     0.059 A 
ATOM     90  C   UNL A   1      40.416  36.354  37.884  1.00  0.00     0.059 A 
ATOM     91  F   UNL A   1      41.415  35.622  35.895  1.00  0.00    -0.206 F 
ATOM     92  C   UNL A   1      39.515  36.135  38.923  1.00  0.00     0.060 A 
BRANCH  92  93
ATOM     93  S   UNL A   1      39.274  37.382  40.204  1.00  0.00     0.124 S 
ATOM     94  O   UNL A   1      38.200  38.188  39.633  1.00  0.00    -0.237 OA
ATOM     95  O   UNL A   1      38.911  36.572  41.362  1.00  0.00    -0.237 OA
ATOM     96  O   UNL A   1      40.575  38.040  40.288  1.00  0.00    -0.744 OA
ENDBRANCH  92  93
ENDBRANCH  60  85
ENDBRANCH  34  35
ENDBRANCH  26  29
ENDBRANCH  24  25
ENDBRANCH   1  24
TORSDOF 16
ENDMDL
