MODEL 1
REMARK VINA RESULT:     -12.0      0.000      0.000
REMARK SMILES Nc1ncccc1C[N@@H+]1CC2(CC[NH2+]CC2)C[C@H]1C(=O)NCCCNC(=O)c1ccc(-c2c3nc(c(-c4c(F)cc(S(=O)(=O)[O-])cc4F)c4ccc([nH]4)c(-c4c(F)cc(S(=O)(=O)[O-])cc4F)c4nc(c(-c5c(F)cc(S(=O)(=O)[O-])cc5F)c5ccc2[nH]5)C=C4)C=C3)cc1
REMARK SMILES IDX 23 1 22 2 21 3 19 4 20 5 18 7 9 8 10 9 11 11 17 12 12 13
REMARK SMILES IDX 16 14 13 15 15 16 14 17 8 20 7 21 2 22 3 23 4 24 6 25 5 26
REMARK SMILES IDX 1 27 24 30 25 31 26 32 27 34 28 35 29 36 93 37 30 38 92 39
REMARK SMILES IDX 31 40 32 41 33 42 86 43 34 44 91 45 85 46 87 47 35 48 90 49
REMARK SMILES IDX 84 50 83 51 36 53 70 54 49 55 69 56 50 57 53 58 68 59 88 60
REMARK SMILES IDX 51 61 52 62 67 64 89 65 54 66 37 67 38 68 47 69 39 70 40 71
REMARK SMILES IDX 46 72 48 73 41 74 42 75 43 76 44 77 45 78 71 79 72 80 81 81
REMARK SMILES IDX 73 82 74 83 80 84 82 85 75 86 76 87 77 88 78 89 79 90 55 91
REMARK SMILES IDX 56 92 65 93 57 94 58 95 64 96 66 97 59 98 60 99 61 100
REMARK SMILES IDX 62 101 63 102
REMARK H PARENT 21 6 9 10 14 18 14 19 1 28 1 29 25 33 87 52 53 63
REMARK Flexibility Score: inf
ROOT
ATOM      1  C   UNL A   1      32.097  27.959  27.056  1.00  0.00     0.042 C 
ENDROOT
BRANCH   1   2
ATOM      2  C   UNL A   1      31.630  27.959  25.617  1.00  0.00     0.118 C 
BRANCH   2   3
ATOM      3  N   UNL A   1      32.626  27.793  24.606  1.00  0.00    -0.351 N 
ATOM      4  C   UNL A   1      33.134  26.625  24.117  1.00  0.00     0.278 C 
ATOM      5  O   UNL A   1      33.817  26.738  23.088  1.00  0.00    -0.268 OA
ATOM      6  H   UNL A   1      32.989  28.620  24.217  1.00  0.00     0.163 HD
BRANCH   4   7
ATOM      7  C   UNL A   1      32.949  25.210  24.777  1.00  0.00     0.275 C 
ATOM      8  N   UNL A   1      33.069  24.143  23.771  1.00  0.00    -0.320 N 
ATOM      9  C   UNL A   1      34.295  23.375  24.051  1.00  0.00     0.270 C 
ATOM     10  H   UNL A   1      33.192  24.533  22.837  1.00  0.00     0.349 HD
ATOM     11  C   UNL A   1      34.769  23.654  25.514  1.00  0.00     0.036 C 
ATOM     12  C   UNL A   1      33.765  24.735  25.992  1.00  0.00     0.089 C 
ATOM     13  C   UNL A   1      36.211  24.174  25.822  1.00  0.00     0.074 C 
ATOM     14  C   UNL A   1      34.786  22.300  26.273  1.00  0.00     0.074 C 
ATOM     15  C   UNL A   1      37.307  23.280  25.264  1.00  0.00     0.261 C 
ATOM     16  C   UNL A   1      35.901  21.374  25.735  1.00  0.00     0.261 C 
ATOM     17  N   UNL A   1      37.233  21.956  25.873  1.00  0.00    -0.346 N 
ATOM     18  H   UNL A   1      37.459  22.035  26.865  1.00  0.00     0.346 HD
ATOM     19  H   UNL A   1      37.899  21.348  25.396  1.00  0.00     0.346 HD
BRANCH   8  20
ATOM     20  C   UNL A   1      31.807  23.380  23.573  1.00  0.00     0.303 C 
BRANCH  20  21
ATOM     21  C   UNL A   1      31.852  21.879  23.814  1.00  0.00     0.048 A 
ATOM     22  C   UNL A   1      31.741  21.296  25.081  1.00  0.00     0.132 A 
ATOM     23  N   UNL A   1      32.130  20.031  25.342  1.00  0.00    -0.239 NA
ATOM     24  C   UNL A   1      32.552  19.279  24.308  1.00  0.00     0.113 A 
ATOM     25  C   UNL A   1      32.120  21.014  22.750  1.00  0.00     0.015 A 
ATOM     26  C   UNL A   1      32.509  19.702  22.998  1.00  0.00     0.021 A 
BRANCH  22  27
ATOM     27  N   UNL A   1      31.263  21.977  26.181  1.00  0.00    -0.383 N 
ATOM     28  H   UNL A   1      30.293  22.042  26.337  1.00  0.00     0.158 HD
ATOM     29  H   UNL A   1      31.892  22.398  26.810  1.00  0.00     0.158 HD
ENDBRANCH  22  27
ENDBRANCH  20  21
ENDBRANCH   8  20
ENDBRANCH   4   7
ENDBRANCH   2   3
ENDBRANCH   1   2
BRANCH   1  30
ATOM     30  C   UNL A   1      33.494  28.524  27.230  1.00  0.00     0.118 C 
BRANCH  30  31
ATOM     31  N   UNL A   1      33.500  29.925  27.658  1.00  0.00    -0.352 N 
ATOM     32  C   UNL A   1      34.481  30.684  28.256  1.00  0.00     0.251 C 
ATOM     33  H   UNL A   1      32.658  30.406  27.488  1.00  0.00     0.163 HD
ATOM     34  O   UNL A   1      34.211  31.807  28.656  1.00  0.00    -0.269 OA
BRANCH  32  35
ATOM     35  C   UNL A   1      35.843  30.133  28.438  1.00  0.00     0.039 A 
ATOM     36  C   UNL A   1      36.737  30.149  27.362  1.00  0.00     0.014 A 
ATOM     37  C   UNL A   1      36.245  29.611  29.666  1.00  0.00     0.014 A 
ATOM     38  C   UNL A   1      38.055  29.729  27.551  1.00  0.00     0.010 A 
ATOM     39  C   UNL A   1      37.581  29.313  29.886  1.00  0.00     0.010 A 
ATOM     40  C   UNL A   1      38.501  29.357  28.829  1.00  0.00    -0.014 A 
BRANCH  40  41
ATOM     41  C   UNL A   1      39.916  29.000  29.098  1.00  0.00     0.031 A 
ATOM     42  C   UNL A   1      40.852  30.030  29.673  1.00  0.00     0.074 A 
ATOM     43  C   UNL A   1      40.378  27.787  28.733  1.00  0.00     0.049 A 
ATOM     44  N   UNL A   1      42.140  29.953  29.878  1.00  0.00    -0.248 NA
ATOM     45  C   UNL A   1      40.266  31.334  30.024  1.00  0.00     0.031 C 
ATOM     46  C   UNL A   1      39.579  26.728  28.113  1.00  0.00     0.029 A 
ATOM     47  N   UNL A   1      41.635  27.246  28.819  1.00  0.00    -0.354 N 
ATOM     48  C   UNL A   1      42.521  31.202  30.356  1.00  0.00     0.074 A 
ATOM     49  C   UNL A   1      41.341  32.036  30.347  1.00  0.00     0.031 C 
ATOM     50  C   UNL A   1      40.356  25.652  27.908  1.00  0.00     0.029 A 
ATOM     51  C   UNL A   1      41.717  25.961  28.336  1.00  0.00     0.049 A 
ATOM     52  H   UNL A   1      42.406  27.731  29.191  1.00  0.00     0.167 HD
ATOM     53  C   UNL A   1      43.738  31.608  30.789  1.00  0.00     0.037 A 
ATOM     54  C   UNL A   1      42.771  25.128  28.243  1.00  0.00     0.037 A 
ATOM     55  C   UNL A   1      44.898  30.758  30.820  1.00  0.00     0.049 A 
ATOM     56  C   UNL A   1      44.114  25.599  28.726  1.00  0.00     0.074 A 
ATOM     57  C   UNL A   1      46.161  31.040  31.311  1.00  0.00     0.029 A 
ATOM     58  N   UNL A   1      44.939  29.459  30.334  1.00  0.00    -0.354 N 
ATOM     59  N   UNL A   1      44.443  26.758  29.247  1.00  0.00    -0.248 NA
ATOM     60  C   UNL A   1      45.230  24.652  28.610  1.00  0.00     0.031 C 
ATOM     61  C   UNL A   1      46.978  29.930  31.071  1.00  0.00     0.029 A 
ATOM     62  C   UNL A   1      46.213  28.936  30.481  1.00  0.00     0.049 A 
ATOM     63  H   UNL A   1      44.174  28.979  29.941  1.00  0.00     0.167 HD
ATOM     64  C   UNL A   1      45.799  26.674  29.539  1.00  0.00     0.074 A 
ATOM     65  C   UNL A   1      46.224  25.342  29.151  1.00  0.00     0.031 C 
ATOM     66  C   UNL A   1      46.618  27.611  30.079  1.00  0.00     0.037 A 
BRANCH  53  67
ATOM     67  C   UNL A   1      43.866  33.035  31.256  1.00  0.00     0.058 A 
ATOM     68  C   UNL A   1      43.608  33.408  32.585  1.00  0.00     0.135 A 
ATOM     69  C   UNL A   1      44.246  34.047  30.358  1.00  0.00     0.135 A 
ATOM     70  F   UNL A   1      43.227  32.486  33.485  1.00  0.00    -0.206 F 
ATOM     71  C   UNL A   1      43.667  34.736  32.995  1.00  0.00     0.059 A 
ATOM     72  C   UNL A   1      44.346  35.378  30.755  1.00  0.00     0.059 A 
ATOM     73  F   UNL A   1      44.508  33.751  29.076  1.00  0.00    -0.206 F 
ATOM     74  C   UNL A   1      44.031  35.715  32.071  1.00  0.00     0.060 A 
BRANCH  74  75
ATOM     75  S   UNL A   1      44.075  37.437  32.612  1.00  0.00     0.124 S 
ATOM     76  O   UNL A   1      43.025  37.450  33.624  1.00  0.00    -0.237 OA
ATOM     77  O   UNL A   1      45.440  37.572  33.112  1.00  0.00    -0.237 OA
ATOM     78  O   UNL A   1      43.781  38.184  31.393  1.00  0.00    -0.744 OA
ENDBRANCH  74  75
ENDBRANCH  53  67
BRANCH  54  79
ATOM     79  C   UNL A   1      42.580  23.755  27.704  1.00  0.00     0.058 A 
ATOM     80  C   UNL A   1      42.597  23.519  26.322  1.00  0.00     0.135 A 
ATOM     81  C   UNL A   1      42.428  22.647  28.554  1.00  0.00     0.135 A 
ATOM     82  F   UNL A   1      42.732  24.547  25.470  1.00  0.00    -0.206 F 
ATOM     83  C   UNL A   1      42.470  22.237  25.798  1.00  0.00     0.059 A 
ATOM     84  C   UNL A   1      42.324  21.352  28.055  1.00  0.00     0.059 A 
ATOM     85  F   UNL A   1      42.420  22.817  29.885  1.00  0.00    -0.206 F 
ATOM     86  C   UNL A   1      42.343  21.158  26.675  1.00  0.00     0.060 A 
BRANCH  86  87
ATOM     87  S   UNL A   1      42.261  19.491  25.984  1.00  0.00     0.124 S 
ATOM     88  O   UNL A   1      40.841  19.372  25.671  1.00  0.00    -0.237 OA
ATOM     89  O   UNL A   1      43.162  19.589  24.840  1.00  0.00    -0.237 OA
ATOM     90  O   UNL A   1      42.738  18.650  27.077  1.00  0.00    -0.744 OA
ENDBRANCH  86  87
ENDBRANCH  54  79
BRANCH  66  91
ATOM     91  C   UNL A   1      48.056  27.226  30.295  1.00  0.00     0.058 A 
ATOM     92  C   UNL A   1      49.050  27.536  29.354  1.00  0.00     0.135 A 
ATOM     93  C   UNL A   1      48.453  26.589  31.483  1.00  0.00     0.135 A 
ATOM     94  F   UNL A   1      48.723  28.138  28.199  1.00  0.00    -0.206 F 
ATOM     95  C   UNL A   1      50.384  27.207  29.572  1.00  0.00     0.059 A 
ATOM     96  C   UNL A   1      49.785  26.278  31.734  1.00  0.00     0.059 A 
ATOM     97  F   UNL A   1      47.543  26.279  32.420  1.00  0.00    -0.206 F 
ATOM     98  C   UNL A   1      50.741  26.582  30.767  1.00  0.00     0.060 A 
BRANCH  98  99
ATOM     99  S   UNL A   1      52.481  26.195  31.052  1.00  0.00     0.124 S 
ATOM    100  O   UNL A   1      52.994  26.124  29.689  1.00  0.00    -0.237 OA
ATOM    101  O   UNL A   1      52.930  27.340  31.840  1.00  0.00    -0.237 OA
ATOM    102  O   UNL A   1      52.434  24.926  31.773  1.00  0.00    -0.744 OA
ENDBRANCH  98  99
ENDBRANCH  66  91
ENDBRANCH  40  41
ENDBRANCH  32  35
ENDBRANCH  30  31
ENDBRANCH   1  30
TORSDOF 16
ENDMDL
MODEL 2
REMARK VINA RESULT:     -11.9      4.926     10.598
REMARK SMILES Nc1ncccc1C[N@@H+]1CC2(CC[NH2+]CC2)C[C@H]1C(=O)NCCCNC(=O)c1ccc(-c2c3nc(c(-c4c(F)cc(S(=O)(=O)[O-])cc4F)c4ccc([nH]4)c(-c4c(F)cc(S(=O)(=O)[O-])cc4F)c4nc(c(-c5c(F)cc(S(=O)(=O)[O-])cc5F)c5ccc2[nH]5)C=C4)C=C3)cc1
REMARK SMILES IDX 23 1 22 2 21 3 19 4 20 5 18 7 9 8 10 9 11 11 17 12 12 13
REMARK SMILES IDX 16 14 13 15 15 16 14 17 8 20 7 21 2 22 3 23 4 24 6 25 5 26
REMARK SMILES IDX 1 27 24 30 25 31 26 32 27 34 28 35 29 36 93 37 30 38 92 39
REMARK SMILES IDX 31 40 32 41 33 42 86 43 34 44 91 45 85 46 87 47 35 48 90 49
REMARK SMILES IDX 84 50 83 51 36 53 70 54 49 55 69 56 50 57 53 58 68 59 88 60
REMARK SMILES IDX 51 61 52 62 67 64 89 65 54 66 37 67 38 68 47 69 39 70 40 71
REMARK SMILES IDX 46 72 48 73 41 74 42 75 43 76 44 77 45 78 71 79 72 80 81 81
REMARK SMILES IDX 73 82 74 83 80 84 82 85 75 86 76 87 77 88 78 89 79 90 55 91
REMARK SMILES IDX 56 92 65 93 57 94 58 95 64 96 66 97 59 98 60 99 61 100
REMARK SMILES IDX 62 101 63 102
REMARK H PARENT 21 6 9 10 14 18 14 19 1 28 1 29 25 33 87 52 53 63
REMARK Flexibility Score: inf
ROOT
ATOM      1  C   UNL A   1      37.426  23.144  25.383  1.00  0.00     0.042 C 
ENDROOT
BRANCH   1   2
ATOM      2  C   UNL A   1      36.072  23.726  25.044  1.00  0.00     0.118 C 
BRANCH   2   3
ATOM      3  N   UNL A   1      35.031  23.566  26.010  1.00  0.00    -0.351 N 
ATOM      4  C   UNL A   1      33.767  24.079  25.969  1.00  0.00     0.278 C 
ATOM      5  O   UNL A   1      32.982  23.612  26.808  1.00  0.00    -0.268 OA
ATOM      6  H   UNL A   1      35.252  23.021  26.799  1.00  0.00     0.163 HD
BRANCH   4   7
ATOM      7  C   UNL A   1      33.281  25.211  24.993  1.00  0.00     0.275 C 
ATOM      8  N   UNL A   1      31.857  25.513  25.210  1.00  0.00    -0.320 N 
ATOM      9  C   UNL A   1      31.749  26.872  25.769  1.00  0.00     0.270 C 
ATOM     10  H   UNL A   1      31.453  24.891  25.910  1.00  0.00     0.349 HD
ATOM     11  C   UNL A   1      33.079  27.653  25.516  1.00  0.00     0.036 C 
ATOM     12  C   UNL A   1      33.984  26.574  24.866  1.00  0.00     0.089 C 
ATOM     13  C   UNL A   1      33.882  28.304  26.689  1.00  0.00     0.074 C 
ATOM     14  C   UNL A   1      32.737  28.910  24.672  1.00  0.00     0.074 C 
ATOM     15  C   UNL A   1      33.058  29.277  27.517  1.00  0.00     0.261 C 
ATOM     16  C   UNL A   1      31.910  29.924  25.494  1.00  0.00     0.261 C 
ATOM     17  N   UNL A   1      32.612  30.390  26.687  1.00  0.00    -0.346 N 
ATOM     18  H   UNL A   1      33.425  30.936  26.400  1.00  0.00     0.346 HD
ATOM     19  H   UNL A   1      31.966  30.960  27.235  1.00  0.00     0.346 HD
BRANCH   8  20
ATOM     20  C   UNL A   1      31.002  25.179  24.038  1.00  0.00     0.303 C 
BRANCH  20  21
ATOM     21  C   UNL A   1      30.263  26.325  23.363  1.00  0.00     0.048 A 
ATOM     22  C   UNL A   1      30.835  27.142  22.382  1.00  0.00     0.132 A 
ATOM     23  N   UNL A   1      30.330  28.347  22.046  1.00  0.00    -0.239 NA
ATOM     24  C   UNL A   1      29.172  28.724  22.622  1.00  0.00     0.113 A 
ATOM     25  C   UNL A   1      28.980  26.671  23.794  1.00  0.00     0.015 A 
ATOM     26  C   UNL A   1      28.436  27.904  23.448  1.00  0.00     0.021 A 
BRANCH  22  27
ATOM     27  N   UNL A   1      31.986  26.804  21.702  1.00  0.00    -0.383 N 
ATOM     28  H   UNL A   1      32.517  27.502  21.254  1.00  0.00     0.158 HD
ATOM     29  H   UNL A   1      32.278  25.865  21.664  1.00  0.00     0.158 HD
ENDBRANCH  22  27
ENDBRANCH  20  21
ENDBRANCH   8  20
ENDBRANCH   4   7
ENDBRANCH   2   3
ENDBRANCH   1   2
BRANCH   1  30
ATOM     30  C   UNL A   1      38.247  24.035  26.297  1.00  0.00     0.118 C 
BRANCH  30  31
ATOM     31  N   UNL A   1      39.689  23.817  26.171  1.00  0.00    -0.352 N 
ATOM     32  C   UNL A   1      40.759  24.525  26.672  1.00  0.00     0.251 C 
ATOM     33  H   UNL A   1      39.937  23.028  25.636  1.00  0.00     0.163 HD
ATOM     34  O   UNL A   1      41.892  24.234  26.317  1.00  0.00    -0.269 OA
BRANCH  32  35
ATOM     35  C   UNL A   1      40.536  25.647  27.613  1.00  0.00     0.039 A 
ATOM     36  C   UNL A   1      39.540  25.534  28.588  1.00  0.00     0.014 A 
ATOM     37  C   UNL A   1      41.310  26.803  27.542  1.00  0.00     0.014 A 
ATOM     38  C   UNL A   1      39.392  26.541  29.545  1.00  0.00     0.010 A 
ATOM     39  C   UNL A   1      41.247  27.741  28.561  1.00  0.00     0.010 A 
ATOM     40  C   UNL A   1      40.280  27.627  29.569  1.00  0.00    -0.014 A 
BRANCH  40  41
ATOM     41  C   UNL A   1      40.224  28.668  30.626  1.00  0.00     0.031 A 
ATOM     42  C   UNL A   1      41.114  28.556  31.835  1.00  0.00     0.074 A 
ATOM     43  C   UNL A   1      39.307  29.652  30.543  1.00  0.00     0.049 A 
ATOM     44  N   UNL A   1      41.141  29.295  32.913  1.00  0.00    -0.248 NA
ATOM     45  C   UNL A   1      42.072  27.438  31.851  1.00  0.00     0.031 C 
ATOM     46  C   UNL A   1      38.350  29.830  29.448  1.00  0.00     0.029 A 
ATOM     47  N   UNL A   1      39.020  30.682  31.402  1.00  0.00    -0.354 N 
ATOM     48  C   UNL A   1      42.096  28.718  33.742  1.00  0.00     0.074 A 
ATOM     49  C   UNL A   1      42.577  27.531  33.071  1.00  0.00     0.031 C 
ATOM     50  C   UNL A   1      37.608  30.923  29.684  1.00  0.00     0.029 A 
ATOM     51  C   UNL A   1      38.000  31.496  30.967  1.00  0.00     0.049 A 
ATOM     52  H   UNL A   1      39.498  30.825  32.250  1.00  0.00     0.167 HD
ATOM     53  C   UNL A   1      42.551  29.152  34.941  1.00  0.00     0.037 A 
ATOM     54  C   UNL A   1      37.441  32.578  31.542  1.00  0.00     0.037 A 
ATOM     55  C   UNL A   1      42.084  30.352  35.584  1.00  0.00     0.049 A 
ATOM     56  C   UNL A   1      37.958  33.043  32.874  1.00  0.00     0.074 A 
ATOM     57  C   UNL A   1      42.529  30.928  36.760  1.00  0.00     0.029 A 
ATOM     58  N   UNL A   1      41.059  31.156  35.107  1.00  0.00    -0.354 N 
ATOM     59  N   UNL A   1      38.915  32.530  33.611  1.00  0.00    -0.248 NA
ATOM     60  C   UNL A   1      37.320  34.231  33.455  1.00  0.00     0.031 C 
ATOM     61  C   UNL A   1      41.736  32.051  37.021  1.00  0.00     0.029 A 
ATOM     62  C   UNL A   1      40.833  32.206  35.982  1.00  0.00     0.049 A 
ATOM     63  H   UNL A   1      40.564  31.002  34.270  1.00  0.00     0.167 HD
ATOM     64  C   UNL A   1      39.009  33.344  34.735  1.00  0.00     0.074 A 
ATOM     65  C   UNL A   1      38.021  34.393  34.569  1.00  0.00     0.031 C 
ATOM     66  C   UNL A   1      39.837  33.235  35.804  1.00  0.00     0.037 A 
BRANCH  53  67
ATOM     67  C   UNL A   1      43.601  28.317  35.628  1.00  0.00     0.058 A 
ATOM     68  C   UNL A   1      44.970  28.481  35.363  1.00  0.00     0.135 A 
ATOM     69  C   UNL A   1      43.231  27.332  36.559  1.00  0.00     0.135 A 
ATOM     70  F   UNL A   1      45.383  29.398  34.472  1.00  0.00    -0.206 F 
ATOM     71  C   UNL A   1      45.931  27.666  35.953  1.00  0.00     0.059 A 
ATOM     72  C   UNL A   1      44.178  26.528  37.188  1.00  0.00     0.059 A 
ATOM     73  F   UNL A   1      41.938  27.131  36.855  1.00  0.00    -0.206 F 
ATOM     74  C   UNL A   1      45.524  26.687  36.860  1.00  0.00     0.060 A 
BRANCH  74  75
ATOM     75  S   UNL A   1      46.779  25.618  37.594  1.00  0.00     0.124 S 
ATOM     76  O   UNL A   1      47.923  26.521  37.666  1.00  0.00    -0.237 OA
ATOM     77  O   UNL A   1      46.174  25.258  38.873  1.00  0.00    -0.237 OA
ATOM     78  O   UNL A   1      46.901  24.526  36.634  1.00  0.00    -0.744 OA
ENDBRANCH  74  75
ENDBRANCH  53  67
BRANCH  54  79
ATOM     79  C   UNL A   1      36.358  33.312  30.833  1.00  0.00     0.058 A 
ATOM     80  C   UNL A   1      35.029  33.225  31.273  1.00  0.00     0.135 A 
ATOM     81  C   UNL A   1      36.631  34.149  29.740  1.00  0.00     0.135 A 
ATOM     82  F   UNL A   1      34.717  32.431  32.309  1.00  0.00    -0.206 F 
ATOM     83  C   UNL A   1      34.008  33.940  30.657  1.00  0.00     0.059 A 
ATOM     84  C   UNL A   1      35.631  34.894  29.122  1.00  0.00     0.059 A 
ATOM     85  F   UNL A   1      37.888  34.279  29.290  1.00  0.00    -0.206 F 
ATOM     86  C   UNL A   1      34.321  34.780  29.587  1.00  0.00     0.060 A 
BRANCH  86  87
ATOM     87  S   UNL A   1      32.999  35.766  28.848  1.00  0.00     0.124 S 
ATOM     88  O   UNL A   1      32.253  36.189  30.027  1.00  0.00    -0.237 OA
ATOM     89  O   UNL A   1      33.747  36.810  28.155  1.00  0.00    -0.237 OA
ATOM     90  O   UNL A   1      32.316  34.813  27.978  1.00  0.00    -0.744 OA
ENDBRANCH  86  87
ENDBRANCH  54  79
BRANCH  66  91
ATOM     91  C   UNL A   1      39.719  34.284  36.875  1.00  0.00     0.058 A 
ATOM     92  C   UNL A   1      38.982  34.058  38.047  1.00  0.00     0.135 A 
ATOM     93  C   UNL A   1      40.398  35.508  36.751  1.00  0.00     0.135 A 
ATOM     94  F   UNL A   1      38.309  32.909  38.212  1.00  0.00    -0.206 F 
ATOM     95  C   UNL A   1      38.902  35.019  39.051  1.00  0.00     0.059 A 
ATOM     96  C   UNL A   1      40.356  36.470  37.755  1.00  0.00     0.059 A 
ATOM     97  F   UNL A   1      41.125  35.769  35.654  1.00  0.00    -0.206 F 
ATOM     98  C   UNL A   1      39.596  36.219  38.897  1.00  0.00     0.060 A 
BRANCH  98  99
ATOM     99  S   UNL A   1      39.514  37.441  40.223  1.00  0.00     0.124 S 
ATOM    100  O   UNL A   1      38.639  38.451  39.638  1.00  0.00    -0.237 OA
ATOM    101  O   UNL A   1      38.944  36.669  41.323  1.00  0.00    -0.237 OA
ATOM    102  O   UNL A   1      40.906  37.843  40.402  1.00  0.00    -0.744 OA
ENDBRANCH  98  99
ENDBRANCH  66  91
ENDBRANCH  40  41
ENDBRANCH  32  35
ENDBRANCH  30  31
ENDBRANCH   1  30
TORSDOF 16
ENDMDL
MODEL 3
REMARK VINA RESULT:     -11.8      4.841     10.486
REMARK SMILES Nc1ncccc1C[N@@H+]1CC2(CC[NH2+]CC2)C[C@H]1C(=O)NCCCNC(=O)c1ccc(-c2c3nc(c(-c4c(F)cc(S(=O)(=O)[O-])cc4F)c4ccc([nH]4)c(-c4c(F)cc(S(=O)(=O)[O-])cc4F)c4nc(c(-c5c(F)cc(S(=O)(=O)[O-])cc5F)c5ccc2[nH]5)C=C4)C=C3)cc1
REMARK SMILES IDX 23 1 22 2 21 3 19 4 20 5 18 7 9 8 10 9 11 11 17 12 12 13
REMARK SMILES IDX 16 14 13 15 15 16 14 17 8 20 7 21 2 22 3 23 4 24 6 25 5 26
REMARK SMILES IDX 1 27 24 30 25 31 26 32 27 34 28 35 29 36 93 37 30 38 92 39
REMARK SMILES IDX 31 40 32 41 33 42 86 43 34 44 91 45 85 46 87 47 35 48 90 49
REMARK SMILES IDX 84 50 83 51 36 53 70 54 49 55 69 56 50 57 53 58 68 59 88 60
REMARK SMILES IDX 51 61 52 62 67 64 89 65 54 66 37 67 38 68 47 69 39 70 40 71
REMARK SMILES IDX 46 72 48 73 41 74 42 75 43 76 44 77 45 78 71 79 72 80 81 81
REMARK SMILES IDX 73 82 74 83 80 84 82 85 75 86 76 87 77 88 78 89 79 90 55 91
REMARK SMILES IDX 56 92 65 93 57 94 58 95 64 96 66 97 59 98 60 99 61 100
REMARK SMILES IDX 62 101 63 102
REMARK H PARENT 21 6 9 10 14 18 14 19 1 28 1 29 25 33 87 52 53 63
REMARK Flexibility Score: inf
ROOT
ATOM      1  C   UNL A   1      37.753  22.854  25.904  1.00  0.00     0.042 C 
ENDROOT
BRANCH   1   2
ATOM      2  C   UNL A   1      36.300  23.149  25.607  1.00  0.00     0.118 C 
BRANCH   2   3
ATOM      3  N   UNL A   1      35.825  22.844  24.295  1.00  0.00    -0.351 N 
ATOM      4  C   UNL A   1      35.037  23.616  23.491  1.00  0.00     0.278 C 
ATOM      5  O   UNL A   1      34.951  23.233  22.314  1.00  0.00    -0.268 OA
ATOM      6  H   UNL A   1      36.099  21.974  23.927  1.00  0.00     0.163 HD
BRANCH   4   7
ATOM      7  C   UNL A   1      34.229  24.880  23.960  1.00  0.00     0.275 C 
ATOM      8  N   UNL A   1      33.069  25.115  23.084  1.00  0.00    -0.320 N 
ATOM      9  C   UNL A   1      31.842  24.869  23.861  1.00  0.00     0.270 C 
ATOM     10  H   UNL A   1      33.051  24.446  22.314  1.00  0.00     0.349 HD
ATOM     11  C   UNL A   1      32.171  24.896  25.388  1.00  0.00     0.036 C 
ATOM     12  C   UNL A   1      33.712  25.064  25.398  1.00  0.00     0.089 C 
ATOM     13  C   UNL A   1      31.819  23.692  26.323  1.00  0.00     0.074 C 
ATOM     14  C   UNL A   1      31.319  26.019  26.037  1.00  0.00     0.074 C 
ATOM     15  C   UNL A   1      30.347  23.313  26.289  1.00  0.00     0.261 C 
ATOM     16  C   UNL A   1      29.817  25.655  26.029  1.00  0.00     0.261 C 
ATOM     17  N   UNL A   1      29.531  24.426  26.764  1.00  0.00    -0.346 N 
ATOM     18  H   UNL A   1      29.724  24.579  27.753  1.00  0.00     0.346 HD
ATOM     19  H   UNL A   1      28.549  24.187  26.617  1.00  0.00     0.346 HD
BRANCH   8  20
ATOM     20  C   UNL A   1      33.160  26.390  22.322  1.00  0.00     0.303 C 
BRANCH  20  21
ATOM     21  C   UNL A   1      32.438  27.600  22.895  1.00  0.00     0.048 A 
ATOM     22  C   UNL A   1      33.044  28.531  23.744  1.00  0.00     0.132 A 
ATOM     23  N   UNL A   1      32.341  29.379  24.523  1.00  0.00    -0.239 NA
ATOM     24  C   UNL A   1      30.999  29.381  24.396  1.00  0.00     0.113 A 
ATOM     25  C   UNL A   1      31.069  27.762  22.664  1.00  0.00     0.015 A 
ATOM     26  C   UNL A   1      30.329  28.642  23.447  1.00  0.00     0.021 A 
BRANCH  22  27
ATOM     27  N   UNL A   1      34.411  28.636  23.889  1.00  0.00    -0.383 N 
ATOM     28  H   UNL A   1      34.982  27.843  23.767  1.00  0.00     0.158 HD
ATOM     29  H   UNL A   1      34.817  29.504  24.113  1.00  0.00     0.158 HD
ENDBRANCH  22  27
ENDBRANCH  20  21
ENDBRANCH   8  20
ENDBRANCH   4   7
ENDBRANCH   2   3
ENDBRANCH   1   2
BRANCH   1  30
ATOM     30  C   UNL A   1      38.546  24.089  26.292  1.00  0.00     0.118 C 
BRANCH  30  31
ATOM     31  N   UNL A   1      39.993  23.913  26.147  1.00  0.00    -0.352 N 
ATOM     32  C   UNL A   1      41.047  24.649  26.641  1.00  0.00     0.251 C 
ATOM     33  H   UNL A   1      40.257  23.136  25.604  1.00  0.00     0.163 HD
ATOM     34  O   UNL A   1      42.184  24.393  26.270  1.00  0.00    -0.269 OA
BRANCH  32  35
ATOM     35  C   UNL A   1      40.803  25.757  27.592  1.00  0.00     0.039 A 
ATOM     36  C   UNL A   1      39.827  25.606  28.582  1.00  0.00     0.014 A 
ATOM     37  C   UNL A   1      41.539  26.938  27.517  1.00  0.00     0.014 A 
ATOM     38  C   UNL A   1      39.662  26.602  29.547  1.00  0.00     0.010 A 
ATOM     39  C   UNL A   1      41.462  27.867  28.543  1.00  0.00     0.010 A 
ATOM     40  C   UNL A   1      40.515  27.716  29.566  1.00  0.00    -0.014 A 
BRANCH  40  41
ATOM     41  C   UNL A   1      40.442  28.748  30.630  1.00  0.00     0.031 A 
ATOM     42  C   UNL A   1      41.349  28.654  31.827  1.00  0.00     0.074 A 
ATOM     43  C   UNL A   1      39.497  29.707  30.565  1.00  0.00     0.049 A 
ATOM     44  N   UNL A   1      41.368  29.386  32.910  1.00  0.00    -0.248 NA
ATOM     45  C   UNL A   1      42.339  27.563  31.824  1.00  0.00     0.031 C 
ATOM     46  C   UNL A   1      38.523  29.864  29.482  1.00  0.00     0.029 A 
ATOM     47  N   UNL A   1      39.191  30.722  31.434  1.00  0.00    -0.354 N 
ATOM     48  C   UNL A   1      42.349  28.831  33.724  1.00  0.00     0.074 A 
ATOM     49  C   UNL A   1      42.855  27.663  33.040  1.00  0.00     0.031 C 
ATOM     50  C   UNL A   1      37.753  30.934  29.733  1.00  0.00     0.029 A 
ATOM     51  C   UNL A   1      38.144  31.510  31.016  1.00  0.00     0.049 A 
ATOM     52  H   UNL A   1      39.675  30.873  32.277  1.00  0.00     0.167 HD
ATOM     53  C   UNL A   1      42.806  29.270  34.921  1.00  0.00     0.037 A 
ATOM     54  C   UNL A   1      37.561  32.572  31.604  1.00  0.00     0.037 A 
ATOM     55  C   UNL A   1      42.313  30.452  35.577  1.00  0.00     0.049 A 
ATOM     56  C   UNL A   1      38.081  33.043  32.933  1.00  0.00     0.074 A 
ATOM     57  C   UNL A   1      42.756  31.033  36.752  1.00  0.00     0.029 A 
ATOM     58  N   UNL A   1      41.260  31.230  35.117  1.00  0.00    -0.354 N 
ATOM     59  N   UNL A   1      39.061  32.553  33.656  1.00  0.00    -0.248 NA
ATOM     60  C   UNL A   1      37.417  34.209  33.530  1.00  0.00     0.031 C 
ATOM     61  C   UNL A   1      41.935  32.132  37.029  1.00  0.00     0.029 A 
ATOM     62  C   UNL A   1      41.015  32.268  36.002  1.00  0.00     0.049 A 
ATOM     63  H   UNL A   1      40.760  31.068  34.285  1.00  0.00     0.167 HD
ATOM     64  C   UNL A   1      39.145  33.362  34.784  1.00  0.00     0.074 A 
ATOM     65  C   UNL A   1      38.126  34.383  34.637  1.00  0.00     0.031 C 
ATOM     66  C   UNL A   1      39.989  33.269  35.842  1.00  0.00     0.037 A 
BRANCH  53  67
ATOM     67  C   UNL A   1      43.887  28.461  35.589  1.00  0.00     0.058 A 
ATOM     68  C   UNL A   1      43.589  27.446  36.514  1.00  0.00     0.135 A 
ATOM     69  C   UNL A   1      45.240  28.709  35.308  1.00  0.00     0.135 A 
ATOM     70  F   UNL A   1      42.313  27.173  36.833  1.00  0.00    -0.206 F 
ATOM     71  C   UNL A   1      44.592  26.744  37.175  1.00  0.00     0.059 A 
ATOM     72  C   UNL A   1      46.260  27.995  35.932  1.00  0.00     0.059 A 
ATOM     73  F   UNL A   1      45.586  29.664  34.432  1.00  0.00    -0.206 F 
ATOM     74  C   UNL A   1      45.926  27.030  36.882  1.00  0.00     0.060 A 
BRANCH  74  75
ATOM     75  S   UNL A   1      47.215  26.132  37.769  1.00  0.00     0.124 S 
ATOM     76  O   UNL A   1      47.940  25.504  36.670  1.00  0.00    -0.237 OA
ATOM     77  O   UNL A   1      47.922  27.204  38.464  1.00  0.00    -0.237 OA
ATOM     78  O   UNL A   1      46.466  25.221  38.628  1.00  0.00    -0.744 OA
ENDBRANCH  74  75
ENDBRANCH  53  67
BRANCH  54  79
ATOM     79  C   UNL A   1      36.450  33.279  30.913  1.00  0.00     0.058 A 
ATOM     80  C   UNL A   1      35.136  33.190  31.396  1.00  0.00     0.135 A 
ATOM     81  C   UNL A   1      36.681  34.095  29.794  1.00  0.00     0.135 A 
ATOM     82  F   UNL A   1      34.864  32.417  32.458  1.00  0.00    -0.206 F 
ATOM     83  C   UNL A   1      34.089  33.882  30.795  1.00  0.00     0.059 A 
ATOM     84  C   UNL A   1      35.655  34.816  29.191  1.00  0.00     0.059 A 
ATOM     85  F   UNL A   1      37.922  34.227  29.303  1.00  0.00    -0.206 F 
ATOM     86  C   UNL A   1      34.361  34.701  29.698  1.00  0.00     0.060 A 
BRANCH  86  87
ATOM     87  S   UNL A   1      33.007  35.657  28.979  1.00  0.00     0.124 S 
ATOM     88  O   UNL A   1      32.237  36.014  30.164  1.00  0.00    -0.237 OA
ATOM     89  O   UNL A   1      33.719  36.751  28.325  1.00  0.00    -0.237 OA
ATOM     90  O   UNL A   1      32.369  34.706  28.074  1.00  0.00    -0.744 OA
ENDBRANCH  86  87
ENDBRANCH  54  79
BRANCH  66  91
ATOM     91  C   UNL A   1      39.854  34.307  36.922  1.00  0.00     0.058 A 
ATOM     92  C   UNL A   1      40.441  35.576  36.800  1.00  0.00     0.135 A 
ATOM     93  C   UNL A   1      39.080  34.049  38.066  1.00  0.00     0.135 A 
ATOM     94  F   UNL A   1      41.196  35.871  35.731  1.00  0.00    -0.206 F 
ATOM     95  C   UNL A   1      40.287  36.545  37.787  1.00  0.00     0.059 A 
ATOM     96  C   UNL A   1      38.888  35.013  39.050  1.00  0.00     0.059 A 
ATOM     97  F   UNL A   1      38.488  32.855  38.226  1.00  0.00    -0.206 F 
ATOM     98  C   UNL A   1      39.505  36.255  38.905  1.00  0.00     0.060 A 
BRANCH  98  99
ATOM     99  S   UNL A   1      39.282  37.535  40.159  1.00  0.00     0.124 S 
ATOM    100  O   UNL A   1      40.605  38.148  40.191  1.00  0.00    -0.237 OA
ATOM    101  O   UNL A   1      38.218  38.352  39.584  1.00  0.00    -0.237 OA
ATOM    102  O   UNL A   1      38.911  36.781  41.352  1.00  0.00    -0.744 OA
ENDBRANCH  98  99
ENDBRANCH  66  91
ENDBRANCH  40  41
ENDBRANCH  32  35
ENDBRANCH  30  31
ENDBRANCH   1  30
TORSDOF 16
ENDMDL
