MODEL 1
REMARK VINA RESULT:     -11.0      0.000      0.000
REMARK SMILES C[C@@H](C(=O)NCCCNC(=O)c1ccc(-c2c3nc(c(-c4c(F)cc(S(=O)(=O)[O-])cc4F)c4ccc([nH]4)c(-c4c(F)cc(S(=O)(=O)[O-])cc4F)c4nc(c(-c5c(F)cc(S(=O)(=O)[O-])cc5F)c5ccc2[nH]5)C=C4)C=C3)cc1)c1ccc(C[C@H]2CCCC2=O)cc1[N+](=O)[O-]
REMARK SMILES IDX 7 1 6 2 5 3 3 4 4 5 2 7 1 8 78 9 79 10 90 11 80 12 89 13
REMARK SMILES IDX 81 14 91 15 92 16 93 17 82 18 83 19 84 20 87 21 85 22 86 23
REMARK SMILES IDX 88 24 8 25 9 26 10 27 11 29 12 30 13 31 77 32 14 33 76 34
REMARK SMILES IDX 15 35 16 36 17 37 70 38 18 39 75 40 69 41 71 42 19 43 74 44
REMARK SMILES IDX 68 45 67 46 20 48 54 49 33 50 53 51 34 52 37 53 52 54 72 55
REMARK SMILES IDX 35 56 36 57 51 59 73 60 38 61 21 62 22 63 31 64 23 65 24 66
REMARK SMILES IDX 30 67 32 68 25 69 26 70 27 71 28 72 29 73 55 74 56 75 65 76
REMARK SMILES IDX 57 77 58 78 64 79 66 80 59 81 60 82 61 83 62 84 63 85 39 86
REMARK SMILES IDX 40 87 49 88 41 89 42 90 48 91 50 92 43 93 44 94 45 95 46 96
REMARK SMILES IDX 47 97
REMARK H PARENT 5 6 9 28 71 47 37 58
REMARK Flexibility Score: inf
ROOT
ATOM      1  C   UNL A   1      33.196  27.847  26.762  1.00  0.00     0.042 C 
ENDROOT
BRANCH   1   2
ATOM      2  C   UNL A   1      31.735  28.197  26.484  1.00  0.00     0.117 C 
BRANCH   2   3
ATOM      3  N   UNL A   1      30.870  27.091  26.852  1.00  0.00    -0.356 N 
ATOM      4  C   UNL A   1      30.437  26.052  26.083  1.00  0.00     0.227 C 
ATOM      5  O   UNL A   1      29.424  25.448  26.436  1.00  0.00    -0.274 OA
ATOM      6  H   UNL A   1      30.552  27.091  27.784  1.00  0.00     0.163 HD
BRANCH   4   7
ATOM      7  C   UNL A   1      31.224  25.670  24.827  1.00  0.00     0.112 C 
ATOM      8  C   UNL A   1      30.226  24.888  23.949  1.00  0.00     0.023 C 
BRANCH   7   9
ATOM      9  C   UNL A   1      32.515  24.875  25.092  1.00  0.00     0.042 A 
ATOM     10  C   UNL A   1      32.489  23.873  26.081  1.00  0.00     0.012 A 
ATOM     11  C   UNL A   1      33.746  25.043  24.418  1.00  0.00     0.273 A 
ATOM     12  C   UNL A   1      33.648  23.216  26.497  1.00  0.00     0.004 A 
ATOM     13  C   UNL A   1      34.930  24.439  24.888  1.00  0.00     0.089 A 
ATOM     14  C   UNL A   1      34.894  23.562  25.974  1.00  0.00    -0.040 A 
BRANCH  11  15
ATOM     15  N   UNL A   1      33.848  25.724  23.122  1.00  0.00     0.063 N 
ATOM     16  O   UNL A   1      33.911  26.962  23.122  1.00  0.00    -0.258 OA
ATOM     17  O   UNL A   1      33.969  25.004  22.119  1.00  0.00    -0.258 OA
ENDBRANCH  11  15
BRANCH  14  18
ATOM     18  C   UNL A   1      36.160  22.978  26.549  1.00  0.00     0.047 C 
BRANCH  18  19
ATOM     19  C   UNL A   1      37.448  23.223  25.746  1.00  0.00     0.060 C 
ATOM     20  C   UNL A   1      38.429  24.251  26.321  1.00  0.00     0.012 C 
ATOM     21  C   UNL A   1      38.316  21.991  25.627  1.00  0.00     0.136 C 
ATOM     22  C   UNL A   1      39.508  23.461  27.050  1.00  0.00     0.009 C 
ATOM     23  C   UNL A   1      39.665  22.159  26.277  1.00  0.00     0.076 C 
ATOM     24  O   UNL A   1      37.962  20.963  25.060  1.00  0.00    -0.299 OA
ENDBRANCH  18  19
ENDBRANCH  14  18
ENDBRANCH   7   9
ENDBRANCH   4   7
ENDBRANCH   2   3
ENDBRANCH   1   2
BRANCH   1  25
ATOM     25  C   UNL A   1      34.184  28.839  26.160  1.00  0.00     0.118 C 
BRANCH  25  26
ATOM     26  N   UNL A   1      33.893  30.207  26.552  1.00  0.00    -0.352 N 
ATOM     27  C   UNL A   1      34.481  30.975  27.525  1.00  0.00     0.251 C 
ATOM     28  H   UNL A   1      33.171  30.646  26.046  1.00  0.00     0.163 HD
ATOM     29  O   UNL A   1      33.954  32.031  27.861  1.00  0.00    -0.269 OA
BRANCH  27  30
ATOM     30  C   UNL A   1      35.729  30.521  28.176  1.00  0.00     0.039 A 
ATOM     31  C   UNL A   1      36.950  31.001  27.696  1.00  0.00     0.014 A 
ATOM     32  C   UNL A   1      35.702  29.611  29.237  1.00  0.00     0.014 A 
ATOM     33  C   UNL A   1      38.139  30.603  28.310  1.00  0.00     0.010 A 
ATOM     34  C   UNL A   1      36.880  29.280  29.900  1.00  0.00     0.010 A 
ATOM     35  C   UNL A   1      38.114  29.761  29.434  1.00  0.00    -0.014 A 
BRANCH  35  36
ATOM     36  C   UNL A   1      39.368  29.362  30.123  1.00  0.00     0.031 A 
ATOM     37  C   UNL A   1      39.804  30.074  31.376  1.00  0.00     0.074 A 
ATOM     38  C   UNL A   1      40.138  28.391  29.592  1.00  0.00     0.049 A 
ATOM     39  N   UNL A   1      40.879  29.892  32.097  1.00  0.00    -0.248 NA
ATOM     40  C   UNL A   1      38.928  31.148  31.871  1.00  0.00     0.031 C 
ATOM     41  C   UNL A   1      39.846  27.661  28.356  1.00  0.00     0.029 A 
ATOM     42  N   UNL A   1      41.325  27.853  30.021  1.00  0.00    -0.354 N 
ATOM     43  C   UNL A   1      40.819  30.835  33.116  1.00  0.00     0.074 A 
ATOM     44  C   UNL A   1      39.628  31.624  32.890  1.00  0.00     0.031 C 
ATOM     45  C   UNL A   1      40.810  26.750  28.144  1.00  0.00     0.029 A 
ATOM     46  C   UNL A   1      41.807  26.857  29.205  1.00  0.00     0.049 A 
ATOM     47  H   UNL A   1      41.787  28.151  30.837  1.00  0.00     0.167 HD
ATOM     48  C   UNL A   1      41.665  31.012  34.159  1.00  0.00     0.037 A 
ATOM     49  C   UNL A   1      42.929  26.117  29.297  1.00  0.00     0.037 A 
ATOM     50  C   UNL A   1      42.835  30.206  34.391  1.00  0.00     0.049 A 
ATOM     51  C   UNL A   1      43.854  26.334  30.463  1.00  0.00     0.074 A 
ATOM     52  C   UNL A   1      43.722  30.262  35.452  1.00  0.00     0.029 A 
ATOM     53  N   UNL A   1      43.285  29.200  33.548  1.00  0.00    -0.354 N 
ATOM     54  N   UNL A   1      43.743  27.183  31.459  1.00  0.00    -0.248 NA
ATOM     55  C   UNL A   1      45.054  25.488  30.526  1.00  0.00     0.031 C 
ATOM     56  C   UNL A   1      44.736  29.326  35.223  1.00  0.00     0.029 A 
ATOM     57  C   UNL A   1      44.450  28.646  34.051  1.00  0.00     0.049 A 
ATOM     58  H   UNL A   1      42.842  28.921  32.714  1.00  0.00     0.167 HD
ATOM     59  C   UNL A   1      44.841  26.951  32.281  1.00  0.00     0.074 A 
ATOM     60  C   UNL A   1      45.596  25.875  31.672  1.00  0.00     0.031 C 
ATOM     61  C   UNL A   1      45.190  27.570  33.436  1.00  0.00     0.037 A 
BRANCH  48  62
ATOM     62  C   UNL A   1      41.357  32.122  35.129  1.00  0.00     0.058 A 
ATOM     63  C   UNL A   1      41.983  33.378  35.041  1.00  0.00     0.135 A 
ATOM     64  C   UNL A   1      40.401  31.941  36.140  1.00  0.00     0.135 A 
ATOM     65  F   UNL A   1      42.916  33.604  34.103  1.00  0.00    -0.206 F 
ATOM     66  C   UNL A   1      41.696  34.399  35.941  1.00  0.00     0.059 A 
ATOM     67  C   UNL A   1      40.075  32.959  37.033  1.00  0.00     0.059 A 
ATOM     68  F   UNL A   1      39.770  30.763  36.272  1.00  0.00    -0.206 F 
ATOM     69  C   UNL A   1      40.741  34.180  36.934  1.00  0.00     0.060 A 
BRANCH  69  70
ATOM     70  S   UNL A   1      40.380  35.517  38.092  1.00  0.00     0.124 S 
ATOM     71  O   UNL A   1      39.888  36.556  37.192  1.00  0.00    -0.237 OA
ATOM     72  O   UNL A   1      39.380  34.911  38.966  1.00  0.00    -0.237 OA
ATOM     73  O   UNL A   1      41.672  35.787  38.715  1.00  0.00    -0.744 OA
ENDBRANCH  69  70
ENDBRANCH  48  62
BRANCH  49  74
ATOM     74  C   UNL A   1      43.224  25.080  28.271  1.00  0.00     0.058 A 
ATOM     75  C   UNL A   1      42.894  23.734  28.491  1.00  0.00     0.135 A 
ATOM     76  C   UNL A   1      43.829  25.413  27.049  1.00  0.00     0.135 A 
ATOM     77  F   UNL A   1      42.319  23.364  29.644  1.00  0.00    -0.206 F 
ATOM     78  C   UNL A   1      43.171  22.751  27.545  1.00  0.00     0.059 A 
ATOM     79  C   UNL A   1      44.091  24.452  26.076  1.00  0.00     0.059 A 
ATOM     80  F   UNL A   1      44.149  26.689  26.782  1.00  0.00    -0.206 F 
ATOM     81  C   UNL A   1      43.767  23.122  26.339  1.00  0.00     0.060 A 
BRANCH  81  82
ATOM     82  S   UNL A   1      44.080  21.845  25.100  1.00  0.00     0.124 S 
ATOM     83  O   UNL A   1      45.468  21.496  25.383  1.00  0.00    -0.237 OA
ATOM     84  O   UNL A   1      43.083  20.836  25.443  1.00  0.00    -0.237 OA
ATOM     85  O   UNL A   1      43.848  22.541  23.837  1.00  0.00    -0.744 OA
ENDBRANCH  81  82
ENDBRANCH  49  74
BRANCH  61  86
ATOM     86  C   UNL A   1      46.421  27.072  34.143  1.00  0.00     0.058 A 
ATOM     87  C   UNL A   1      47.690  27.616  33.891  1.00  0.00     0.135 A 
ATOM     88  C   UNL A   1      46.321  26.066  35.118  1.00  0.00     0.135 A 
ATOM     89  F   UNL A   1      47.844  28.576  32.966  1.00  0.00    -0.206 F 
ATOM     90  C   UNL A   1      48.822  27.159  34.561  1.00  0.00     0.059 A 
ATOM     91  C   UNL A   1      47.433  25.616  35.821  1.00  0.00     0.059 A 
ATOM     92  F   UNL A   1      45.128  25.520  35.407  1.00  0.00    -0.206 F 
ATOM     93  C   UNL A   1      48.682  26.159  35.524  1.00  0.00     0.060 A 
BRANCH  93  94
ATOM     94  S   UNL A   1      50.154  25.592  36.403  1.00  0.00     0.124 S 
ATOM     95  O   UNL A   1      50.519  24.408  35.631  1.00  0.00    -0.237 OA
ATOM     96  O   UNL A   1      51.054  26.734  36.273  1.00  0.00    -0.237 OA
ATOM     97  O   UNL A   1      49.666  25.336  37.754  1.00  0.00    -0.744 OA
ENDBRANCH  93  94
ENDBRANCH  61  86
ENDBRANCH  35  36
ENDBRANCH  27  30
ENDBRANCH  25  26
ENDBRANCH   1  25
TORSDOF 17
ENDMDL
MODEL 2
REMARK VINA RESULT:     -10.9      4.330      9.712
REMARK SMILES C[C@@H](C(=O)NCCCNC(=O)c1ccc(-c2c3nc(c(-c4c(F)cc(S(=O)(=O)[O-])cc4F)c4ccc([nH]4)c(-c4c(F)cc(S(=O)(=O)[O-])cc4F)c4nc(c(-c5c(F)cc(S(=O)(=O)[O-])cc5F)c5ccc2[nH]5)C=C4)C=C3)cc1)c1ccc(C[C@H]2CCCC2=O)cc1[N+](=O)[O-]
REMARK SMILES IDX 7 1 6 2 5 3 3 4 4 5 2 7 1 8 78 9 79 10 90 11 80 12 89 13
REMARK SMILES IDX 81 14 91 15 92 16 93 17 82 18 83 19 84 20 87 21 85 22 86 23
REMARK SMILES IDX 88 24 8 25 9 26 10 27 11 29 12 30 13 31 77 32 14 33 76 34
REMARK SMILES IDX 15 35 16 36 17 37 70 38 18 39 75 40 69 41 71 42 19 43 74 44
REMARK SMILES IDX 68 45 67 46 20 48 54 49 33 50 53 51 34 52 37 53 52 54 72 55
REMARK SMILES IDX 35 56 36 57 51 59 73 60 38 61 21 62 22 63 31 64 23 65 24 66
REMARK SMILES IDX 30 67 32 68 25 69 26 70 27 71 28 72 29 73 55 74 56 75 65 76
REMARK SMILES IDX 57 77 58 78 64 79 66 80 59 81 60 82 61 83 62 84 63 85 39 86
REMARK SMILES IDX 40 87 49 88 41 89 42 90 48 91 50 92 43 93 44 94 45 95 46 96
REMARK SMILES IDX 47 97
REMARK H PARENT 5 6 9 28 71 47 37 58
REMARK Flexibility Score: inf
ROOT
ATOM      1  C   UNL A   1      34.940  23.394  26.238  1.00  0.00     0.042 C 
ENDROOT
BRANCH   1   2
ATOM      2  C   UNL A   1      34.506  22.137  25.487  1.00  0.00     0.117 C 
BRANCH   2   3
ATOM      3  N   UNL A   1      34.379  22.413  24.067  1.00  0.00    -0.356 N 
ATOM      4  C   UNL A   1      33.283  22.831  23.373  1.00  0.00     0.227 C 
ATOM      5  O   UNL A   1      33.254  22.636  22.157  1.00  0.00    -0.274 OA
ATOM      6  H   UNL A   1      35.196  22.280  23.533  1.00  0.00     0.163 HD
BRANCH   4   7
ATOM      7  C   UNL A   1      32.145  23.533  24.119  1.00  0.00     0.112 C 
ATOM      8  C   UNL A   1      30.914  23.389  23.201  1.00  0.00     0.023 C 
BRANCH   7   9
ATOM      9  C   UNL A   1      32.426  24.999  24.492  1.00  0.00     0.042 A 
ATOM     10  C   UNL A   1      33.106  25.806  23.559  1.00  0.00     0.012 A 
ATOM     11  C   UNL A   1      32.051  25.635  25.697  1.00  0.00     0.273 A 
ATOM     12  C   UNL A   1      33.542  27.093  23.874  1.00  0.00     0.004 A 
ATOM     13  C   UNL A   1      32.555  26.904  26.047  1.00  0.00     0.089 A 
ATOM     14  C   UNL A   1      33.358  27.617  25.154  1.00  0.00    -0.040 A 
BRANCH  11  15
ATOM     15  N   UNL A   1      31.012  25.096  26.582  1.00  0.00     0.063 N 
ATOM     16  O   UNL A   1      31.319  24.156  27.330  1.00  0.00    -0.258 OA
ATOM     17  O   UNL A   1      29.922  25.689  26.593  1.00  0.00    -0.258 OA
ENDBRANCH  11  15
BRANCH  14  18
ATOM     18  C   UNL A   1      33.983  28.934  25.544  1.00  0.00     0.047 C 
BRANCH  18  19
ATOM     19  C   UNL A   1      33.900  29.311  27.032  1.00  0.00     0.060 C 
ATOM     20  C   UNL A   1      35.231  29.458  27.777  1.00  0.00     0.012 C 
ATOM     21  C   UNL A   1      33.257  30.658  27.267  1.00  0.00     0.136 C 
ATOM     22  C   UNL A   1      35.539  30.949  27.827  1.00  0.00     0.009 C 
ATOM     23  C   UNL A   1      34.190  31.649  27.913  1.00  0.00     0.076 C 
ATOM     24  O   UNL A   1      32.097  30.919  26.968  1.00  0.00    -0.299 OA
ENDBRANCH  18  19
ENDBRANCH  14  18
ENDBRANCH   7   9
ENDBRANCH   4   7
ENDBRANCH   2   3
ENDBRANCH   1   2
BRANCH   1  25
ATOM     25  C   UNL A   1      36.383  23.800  25.963  1.00  0.00     0.118 C 
BRANCH  25  26
ATOM     26  N   UNL A   1      37.287  22.664  26.000  1.00  0.00    -0.352 N 
ATOM     27  C   UNL A   1      38.641  22.638  26.219  1.00  0.00     0.251 C 
ATOM     28  H   UNL A   1      36.868  21.786  25.846  1.00  0.00     0.163 HD
ATOM     29  O   UNL A   1      39.271  21.610  25.994  1.00  0.00    -0.269 OA
BRANCH  27  30
ATOM     30  C   UNL A   1      39.337  23.850  26.706  1.00  0.00     0.039 A 
ATOM     31  C   UNL A   1      39.844  24.755  25.771  1.00  0.00     0.014 A 
ATOM     32  C   UNL A   1      39.511  24.084  28.073  1.00  0.00     0.014 A 
ATOM     33  C   UNL A   1      40.483  25.916  26.209  1.00  0.00     0.010 A 
ATOM     34  C   UNL A   1      40.075  25.280  28.508  1.00  0.00     0.010 A 
ATOM     35  C   UNL A   1      40.581  26.203  27.581  1.00  0.00    -0.014 A 
BRANCH  35  36
ATOM     36  C   UNL A   1      41.223  27.454  28.059  1.00  0.00     0.031 A 
ATOM     37  C   UNL A   1      42.719  27.610  27.993  1.00  0.00     0.074 A 
ATOM     38  C   UNL A   1      40.462  28.428  28.596  1.00  0.00     0.049 A 
ATOM     39  N   UNL A   1      43.462  28.610  28.392  1.00  0.00    -0.248 NA
ATOM     40  C   UNL A   1      43.483  26.486  27.429  1.00  0.00     0.031 C 
ATOM     41  C   UNL A   1      39.007  28.373  28.758  1.00  0.00     0.029 A 
ATOM     42  N   UNL A   1      40.805  29.654  29.108  1.00  0.00    -0.354 N 
ATOM     43  C   UNL A   1      44.776  28.230  28.143  1.00  0.00     0.074 A 
ATOM     44  C   UNL A   1      44.732  26.887  27.609  1.00  0.00     0.031 C 
ATOM     45  C   UNL A   1      38.580  29.525  29.301  1.00  0.00     0.029 A 
ATOM     46  C   UNL A   1      39.731  30.384  29.562  1.00  0.00     0.049 A 
ATOM     47  H   UNL A   1      41.732  29.981  29.147  1.00  0.00     0.167 HD
ATOM     48  C   UNL A   1      45.913  28.945  28.319  1.00  0.00     0.037 A 
ATOM     49  C   UNL A   1      39.680  31.605  30.129  1.00  0.00     0.037 A 
ATOM     50  C   UNL A   1      45.946  30.292  28.827  1.00  0.00     0.049 A 
ATOM     51  C   UNL A   1      40.957  32.378  30.316  1.00  0.00     0.074 A 
ATOM     52  C   UNL A   1      47.039  31.126  28.984  1.00  0.00     0.029 A 
ATOM     53  N   UNL A   1      44.837  31.001  29.267  1.00  0.00    -0.354 N 
ATOM     54  N   UNL A   1      42.185  32.031  30.008  1.00  0.00    -0.248 NA
ATOM     55  C   UNL A   1      40.843  33.711  30.923  1.00  0.00     0.031 C 
ATOM     56  C   UNL A   1      46.598  32.319  29.567  1.00  0.00     0.029 A 
ATOM     57  C   UNL A   1      45.222  32.252  29.718  1.00  0.00     0.049 A 
ATOM     58  H   UNL A   1      43.911  30.664  29.258  1.00  0.00     0.167 HD
ATOM     59  C   UNL A   1      42.984  33.116  30.352  1.00  0.00     0.074 A 
ATOM     60  C   UNL A   1      42.099  34.133  30.882  1.00  0.00     0.031 C 
ATOM     61  C   UNL A   1      44.328  33.258  30.238  1.00  0.00     0.037 A 
BRANCH  48  62
ATOM     62  C   UNL A   1      47.218  28.283  27.962  1.00  0.00     0.058 A 
ATOM     63  C   UNL A   1      47.761  28.364  26.668  1.00  0.00     0.135 A 
ATOM     64  C   UNL A   1      47.952  27.585  28.934  1.00  0.00     0.135 A 
ATOM     65  F   UNL A   1      47.095  29.007  25.695  1.00  0.00    -0.206 F 
ATOM     66  C   UNL A   1      48.965  27.749  26.343  1.00  0.00     0.059 A 
ATOM     67  C   UNL A   1      49.175  26.987  28.639  1.00  0.00     0.059 A 
ATOM     68  F   UNL A   1      47.483  27.474  30.187  1.00  0.00    -0.206 F 
ATOM     69  C   UNL A   1      49.665  27.062  27.336  1.00  0.00     0.060 A 
BRANCH  69  70
ATOM     70  S   UNL A   1      51.227  26.271  26.898  1.00  0.00     0.124 S 
ATOM     71  O   UNL A   1      50.935  24.870  27.185  1.00  0.00    -0.237 OA
ATOM     72  O   UNL A   1      51.364  26.612  25.485  1.00  0.00    -0.237 OA
ATOM     73  O   UNL A   1      52.193  26.906  27.790  1.00  0.00    -0.744 OA
ENDBRANCH  69  70
ENDBRANCH  48  62
BRANCH  49  74
ATOM     74  C   UNL A   1      38.370  32.185  30.531  1.00  0.00     0.058 A 
ATOM     75  C   UNL A   1      37.768  31.834  31.748  1.00  0.00     0.135 A 
ATOM     76  C   UNL A   1      37.699  33.110  29.714  1.00  0.00     0.135 A 
ATOM     77  F   UNL A   1      38.367  30.951  32.562  1.00  0.00    -0.206 F 
ATOM     78  C   UNL A   1      36.540  32.362  32.134  1.00  0.00     0.059 A 
ATOM     79  C   UNL A   1      36.484  33.672  30.091  1.00  0.00     0.059 A 
ATOM     80  F   UNL A   1      38.240  33.493  28.547  1.00  0.00    -0.206 F 
ATOM     81  C   UNL A   1      35.907  33.283  31.299  1.00  0.00     0.060 A 
BRANCH  81  82
ATOM     82  S   UNL A   1      34.336  33.997  31.832  1.00  0.00     0.124 S 
ATOM     83  O   UNL A   1      33.677  34.242  30.554  1.00  0.00    -0.237 OA
ATOM     84  O   UNL A   1      33.773  32.925  32.646  1.00  0.00    -0.237 OA
ATOM     85  O   UNL A   1      34.743  35.189  32.571  1.00  0.00    -0.744 OA
ENDBRANCH  81  82
ENDBRANCH  49  74
BRANCH  61  86
ATOM     86  C   UNL A   1      44.922  34.576  30.655  1.00  0.00     0.058 A 
ATOM     87  C   UNL A   1      45.033  35.654  29.763  1.00  0.00     0.135 A 
ATOM     88  C   UNL A   1      45.347  34.775  31.979  1.00  0.00     0.135 A 
ATOM     89  F   UNL A   1      44.647  35.516  28.485  1.00  0.00    -0.206 F 
ATOM     90  C   UNL A   1      45.572  36.874  30.162  1.00  0.00     0.059 A 
ATOM     91  C   UNL A   1      45.859  35.995  32.407  1.00  0.00     0.059 A 
ATOM     92  F   UNL A   1      45.252  33.781  32.877  1.00  0.00    -0.206 F 
ATOM     93  C   UNL A   1      45.981  37.034  31.486  1.00  0.00     0.060 A 
BRANCH  93  94
ATOM     94  S   UNL A   1      46.655  38.629  31.996  1.00  0.00     0.124 S 
ATOM     95  O   UNL A   1      45.789  39.558  31.276  1.00  0.00    -0.237 OA
ATOM     96  O   UNL A   1      46.479  38.594  33.445  1.00  0.00    -0.237 OA
ATOM     97  O   UNL A   1      48.039  38.576  31.537  1.00  0.00    -0.744 OA
ENDBRANCH  93  94
ENDBRANCH  61  86
ENDBRANCH  35  36
ENDBRANCH  27  30
ENDBRANCH  25  26
ENDBRANCH   1  25
TORSDOF 17
ENDMDL
MODEL 3
REMARK VINA RESULT:     -10.9      2.792      3.335
REMARK SMILES C[C@@H](C(=O)NCCCNC(=O)c1ccc(-c2c3nc(c(-c4c(F)cc(S(=O)(=O)[O-])cc4F)c4ccc([nH]4)c(-c4c(F)cc(S(=O)(=O)[O-])cc4F)c4nc(c(-c5c(F)cc(S(=O)(=O)[O-])cc5F)c5ccc2[nH]5)C=C4)C=C3)cc1)c1ccc(C[C@H]2CCCC2=O)cc1[N+](=O)[O-]
REMARK SMILES IDX 7 1 6 2 5 3 3 4 4 5 2 7 1 8 78 9 79 10 90 11 80 12 89 13
REMARK SMILES IDX 81 14 91 15 92 16 93 17 82 18 83 19 84 20 87 21 85 22 86 23
REMARK SMILES IDX 88 24 8 25 9 26 10 27 11 29 12 30 13 31 77 32 14 33 76 34
REMARK SMILES IDX 15 35 16 36 17 37 70 38 18 39 75 40 69 41 71 42 19 43 74 44
REMARK SMILES IDX 68 45 67 46 20 48 54 49 33 50 53 51 34 52 37 53 52 54 72 55
REMARK SMILES IDX 35 56 36 57 51 59 73 60 38 61 21 62 22 63 31 64 23 65 24 66
REMARK SMILES IDX 30 67 32 68 25 69 26 70 27 71 28 72 29 73 55 74 56 75 65 76
REMARK SMILES IDX 57 77 58 78 64 79 66 80 59 81 60 82 61 83 62 84 63 85 39 86
REMARK SMILES IDX 40 87 49 88 41 89 42 90 48 91 50 92 43 93 44 94 45 95 46 96
REMARK SMILES IDX 47 97
REMARK H PARENT 5 6 9 28 71 47 37 58
REMARK Flexibility Score: inf
ROOT
ATOM      1  C   UNL A   1      33.228  28.052  25.579  1.00  0.00     0.042 C 
ENDROOT
BRANCH   1   2
ATOM      2  C   UNL A   1      31.701  28.104  25.584  1.00  0.00     0.117 C 
BRANCH   2   3
ATOM      3  N   UNL A   1      31.199  28.390  24.252  1.00  0.00    -0.356 N 
ATOM      4  C   UNL A   1      30.958  27.525  23.226  1.00  0.00     0.227 C 
ATOM      5  O   UNL A   1      30.915  27.977  22.081  1.00  0.00    -0.274 OA
ATOM      6  H   UNL A   1      31.006  29.337  24.064  1.00  0.00     0.163 HD
BRANCH   4   7
ATOM      7  C   UNL A   1      30.739  26.041  23.532  1.00  0.00     0.112 C 
ATOM      8  C   UNL A   1      29.570  26.006  24.537  1.00  0.00     0.023 C 
BRANCH   7   9
ATOM      9  C   UNL A   1      31.981  25.300  24.056  1.00  0.00     0.042 A 
ATOM     10  C   UNL A   1      31.885  24.629  25.290  1.00  0.00     0.012 A 
ATOM     11  C   UNL A   1      33.232  25.211  23.403  1.00  0.00     0.273 A 
ATOM     12  C   UNL A   1      33.000  24.070  25.916  1.00  0.00     0.004 A 
ATOM     13  C   UNL A   1      34.373  24.716  24.066  1.00  0.00     0.089 A 
ATOM     14  C   UNL A   1      34.272  24.194  25.357  1.00  0.00    -0.040 A 
BRANCH  11  15
ATOM     15  N   UNL A   1      33.393  25.484  21.970  1.00  0.00     0.063 N 
ATOM     16  O   UNL A   1      32.943  24.652  21.169  1.00  0.00    -0.258 OA
ATOM     17  O   UNL A   1      33.880  26.583  21.660  1.00  0.00    -0.258 OA
ENDBRANCH  11  15
BRANCH  14  18
ATOM     18  C   UNL A   1      35.495  23.745  26.117  1.00  0.00     0.047 C 
BRANCH  18  19
ATOM     19  C   UNL A   1      36.794  23.620  25.303  1.00  0.00     0.060 C 
ATOM     20  C   UNL A   1      38.088  24.034  26.012  1.00  0.00     0.012 C 
ATOM     21  C   UNL A   1      37.100  22.199  24.890  1.00  0.00     0.136 C 
ATOM     22  C   UNL A   1      38.743  22.749  26.504  1.00  0.00     0.009 C 
ATOM     23  C   UNL A   1      38.387  21.682  25.479  1.00  0.00     0.076 C 
ATOM     24  O   UNL A   1      36.381  21.536  24.151  1.00  0.00    -0.299 OA
ENDBRANCH  18  19
ENDBRANCH  14  18
ENDBRANCH   7   9
ENDBRANCH   4   7
ENDBRANCH   2   3
ENDBRANCH   1   2
BRANCH   1  25
ATOM     25  C   UNL A   1      33.850  28.324  26.943  1.00  0.00     0.118 C 
BRANCH  25  26
ATOM     26  N   UNL A   1      33.662  29.702  27.364  1.00  0.00    -0.352 N 
ATOM     27  C   UNL A   1      34.501  30.510  28.090  1.00  0.00     0.251 C 
ATOM     28  H   UNL A   1      32.812  30.116  27.088  1.00  0.00     0.163 HD
ATOM     29  O   UNL A   1      34.079  31.571  28.539  1.00  0.00    -0.269 OA
BRANCH  27  30
ATOM     30  C   UNL A   1      35.897  30.092  28.346  1.00  0.00     0.039 A 
ATOM     31  C   UNL A   1      36.827  30.186  27.308  1.00  0.00     0.014 A 
ATOM     32  C   UNL A   1      36.285  29.589  29.591  1.00  0.00     0.014 A 
ATOM     33  C   UNL A   1      38.155  29.819  27.535  1.00  0.00     0.010 A 
ATOM     34  C   UNL A   1      37.624  29.302  29.839  1.00  0.00     0.010 A 
ATOM     35  C   UNL A   1      38.571  29.399  28.809  1.00  0.00    -0.014 A 
BRANCH  35  36
ATOM     36  C   UNL A   1      39.989  29.044  29.074  1.00  0.00     0.031 A 
ATOM     37  C   UNL A   1      40.922  30.057  29.684  1.00  0.00     0.074 A 
ATOM     38  C   UNL A   1      40.446  27.826  28.723  1.00  0.00     0.049 A 
ATOM     39  N   UNL A   1      42.196  29.945  29.958  1.00  0.00    -0.248 NA
ATOM     40  C   UNL A   1      40.356  31.376  30.005  1.00  0.00     0.031 C 
ATOM     41  C   UNL A   1      39.651  26.777  28.080  1.00  0.00     0.029 A 
ATOM     42  N   UNL A   1      41.692  27.265  28.850  1.00  0.00    -0.354 N 
ATOM     43  C   UNL A   1      42.586  31.179  30.466  1.00  0.00     0.074 A 
ATOM     44  C   UNL A   1      41.426  32.042  30.412  1.00  0.00     0.031 C 
ATOM     45  C   UNL A   1      40.419  25.690  27.900  1.00  0.00     0.029 A 
ATOM     46  C   UNL A   1      41.769  25.976  28.375  1.00  0.00     0.049 A 
ATOM     47  H   UNL A   1      42.458  27.739  29.245  1.00  0.00     0.167 HD
ATOM     48  C   UNL A   1      43.792  31.551  30.956  1.00  0.00     0.037 A 
ATOM     49  C   UNL A   1      42.810  25.124  28.324  1.00  0.00     0.037 A 
ATOM     50  C   UNL A   1      44.934  30.677  31.030  1.00  0.00     0.049 A 
ATOM     51  C   UNL A   1      44.142  25.561  28.872  1.00  0.00     0.074 A 
ATOM     52  C   UNL A   1      46.183  30.937  31.567  1.00  0.00     0.029 A 
ATOM     53  N   UNL A   1      44.971  29.377  30.549  1.00  0.00    -0.354 N 
ATOM     54  N   UNL A   1      44.473  26.710  29.416  1.00  0.00    -0.248 NA
ATOM     55  C   UNL A   1      45.240  24.587  28.808  1.00  0.00     0.031 C 
ATOM     56  C   UNL A   1      46.989  29.813  31.363  1.00  0.00     0.029 A 
ATOM     57  C   UNL A   1      46.227  28.830  30.753  1.00  0.00     0.049 A 
ATOM     58  H   UNL A   1      44.215  28.910  30.124  1.00  0.00     0.167 HD
ATOM     59  C   UNL A   1      45.808  26.584  29.787  1.00  0.00     0.074 A 
ATOM     60  C   UNL A   1      46.217  25.244  29.416  1.00  0.00     0.031 C 
ATOM     61  C   UNL A   1      46.619  27.492  30.383  1.00  0.00     0.037 A 
BRANCH  48  62
ATOM     62  C   UNL A   1      43.941  32.966  31.449  1.00  0.00     0.058 A 
ATOM     63  C   UNL A   1      44.380  34.003  30.607  1.00  0.00     0.135 A 
ATOM     64  C   UNL A   1      43.609  33.299  32.772  1.00  0.00     0.135 A 
ATOM     65  F   UNL A   1      44.724  33.740  29.336  1.00  0.00    -0.206 F 
ATOM     66  C   UNL A   1      44.517  35.308  31.068  1.00  0.00     0.059 A 
ATOM     67  C   UNL A   1      43.710  34.604  33.247  1.00  0.00     0.059 A 
ATOM     68  F   UNL A   1      43.184  32.350  33.622  1.00  0.00    -0.206 F 
ATOM     69  C   UNL A   1      44.180  35.598  32.391  1.00  0.00     0.060 A 
BRANCH  69  70
ATOM     70  S   UNL A   1      44.362  37.298  32.972  1.00  0.00     0.124 S 
ATOM     71  O   UNL A   1      43.427  37.323  34.094  1.00  0.00    -0.237 OA
ATOM     72  O   UNL A   1      45.777  37.356  33.326  1.00  0.00    -0.237 OA
ATOM     73  O   UNL A   1      43.974  38.097  31.814  1.00  0.00    -0.744 OA
ENDBRANCH  69  70
ENDBRANCH  48  62
BRANCH  49  74
ATOM     74  C   UNL A   1      42.629  23.759  27.760  1.00  0.00     0.058 A 
ATOM     75  C   UNL A   1      42.520  22.640  28.599  1.00  0.00     0.135 A 
ATOM     76  C   UNL A   1      42.549  23.545  26.374  1.00  0.00     0.135 A 
ATOM     77  F   UNL A   1      42.594  22.791  29.930  1.00  0.00    -0.206 F 
ATOM     78  C   UNL A   1      42.358  21.356  28.087  1.00  0.00     0.059 A 
ATOM     79  C   UNL A   1      42.360  22.275  25.839  1.00  0.00     0.059 A 
ATOM     80  F   UNL A   1      42.630  24.584  25.528  1.00  0.00    -0.206 F 
ATOM     81  C   UNL A   1      42.277  21.184  26.705  1.00  0.00     0.060 A 
BRANCH  81  82
ATOM     82  S   UNL A   1      42.020  19.520  26.053  1.00  0.00     0.124 S 
ATOM     83  O   UNL A   1      42.838  19.549  24.845  1.00  0.00    -0.237 OA
ATOM     84  O   UNL A   1      42.517  18.686  27.142  1.00  0.00    -0.237 OA
ATOM     85  O   UNL A   1      40.577  19.463  25.838  1.00  0.00    -0.744 OA
ENDBRANCH  81  82
ENDBRANCH  49  74
BRANCH  61  86
ATOM     86  C   UNL A   1      48.022  27.057  30.711  1.00  0.00     0.058 A 
ATOM     87  C   UNL A   1      49.105  27.352  29.869  1.00  0.00     0.135 A 
ATOM     88  C   UNL A   1      48.289  26.372  31.908  1.00  0.00     0.135 A 
ATOM     89  F   UNL A   1      48.905  28.000  28.711  1.00  0.00    -0.206 F 
ATOM     90  C   UNL A   1      50.401  26.957  30.189  1.00  0.00     0.059 A 
ATOM     91  C   UNL A   1      49.580  25.995  32.262  1.00  0.00     0.059 A 
ATOM     92  F   UNL A   1      47.291  26.075  32.756  1.00  0.00    -0.206 F 
ATOM     93  C   UNL A   1      50.628  26.280  31.388  1.00  0.00     0.060 A 
BRANCH  93  94
ATOM     94  S   UNL A   1      52.317  25.796  31.802  1.00  0.00     0.124 S 
ATOM     95  O   UNL A   1      52.991  25.955  30.517  1.00  0.00    -0.237 OA
ATOM     96  O   UNL A   1      52.678  26.767  32.831  1.00  0.00    -0.237 OA
ATOM     97  O   UNL A   1      52.172  24.421  32.269  1.00  0.00    -0.744 OA
ENDBRANCH  93  94
ENDBRANCH  61  86
ENDBRANCH  35  36
ENDBRANCH  27  30
ENDBRANCH  25  26
ENDBRANCH   1  25
TORSDOF 17
ENDMDL
