MODEL 1
REMARK VINA RESULT:     -12.6      0.000      0.000
REMARK SMILES Cc1ccc2nc(Cl)c([C@@H]3CC(c4cccs4)=NN3C(=O)CCCC(=O)NCCCNC(=O)c3ccc(-c4c5nc(c(-c6c(F)cc(S(=O)(=O)[O-])cc6F)c6ccc([nH]6)c(-c6c(F)cc(S(=O)(=O)[O-])cc6F)c6nc(c(-c7c(F)cc(S(=O)(=O)[O-])cc7F)c7ccc4[nH]7)C=C6)C=C5)cc3)cc2c1
REMARK SMILES IDX 28 1 27 2 25 3 26 4 24 6 23 7 22 8 20 9 21 10 19 11 10 12
REMARK SMILES IDX 11 13 12 14 18 15 9 16 1 17 2 18 3 19 102 20 4 21 101 22
REMARK SMILES IDX 5 23 100 24 6 25 7 26 8 27 13 28 14 29 17 30 15 31 16 32
REMARK SMILES IDX 29 33 30 34 31 35 32 36 33 38 34 39 35 40 99 41 36 42 98 43
REMARK SMILES IDX 37 44 38 45 39 46 92 47 40 48 97 49 91 50 93 51 41 52 96 53
REMARK SMILES IDX 90 54 89 55 42 57 76 58 55 59 75 60 56 61 59 62 74 63 94 64
REMARK SMILES IDX 57 65 58 66 73 68 95 69 60 70 43 71 44 72 53 73 45 74 46 75
REMARK SMILES IDX 52 76 54 77 47 78 48 79 49 80 50 81 51 82 77 83 78 84 87 85
REMARK SMILES IDX 79 86 80 87 86 88 88 89 81 90 82 91 83 92 84 93 85 94 61 95
REMARK SMILES IDX 62 96 71 97 63 98 64 99 70 100 72 101 65 102 66 103 67 104
REMARK SMILES IDX 68 105 69 106
REMARK H PARENT 27 5 31 37 93 56 59 67
REMARK Flexibility Score: inf
ROOT
ATOM      1  C   UNL A   1      39.682  22.399  26.557  1.00  0.00     0.117 C 
ENDROOT
BRANCH   1   2
ATOM      2  N   UNL A   1      39.039  21.207  26.050  1.00  0.00    -0.356 N 
ATOM      3  C   UNL A   1      37.909  21.070  25.313  1.00  0.00     0.220 C 
ATOM      4  O   UNL A   1      37.822  20.079  24.582  1.00  0.00    -0.275 OA
ATOM      5  H   UNL A   1      39.493  20.362  26.275  1.00  0.00     0.163 HD
BRANCH   3   6
ATOM      6  C   UNL A   1      36.818  22.124  25.286  1.00  0.00     0.100 C 
BRANCH   6   7
ATOM      7  C   UNL A   1      35.655  21.985  26.261  1.00  0.00     0.020 C 
BRANCH   7   8
ATOM      8  C   UNL A   1      35.015  23.275  26.783  1.00  0.00     0.103 C 
BRANCH   8   9
ATOM      9  C   UNL A   1      34.543  24.216  25.685  1.00  0.00     0.243 C 
ATOM     10  O   UNL A   1      34.980  25.368  25.622  1.00  0.00    -0.273 OA
BRANCH   9  11
ATOM     11  N   UNL A   1      33.614  23.711  24.750  1.00  0.00    -0.225 N 
ATOM     12  C   UNL A   1      32.485  22.857  25.229  1.00  0.00     0.150 C 
ATOM     13  C   UNL A   1      31.263  23.750  25.131  1.00  0.00     0.092 C 
ATOM     14  C   UNL A   1      31.800  24.814  24.228  1.00  0.00     0.081 C 
ATOM     15  N   UNL A   1      33.074  24.755  23.982  1.00  0.00    -0.173 NA
BRANCH  12  16
ATOM     16  C   UNL A   1      32.343  21.507  24.528  1.00  0.00     0.015 A 
ATOM     17  C   UNL A   1      33.856  15.579  25.552  1.00  0.00     0.044 C 
ATOM     18  C   UNL A   1      33.279  16.727  24.774  1.00  0.00    -0.050 A 
ATOM     19  C   UNL A   1      33.202  16.676  23.382  1.00  0.00     0.005 A 
ATOM     20  C   UNL A   1      32.886  17.903  25.430  1.00  0.00     0.013 A 
ATOM     21  C   UNL A   1      32.786  17.798  22.662  1.00  0.00     0.029 A 
ATOM     22  C   UNL A   1      32.530  19.055  24.696  1.00  0.00     0.001 A 
ATOM     23  C   UNL A   1      32.489  18.996  23.294  1.00  0.00     0.072 A 
ATOM     24  C   UNL A   1      32.378  20.323  25.299  1.00  0.00     0.019 A 
ATOM     25  N   UNL A   1      32.284  20.089  22.553  1.00  0.00    -0.236 NA
ATOM     26  C   UNL A   1      32.244  21.300  23.156  1.00  0.00     0.135 A 
ATOM     27  Cl  UNL A   1      32.104  22.536  21.978  1.00  0.00    -0.062 Cl
ENDBRANCH  12  16
BRANCH  14  28
ATOM     28  C   UNL A   1      30.949  25.878  23.774  1.00  0.00     0.050 A 
ATOM     29  C   UNL A   1      29.606  26.049  24.049  1.00  0.00     0.022 A 
ATOM     30  S   UNL A   1      31.563  27.134  22.800  1.00  0.00    -0.142 S 
ATOM     31  C   UNL A   1      29.088  27.246  23.479  1.00  0.00     0.012 A 
ATOM     32  C   UNL A   1      30.044  27.921  22.753  1.00  0.00     0.065 A 
ENDBRANCH  14  28
ENDBRANCH   9  11
ENDBRANCH   8   9
ENDBRANCH   7   8
ENDBRANCH   6   7
ENDBRANCH   3   6
ENDBRANCH   1   2
BRANCH   1  33
ATOM     33  C   UNL A   1      40.858  22.139  27.481  1.00  0.00     0.042 C 
BRANCH  33  34
ATOM     34  C   UNL A   1      41.954  23.169  27.246  1.00  0.00     0.118 C 
BRANCH  34  35
ATOM     35  N   UNL A   1      41.714  24.072  26.120  1.00  0.00    -0.352 N 
ATOM     36  C   UNL A   1      41.513  25.435  26.205  1.00  0.00     0.251 C 
ATOM     37  H   UNL A   1      41.695  23.672  25.220  1.00  0.00     0.163 HD
ATOM     38  O   UNL A   1      41.244  26.129  25.230  1.00  0.00    -0.269 OA
BRANCH  36  39
ATOM     39  C   UNL A   1      41.590  26.029  27.550  1.00  0.00     0.039 A 
ATOM     40  C   UNL A   1      42.694  26.818  27.878  1.00  0.00     0.014 A 
ATOM     41  C   UNL A   1      40.450  26.000  28.355  1.00  0.00     0.014 A 
ATOM     42  C   UNL A   1      42.606  27.681  28.968  1.00  0.00     0.010 A 
ATOM     43  C   UNL A   1      40.333  26.925  29.380  1.00  0.00     0.010 A 
ATOM     44  C   UNL A   1      41.400  27.790  29.680  1.00  0.00    -0.014 A 
BRANCH  44  45
ATOM     45  C   UNL A   1      41.194  28.820  30.726  1.00  0.00     0.031 A 
ATOM     46  C   UNL A   1      41.989  28.738  31.997  1.00  0.00     0.074 A 
ATOM     47  C   UNL A   1      40.201  29.722  30.591  1.00  0.00     0.049 A 
ATOM     48  N   UNL A   1      41.836  29.403  33.110  1.00  0.00    -0.248 NA
ATOM     49  C   UNL A   1      43.064  27.733  32.035  1.00  0.00     0.031 C 
ATOM     50  C   UNL A   1      39.313  29.842  29.431  1.00  0.00     0.029 A 
ATOM     51  N   UNL A   1      39.750  30.689  31.453  1.00  0.00    -0.354 N 
ATOM     52  C   UNL A   1      42.759  28.863  33.995  1.00  0.00     0.074 A 
ATOM     53  C   UNL A   1      43.437  27.790  33.304  1.00  0.00     0.031 C 
ATOM     54  C   UNL A   1      38.433  30.833  29.650  1.00  0.00     0.029 A 
ATOM     55  C   UNL A   1      38.666  31.392  30.977  1.00  0.00     0.049 A 
ATOM     56  H   UNL A   1      40.162  30.866  32.329  1.00  0.00     0.167 HD
ATOM     57  C   UNL A   1      43.029  29.244  35.266  1.00  0.00     0.037 A 
ATOM     58  C   UNL A   1      37.936  32.368  31.554  1.00  0.00     0.037 A 
ATOM     59  C   UNL A   1      42.390  30.354  35.915  1.00  0.00     0.049 A 
ATOM     60  C   UNL A   1      38.306  32.832  32.934  1.00  0.00     0.074 A 
ATOM     61  C   UNL A   1      42.655  30.891  37.163  1.00  0.00     0.029 A 
ATOM     62  N   UNL A   1      41.362  31.106  35.363  1.00  0.00    -0.354 N 
ATOM     63  N   UNL A   1      39.235  32.364  33.735  1.00  0.00    -0.248 NA
ATOM     64  C   UNL A   1      37.544  33.958  33.491  1.00  0.00     0.031 C 
ATOM     65  C   UNL A   1      41.769  31.953  37.375  1.00  0.00     0.029 A 
ATOM     66  C   UNL A   1      40.976  32.099  36.246  1.00  0.00     0.049 A 
ATOM     67  H   UNL A   1      40.967  30.956  34.475  1.00  0.00     0.167 HD
ATOM     68  C   UNL A   1      39.187  33.152  34.878  1.00  0.00     0.074 A 
ATOM     69  C   UNL A   1      38.137  34.129  34.666  1.00  0.00     0.031 C 
ATOM     70  C   UNL A   1      39.944  33.075  36.000  1.00  0.00     0.037 A 
BRANCH  57  71
ATOM     71  C   UNL A   1      44.059  28.452  36.018  1.00  0.00     0.058 A 
ATOM     72  C   UNL A   1      45.430  28.748  35.930  1.00  0.00     0.135 A 
ATOM     73  C   UNL A   1      43.674  27.372  36.828  1.00  0.00     0.135 A 
ATOM     74  F   UNL A   1      45.854  29.760  35.155  1.00  0.00    -0.206 F 
ATOM     75  C   UNL A   1      46.385  27.971  36.575  1.00  0.00     0.059 A 
ATOM     76  C   UNL A   1      44.611  26.600  37.508  1.00  0.00     0.059 A 
ATOM     77  F   UNL A   1      42.378  27.045  36.950  1.00  0.00    -0.206 F 
ATOM     78  C   UNL A   1      45.966  26.893  37.355  1.00  0.00     0.060 A 
BRANCH  78  79
ATOM     79  S   UNL A   1      47.216  25.872  38.164  1.00  0.00     0.124 S 
ATOM     80  O   UNL A   1      47.080  26.298  39.553  1.00  0.00    -0.237 OA
ATOM     81  O   UNL A   1      46.758  24.518  37.869  1.00  0.00    -0.237 OA
ATOM     82  O   UNL A   1      48.455  26.269  37.503  1.00  0.00    -0.744 OA
ENDBRANCH  78  79
ENDBRANCH  57  71
BRANCH  58  83
ATOM     83  C   UNL A   1      36.810  32.984  30.805  1.00  0.00     0.058 A 
ATOM     84  C   UNL A   1      35.482  32.625  31.080  1.00  0.00     0.135 A 
ATOM     85  C   UNL A   1      37.030  33.981  29.842  1.00  0.00     0.135 A 
ATOM     86  F   UNL A   1      35.220  31.674  31.990  1.00  0.00    -0.206 F 
ATOM     87  C   UNL A   1      34.412  33.229  30.427  1.00  0.00     0.059 A 
ATOM     88  C   UNL A   1      35.976  34.613  29.189  1.00  0.00     0.059 A 
ATOM     89  F   UNL A   1      38.281  34.375  29.557  1.00  0.00    -0.206 F 
ATOM     90  C   UNL A   1      34.669  34.227  29.486  1.00  0.00     0.060 A 
BRANCH  90  91
ATOM     91  S   UNL A   1      33.270  35.060  28.702  1.00  0.00     0.124 S 
ATOM     92  O   UNL A   1      33.943  36.090  27.919  1.00  0.00    -0.237 OA
ATOM     93  O   UNL A   1      32.656  33.978  27.940  1.00  0.00    -0.237 OA
ATOM     94  O   UNL A   1      32.488  35.539  29.838  1.00  0.00    -0.744 OA
ENDBRANCH  90  91
ENDBRANCH  58  83
BRANCH  70  95
ATOM     95  C   UNL A   1      39.703  34.092  37.076  1.00  0.00     0.058 A 
ATOM     96  C   UNL A   1      38.854  33.825  38.159  1.00  0.00     0.135 A 
ATOM     97  C   UNL A   1      40.424  35.296  37.080  1.00  0.00     0.135 A 
ATOM     98  F   UNL A   1      38.140  32.689  38.194  1.00  0.00    -0.206 F 
ATOM     99  C   UNL A   1      38.735  34.715  39.219  1.00  0.00     0.059 A 
ATOM    100  C   UNL A   1      40.334  36.193  38.140  1.00  0.00     0.059 A 
ATOM    101  F   UNL A   1      41.254  35.591  36.067  1.00  0.00    -0.206 F 
ATOM    102  C   UNL A   1      39.487  35.892  39.205  1.00  0.00     0.060 A 
BRANCH 102 103
ATOM    103  S   UNL A   1      39.392  36.997  40.630  1.00  0.00     0.124 S 
ATOM    104  O   UNL A   1      38.787  36.131  41.636  1.00  0.00    -0.237 OA
ATOM    105  O   UNL A   1      40.793  37.345  40.852  1.00  0.00    -0.237 OA
ATOM    106  O   UNL A   1      38.551  38.092  40.154  1.00  0.00    -0.744 OA
ENDBRANCH 102 103
ENDBRANCH  70  95
ENDBRANCH  44  45
ENDBRANCH  36  39
ENDBRANCH  34  35
ENDBRANCH  33  34
ENDBRANCH   1  33
TORSDOF 19
ENDMDL
MODEL 2
REMARK VINA RESULT:     -12.5      6.107     11.677
REMARK SMILES Cc1ccc2nc(Cl)c([C@@H]3CC(c4cccs4)=NN3C(=O)CCCC(=O)NCCCNC(=O)c3ccc(-c4c5nc(c(-c6c(F)cc(S(=O)(=O)[O-])cc6F)c6ccc([nH]6)c(-c6c(F)cc(S(=O)(=O)[O-])cc6F)c6nc(c(-c7c(F)cc(S(=O)(=O)[O-])cc7F)c7ccc4[nH]7)C=C6)C=C5)cc3)cc2c1
REMARK SMILES IDX 28 1 27 2 25 3 26 4 24 6 23 7 22 8 20 9 21 10 19 11 10 12
REMARK SMILES IDX 11 13 12 14 18 15 9 16 1 17 2 18 3 19 102 20 4 21 101 22
REMARK SMILES IDX 5 23 100 24 6 25 7 26 8 27 13 28 14 29 17 30 15 31 16 32
REMARK SMILES IDX 29 33 30 34 31 35 32 36 33 38 34 39 35 40 99 41 36 42 98 43
REMARK SMILES IDX 37 44 38 45 39 46 92 47 40 48 97 49 91 50 93 51 41 52 96 53
REMARK SMILES IDX 90 54 89 55 42 57 76 58 55 59 75 60 56 61 59 62 74 63 94 64
REMARK SMILES IDX 57 65 58 66 73 68 95 69 60 70 43 71 44 72 53 73 45 74 46 75
REMARK SMILES IDX 52 76 54 77 47 78 48 79 49 80 50 81 51 82 77 83 78 84 87 85
REMARK SMILES IDX 79 86 80 87 86 88 88 89 81 90 82 91 83 92 84 93 85 94 61 95
REMARK SMILES IDX 62 96 71 97 63 98 64 99 70 100 72 101 65 102 66 103 67 104
REMARK SMILES IDX 68 105 69 106
REMARK H PARENT 27 5 31 37 93 56 59 67
REMARK Flexibility Score: inf
ROOT
ATOM      1  C   UNL A   1      36.560  33.449  28.080  1.00  0.00     0.117 C 
ENDROOT
BRANCH   1   2
ATOM      2  N   UNL A   1      35.225  33.999  28.007  1.00  0.00    -0.356 N 
ATOM      3  C   UNL A   1      34.028  33.431  28.295  1.00  0.00     0.220 C 
ATOM      4  O   UNL A   1      33.113  34.179  28.650  1.00  0.00    -0.275 OA
ATOM      5  H   UNL A   1      35.177  34.933  27.698  1.00  0.00     0.163 HD
BRANCH   3   6
ATOM      6  C   UNL A   1      33.815  31.929  28.289  1.00  0.00     0.100 C 
BRANCH   6   7
ATOM      7  C   UNL A   1      33.072  31.309  27.112  1.00  0.00     0.020 C 
BRANCH   7   8
ATOM      8  C   UNL A   1      32.763  29.810  27.183  1.00  0.00     0.103 C 
BRANCH   8   9
ATOM      9  C   UNL A   1      33.845  28.929  26.579  1.00  0.00     0.243 C 
ATOM     10  O   UNL A   1      34.981  28.917  27.062  1.00  0.00    -0.273 OA
BRANCH   9  11
ATOM     11  N   UNL A   1      33.490  28.129  25.471  1.00  0.00    -0.225 N 
ATOM     12  C   UNL A   1      32.872  26.790  25.705  1.00  0.00     0.150 C 
ATOM     13  C   UNL A   1      31.411  26.973  25.339  1.00  0.00     0.092 C 
ATOM     14  C   UNL A   1      31.506  28.248  24.561  1.00  0.00     0.081 C 
ATOM     15  N   UNL A   1      32.659  28.845  24.596  1.00  0.00    -0.173 NA
BRANCH  12  16
ATOM     16  C   UNL A   1      33.560  25.619  25.003  1.00  0.00     0.015 A 
ATOM     17  C   UNL A   1      38.472  21.935  25.885  1.00  0.00     0.044 C 
ATOM     18  C   UNL A   1      37.268  22.455  25.153  1.00  0.00    -0.050 A 
ATOM     19  C   UNL A   1      37.166  22.324  23.768  1.00  0.00     0.005 A 
ATOM     20  C   UNL A   1      36.266  23.156  25.842  1.00  0.00     0.013 A 
ATOM     21  C   UNL A   1      36.107  22.924  23.084  1.00  0.00     0.029 A 
ATOM     22  C   UNL A   1      35.234  23.816  25.140  1.00  0.00     0.001 A 
ATOM     23  C   UNL A   1      35.165  23.701  23.743  1.00  0.00     0.072 A 
ATOM     24  C   UNL A   1      34.362  24.736  25.762  1.00  0.00     0.019 A 
ATOM     25  N   UNL A   1      34.288  24.408  23.025  1.00  0.00    -0.236 NA
ATOM     26  C   UNL A   1      33.539  25.353  23.639  1.00  0.00     0.135 A 
ATOM     27  Cl  UNL A   1      32.600  26.199  22.481  1.00  0.00    -0.062 Cl
ENDBRANCH  12  16
BRANCH  14  28
ATOM     28  C   UNL A   1      30.342  28.797  23.925  1.00  0.00     0.050 A 
ATOM     29  C   UNL A   1      30.049  30.133  23.726  1.00  0.00     0.022 A 
ATOM     30  S   UNL A   1      29.131  27.780  23.290  1.00  0.00    -0.142 S 
ATOM     31  C   UNL A   1      28.832  30.316  23.012  1.00  0.00     0.012 A 
ATOM     32  C   UNL A   1      28.218  29.116  22.732  1.00  0.00     0.065 A 
ENDBRANCH  14  28
ENDBRANCH   9  11
ENDBRANCH   8   9
ENDBRANCH   7   8
ENDBRANCH   6   7
ENDBRANCH   3   6
ENDBRANCH   1   2
BRANCH   1  33
ATOM     33  C   UNL A   1      37.457  34.100  29.118  1.00  0.00     0.042 C 
BRANCH  33  34
ATOM     34  C   UNL A   1      37.892  33.079  30.159  1.00  0.00     0.118 C 
BRANCH  34  35
ATOM     35  N   UNL A   1      36.793  32.447  30.893  1.00  0.00    -0.352 N 
ATOM     36  C   UNL A   1      36.636  31.092  31.105  1.00  0.00     0.251 C 
ATOM     37  H   UNL A   1      36.106  33.043  31.270  1.00  0.00     0.163 HD
ATOM     38  O   UNL A   1      35.655  30.618  31.667  1.00  0.00    -0.269 OA
BRANCH  36  39
ATOM     39  C   UNL A   1      37.695  30.216  30.577  1.00  0.00     0.039 A 
ATOM     40  C   UNL A   1      37.997  30.268  29.215  1.00  0.00     0.014 A 
ATOM     41  C   UNL A   1      38.529  29.561  31.484  1.00  0.00     0.014 A 
ATOM     42  C   UNL A   1      39.215  29.755  28.775  1.00  0.00     0.010 A 
ATOM     43  C   UNL A   1      39.777  29.137  31.058  1.00  0.00     0.010 A 
ATOM     44  C   UNL A   1      40.140  29.251  29.705  1.00  0.00    -0.014 A 
BRANCH  44  45
ATOM     45  C   UNL A   1      41.517  28.865  29.314  1.00  0.00     0.031 A 
ATOM     46  C   UNL A   1      42.584  29.920  29.261  1.00  0.00     0.074 A 
ATOM     47  C   UNL A   1      41.761  27.617  28.869  1.00  0.00     0.049 A 
ATOM     48  N   UNL A   1      43.789  29.852  28.765  1.00  0.00    -0.248 NA
ATOM     49  C   UNL A   1      42.222  31.246  29.790  1.00  0.00     0.031 C 
ATOM     50  C   UNL A   1      40.780  26.530  28.801  1.00  0.00     0.029 A 
ATOM     51  N   UNL A   1      42.906  27.057  28.358  1.00  0.00    -0.354 N 
ATOM     52  C   UNL A   1      44.310  31.134  28.875  1.00  0.00     0.074 A 
ATOM     53  C   UNL A   1      43.276  31.968  29.445  1.00  0.00     0.031 C 
ATOM     54  C   UNL A   1      41.366  25.436  28.289  1.00  0.00     0.029 A 
ATOM     55  C   UNL A   1      42.751  25.750  27.957  1.00  0.00     0.049 A 
ATOM     56  H   UNL A   1      43.758  27.545  28.285  1.00  0.00     0.167 HD
ATOM     57  C   UNL A   1      45.549  31.570  28.547  1.00  0.00     0.037 A 
ATOM     58  C   UNL A   1      43.627  24.906  27.374  1.00  0.00     0.037 A 
ATOM     59  C   UNL A   1      46.585  30.713  28.040  1.00  0.00     0.049 A 
ATOM     60  C   UNL A   1      45.023  25.387  27.095  1.00  0.00     0.074 A 
ATOM     61  C   UNL A   1      47.905  31.026  27.768  1.00  0.00     0.029 A 
ATOM     62  N   UNL A   1      46.418  29.368  27.739  1.00  0.00    -0.354 N 
ATOM     63  N   UNL A   1      45.529  26.585  27.275  1.00  0.00    -0.248 NA
ATOM     64  C   UNL A   1      45.972  24.410  26.543  1.00  0.00     0.031 C 
ATOM     65  C   UNL A   1      48.530  29.875  27.277  1.00  0.00     0.029 A 
ATOM     66  C   UNL A   1      47.610  28.837  27.277  1.00  0.00     0.049 A 
ATOM     67  H   UNL A   1      45.578  28.867  27.839  1.00  0.00     0.167 HD
ATOM     68  C   UNL A   1      46.859  26.500  26.885  1.00  0.00     0.074 A 
ATOM     69  C   UNL A   1      47.082  25.132  26.458  1.00  0.00     0.031 C 
ATOM     70  C   UNL A   1      47.810  27.465  26.881  1.00  0.00     0.037 A 
BRANCH  57  71
ATOM     71  C   UNL A   1      45.837  33.032  28.734  1.00  0.00     0.058 A 
ATOM     72  C   UNL A   1      45.611  33.967  27.711  1.00  0.00     0.135 A 
ATOM     73  C   UNL A   1      46.361  33.504  29.948  1.00  0.00     0.135 A 
ATOM     74  F   UNL A   1      45.127  33.566  26.524  1.00  0.00    -0.206 F 
ATOM     75  C   UNL A   1      45.940  35.309  27.865  1.00  0.00     0.059 A 
ATOM     76  C   UNL A   1      46.670  34.848  30.135  1.00  0.00     0.059 A 
ATOM     77  F   UNL A   1      46.597  32.654  30.960  1.00  0.00    -0.206 F 
ATOM     78  C   UNL A   1      46.478  35.738  29.079  1.00  0.00     0.060 A 
BRANCH  78  79
ATOM     79  S   UNL A   1      46.932  37.476  29.258  1.00  0.00     0.124 S 
ATOM     80  O   UNL A   1      47.601  37.466  30.556  1.00  0.00    -0.237 OA
ATOM     81  O   UNL A   1      47.795  37.698  28.103  1.00  0.00    -0.237 OA
ATOM     82  O   UNL A   1      45.646  38.166  29.219  1.00  0.00    -0.744 OA
ENDBRANCH  78  79
ENDBRANCH  57  71
BRANCH  58  83
ATOM     83  C   UNL A   1      43.208  23.516  27.055  1.00  0.00     0.058 A 
ATOM     84  C   UNL A   1      43.035  23.106  25.725  1.00  0.00     0.135 A 
ATOM     85  C   UNL A   1      43.024  22.557  28.063  1.00  0.00     0.135 A 
ATOM     86  F   UNL A   1      43.196  23.987  24.726  1.00  0.00    -0.206 F 
ATOM     87  C   UNL A   1      42.695  21.796  25.404  1.00  0.00     0.059 A 
ATOM     88  C   UNL A   1      42.701  21.236  27.766  1.00  0.00     0.059 A 
ATOM     89  F   UNL A   1      43.196  22.895  29.350  1.00  0.00    -0.206 F 
ATOM     90  C   UNL A   1      42.535  20.865  26.432  1.00  0.00     0.060 A 
BRANCH  90  91
ATOM     91  S   UNL A   1      42.171  19.149  26.000  1.00  0.00     0.124 S 
ATOM     92  O   UNL A   1      40.717  19.177  25.886  1.00  0.00    -0.237 OA
ATOM     93  O   UNL A   1      42.906  18.984  24.750  1.00  0.00    -0.237 OA
ATOM     94  O   UNL A   1      42.702  18.399  27.134  1.00  0.00    -0.744 OA
ENDBRANCH  90  91
ENDBRANCH  58  83
BRANCH  70  95
ATOM     95  C   UNL A   1      49.193  27.082  26.442  1.00  0.00     0.058 A 
ATOM     96  C   UNL A   1      50.147  26.613  27.356  1.00  0.00     0.135 A 
ATOM     97  C   UNL A   1      49.521  27.072  25.077  1.00  0.00     0.135 A 
ATOM     98  F   UNL A   1      49.880  26.610  28.672  1.00  0.00    -0.206 F 
ATOM     99  C   UNL A   1      51.381  26.136  26.929  1.00  0.00     0.059 A 
ATOM    100  C   UNL A   1      50.742  26.582  24.627  1.00  0.00     0.059 A 
ATOM    101  F   UNL A   1      48.636  27.506  24.166  1.00  0.00    -0.206 F 
ATOM    102  C   UNL A   1      51.665  26.115  25.562  1.00  0.00     0.060 A 
BRANCH 102 103
ATOM    103  S   UNL A   1      53.234  25.409  25.014  1.00  0.00     0.124 S 
ATOM    104  O   UNL A   1      53.070  24.006  25.380  1.00  0.00    -0.237 OA
ATOM    105  O   UNL A   1      53.226  25.697  23.583  1.00  0.00    -0.237 OA
ATOM    106  O   UNL A   1      54.226  26.149  25.790  1.00  0.00    -0.744 OA
ENDBRANCH 102 103
ENDBRANCH  70  95
ENDBRANCH  44  45
ENDBRANCH  36  39
ENDBRANCH  34  35
ENDBRANCH  33  34
ENDBRANCH   1  33
TORSDOF 19
ENDMDL
MODEL 3
REMARK VINA RESULT:     -11.7      6.714     13.917
REMARK SMILES Cc1ccc2nc(Cl)c([C@@H]3CC(c4cccs4)=NN3C(=O)CCCC(=O)NCCCNC(=O)c3ccc(-c4c5nc(c(-c6c(F)cc(S(=O)(=O)[O-])cc6F)c6ccc([nH]6)c(-c6c(F)cc(S(=O)(=O)[O-])cc6F)c6nc(c(-c7c(F)cc(S(=O)(=O)[O-])cc7F)c7ccc4[nH]7)C=C6)C=C5)cc3)cc2c1
REMARK SMILES IDX 28 1 27 2 25 3 26 4 24 6 23 7 22 8 20 9 21 10 19 11 10 12
REMARK SMILES IDX 11 13 12 14 18 15 9 16 1 17 2 18 3 19 102 20 4 21 101 22
REMARK SMILES IDX 5 23 100 24 6 25 7 26 8 27 13 28 14 29 17 30 15 31 16 32
REMARK SMILES IDX 29 33 30 34 31 35 32 36 33 38 34 39 35 40 99 41 36 42 98 43
REMARK SMILES IDX 37 44 38 45 39 46 92 47 40 48 97 49 91 50 93 51 41 52 96 53
REMARK SMILES IDX 90 54 89 55 42 57 76 58 55 59 75 60 56 61 59 62 74 63 94 64
REMARK SMILES IDX 57 65 58 66 73 68 95 69 60 70 43 71 44 72 53 73 45 74 46 75
REMARK SMILES IDX 52 76 54 77 47 78 48 79 49 80 50 81 51 82 77 83 78 84 87 85
REMARK SMILES IDX 79 86 80 87 86 88 88 89 81 90 82 91 83 92 84 93 85 94 61 95
REMARK SMILES IDX 62 96 71 97 63 98 64 99 70 100 72 101 65 102 66 103 67 104
REMARK SMILES IDX 68 105 69 106
REMARK H PARENT 27 5 31 37 93 56 59 67
REMARK Flexibility Score: inf
ROOT
ATOM      1  C   UNL A   1      44.607  22.670  35.055  1.00  0.00     0.117 C 
ENDROOT
BRANCH   1   2
ATOM      2  N   UNL A   1      45.520  21.583  34.779  1.00  0.00    -0.356 N 
ATOM      3  C   UNL A   1      45.943  20.572  35.578  1.00  0.00     0.220 C 
ATOM      4  O   UNL A   1      46.285  19.519  35.032  1.00  0.00    -0.275 OA
ATOM      5  H   UNL A   1      45.895  21.576  33.868  1.00  0.00     0.163 HD
BRANCH   3   6
ATOM      6  C   UNL A   1      45.913  20.660  37.092  1.00  0.00     0.100 C 
BRANCH   6   7
ATOM      7  C   UNL A   1      47.107  20.123  37.871  1.00  0.00     0.020 C 
BRANCH   7   8
ATOM      8  C   UNL A   1      46.836  19.041  38.921  1.00  0.00     0.103 C 
BRANCH   8   9
ATOM      9  C   UNL A   1      46.289  19.581  40.233  1.00  0.00     0.243 C 
ATOM     10  O   UNL A   1      46.458  20.765  40.539  1.00  0.00    -0.273 OA
BRANCH   9  11
ATOM     11  N   UNL A   1      45.579  18.684  41.061  1.00  0.00    -0.225 N 
ATOM     12  C   UNL A   1      45.753  17.214  40.863  1.00  0.00     0.150 C 
ATOM     13  C   UNL A   1      46.596  16.766  42.042  1.00  0.00     0.092 C 
ATOM     14  C   UNL A   1      46.420  17.949  42.940  1.00  0.00     0.081 C 
ATOM     15  N   UNL A   1      45.817  18.972  42.414  1.00  0.00    -0.173 NA
BRANCH  12  16
ATOM     16  C   UNL A   1      44.460  16.422  40.672  1.00  0.00     0.015 A 
ATOM     17  C   UNL A   1      41.329  11.905  43.549  1.00  0.00     0.044 C 
ATOM     18  C   UNL A   1      41.587  12.912  42.465  1.00  0.00    -0.050 A 
ATOM     19  C   UNL A   1      41.079  12.720  41.180  1.00  0.00     0.005 A 
ATOM     20  C   UNL A   1      42.414  14.020  42.707  1.00  0.00     0.013 A 
ATOM     21  C   UNL A   1      41.432  13.594  40.149  1.00  0.00     0.029 A 
ATOM     22  C   UNL A   1      42.821  14.861  41.649  1.00  0.00     0.001 A 
ATOM     23  C   UNL A   1      42.326  14.635  40.355  1.00  0.00     0.072 A 
ATOM     24  C   UNL A   1      43.846  15.822  41.795  1.00  0.00     0.019 A 
ATOM     25  N   UNL A   1      42.780  15.320  39.301  1.00  0.00    -0.236 NA
ATOM     26  C   UNL A   1      43.830  16.159  39.460  1.00  0.00     0.135 A 
ATOM     27  Cl  UNL A   1      44.295  16.807  37.944  1.00  0.00    -0.062 Cl
ENDBRANCH  12  16
BRANCH  14  28
ATOM     28  C   UNL A   1      46.994  17.952  44.257  1.00  0.00     0.050 A 
ATOM     29  C   UNL A   1      48.202  17.405  44.643  1.00  0.00     0.022 A 
ATOM     30  S   UNL A   1      46.192  18.705  45.559  1.00  0.00    -0.142 S 
ATOM     31  C   UNL A   1      48.484  17.639  46.018  1.00  0.00     0.012 A 
ATOM     32  C   UNL A   1      47.461  18.318  46.641  1.00  0.00     0.065 A 
ENDBRANCH  14  28
ENDBRANCH   9  11
ENDBRANCH   8   9
ENDBRANCH   7   8
ENDBRANCH   6   7
ENDBRANCH   3   6
ENDBRANCH   1   2
BRANCH   1  33
ATOM     33  C   UNL A   1      45.035  23.583  36.190  1.00  0.00     0.042 C 
BRANCH  33  34
ATOM     34  C   UNL A   1      45.971  24.667  35.674  1.00  0.00     0.118 C 
BRANCH  34  35
ATOM     35  N   UNL A   1      47.054  25.028  36.591  1.00  0.00    -0.352 N 
ATOM     36  C   UNL A   1      47.232  26.261  37.187  1.00  0.00     0.251 C 
ATOM     37  H   UNL A   1      47.714  24.328  36.803  1.00  0.00     0.163 HD
ATOM     38  O   UNL A   1      48.201  26.524  37.890  1.00  0.00    -0.269 OA
BRANCH  36  39
ATOM     39  C   UNL A   1      46.213  27.284  36.899  1.00  0.00     0.039 A 
ATOM     40  C   UNL A   1      46.474  28.240  35.917  1.00  0.00     0.014 A 
ATOM     41  C   UNL A   1      44.931  27.111  37.425  1.00  0.00     0.014 A 
ATOM     42  C   UNL A   1      45.410  28.954  35.371  1.00  0.00     0.010 A 
ATOM     43  C   UNL A   1      43.867  27.754  36.815  1.00  0.00     0.010 A 
ATOM     44  C   UNL A   1      44.095  28.663  35.767  1.00  0.00    -0.014 A 
BRANCH  44  45
ATOM     45  C   UNL A   1      42.919  29.259  35.088  1.00  0.00     0.031 A 
ATOM     46  C   UNL A   1      42.521  28.747  33.735  1.00  0.00     0.074 A 
ATOM     47  C   UNL A   1      42.318  30.343  35.619  1.00  0.00     0.049 A 
ATOM     48  N   UNL A   1      41.664  29.243  32.884  1.00  0.00    -0.248 NA
ATOM     49  C   UNL A   1      43.224  27.546  33.255  1.00  0.00     0.031 C 
ATOM     50  C   UNL A   1      42.674  30.975  36.892  1.00  0.00     0.029 A 
ATOM     51  N   UNL A   1      41.300  31.126  35.136  1.00  0.00    -0.354 N 
ATOM     52  C   UNL A   1      41.762  28.446  31.751  1.00  0.00     0.074 A 
ATOM     53  C   UNL A   1      42.790  27.463  32.007  1.00  0.00     0.031 C 
ATOM     54  C   UNL A   1      41.881  32.040  37.093  1.00  0.00     0.029 A 
ATOM     55  C   UNL A   1      40.987  32.191  35.950  1.00  0.00     0.049 A 
ATOM     56  H   UNL A   1      40.835  30.943  34.288  1.00  0.00     0.167 HD
ATOM     57  C   UNL A   1      41.042  28.519  30.606  1.00  0.00     0.037 A 
ATOM     58  C   UNL A   1      40.091  33.184  35.784  1.00  0.00     0.037 A 
ATOM     59  C   UNL A   1      39.981  29.462  30.394  1.00  0.00     0.049 A 
ATOM     60  C   UNL A   1      39.244  33.197  34.542  1.00  0.00     0.074 A 
ATOM     61  C   UNL A   1      39.120  29.562  29.315  1.00  0.00     0.029 A 
ATOM     62  N   UNL A   1      39.627  30.466  31.285  1.00  0.00    -0.354 N 
ATOM     63  N   UNL A   1      39.293  32.390  33.508  1.00  0.00    -0.248 NA
ATOM     64  C   UNL A   1      38.217  34.243  34.441  1.00  0.00     0.031 C 
ATOM     65  C   UNL A   1      38.263  30.644  29.543  1.00  0.00     0.029 A 
ATOM     66  C   UNL A   1      38.566  31.195  30.779  1.00  0.00     0.049 A 
ATOM     67  H   UNL A   1      40.066  30.634  32.149  1.00  0.00     0.167 HD
ATOM     68  C   UNL A   1      38.289  32.813  32.646  1.00  0.00     0.074 A 
ATOM     69  C   UNL A   1      37.647  33.948  33.279  1.00  0.00     0.031 C 
ATOM     70  C   UNL A   1      37.930  32.306  31.441  1.00  0.00     0.037 A 
BRANCH  57  71
ATOM     71  C   UNL A   1      41.386  27.547  29.514  1.00  0.00     0.058 A 
ATOM     72  C   UNL A   1      42.563  27.671  28.758  1.00  0.00     0.135 A 
ATOM     73  C   UNL A   1      40.520  26.486  29.207  1.00  0.00     0.135 A 
ATOM     74  F   UNL A   1      43.418  28.678  28.999  1.00  0.00    -0.206 F 
ATOM     75  C   UNL A   1      42.846  26.809  27.704  1.00  0.00     0.059 A 
ATOM     76  C   UNL A   1      40.797  25.593  28.176  1.00  0.00     0.059 A 
ATOM     77  F   UNL A   1      39.380  26.320  29.897  1.00  0.00    -0.206 F 
ATOM     78  C   UNL A   1      41.950  25.778  27.415  1.00  0.00     0.060 A 
BRANCH  78  79
ATOM     79  S   UNL A   1      42.311  24.684  26.026  1.00  0.00     0.124 S 
ATOM     80  O   UNL A   1      42.053  25.565  24.891  1.00  0.00    -0.237 OA
ATOM     81  O   UNL A   1      43.710  24.336  26.252  1.00  0.00    -0.237 OA
ATOM     82  O   UNL A   1      41.360  23.590  26.201  1.00  0.00    -0.744 OA
ENDBRANCH  78  79
ENDBRANCH  57  71
BRANCH  58  83
ATOM     83  C   UNL A   1      39.933  34.217  36.840  1.00  0.00     0.058 A 
ATOM     84  C   UNL A   1      39.081  34.002  37.934  1.00  0.00     0.135 A 
ATOM     85  C   UNL A   1      40.666  35.414  36.808  1.00  0.00     0.135 A 
ATOM     86  F   UNL A   1      38.357  32.876  38.007  1.00  0.00    -0.206 F 
ATOM     87  C   UNL A   1      38.960  34.935  38.959  1.00  0.00     0.059 A 
ATOM     88  C   UNL A   1      40.575  36.354  37.831  1.00  0.00     0.059 A 
ATOM     89  F   UNL A   1      41.509  35.659  35.794  1.00  0.00    -0.206 F 
ATOM     90  C   UNL A   1      39.717  36.108  38.901  1.00  0.00     0.060 A 
BRANCH  90  91
ATOM     91  S   UNL A   1      39.611  37.275  40.276  1.00  0.00     0.124 S 
ATOM     92  O   UNL A   1      38.185  37.578  40.296  1.00  0.00    -0.237 OA
ATOM     93  O   UNL A   1      40.111  36.480  41.393  1.00  0.00    -0.237 OA
ATOM     94  O   UNL A   1      40.484  38.367  39.855  1.00  0.00    -0.744 OA
ENDBRANCH  90  91
ENDBRANCH  58  83
BRANCH  70  95
ATOM     95  C   UNL A   1      36.767  32.940  30.736  1.00  0.00     0.058 A 
ATOM     96  C   UNL A   1      35.447  32.713  31.150  1.00  0.00     0.135 A 
ATOM     97  C   UNL A   1      36.989  33.877  29.714  1.00  0.00     0.135 A 
ATOM     98  F   UNL A   1      35.186  31.822  32.120  1.00  0.00    -0.206 F 
ATOM     99  C   UNL A   1      34.383  33.402  30.580  1.00  0.00     0.059 A 
ATOM    100  C   UNL A   1      35.941  34.590  29.142  1.00  0.00     0.059 A 
ATOM    101  F   UNL A   1      38.237  34.131  29.290  1.00  0.00    -0.206 F 
ATOM    102  C   UNL A   1      34.642  34.347  29.584  1.00  0.00     0.060 A 
BRANCH 102 103
ATOM    103  S   UNL A   1      33.261  35.300  28.915  1.00  0.00     0.124 S 
ATOM    104  O   UNL A   1      32.513  35.622  30.125  1.00  0.00    -0.237 OA
ATOM    105  O   UNL A   1      33.937  36.421  28.269  1.00  0.00    -0.237 OA
ATOM    106  O   UNL A   1      32.611  34.360  28.006  1.00  0.00    -0.744 OA
ENDBRANCH 102 103
ENDBRANCH  70  95
ENDBRANCH  44  45
ENDBRANCH  36  39
ENDBRANCH  34  35
ENDBRANCH  33  34
ENDBRANCH   1  33
TORSDOF 19
ENDMDL
