MODEL 1
REMARK VINA RESULT:     -12.4      0.000      0.000
REMARK SMILES CC1(C)Cc2c(-c3ccccc3)c(-c3ccc(Cl)cc3)c(CC(=O)NCCCNC(=O)c3ccc(-c4c5nc(c(-c6c(F)cc(S(=O)(=O)[O-])cc6F)c6ccc([nH]6)c(-c6c(F)cc(S(=O)(=O)[O-])cc6F)c6nc(c(-c7c(F)cc(S(=O)(=O)[O-])cc7F)c7ccc4[nH]7)C=C6)C=C5)cc3)n2C1
REMARK SMILES IDX 27 1 26 2 25 3 23 4 24 5 22 7 21 8 1 9 2 10 3 11 4 12 99 13
REMARK SMILES IDX 5 14 98 15 6 16 13 17 7 18 8 19 12 20 9 21 11 22 10 23 14 24
REMARK SMILES IDX 15 25 20 26 16 27 19 28 17 29 18 30 28 31 29 32 30 33 31 35
REMARK SMILES IDX 32 36 33 37 97 38 34 39 96 40 35 41 36 42 37 43 90 44 38 45
REMARK SMILES IDX 95 46 89 47 91 48 39 49 94 50 88 51 87 52 40 54 74 55 53 56
REMARK SMILES IDX 73 57 54 58 57 59 72 60 92 61 55 62 56 63 71 65 93 66 58 67
REMARK SMILES IDX 41 68 42 69 51 70 43 71 44 72 50 73 52 74 45 75 46 76 47 77
REMARK SMILES IDX 48 78 49 79 75 80 76 81 85 82 77 83 78 84 84 85 86 86 79 87
REMARK SMILES IDX 80 88 81 89 82 90 83 91 59 92 60 93 69 94 61 95 62 96 68 97
REMARK SMILES IDX 70 98 63 99 64 100 65 101 66 102 67 103
REMARK H PARENT 25 6 29 34 91 53 57 64
REMARK Flexibility Score: inf
ROOT
ATOM      1  C   UNL A   1      33.625  29.670  27.412  1.00  0.00     0.042 C 
ENDROOT
BRANCH   1   2
ATOM      2  C   UNL A   1      32.686  29.562  26.214  1.00  0.00     0.117 C 
BRANCH   2   3
ATOM      3  N   UNL A   1      33.352  29.314  24.955  1.00  0.00    -0.356 N 
ATOM      4  C   UNL A   1      33.918  28.154  24.503  1.00  0.00     0.225 C 
ATOM      5  O   UNL A   1      34.206  28.089  23.306  1.00  0.00    -0.275 OA
ATOM      6  H   UNL A   1      33.406  30.082  24.343  1.00  0.00     0.163 HD
BRANCH   4   7
ATOM      7  C   UNL A   1      34.108  26.959  25.427  1.00  0.00     0.154 C 
BRANCH   7   8
ATOM      8  C   UNL A   1      33.347  25.735  25.002  1.00  0.00     0.036 A 
ATOM      9  C   UNL A   1      28.638  26.680  23.689  1.00  0.00     0.013 C 
ATOM     10  C   UNL A   1      29.662  25.954  24.561  1.00  0.00    -0.012 C 
ATOM     11  C   UNL A   1      29.024  25.681  25.935  1.00  0.00     0.013 C 
ATOM     12  C   UNL A   1      30.117  24.602  23.927  1.00  0.00     0.063 C 
ATOM     13  C   UNL A   1      30.976  26.785  24.682  1.00  0.00     0.129 C 
ATOM     14  C   UNL A   1      31.560  24.562  24.265  1.00  0.00     0.027 A 
ATOM     15  N   UNL A   1      32.020  25.771  24.686  1.00  0.00    -0.346 N 
ATOM     16  C   UNL A   1      32.598  23.669  24.306  1.00  0.00     0.011 A 
ATOM     17  C   UNL A   1      33.748  24.412  24.765  1.00  0.00     0.011 A 
BRANCH  16  18
ATOM     18  C   UNL A   1      32.465  22.267  23.956  1.00  0.00    -0.016 A 
ATOM     19  C   UNL A   1      32.538  21.277  24.943  1.00  0.00     0.009 A 
ATOM     20  C   UNL A   1      32.249  21.894  22.624  1.00  0.00     0.009 A 
ATOM     21  C   UNL A   1      32.410  19.930  24.600  1.00  0.00     0.001 A 
ATOM     22  C   UNL A   1      32.118  20.547  22.284  1.00  0.00     0.001 A 
ATOM     23  C   UNL A   1      32.203  19.567  23.270  1.00  0.00     0.000 A 
ENDBRANCH  16  18
BRANCH  17  24
ATOM     24  C   UNL A   1      35.103  23.890  24.903  1.00  0.00    -0.016 A 
ATOM     25  C   UNL A   1      35.632  23.079  23.888  1.00  0.00     0.010 A 
ATOM     26  C   UNL A   1      35.829  24.050  26.089  1.00  0.00     0.010 A 
ATOM     27  C   UNL A   1      36.860  22.435  24.059  1.00  0.00     0.021 A 
ATOM     28  C   UNL A   1      37.070  23.424  26.253  1.00  0.00     0.021 A 
ATOM     29  C   UNL A   1      37.574  22.610  25.242  1.00  0.00     0.041 A 
ATOM     30  Cl  UNL A   1      39.067  21.788  25.463  1.00  0.00    -0.084 Cl
ENDBRANCH  17  24
ENDBRANCH   7   8
ENDBRANCH   4   7
ENDBRANCH   2   3
ENDBRANCH   1   2
BRANCH   1  31
ATOM     31  C   UNL A   1      34.432  30.949  27.436  1.00  0.00     0.118 C 
BRANCH  31  32
ATOM     32  N   UNL A   1      34.281  31.669  28.706  1.00  0.00    -0.352 N 
ATOM     33  C   UNL A   1      35.151  31.713  29.784  1.00  0.00     0.251 C 
ATOM     34  H   UNL A   1      33.452  32.191  28.805  1.00  0.00     0.163 HD
ATOM     35  O   UNL A   1      34.771  32.080  30.879  1.00  0.00    -0.269 OA
BRANCH  33  36
ATOM     36  C   UNL A   1      36.542  31.278  29.562  1.00  0.00     0.039 A 
ATOM     37  C   UNL A   1      37.581  32.199  29.398  1.00  0.00     0.014 A 
ATOM     38  C   UNL A   1      36.798  29.916  29.619  1.00  0.00     0.014 A 
ATOM     39  C   UNL A   1      38.895  31.730  29.391  1.00  0.00     0.010 A 
ATOM     40  C   UNL A   1      38.080  29.490  29.827  1.00  0.00     0.010 A 
ATOM     41  C   UNL A   1      39.138  30.372  29.634  1.00  0.00    -0.014 A 
BRANCH  41  42
ATOM     42  C   UNL A   1      40.495  29.845  29.777  1.00  0.00     0.031 A 
ATOM     43  C   UNL A   1      40.959  29.632  31.179  1.00  0.00     0.074 A 
ATOM     44  C   UNL A   1      41.156  29.312  28.723  1.00  0.00     0.049 A 
ATOM     45  N   UNL A   1      41.969  30.171  31.781  1.00  0.00    -0.248 NA
ATOM     46  C   UNL A   1      40.129  28.793  32.060  1.00  0.00     0.031 C 
ATOM     47  C   UNL A   1      40.671  29.140  27.344  1.00  0.00     0.029 A 
ATOM     48  N   UNL A   1      42.345  28.658  28.695  1.00  0.00    -0.354 N 
ATOM     49  C   UNL A   1      42.037  29.566  33.037  1.00  0.00     0.074 A 
ATOM     50  C   UNL A   1      40.783  28.886  33.220  1.00  0.00     0.031 C 
ATOM     51  C   UNL A   1      41.414  28.206  26.716  1.00  0.00     0.029 A 
ATOM     52  C   UNL A   1      42.536  27.868  27.567  1.00  0.00     0.049 A 
ATOM     53  H   UNL A   1      43.016  28.737  29.412  1.00  0.00     0.167 HD
ATOM     54  C   UNL A   1      43.212  29.468  33.723  1.00  0.00     0.037 A 
ATOM     55  C   UNL A   1      43.529  26.969  27.358  1.00  0.00     0.037 A 
ATOM     56  C   UNL A   1      44.210  30.354  33.179  1.00  0.00     0.049 A 
ATOM     57  C   UNL A   1      44.620  27.306  28.307  1.00  0.00     0.074 A 
ATOM     58  C   UNL A   1      44.293  31.719  32.975  1.00  0.00     0.029 A 
ATOM     59  N   UNL A   1      45.195  29.803  32.397  1.00  0.00    -0.354 N 
ATOM     60  N   UNL A   1      45.311  28.415  28.262  1.00  0.00    -0.248 NA
ATOM     61  C   UNL A   1      44.647  26.610  29.583  1.00  0.00     0.031 C 
ATOM     62  C   UNL A   1      44.969  31.864  31.728  1.00  0.00     0.029 A 
ATOM     63  C   UNL A   1      45.318  30.588  31.280  1.00  0.00     0.049 A 
ATOM     64  H   UNL A   1      45.717  28.992  32.600  1.00  0.00     0.167 HD
ATOM     65  C   UNL A   1      45.499  28.772  29.590  1.00  0.00     0.074 A 
ATOM     66  C   UNL A   1      45.162  27.571  30.353  1.00  0.00     0.031 C 
ATOM     67  C   UNL A   1      45.632  30.080  29.960  1.00  0.00     0.037 A 
BRANCH  54  68
ATOM     68  C   UNL A   1      43.579  28.323  34.645  1.00  0.00     0.058 A 
ATOM     69  C   UNL A   1      44.039  28.605  35.950  1.00  0.00     0.135 A 
ATOM     70  C   UNL A   1      43.771  26.992  34.213  1.00  0.00     0.135 A 
ATOM     71  F   UNL A   1      43.918  29.838  36.467  1.00  0.00    -0.206 F 
ATOM     72  C   UNL A   1      44.708  27.659  36.730  1.00  0.00     0.059 A 
ATOM     73  C   UNL A   1      44.382  26.019  34.996  1.00  0.00     0.059 A 
ATOM     74  F   UNL A   1      43.466  26.591  32.973  1.00  0.00    -0.206 F 
ATOM     75  C   UNL A   1      44.890  26.372  36.235  1.00  0.00     0.060 A 
BRANCH  75  76
ATOM     76  S   UNL A   1      45.854  25.182  37.183  1.00  0.00     0.124 S 
ATOM     77  O   UNL A   1      46.816  26.055  37.845  1.00  0.00    -0.237 OA
ATOM     78  O   UNL A   1      44.838  24.581  38.039  1.00  0.00    -0.237 OA
ATOM     79  O   UNL A   1      46.401  24.300  36.155  1.00  0.00    -0.744 OA
ENDBRANCH  75  76
ENDBRANCH  54  68
BRANCH  55  80
ATOM     80  C   UNL A   1      43.461  25.682  26.619  1.00  0.00     0.058 A 
ATOM     81  C   UNL A   1      44.200  25.485  25.441  1.00  0.00     0.135 A 
ATOM     82  C   UNL A   1      42.885  24.529  27.193  1.00  0.00     0.135 A 
ATOM     83  F   UNL A   1      44.797  26.524  24.838  1.00  0.00    -0.206 F 
ATOM     84  C   UNL A   1      44.400  24.215  24.891  1.00  0.00     0.059 A 
ATOM     85  C   UNL A   1      43.061  23.254  26.656  1.00  0.00     0.059 A 
ATOM     86  F   UNL A   1      42.206  24.597  28.348  1.00  0.00    -0.206 F 
ATOM     87  C   UNL A   1      43.844  23.101  25.518  1.00  0.00     0.060 A 
BRANCH  87  88
ATOM     88  S   UNL A   1      44.249  21.448  24.906  1.00  0.00     0.124 S 
ATOM     89  O   UNL A   1      45.513  21.176  25.583  1.00  0.00    -0.237 OA
ATOM     90  O   UNL A   1      43.103  20.664  25.359  1.00  0.00    -0.237 OA
ATOM     91  O   UNL A   1      44.343  21.633  23.461  1.00  0.00    -0.744 OA
ENDBRANCH  87  88
ENDBRANCH  55  80
BRANCH  67  92
ATOM     92  C   UNL A   1      45.888  31.109  28.887  1.00  0.00     0.058 A 
ATOM     93  C   UNL A   1      44.885  31.775  28.160  1.00  0.00     0.135 A 
ATOM     94  C   UNL A   1      47.206  31.557  28.706  1.00  0.00     0.135 A 
ATOM     95  F   UNL A   1      43.591  31.487  28.348  1.00  0.00    -0.206 F 
ATOM     96  C   UNL A   1      45.181  32.808  27.269  1.00  0.00     0.059 A 
ATOM     97  C   UNL A   1      47.521  32.607  27.846  1.00  0.00     0.059 A 
ATOM     98  F   UNL A   1      48.206  31.007  29.415  1.00  0.00    -0.206 F 
ATOM     99  C   UNL A   1      46.503  33.221  27.120  1.00  0.00     0.060 A 
BRANCH  99 100
ATOM    100  S   UNL A   1      46.874  34.613  26.032  1.00  0.00     0.124 S 
ATOM    101  O   UNL A   1      48.194  34.261  25.520  1.00  0.00    -0.237 OA
ATOM    102  O   UNL A   1      45.783  34.560  25.063  1.00  0.00    -0.237 OA
ATOM    103  O   UNL A   1      46.839  35.766  26.929  1.00  0.00    -0.744 OA
ENDBRANCH  99 100
ENDBRANCH  67  92
ENDBRANCH  41  42
ENDBRANCH  33  36
ENDBRANCH  31  32
ENDBRANCH   1  31
TORSDOF 16
ENDMDL
MODEL 2
REMARK VINA RESULT:     -11.8      5.180     12.522
REMARK SMILES CC1(C)Cc2c(-c3ccccc3)c(-c3ccc(Cl)cc3)c(CC(=O)NCCCNC(=O)c3ccc(-c4c5nc(c(-c6c(F)cc(S(=O)(=O)[O-])cc6F)c6ccc([nH]6)c(-c6c(F)cc(S(=O)(=O)[O-])cc6F)c6nc(c(-c7c(F)cc(S(=O)(=O)[O-])cc7F)c7ccc4[nH]7)C=C6)C=C5)cc3)n2C1
REMARK SMILES IDX 27 1 26 2 25 3 23 4 24 5 22 7 21 8 1 9 2 10 3 11 4 12 99 13
REMARK SMILES IDX 5 14 98 15 6 16 13 17 7 18 8 19 12 20 9 21 11 22 10 23 14 24
REMARK SMILES IDX 15 25 20 26 16 27 19 28 17 29 18 30 28 31 29 32 30 33 31 35
REMARK SMILES IDX 32 36 33 37 97 38 34 39 96 40 35 41 36 42 37 43 90 44 38 45
REMARK SMILES IDX 95 46 89 47 91 48 39 49 94 50 88 51 87 52 40 54 74 55 53 56
REMARK SMILES IDX 73 57 54 58 57 59 72 60 92 61 55 62 56 63 71 65 93 66 58 67
REMARK SMILES IDX 41 68 42 69 51 70 43 71 44 72 50 73 52 74 45 75 46 76 47 77
REMARK SMILES IDX 48 78 49 79 75 80 76 81 85 82 77 83 78 84 84 85 86 86 79 87
REMARK SMILES IDX 80 88 81 89 82 90 83 91 59 92 60 93 69 94 61 95 62 96 68 97
REMARK SMILES IDX 70 98 63 99 64 100 65 101 66 102 67 103
REMARK H PARENT 25 6 29 34 91 53 57 64
REMARK Flexibility Score: inf
ROOT
ATOM      1  C   UNL A   1      44.032  22.070  25.630  1.00  0.00     0.042 C 
ENDROOT
BRANCH   1   2
ATOM      2  C   UNL A   1      45.120  22.966  26.214  1.00  0.00     0.117 C 
BRANCH   2   3
ATOM      3  N   UNL A   1      45.124  24.314  25.694  1.00  0.00    -0.356 N 
ATOM      4  C   UNL A   1      46.192  25.136  25.459  1.00  0.00     0.225 C 
ATOM      5  O   UNL A   1      45.996  26.146  24.780  1.00  0.00    -0.275 OA
ATOM      6  H   UNL A   1      44.241  24.692  25.483  1.00  0.00     0.163 HD
BRANCH   4   7
ATOM      7  C   UNL A   1      47.588  24.771  25.948  1.00  0.00     0.154 C 
BRANCH   7   8
ATOM      8  C   UNL A   1      48.405  25.952  26.391  1.00  0.00     0.036 A 
ATOM      9  C   UNL A   1      51.048  28.030  22.718  1.00  0.00     0.013 C 
ATOM     10  C   UNL A   1      50.963  27.353  24.087  1.00  0.00    -0.012 C 
ATOM     11  C   UNL A   1      52.264  26.564  24.320  1.00  0.00     0.013 C 
ATOM     12  C   UNL A   1      50.774  28.387  25.241  1.00  0.00     0.063 C 
ATOM     13  C   UNL A   1      49.702  26.440  24.176  1.00  0.00     0.129 C 
ATOM     14  C   UNL A   1      49.841  27.681  26.151  1.00  0.00     0.027 A 
ATOM     15  N   UNL A   1      49.261  26.605  25.553  1.00  0.00    -0.346 N 
ATOM     16  C   UNL A   1      49.379  27.759  27.438  1.00  0.00     0.011 A 
ATOM     17  C   UNL A   1      48.451  26.665  27.598  1.00  0.00     0.011 A 
BRANCH  16  18
ATOM     18  C   UNL A   1      49.811  28.770  28.386  1.00  0.00    -0.016 A 
ATOM     19  C   UNL A   1      50.894  28.528  29.240  1.00  0.00     0.009 A 
ATOM     20  C   UNL A   1      49.153  30.004  28.445  1.00  0.00     0.009 A 
ATOM     21  C   UNL A   1      51.304  29.504  30.150  1.00  0.00     0.001 A 
ATOM     22  C   UNL A   1      49.566  30.979  29.353  1.00  0.00     0.001 A 
ATOM     23  C   UNL A   1      50.638  30.727  30.206  1.00  0.00     0.000 A 
ENDBRANCH  16  18
BRANCH  17  24
ATOM     24  C   UNL A   1      47.658  26.383  28.790  1.00  0.00    -0.016 A 
ATOM     25  C   UNL A   1      46.280  26.647  28.774  1.00  0.00     0.010 A 
ATOM     26  C   UNL A   1      48.260  26.006  29.995  1.00  0.00     0.010 A 
ATOM     27  C   UNL A   1      45.521  26.540  29.942  1.00  0.00     0.021 A 
ATOM     28  C   UNL A   1      47.498  25.876  31.161  1.00  0.00     0.021 A 
ATOM     29  C   UNL A   1      46.134  26.156  31.131  1.00  0.00     0.041 A 
ATOM     30  Cl  UNL A   1      45.204  26.060  32.574  1.00  0.00    -0.084 Cl
ENDBRANCH  17  24
ENDBRANCH   7   8
ENDBRANCH   4   7
ENDBRANCH   2   3
ENDBRANCH   1   2
BRANCH   1  31
ATOM     31  C   UNL A   1      42.873  22.836  25.029  1.00  0.00     0.118 C 
BRANCH  31  32
ATOM     32  N   UNL A   1      41.582  22.379  25.554  1.00  0.00    -0.352 N 
ATOM     33  C   UNL A   1      40.828  22.918  26.585  1.00  0.00     0.251 C 
ATOM     34  H   UNL A   1      41.200  21.584  25.116  1.00  0.00     0.163 HD
ATOM     35  O   UNL A   1      39.950  22.270  27.121  1.00  0.00    -0.269 OA
BRANCH  33  36
ATOM     36  C   UNL A   1      41.142  24.290  27.021  1.00  0.00     0.039 A 
ATOM     37  C   UNL A   1      40.375  25.384  26.611  1.00  0.00     0.014 A 
ATOM     38  C   UNL A   1      42.174  24.444  27.935  1.00  0.00     0.014 A 
ATOM     39  C   UNL A   1      40.601  26.622  27.212  1.00  0.00     0.010 A 
ATOM     40  C   UNL A   1      42.243  25.596  28.669  1.00  0.00     0.010 A 
ATOM     41  C   UNL A   1      41.522  26.715  28.264  1.00  0.00    -0.014 A 
BRANCH  41  42
ATOM     42  C   UNL A   1      41.702  27.949  29.026  1.00  0.00     0.031 A 
ATOM     43  C   UNL A   1      42.716  28.900  28.482  1.00  0.00     0.074 A 
ATOM     44  C   UNL A   1      40.810  28.329  29.970  1.00  0.00     0.049 A 
ATOM     45  N   UNL A   1      43.791  29.340  29.053  1.00  0.00    -0.248 NA
ATOM     46  C   UNL A   1      42.573  29.334  27.082  1.00  0.00     0.031 C 
ATOM     47  C   UNL A   1      39.565  27.650  30.363  1.00  0.00     0.029 A 
ATOM     48  N   UNL A   1      40.737  29.492  30.667  1.00  0.00    -0.354 N 
ATOM     49  C   UNL A   1      44.334  30.280  28.176  1.00  0.00     0.074 A 
ATOM     50  C   UNL A   1      43.662  30.088  26.918  1.00  0.00     0.031 C 
ATOM     51  C   UNL A   1      38.752  28.523  30.992  1.00  0.00     0.029 A 
ATOM     52  C   UNL A   1      39.489  29.748  31.224  1.00  0.00     0.049 A 
ATOM     53  H   UNL A   1      41.504  30.101  30.772  1.00  0.00     0.167 HD
ATOM     54  C   UNL A   1      45.120  31.303  28.618  1.00  0.00     0.037 A 
ATOM     55  C   UNL A   1      39.074  30.900  31.804  1.00  0.00     0.037 A 
ATOM     56  C   UNL A   1      45.585  31.062  29.961  1.00  0.00     0.049 A 
ATOM     57  C   UNL A   1      40.297  31.662  32.167  1.00  0.00     0.074 A 
ATOM     58  C   UNL A   1      46.318  30.063  30.572  1.00  0.00     0.029 A 
ATOM     59  N   UNL A   1      44.973  31.749  30.981  1.00  0.00    -0.354 N 
ATOM     60  N   UNL A   1      41.167  31.266  33.058  1.00  0.00    -0.248 NA
ATOM     61  C   UNL A   1      40.785  32.650  31.219  1.00  0.00     0.031 C 
ATOM     62  C   UNL A   1      45.717  29.896  31.854  1.00  0.00     0.029 A 
ATOM     63  C   UNL A   1      44.700  30.845  31.976  1.00  0.00     0.049 A 
ATOM     64  H   UNL A   1      44.768  32.712  30.996  1.00  0.00     0.167 HD
ATOM     65  C   UNL A   1      42.401  31.618  32.531  1.00  0.00     0.074 A 
ATOM     66  C   UNL A   1      42.096  32.558  31.454  1.00  0.00     0.031 C 
ATOM     67  C   UNL A   1      43.527  30.902  32.824  1.00  0.00     0.037 A 
BRANCH  54  68
ATOM     68  C   UNL A   1      45.176  32.682  27.991  1.00  0.00     0.058 A 
ATOM     69  C   UNL A   1      46.392  33.146  27.445  1.00  0.00     0.135 A 
ATOM     70  C   UNL A   1      44.175  33.666  28.157  1.00  0.00     0.135 A 
ATOM     71  F   UNL A   1      47.419  32.303  27.247  1.00  0.00    -0.206 F 
ATOM     72  C   UNL A   1      46.622  34.495  27.163  1.00  0.00     0.059 A 
ATOM     73  C   UNL A   1      44.363  35.003  27.828  1.00  0.00     0.059 A 
ATOM     74  F   UNL A   1      43.000  33.400  28.739  1.00  0.00    -0.206 F 
ATOM     75  C   UNL A   1      45.605  35.418  27.377  1.00  0.00     0.060 A 
BRANCH  75  76
ATOM     76  S   UNL A   1      45.931  37.172  27.129  1.00  0.00     0.124 S 
ATOM     77  O   UNL A   1      46.621  37.514  28.367  1.00  0.00    -0.237 OA
ATOM     78  O   UNL A   1      46.747  37.163  25.920  1.00  0.00    -0.237 OA
ATOM     79  O   UNL A   1      44.595  37.741  26.971  1.00  0.00    -0.744 OA
ENDBRANCH  75  76
ENDBRANCH  54  68
BRANCH  55  80
ATOM     80  C   UNL A   1      37.716  31.502  31.782  1.00  0.00     0.058 A 
ATOM     81  C   UNL A   1      36.982  31.673  32.967  1.00  0.00     0.135 A 
ATOM     82  C   UNL A   1      37.219  32.167  30.641  1.00  0.00     0.135 A 
ATOM     83  F   UNL A   1      37.392  31.091  34.104  1.00  0.00    -0.206 F 
ATOM     84  C   UNL A   1      35.852  32.494  33.031  1.00  0.00     0.059 A 
ATOM     85  C   UNL A   1      36.088  32.981  30.677  1.00  0.00     0.059 A 
ATOM     86  F   UNL A   1      37.875  32.115  29.471  1.00  0.00    -0.206 F 
ATOM     87  C   UNL A   1      35.424  33.163  31.884  1.00  0.00     0.060 A 
BRANCH  87  88
ATOM     88  S   UNL A   1      34.073  34.357  32.010  1.00  0.00     0.124 S 
ATOM     89  O   UNL A   1      33.195  33.719  32.986  1.00  0.00    -0.237 OA
ATOM     90  O   UNL A   1      34.766  35.558  32.467  1.00  0.00    -0.237 OA
ATOM     91  O   UNL A   1      33.548  34.423  30.649  1.00  0.00    -0.744 OA
ENDBRANCH  87  88
ENDBRANCH  55  80
BRANCH  67  92
ATOM     92  C   UNL A   1      43.478  29.921  33.969  1.00  0.00     0.058 A 
ATOM     93  C   UNL A   1      43.006  28.599  33.872  1.00  0.00     0.135 A 
ATOM     94  C   UNL A   1      44.091  30.288  35.178  1.00  0.00     0.135 A 
ATOM     95  F   UNL A   1      42.504  28.130  32.723  1.00  0.00    -0.206 F 
ATOM     96  C   UNL A   1      43.103  27.700  34.935  1.00  0.00     0.059 A 
ATOM     97  C   UNL A   1      44.227  29.398  36.241  1.00  0.00     0.059 A 
ATOM     98  F   UNL A   1      44.620  31.515  35.318  1.00  0.00    -0.206 F 
ATOM     99  C   UNL A   1      43.719  28.107  36.117  1.00  0.00     0.060 A 
BRANCH  99 100
ATOM    100  S   UNL A   1      43.920  26.917  37.460  1.00  0.00     0.124 S 
ATOM    101  O   UNL A   1      42.548  26.479  37.691  1.00  0.00    -0.237 OA
ATOM    102  O   UNL A   1      44.813  25.922  36.874  1.00  0.00    -0.237 OA
ATOM    103  O   UNL A   1      44.511  27.712  38.535  1.00  0.00    -0.744 OA
ENDBRANCH  99 100
ENDBRANCH  67  92
ENDBRANCH  41  42
ENDBRANCH  33  36
ENDBRANCH  31  32
ENDBRANCH   1  31
TORSDOF 16
ENDMDL
MODEL 3
REMARK VINA RESULT:     -11.8      5.268     12.291
REMARK SMILES CC1(C)Cc2c(-c3ccccc3)c(-c3ccc(Cl)cc3)c(CC(=O)NCCCNC(=O)c3ccc(-c4c5nc(c(-c6c(F)cc(S(=O)(=O)[O-])cc6F)c6ccc([nH]6)c(-c6c(F)cc(S(=O)(=O)[O-])cc6F)c6nc(c(-c7c(F)cc(S(=O)(=O)[O-])cc7F)c7ccc4[nH]7)C=C6)C=C5)cc3)n2C1
REMARK SMILES IDX 27 1 26 2 25 3 23 4 24 5 22 7 21 8 1 9 2 10 3 11 4 12 99 13
REMARK SMILES IDX 5 14 98 15 6 16 13 17 7 18 8 19 12 20 9 21 11 22 10 23 14 24
REMARK SMILES IDX 15 25 20 26 16 27 19 28 17 29 18 30 28 31 29 32 30 33 31 35
REMARK SMILES IDX 32 36 33 37 97 38 34 39 96 40 35 41 36 42 37 43 90 44 38 45
REMARK SMILES IDX 95 46 89 47 91 48 39 49 94 50 88 51 87 52 40 54 74 55 53 56
REMARK SMILES IDX 73 57 54 58 57 59 72 60 92 61 55 62 56 63 71 65 93 66 58 67
REMARK SMILES IDX 41 68 42 69 51 70 43 71 44 72 50 73 52 74 45 75 46 76 47 77
REMARK SMILES IDX 48 78 49 79 75 80 76 81 85 82 77 83 78 84 84 85 86 86 79 87
REMARK SMILES IDX 80 88 81 89 82 90 83 91 59 92 60 93 69 94 61 95 62 96 68 97
REMARK SMILES IDX 70 98 63 99 64 100 65 101 66 102 67 103
REMARK H PARENT 25 6 29 34 91 53 57 64
REMARK Flexibility Score: inf
ROOT
ATOM      1  C   UNL A   1      44.692  22.611  25.964  1.00  0.00     0.042 C 
ENDROOT
BRANCH   1   2
ATOM      2  C   UNL A   1      45.282  23.392  27.134  1.00  0.00     0.117 C 
BRANCH   2   3
ATOM      3  N   UNL A   1      44.808  22.970  28.432  1.00  0.00    -0.356 N 
ATOM      4  C   UNL A   1      44.488  23.739  29.516  1.00  0.00     0.225 C 
ATOM      5  O   UNL A   1      43.866  23.200  30.434  1.00  0.00    -0.275 OA
ATOM      6  H   UNL A   1      44.704  21.999  28.552  1.00  0.00     0.163 HD
BRANCH   4   7
ATOM      7  C   UNL A   1      44.814  25.226  29.550  1.00  0.00     0.154 C 
BRANCH   7   8
ATOM      8  C   UNL A   1      46.138  25.544  30.186  1.00  0.00     0.036 A 
ATOM      9  C   UNL A   1      46.339  24.408  35.030  1.00  0.00     0.013 C 
ATOM     10  C   UNL A   1      46.447  25.420  33.889  1.00  0.00    -0.012 C 
ATOM     11  C   UNL A   1      46.034  26.803  34.424  1.00  0.00     0.013 C 
ATOM     12  C   UNL A   1      47.895  25.502  33.313  1.00  0.00     0.063 C 
ATOM     13  C   UNL A   1      45.573  24.980  32.674  1.00  0.00     0.129 C 
ATOM     14  C   UNL A   1      47.651  25.671  31.860  1.00  0.00     0.027 A 
ATOM     15  N   UNL A   1      46.365  25.385  31.522  1.00  0.00    -0.346 N 
ATOM     16  C   UNL A   1      48.321  26.048  30.726  1.00  0.00     0.011 A 
ATOM     17  C   UNL A   1      47.365  25.959  29.648  1.00  0.00     0.011 A 
BRANCH  16  18
ATOM     18  C   UNL A   1      49.713  26.457  30.715  1.00  0.00    -0.016 A 
ATOM     19  C   UNL A   1      50.734  25.514  30.882  1.00  0.00     0.009 A 
ATOM     20  C   UNL A   1      50.047  27.803  30.524  1.00  0.00     0.009 A 
ATOM     21  C   UNL A   1      52.071  25.914  30.871  1.00  0.00     0.001 A 
ATOM     22  C   UNL A   1      51.384  28.201  30.511  1.00  0.00     0.001 A 
ATOM     23  C   UNL A   1      52.394  27.258  30.688  1.00  0.00     0.000 A 
ENDBRANCH  16  18
BRANCH  17  24
ATOM     24  C   UNL A   1      47.642  26.204  28.237  1.00  0.00    -0.016 A 
ATOM     25  C   UNL A   1      46.966  27.240  27.576  1.00  0.00     0.010 A 
ATOM     26  C   UNL A   1      48.447  25.337  27.490  1.00  0.00     0.010 A 
ATOM     27  C   UNL A   1      47.087  27.401  26.193  1.00  0.00     0.021 A 
ATOM     28  C   UNL A   1      48.588  25.510  26.109  1.00  0.00     0.021 A 
ATOM     29  C   UNL A   1      47.898  26.534  25.465  1.00  0.00     0.041 A 
ATOM     30  Cl  UNL A   1      48.017  26.713  23.760  1.00  0.00    -0.084 Cl
ENDBRANCH  17  24
ENDBRANCH   7   8
ENDBRANCH   4   7
ENDBRANCH   2   3
ENDBRANCH   1   2
BRANCH   1  31
ATOM     31  C   UNL A   1      43.679  23.396  25.160  1.00  0.00     0.118 C 
BRANCH  31  32
ATOM     32  N   UNL A   1      42.411  22.671  25.017  1.00  0.00    -0.352 N 
ATOM     33  C   UNL A   1      41.268  22.765  25.794  1.00  0.00     0.251 C 
ATOM     34  H   UNL A   1      42.367  22.032  24.268  1.00  0.00     0.163 HD
ATOM     35  O   UNL A   1      40.418  21.897  25.763  1.00  0.00    -0.269 OA
BRANCH  33  36
ATOM     36  C   UNL A   1      41.130  23.941  26.673  1.00  0.00     0.039 A 
ATOM     37  C   UNL A   1      41.066  23.814  28.064  1.00  0.00     0.014 A 
ATOM     38  C   UNL A   1      41.162  25.190  26.072  1.00  0.00     0.014 A 
ATOM     39  C   UNL A   1      41.136  24.967  28.845  1.00  0.00     0.010 A 
ATOM     40  C   UNL A   1      41.446  26.287  26.836  1.00  0.00     0.010 A 
ATOM     41  C   UNL A   1      41.354  26.203  28.222  1.00  0.00    -0.014 A 
BRANCH  41  42
ATOM     42  C   UNL A   1      41.574  27.427  28.991  1.00  0.00     0.031 A 
ATOM     43  C   UNL A   1      42.655  28.322  28.483  1.00  0.00     0.074 A 
ATOM     44  C   UNL A   1      40.672  27.853  29.905  1.00  0.00     0.049 A 
ATOM     45  N   UNL A   1      43.732  28.704  29.090  1.00  0.00    -0.248 NA
ATOM     46  C   UNL A   1      42.582  28.762  27.079  1.00  0.00     0.031 C 
ATOM     47  C   UNL A   1      39.381  27.241  30.256  1.00  0.00     0.029 A 
ATOM     48  N   UNL A   1      40.638  29.019  30.602  1.00  0.00    -0.354 N 
ATOM     49  C   UNL A   1      44.353  29.613  28.233  1.00  0.00     0.074 A 
ATOM     50  C   UNL A   1      43.715  29.457  26.953  1.00  0.00     0.031 C 
ATOM     51  C   UNL A   1      38.594  28.157  30.859  1.00  0.00     0.029 A 
ATOM     52  C   UNL A   1      39.387  29.341  31.116  1.00  0.00     0.049 A 
ATOM     53  H   UNL A   1      41.432  29.586  30.733  1.00  0.00     0.167 HD
ATOM     54  C   UNL A   1      45.177  30.594  28.703  1.00  0.00     0.037 A 
ATOM     55  C   UNL A   1      39.015  30.514  31.684  1.00  0.00     0.037 A 
ATOM     56  C   UNL A   1      45.583  30.329  30.060  1.00  0.00     0.049 A 
ATOM     57  C   UNL A   1      40.263  31.210  32.089  1.00  0.00     0.074 A 
ATOM     58  C   UNL A   1      46.242  29.292  30.694  1.00  0.00     0.029 A 
ATOM     59  N   UNL A   1      44.975  31.048  31.060  1.00  0.00    -0.354 N 
ATOM     60  N   UNL A   1      41.081  30.768  33.007  1.00  0.00    -0.248 NA
ATOM     61  C   UNL A   1      40.835  32.170  31.159  1.00  0.00     0.031 C 
ATOM     62  C   UNL A   1      45.590  29.158  31.954  1.00  0.00     0.029 A 
ATOM     63  C   UNL A   1      44.621  30.160  32.044  1.00  0.00     0.049 A 
ATOM     64  H   UNL A   1      44.821  32.020  31.070  1.00  0.00     0.167 HD
ATOM     65  C   UNL A   1      42.349  31.054  32.523  1.00  0.00     0.074 A 
ATOM     66  C   UNL A   1      42.130  32.008  31.438  1.00  0.00     0.031 C 
ATOM     67  C   UNL A   1      43.425  30.280  32.853  1.00  0.00     0.037 A 
BRANCH  54  68
ATOM     68  C   UNL A   1      45.327  31.967  28.079  1.00  0.00     0.058 A 
ATOM     69  C   UNL A   1      46.599  32.394  27.641  1.00  0.00     0.135 A 
ATOM     70  C   UNL A   1      44.345  32.980  28.156  1.00  0.00     0.135 A 
ATOM     71  F   UNL A   1      47.614  31.521  27.535  1.00  0.00    -0.206 F 
ATOM     72  C   UNL A   1      46.891  33.734  27.377  1.00  0.00     0.059 A 
ATOM     73  C   UNL A   1      44.599  34.311  27.841  1.00  0.00     0.059 A 
ATOM     74  F   UNL A   1      43.116  32.751  28.634  1.00  0.00    -0.206 F 
ATOM     75  C   UNL A   1      45.887  34.688  27.499  1.00  0.00     0.060 A 
BRANCH  75  76
ATOM     76  S   UNL A   1      46.284  36.430  27.276  1.00  0.00     0.124 S 
ATOM     77  O   UNL A   1      47.144  36.678  28.427  1.00  0.00    -0.237 OA
ATOM     78  O   UNL A   1      46.939  36.430  25.973  1.00  0.00    -0.237 OA
ATOM     79  O   UNL A   1      44.975  37.078  27.312  1.00  0.00    -0.744 OA
ENDBRANCH  75  76
ENDBRANCH  54  68
BRANCH  55  80
ATOM     80  C   UNL A   1      37.692  31.187  31.617  1.00  0.00     0.058 A 
ATOM     81  C   UNL A   1      36.929  31.398  32.778  1.00  0.00     0.135 A 
ATOM     82  C   UNL A   1      37.270  31.877  30.461  1.00  0.00     0.135 A 
ATOM     83  F   UNL A   1      37.270  30.796  33.927  1.00  0.00    -0.206 F 
ATOM     84  C   UNL A   1      35.843  32.278  32.805  1.00  0.00     0.059 A 
ATOM     85  C   UNL A   1      36.183  32.750  30.461  1.00  0.00     0.059 A 
ATOM     86  F   UNL A   1      37.960  31.789  29.314  1.00  0.00    -0.206 F 
ATOM     87  C   UNL A   1      35.490  32.967  31.645  1.00  0.00     0.060 A 
BRANCH  87  88
ATOM     88  S   UNL A   1      34.200  34.232  31.727  1.00  0.00     0.124 S 
ATOM     89  O   UNL A   1      34.961  35.415  32.114  1.00  0.00    -0.237 OA
ATOM     90  O   UNL A   1      33.680  34.228  30.363  1.00  0.00    -0.237 OA
ATOM     91  O   UNL A   1      33.285  33.720  32.743  1.00  0.00    -0.744 OA
ENDBRANCH  87  88
ENDBRANCH  55  80
BRANCH  67  92
ATOM     92  C   UNL A   1      43.286  29.303  33.994  1.00  0.00     0.058 A 
ATOM     93  C   UNL A   1      43.434  29.633  35.353  1.00  0.00     0.135 A 
ATOM     94  C   UNL A   1      42.819  28.011  33.702  1.00  0.00     0.135 A 
ATOM     95  F   UNL A   1      43.772  30.873  35.729  1.00  0.00    -0.206 F 
ATOM     96  C   UNL A   1      43.169  28.713  36.370  1.00  0.00     0.059 A 
ATOM     97  C   UNL A   1      42.518  27.088  34.701  1.00  0.00     0.059 A 
ATOM     98  F   UNL A   1      42.596  27.650  32.427  1.00  0.00    -0.206 F 
ATOM     99  C   UNL A   1      42.707  27.442  36.035  1.00  0.00     0.060 A 
BRANCH  99 100
ATOM    100  S   UNL A   1      42.284  26.283  37.352  1.00  0.00     0.124 S 
ATOM    101  O   UNL A   1      40.885  26.608  37.611  1.00  0.00    -0.237 OA
ATOM    102  O   UNL A   1      42.528  24.986  36.728  1.00  0.00    -0.237 OA
ATOM    103  O   UNL A   1      43.214  26.631  38.425  1.00  0.00    -0.744 OA
ENDBRANCH  99 100
ENDBRANCH  67  92
ENDBRANCH  41  42
ENDBRANCH  33  36
ENDBRANCH  31  32
ENDBRANCH   1  31
TORSDOF 16
ENDMDL
