MODEL 1
REMARK VINA RESULT:     -12.0      0.000      0.000
REMARK SMILES Cc1ncccc1Oc1ccc(C(=O)NCCCNC(=O)c2ccc(-c3c4nc(c(-c5c(F)cc(S(=O)(=O)[O-])cc5F)c5ccc([nH]5)c(-c5c(F)cc(S(=O)(=O)[O-])cc5F)c5nc(c(-c6c(F)cc(S(=O)(=O)[O-])cc6F)c6ccc3[nH]6)C=C5)C=C4)cc2)cc1Cl
REMARK SMILES IDX 17 1 16 2 15 3 13 4 14 5 12 7 9 8 10 9 89 10 11 11 88 12
REMARK SMILES IDX 90 13 8 14 7 15 1 16 2 17 3 18 4 19 6 20 5 21 18 22 19 23
REMARK SMILES IDX 20 24 21 26 22 27 23 28 87 29 24 30 86 31 25 32 26 33 27 34
REMARK SMILES IDX 80 35 28 36 85 37 79 38 81 39 29 40 84 41 78 42 77 43 30 45
REMARK SMILES IDX 64 46 43 47 63 48 44 49 47 50 62 51 82 52 45 53 46 54 61 56
REMARK SMILES IDX 83 57 48 58 31 59 32 60 41 61 33 62 34 63 40 64 42 65 35 66
REMARK SMILES IDX 36 67 37 68 38 69 39 70 65 71 66 72 75 73 67 74 68 75 74 76
REMARK SMILES IDX 76 77 69 78 70 79 71 80 72 81 73 82 49 83 50 84 59 85 51 86
REMARK SMILES IDX 52 87 58 88 60 89 53 90 54 91 55 92 56 93 57 94
REMARK H PARENT 15 6 19 25 81 44 47 55
REMARK Flexibility Score: inf
ROOT
ATOM      1  C   UNL A   1      40.014  22.777  27.615  1.00  0.00     0.042 C 
ENDROOT
BRANCH   1   2
ATOM      2  C   UNL A   1      39.165  22.855  26.347  1.00  0.00     0.118 C 
BRANCH   2   3
ATOM      3  N   UNL A   1      38.948  21.535  25.776  1.00  0.00    -0.352 N 
ATOM      4  C   UNL A   1      37.855  20.962  25.179  1.00  0.00     0.251 C 
ATOM      5  O   UNL A   1      37.969  19.832  24.709  1.00  0.00    -0.269 OA
ATOM      6  H   UNL A   1      39.733  20.943  25.828  1.00  0.00     0.163 HD
BRANCH   4   7
ATOM      7  C   UNL A   1      36.572  21.688  25.002  1.00  0.00     0.041 A 
ATOM      8  C   UNL A   1      34.318  23.295  24.623  1.00  0.00     0.146 A 
ATOM      9  C   UNL A   1      35.293  23.222  23.626  1.00  0.00     0.049 A 
ATOM     10  C   UNL A   1      34.396  22.456  25.737  1.00  0.00     0.084 A 
ATOM     11  C   UNL A   1      36.424  22.433  23.824  1.00  0.00     0.018 A 
ATOM     12  C   UNL A   1      35.519  21.646  25.921  1.00  0.00     0.038 A 
ATOM     13  Cl  UNL A   1      33.148  22.408  26.927  1.00  0.00    -0.080 Cl
BRANCH   8  14
ATOM     14  O   UNL A   1      33.282  24.159  24.405  1.00  0.00    -0.454 OA
BRANCH  14  15
ATOM     15  C   UNL A   1      33.492  25.521  24.457  1.00  0.00     0.148 A 
ATOM     16  C   UNL A   1      33.302  26.196  21.975  1.00  0.00     0.071 C 
ATOM     17  C   UNL A   1      33.498  26.479  23.433  1.00  0.00     0.080 A 
ATOM     18  N   UNL A   1      33.695  27.806  23.689  1.00  0.00    -0.258 NA
ATOM     19  C   UNL A   1      33.877  28.196  24.966  1.00  0.00     0.111 A 
ATOM     20  C   UNL A   1      33.667  25.977  25.771  1.00  0.00     0.050 A 
ATOM     21  C   UNL A   1      33.866  27.327  26.035  1.00  0.00     0.024 A 
ENDBRANCH  14  15
ENDBRANCH   8  14
ENDBRANCH   4   7
ENDBRANCH   2   3
ENDBRANCH   1   2
BRANCH   1  22
ATOM     22  C   UNL A   1      41.468  23.191  27.406  1.00  0.00     0.118 C 
BRANCH  22  23
ATOM     23  N   UNL A   1      41.639  24.021  26.225  1.00  0.00    -0.352 N 
ATOM     24  C   UNL A   1      41.485  25.375  26.063  1.00  0.00     0.251 C 
ATOM     25  H   UNL A   1      41.907  23.534  25.412  1.00  0.00     0.163 HD
ATOM     26  O   UNL A   1      41.484  25.836  24.925  1.00  0.00    -0.269 OA
BRANCH  24  27
ATOM     27  C   UNL A   1      41.312  26.279  27.226  1.00  0.00     0.039 A 
ATOM     28  C   UNL A   1      40.173  26.122  28.023  1.00  0.00     0.014 A 
ATOM     29  C   UNL A   1      42.213  27.312  27.505  1.00  0.00     0.014 A 
ATOM     30  C   UNL A   1      39.956  26.972  29.109  1.00  0.00     0.010 A 
ATOM     31  C   UNL A   1      42.032  28.116  28.632  1.00  0.00     0.010 A 
ATOM     32  C   UNL A   1      40.895  27.965  29.437  1.00  0.00    -0.014 A 
BRANCH  32  33
ATOM     33  C   UNL A   1      40.680  28.845  30.617  1.00  0.00     0.031 A 
ATOM     34  C   UNL A   1      41.533  28.698  31.850  1.00  0.00     0.074 A 
ATOM     35  C   UNL A   1      39.697  29.767  30.583  1.00  0.00     0.049 A 
ATOM     36  N   UNL A   1      41.504  29.391  32.960  1.00  0.00    -0.248 NA
ATOM     37  C   UNL A   1      42.530  27.617  31.847  1.00  0.00     0.031 C 
ATOM     38  C   UNL A   1      38.763  29.964  29.473  1.00  0.00     0.029 A 
ATOM     39  N   UNL A   1      39.322  30.712  31.504  1.00  0.00    -0.354 N 
ATOM     40  C   UNL A   1      42.468  28.827  33.788  1.00  0.00     0.074 A 
ATOM     41  C   UNL A   1      43.028  27.701  33.072  1.00  0.00     0.031 C 
ATOM     42  C   UNL A   1      37.945  30.989  29.763  1.00  0.00     0.029 A 
ATOM     43  C   UNL A   1      38.281  31.506  31.086  1.00  0.00     0.049 A 
ATOM     44  H   UNL A   1      39.757  30.812  32.382  1.00  0.00     0.167 HD
ATOM     45  C   UNL A   1      42.869  29.225  35.020  1.00  0.00     0.037 A 
ATOM     46  C   UNL A   1      37.672  32.542  31.694  1.00  0.00     0.037 A 
ATOM     47  C   UNL A   1      42.328  30.363  35.717  1.00  0.00     0.049 A 
ATOM     48  C   UNL A   1      38.164  32.993  33.040  1.00  0.00     0.074 A 
ATOM     49  C   UNL A   1      42.702  30.882  36.945  1.00  0.00     0.029 A 
ATOM     50  N   UNL A   1      41.297  31.164  35.246  1.00  0.00    -0.354 N 
ATOM     51  N   UNL A   1      39.123  32.488  33.780  1.00  0.00    -0.248 NA
ATOM     52  C   UNL A   1      37.504  34.167  33.629  1.00  0.00     0.031 C 
ATOM     53  C   UNL A   1      41.877  31.977  37.230  1.00  0.00     0.029 A 
ATOM     54  C   UNL A   1      41.016  32.165  36.162  1.00  0.00     0.049 A 
ATOM     55  H   UNL A   1      40.832  31.038  34.388  1.00  0.00     0.167 HD
ATOM     56  C   UNL A   1      39.197  33.295  34.910  1.00  0.00     0.074 A 
ATOM     57  C   UNL A   1      38.198  34.332  34.746  1.00  0.00     0.031 C 
ATOM     58  C   UNL A   1      40.016  33.188  35.985  1.00  0.00     0.037 A 
BRANCH  45  59
ATOM     59  C   UNL A   1      43.956  28.427  35.690  1.00  0.00     0.058 A 
ATOM     60  C   UNL A   1      45.315  28.718  35.484  1.00  0.00     0.135 A 
ATOM     61  C   UNL A   1      43.638  27.381  36.571  1.00  0.00     0.135 A 
ATOM     62  F   UNL A   1      45.676  29.698  34.641  1.00  0.00    -0.206 F 
ATOM     63  C   UNL A   1      46.320  27.979  36.101  1.00  0.00     0.059 A 
ATOM     64  C   UNL A   1      44.627  26.646  37.219  1.00  0.00     0.059 A 
ATOM     65  F   UNL A   1      42.357  27.061  36.806  1.00  0.00    -0.206 F 
ATOM     66  C   UNL A   1      45.966  26.942  36.965  1.00  0.00     0.060 A 
BRANCH  66  67
ATOM     67  S   UNL A   1      47.281  25.992  37.759  1.00  0.00     0.124 S 
ATOM     68  O   UNL A   1      46.959  26.174  39.171  1.00  0.00    -0.237 OA
ATOM     69  O   UNL A   1      47.063  24.651  37.227  1.00  0.00    -0.237 OA
ATOM     70  O   UNL A   1      48.500  26.654  37.303  1.00  0.00    -0.744 OA
ENDBRANCH  66  67
ENDBRANCH  45  59
BRANCH  46  71
ATOM     71  C   UNL A   1      36.561  33.253  31.009  1.00  0.00     0.058 A 
ATOM     72  C   UNL A   1      35.234  33.103  31.440  1.00  0.00     0.135 A 
ATOM     73  C   UNL A   1      36.803  34.111  29.925  1.00  0.00     0.135 A 
ATOM     74  F   UNL A   1      34.952  32.291  32.470  1.00  0.00    -0.206 F 
ATOM     75  C   UNL A   1      34.184  33.762  30.810  1.00  0.00     0.059 A 
ATOM     76  C   UNL A   1      35.772  34.801  29.294  1.00  0.00     0.059 A 
ATOM     77  F   UNL A   1      38.057  34.304  29.488  1.00  0.00    -0.206 F 
ATOM     78  C   UNL A   1      34.464  34.612  29.738  1.00  0.00     0.060 A 
BRANCH  78  79
ATOM     79  S   UNL A   1      33.101  35.506  28.960  1.00  0.00     0.124 S 
ATOM     80  O   UNL A   1      32.462  34.449  28.185  1.00  0.00    -0.237 OA
ATOM     81  O   UNL A   1      32.353  35.993  30.114  1.00  0.00    -0.237 OA
ATOM     82  O   UNL A   1      33.780  36.538  28.183  1.00  0.00    -0.744 OA
ENDBRANCH  78  79
ENDBRANCH  46  71
BRANCH  58  83
ATOM     83  C   UNL A   1      39.880  34.239  37.052  1.00  0.00     0.058 A 
ATOM     84  C   UNL A   1      39.122  34.017  38.213  1.00  0.00     0.135 A 
ATOM     85  C   UNL A   1      40.522  35.480  36.915  1.00  0.00     0.135 A 
ATOM     86  F   UNL A   1      38.486  32.849  38.392  1.00  0.00    -0.206 F 
ATOM     87  C   UNL A   1      38.969  35.006  39.179  1.00  0.00     0.059 A 
ATOM     88  C   UNL A   1      40.405  36.473  37.881  1.00  0.00     0.059 A 
ATOM     89  F   UNL A   1      41.271  35.738  35.830  1.00  0.00    -0.206 F 
ATOM     90  C   UNL A   1      39.609  36.233  39.000  1.00  0.00     0.060 A 
BRANCH  90  91
ATOM     91  S   UNL A   1      39.399  37.514  40.256  1.00  0.00     0.124 S 
ATOM     92  O   UNL A   1      38.798  36.757  41.349  1.00  0.00    -0.237 OA
ATOM     93  O   UNL A   1      40.769  37.968  40.476  1.00  0.00    -0.237 OA
ATOM     94  O   UNL A   1      38.523  38.484  39.607  1.00  0.00    -0.744 OA
ENDBRANCH  90  91
ENDBRANCH  58  83
ENDBRANCH  32  33
ENDBRANCH  24  27
ENDBRANCH  22  23
ENDBRANCH   1  22
TORSDOF 15
ENDMDL
MODEL 2
REMARK VINA RESULT:     -11.9      6.231      8.655
REMARK SMILES Cc1ncccc1Oc1ccc(C(=O)NCCCNC(=O)c2ccc(-c3c4nc(c(-c5c(F)cc(S(=O)(=O)[O-])cc5F)c5ccc([nH]5)c(-c5c(F)cc(S(=O)(=O)[O-])cc5F)c5nc(c(-c6c(F)cc(S(=O)(=O)[O-])cc6F)c6ccc3[nH]6)C=C5)C=C4)cc2)cc1Cl
REMARK SMILES IDX 17 1 16 2 15 3 13 4 14 5 12 7 9 8 10 9 89 10 11 11 88 12
REMARK SMILES IDX 90 13 8 14 7 15 1 16 2 17 3 18 4 19 6 20 5 21 18 22 19 23
REMARK SMILES IDX 20 24 21 26 22 27 23 28 87 29 24 30 86 31 25 32 26 33 27 34
REMARK SMILES IDX 80 35 28 36 85 37 79 38 81 39 29 40 84 41 78 42 77 43 30 45
REMARK SMILES IDX 64 46 43 47 63 48 44 49 47 50 62 51 82 52 45 53 46 54 61 56
REMARK SMILES IDX 83 57 48 58 31 59 32 60 41 61 33 62 34 63 40 64 42 65 35 66
REMARK SMILES IDX 36 67 37 68 38 69 39 70 65 71 66 72 75 73 67 74 68 75 74 76
REMARK SMILES IDX 76 77 69 78 70 79 71 80 72 81 73 82 49 83 50 84 59 85 51 86
REMARK SMILES IDX 52 87 58 88 60 89 53 90 54 91 55 92 56 93 57 94
REMARK H PARENT 15 6 19 25 81 44 47 55
REMARK Flexibility Score: inf
ROOT
ATOM      1  C   UNL A   1      38.232  19.542  25.001  1.00  0.00     0.042 C 
ENDROOT
BRANCH   1   2
ATOM      2  C   UNL A   1      37.143  20.554  24.649  1.00  0.00     0.118 C 
BRANCH   2   3
ATOM      3  N   UNL A   1      35.824  20.054  25.002  1.00  0.00    -0.352 N 
ATOM      4  C   UNL A   1      34.603  20.671  25.094  1.00  0.00     0.251 C 
ATOM      5  O   UNL A   1      33.617  19.983  25.347  1.00  0.00    -0.269 OA
ATOM      6  H   UNL A   1      35.805  19.093  25.215  1.00  0.00     0.163 HD
BRANCH   4   7
ATOM      7  C   UNL A   1      34.418  22.117  24.813  1.00  0.00     0.041 A 
ATOM      8  C   UNL A   1      33.926  24.853  24.542  1.00  0.00     0.146 A 
ATOM      9  C   UNL A   1      34.595  24.379  25.671  1.00  0.00     0.049 A 
ATOM     10  C   UNL A   1      33.637  23.986  23.485  1.00  0.00     0.084 A 
ATOM     11  C   UNL A   1      34.824  23.012  25.813  1.00  0.00     0.018 A 
ATOM     12  C   UNL A   1      33.892  22.618  23.619  1.00  0.00     0.038 A 
ATOM     13  Cl  UNL A   1      32.937  24.549  22.012  1.00  0.00    -0.080 Cl
BRANCH   8  14
ATOM     14  O   UNL A   1      33.650  26.192  24.510  1.00  0.00    -0.454 OA
BRANCH  14  15
ATOM     15  C   UNL A   1      32.910  26.772  25.519  1.00  0.00     0.148 A 
ATOM     16  C   UNL A   1      30.754  25.356  25.495  1.00  0.00     0.071 C 
ATOM     17  C   UNL A   1      31.640  26.447  26.016  1.00  0.00     0.080 A 
ATOM     18  N   UNL A   1      31.078  27.127  27.058  1.00  0.00    -0.258 NA
ATOM     19  C   UNL A   1      31.777  28.130  27.625  1.00  0.00     0.111 A 
ATOM     20  C   UNL A   1      33.606  27.811  26.152  1.00  0.00     0.050 A 
ATOM     21  C   UNL A   1      33.038  28.504  27.215  1.00  0.00     0.024 A 
ENDBRANCH  14  15
ENDBRANCH   8  14
ENDBRANCH   4   7
ENDBRANCH   2   3
ENDBRANCH   1   2
BRANCH   1  22
ATOM     22  C   UNL A   1      39.369  20.127  25.834  1.00  0.00     0.118 C 
BRANCH  22  23
ATOM     23  N   UNL A   1      40.486  19.207  25.961  1.00  0.00    -0.352 N 
ATOM     24  C   UNL A   1      41.826  19.456  26.125  1.00  0.00     0.251 C 
ATOM     25  H   UNL A   1      40.245  18.253  25.923  1.00  0.00     0.163 HD
ATOM     26  O   UNL A   1      42.618  18.525  26.005  1.00  0.00    -0.269 OA
BRANCH  24  27
ATOM     27  C   UNL A   1      42.328  20.818  26.431  1.00  0.00     0.039 A 
ATOM     28  C   UNL A   1      42.624  21.670  25.362  1.00  0.00     0.014 A 
ATOM     29  C   UNL A   1      42.572  21.243  27.741  1.00  0.00     0.014 A 
ATOM     30  C   UNL A   1      43.127  22.950  25.606  1.00  0.00     0.010 A 
ATOM     31  C   UNL A   1      43.008  22.547  27.986  1.00  0.00     0.010 A 
ATOM     32  C   UNL A   1      43.306  23.408  26.922  1.00  0.00    -0.014 A 
BRANCH  32  33
ATOM     33  C   UNL A   1      43.807  24.785  27.179  1.00  0.00     0.031 A 
ATOM     34  C   UNL A   1      45.259  25.125  26.970  1.00  0.00     0.074 A 
ATOM     35  C   UNL A   1      42.951  25.727  27.623  1.00  0.00     0.049 A 
ATOM     36  N   UNL A   1      45.867  26.275  27.120  1.00  0.00    -0.248 NA
ATOM     37  C   UNL A   1      46.151  24.027  26.564  1.00  0.00     0.031 C 
ATOM     38  C   UNL A   1      41.535  25.506  27.925  1.00  0.00     0.029 A 
ATOM     39  N   UNL A   1      43.144  27.058  27.895  1.00  0.00    -0.354 N 
ATOM     40  C   UNL A   1      47.207  26.038  26.837  1.00  0.00     0.074 A 
ATOM     41  C   UNL A   1      47.334  24.624  26.558  1.00  0.00     0.031 C 
ATOM     42  C   UNL A   1      40.980  26.668  28.307  1.00  0.00     0.029 A 
ATOM     43  C   UNL A   1      42.004  27.709  28.299  1.00  0.00     0.049 A 
ATOM     44  H   UNL A   1      44.018  27.505  27.808  1.00  0.00     0.167 HD
ATOM     45  C   UNL A   1      48.235  26.921  26.789  1.00  0.00     0.037 A 
ATOM     46  C   UNL A   1      41.801  29.002  28.617  1.00  0.00     0.037 A 
ATOM     47  C   UNL A   1      48.100  28.332  27.041  1.00  0.00     0.049 A 
ATOM     48  C   UNL A   1      42.945  29.971  28.512  1.00  0.00     0.074 A 
ATOM     49  C   UNL A   1      49.067  29.320  26.965  1.00  0.00     0.029 A 
ATOM     50  N   UNL A   1      46.920  28.961  27.415  1.00  0.00    -0.354 N 
ATOM     51  N   UNL A   1      44.192  29.740  28.178  1.00  0.00    -0.248 NA
ATOM     52  C   UNL A   1      42.651  31.379  28.811  1.00  0.00     0.031 C 
ATOM     53  C   UNL A   1      48.480  30.540  27.324  1.00  0.00     0.029 A 
ATOM     54  C   UNL A   1      47.138  30.319  27.584  1.00  0.00     0.049 A 
ATOM     55  H   UNL A   1      46.056  28.507  27.544  1.00  0.00     0.167 HD
ATOM     56  C   UNL A   1      44.827  30.977  28.203  1.00  0.00     0.074 A 
ATOM     57  C   UNL A   1      43.821  31.953  28.568  1.00  0.00     0.031 C 
ATOM     58  C   UNL A   1      46.125  31.278  27.949  1.00  0.00     0.037 A 
BRANCH  45  59
ATOM     59  C   UNL A   1      49.598  26.385  26.439  1.00  0.00     0.058 A 
ATOM     60  C   UNL A   1      50.094  26.438  25.126  1.00  0.00     0.135 A 
ATOM     61  C   UNL A   1      50.430  25.839  27.430  1.00  0.00     0.135 A 
ATOM     62  F   UNL A   1      49.336  26.937  24.136  1.00  0.00    -0.206 F 
ATOM     63  C   UNL A   1      51.353  25.940  24.802  1.00  0.00     0.059 A 
ATOM     64  C   UNL A   1      51.703  25.359  27.132  1.00  0.00     0.059 A 
ATOM     65  F   UNL A   1      50.007  25.764  28.701  1.00  0.00    -0.206 F 
ATOM     66  C   UNL A   1      52.149  25.400  25.812  1.00  0.00     0.060 A 
BRANCH  66  67
ATOM     67  S   UNL A   1      53.780  24.758  25.376  1.00  0.00     0.124 S 
ATOM     68  O   UNL A   1      53.460  23.385  25.000  1.00  0.00    -0.237 OA
ATOM     69  O   UNL A   1      54.181  25.638  24.283  1.00  0.00    -0.237 OA
ATOM     70  O   UNL A   1      54.544  24.909  26.611  1.00  0.00    -0.744 OA
ENDBRANCH  66  67
ENDBRANCH  45  59
BRANCH  46  71
ATOM     71  C   UNL A   1      40.445  29.462  29.016  1.00  0.00     0.058 A 
ATOM     72  C   UNL A   1      40.140  29.726  30.360  1.00  0.00     0.135 A 
ATOM     73  C   UNL A   1      39.434  29.665  28.064  1.00  0.00     0.135 A 
ATOM     74  F   UNL A   1      41.071  29.543  31.308  1.00  0.00    -0.206 F 
ATOM     75  C   UNL A   1      38.876  30.158  30.749  1.00  0.00     0.059 A 
ATOM     76  C   UNL A   1      38.170  30.119  28.426  1.00  0.00     0.059 A 
ATOM     77  F   UNL A   1      39.682  29.445  26.764  1.00  0.00    -0.206 F 
ATOM     78  C   UNL A   1      37.898  30.354  29.773  1.00  0.00     0.060 A 
BRANCH  78  79
ATOM     79  S   UNL A   1      36.275  30.966  30.281  1.00  0.00     0.124 S 
ATOM     80  O   UNL A   1      36.038  30.194  31.495  1.00  0.00    -0.237 OA
ATOM     81  O   UNL A   1      36.528  32.390  30.468  1.00  0.00    -0.237 OA
ATOM     82  O   UNL A   1      35.423  30.633  29.143  1.00  0.00    -0.744 OA
ENDBRANCH  78  79
ENDBRANCH  46  71
BRANCH  58  83
ATOM     83  C   UNL A   1      46.517  32.727  28.030  1.00  0.00     0.058 A 
ATOM     84  C   UNL A   1      46.330  33.602  26.948  1.00  0.00     0.135 A 
ATOM     85  C   UNL A   1      47.078  33.247  29.207  1.00  0.00     0.135 A 
ATOM     86  F   UNL A   1      45.800  33.154  25.799  1.00  0.00    -0.206 F 
ATOM     87  C   UNL A   1      46.729  34.933  27.015  1.00  0.00     0.059 A 
ATOM     88  C   UNL A   1      47.459  34.582  29.305  1.00  0.00     0.059 A 
ATOM     89  F   UNL A   1      47.265  32.456  30.275  1.00  0.00    -0.206 F 
ATOM     90  C   UNL A   1      47.299  35.411  28.196  1.00  0.00     0.060 A 
BRANCH  90  91
ATOM     91  S   UNL A   1      47.821  37.139  28.273  1.00  0.00     0.124 S 
ATOM     92  O   UNL A   1      49.265  37.015  28.103  1.00  0.00    -0.237 OA
ATOM     93  O   UNL A   1      47.100  37.736  27.152  1.00  0.00    -0.237 OA
ATOM     94  O   UNL A   1      47.377  37.568  29.594  1.00  0.00    -0.744 OA
ENDBRANCH  90  91
ENDBRANCH  58  83
ENDBRANCH  32  33
ENDBRANCH  24  27
ENDBRANCH  22  23
ENDBRANCH   1  22
TORSDOF 15
ENDMDL
MODEL 3
REMARK VINA RESULT:     -11.7      1.283      1.928
REMARK SMILES Cc1ncccc1Oc1ccc(C(=O)NCCCNC(=O)c2ccc(-c3c4nc(c(-c5c(F)cc(S(=O)(=O)[O-])cc5F)c5ccc([nH]5)c(-c5c(F)cc(S(=O)(=O)[O-])cc5F)c5nc(c(-c6c(F)cc(S(=O)(=O)[O-])cc6F)c6ccc3[nH]6)C=C5)C=C4)cc2)cc1Cl
REMARK SMILES IDX 17 1 16 2 15 3 13 4 14 5 12 7 9 8 10 9 89 10 11 11 88 12
REMARK SMILES IDX 90 13 8 14 7 15 1 16 2 17 3 18 4 19 6 20 5 21 18 22 19 23
REMARK SMILES IDX 20 24 21 26 22 27 23 28 87 29 24 30 86 31 25 32 26 33 27 34
REMARK SMILES IDX 80 35 28 36 85 37 79 38 81 39 29 40 84 41 78 42 77 43 30 45
REMARK SMILES IDX 64 46 43 47 63 48 44 49 47 50 62 51 82 52 45 53 46 54 61 56
REMARK SMILES IDX 83 57 48 58 31 59 32 60 41 61 33 62 34 63 40 64 42 65 35 66
REMARK SMILES IDX 36 67 37 68 38 69 39 70 65 71 66 72 75 73 67 74 68 75 74 76
REMARK SMILES IDX 76 77 69 78 70 79 71 80 72 81 73 82 49 83 50 84 59 85 51 86
REMARK SMILES IDX 52 87 58 88 60 89 53 90 54 91 55 92 56 93 57 94
REMARK H PARENT 15 6 19 25 81 44 47 55
REMARK Flexibility Score: inf
ROOT
ATOM      1  C   UNL A   1      38.200  23.713  26.172  1.00  0.00     0.042 C 
ENDROOT
BRANCH   1   2
ATOM      2  C   UNL A   1      37.675  22.383  25.635  1.00  0.00     0.118 C 
BRANCH   2   3
ATOM      3  N   UNL A   1      36.467  21.972  26.332  1.00  0.00    -0.352 N 
ATOM      4  C   UNL A   1      35.145  22.276  26.136  1.00  0.00     0.251 C 
ATOM      5  O   UNL A   1      34.305  21.721  26.841  1.00  0.00    -0.269 OA
ATOM      6  H   UNL A   1      36.630  21.360  27.086  1.00  0.00     0.163 HD
BRANCH   4   7
ATOM      7  C   UNL A   1      34.688  23.182  25.052  1.00  0.00     0.041 A 
ATOM      8  C   UNL A   1      33.639  24.998  23.206  1.00  0.00     0.146 A 
ATOM      9  C   UNL A   1      34.167  25.463  24.412  1.00  0.00     0.049 A 
ATOM     10  C   UNL A   1      33.769  23.650  22.861  1.00  0.00     0.084 A 
ATOM     11  C   UNL A   1      34.675  24.554  25.338  1.00  0.00     0.018 A 
ATOM     12  C   UNL A   1      34.303  22.745  23.781  1.00  0.00     0.038 A 
ATOM     13  Cl  UNL A   1      33.258  23.053  21.325  1.00  0.00    -0.080 Cl
BRANCH   8  14
ATOM     14  O   UNL A   1      33.072  25.932  22.384  1.00  0.00    -0.454 OA
BRANCH  14  15
ATOM     15  C   UNL A   1      31.955  26.629  22.793  1.00  0.00     0.148 A 
ATOM     16  C   UNL A   1      30.358  24.731  23.500  1.00  0.00     0.071 C 
ATOM     17  C   UNL A   1      30.735  26.168  23.309  1.00  0.00     0.080 A 
ATOM     18  N   UNL A   1      29.745  27.026  23.694  1.00  0.00    -0.258 NA
ATOM     19  C   UNL A   1      29.961  28.352  23.581  1.00  0.00     0.111 A 
ATOM     20  C   UNL A   1      32.140  28.016  22.711  1.00  0.00     0.050 A 
ATOM     21  C   UNL A   1      31.135  28.893  23.104  1.00  0.00     0.024 A 
ENDBRANCH  14  15
ENDBRANCH   8  14
ENDBRANCH   4   7
ENDBRANCH   2   3
ENDBRANCH   1   2
BRANCH   1  22
ATOM     22  C   UNL A   1      39.512  23.590  26.941  1.00  0.00     0.118 C 
BRANCH  22  23
ATOM     23  N   UNL A   1      40.650  24.050  26.162  1.00  0.00    -0.352 N 
ATOM     24  C   UNL A   1      41.369  25.216  26.246  1.00  0.00     0.251 C 
ATOM     25  H   UNL A   1      40.953  23.427  25.462  1.00  0.00     0.163 HD
ATOM     26  O   UNL A   1      42.166  25.484  25.351  1.00  0.00    -0.269 OA
BRANCH  24  27
ATOM     27  C   UNL A   1      41.195  26.152  27.384  1.00  0.00     0.039 A 
ATOM     28  C   UNL A   1      40.176  25.891  28.306  1.00  0.00     0.014 A 
ATOM     29  C   UNL A   1      41.970  27.308  27.520  1.00  0.00     0.014 A 
ATOM     30  C   UNL A   1      39.959  26.764  29.374  1.00  0.00     0.010 A 
ATOM     31  C   UNL A   1      41.799  28.142  28.626  1.00  0.00     0.010 A 
ATOM     32  C   UNL A   1      40.782  27.888  29.556  1.00  0.00    -0.014 A 
BRANCH  32  33
ATOM     33  C   UNL A   1      40.572  28.795  30.716  1.00  0.00     0.031 A 
ATOM     34  C   UNL A   1      41.416  28.664  31.957  1.00  0.00     0.074 A 
ATOM     35  C   UNL A   1      39.601  29.729  30.657  1.00  0.00     0.049 A 
ATOM     36  N   UNL A   1      41.390  29.382  33.051  1.00  0.00    -0.248 NA
ATOM     37  C   UNL A   1      42.400  27.571  31.982  1.00  0.00     0.031 C 
ATOM     38  C   UNL A   1      38.675  29.914  29.537  1.00  0.00     0.029 A 
ATOM     39  N   UNL A   1      39.232  30.698  31.555  1.00  0.00    -0.354 N 
ATOM     40  C   UNL A   1      42.343  28.824  33.896  1.00  0.00     0.074 A 
ATOM     41  C   UNL A   1      42.892  27.675  33.208  1.00  0.00     0.031 C 
ATOM     42  C   UNL A   1      37.868  30.954  29.800  1.00  0.00     0.029 A 
ATOM     43  C   UNL A   1      38.203  31.496  31.114  1.00  0.00     0.049 A 
ATOM     44  H   UNL A   1      39.664  30.812  32.433  1.00  0.00     0.167 HD
ATOM     45  C   UNL A   1      42.742  29.243  35.122  1.00  0.00     0.037 A 
ATOM     46  C   UNL A   1      37.605  32.552  31.697  1.00  0.00     0.037 A 
ATOM     47  C   UNL A   1      42.211  30.403  35.792  1.00  0.00     0.049 A 
ATOM     48  C   UNL A   1      38.095  33.026  33.036  1.00  0.00     0.074 A 
ATOM     49  C   UNL A   1      42.586  30.943  37.010  1.00  0.00     0.029 A 
ATOM     50  N   UNL A   1      41.193  31.206  35.298  1.00  0.00    -0.354 N 
ATOM     51  N   UNL A   1      39.043  32.525  33.791  1.00  0.00    -0.248 NA
ATOM     52  C   UNL A   1      37.446  34.220  33.595  1.00  0.00     0.031 C 
ATOM     53  C   UNL A   1      41.773  32.054  37.267  1.00  0.00     0.029 A 
ATOM     54  C   UNL A   1      40.919  32.230  36.191  1.00  0.00     0.049 A 
ATOM     55  H   UNL A   1      40.732  31.067  34.440  1.00  0.00     0.167 HD
ATOM     56  C   UNL A   1      39.121  33.355  34.904  1.00  0.00     0.074 A 
ATOM     57  C   UNL A   1      38.136  34.400  34.713  1.00  0.00     0.031 C 
ATOM     58  C   UNL A   1      39.934  33.261  35.986  1.00  0.00     0.037 A 
BRANCH  45  59
ATOM     59  C   UNL A   1      43.815  28.446  35.815  1.00  0.00     0.058 A 
ATOM     60  C   UNL A   1      45.178  28.721  35.616  1.00  0.00     0.135 A 
ATOM     61  C   UNL A   1      43.480  27.418  36.710  1.00  0.00     0.135 A 
ATOM     62  F   UNL A   1      45.557  29.684  34.761  1.00  0.00    -0.206 F 
ATOM     63  C   UNL A   1      46.171  27.983  36.255  1.00  0.00     0.059 A 
ATOM     64  C   UNL A   1      44.456  26.684  37.379  1.00  0.00     0.059 A 
ATOM     65  F   UNL A   1      42.193  27.113  36.939  1.00  0.00    -0.206 F 
ATOM     66  C   UNL A   1      45.800  26.964  37.133  1.00  0.00     0.060 A 
BRANCH  66  67
ATOM     67  S   UNL A   1      47.098  26.016  37.954  1.00  0.00     0.124 S 
ATOM     68  O   UNL A   1      46.504  24.683  37.992  1.00  0.00    -0.237 OA
ATOM     69  O   UNL A   1      48.229  26.180  37.046  1.00  0.00    -0.237 OA
ATOM     70  O   UNL A   1      47.236  26.678  39.248  1.00  0.00    -0.744 OA
ENDBRANCH  66  67
ENDBRANCH  45  59
BRANCH  46  71
ATOM     71  C   UNL A   1      36.506  33.262  30.990  1.00  0.00     0.058 A 
ATOM     72  C   UNL A   1      35.178  33.152  31.429  1.00  0.00     0.135 A 
ATOM     73  C   UNL A   1      36.763  34.078  29.878  1.00  0.00     0.135 A 
ATOM     74  F   UNL A   1      34.882  32.382  32.486  1.00  0.00    -0.206 F 
ATOM     75  C   UNL A   1      34.139  33.812  30.779  1.00  0.00     0.059 A 
ATOM     76  C   UNL A   1      35.744  34.766  29.226  1.00  0.00     0.059 A 
ATOM     77  F   UNL A   1      38.019  34.231  29.432  1.00  0.00    -0.206 F 
ATOM     78  C   UNL A   1      34.434  34.619  29.679  1.00  0.00     0.060 A 
BRANCH  78  79
ATOM     79  S   UNL A   1      33.086  35.513  28.874  1.00  0.00     0.124 S 
ATOM     80  O   UNL A   1      32.464  34.457  28.084  1.00  0.00    -0.237 OA
ATOM     81  O   UNL A   1      32.315  35.999  30.013  1.00  0.00    -0.237 OA
ATOM     82  O   UNL A   1      33.781  36.547  28.112  1.00  0.00    -0.744 OA
ENDBRANCH  78  79
ENDBRANCH  46  71
BRANCH  58  83
ATOM     83  C   UNL A   1      39.805  34.336  37.029  1.00  0.00     0.058 A 
ATOM     84  C   UNL A   1      40.438  35.582  36.885  1.00  0.00     0.135 A 
ATOM     85  C   UNL A   1      39.035  34.120  38.182  1.00  0.00     0.135 A 
ATOM     86  F   UNL A   1      41.189  35.838  35.803  1.00  0.00    -0.206 F 
ATOM     87  C   UNL A   1      40.346  36.559  37.871  1.00  0.00     0.059 A 
ATOM     88  C   UNL A   1      38.907  35.094  39.168  1.00  0.00     0.059 A 
ATOM     89  F   UNL A   1      38.398  32.952  38.362  1.00  0.00    -0.206 F 
ATOM     90  C   UNL A   1      39.585  36.303  39.012  1.00  0.00     0.060 A 
BRANCH  90  91
ATOM     91  S   UNL A   1      39.477  37.574  40.290  1.00  0.00     0.124 S 
ATOM     92  O   UNL A   1      38.636  38.573  39.638  1.00  0.00    -0.237 OA
ATOM     93  O   UNL A   1      38.861  36.854  41.401  1.00  0.00    -0.237 OA
ATOM     94  O   UNL A   1      40.868  37.962  40.499  1.00  0.00    -0.744 OA
ENDBRANCH  90  91
ENDBRANCH  58  83
ENDBRANCH  32  33
ENDBRANCH  24  27
ENDBRANCH  22  23
ENDBRANCH   1  22
TORSDOF 15
ENDMDL
