MODEL 1
REMARK VINA RESULT:     -11.7      0.000      0.000
REMARK SMILES O=C(NCCCNC(=O)c1cc(Br)ccc1OCc1ccccc1F)c1ccc(-c2c3nc(c(-c4c(F)cc(S(=O)(=O)[O-])cc4F)c4ccc([nH]4)c(-c4c(F)cc(S(=O)(=O)[O-])cc4F)c4nc(c(-c5c(F)cc(S(=O)(=O)[O-])cc5F)c5ccc2[nH]5)C=C4)C=C3)cc1
REMARK SMILES IDX 5 1 4 2 3 3 1 4 2 5 26 7 27 8 91 9 28 10 90 11 29 12 30 13
REMARK SMILES IDX 31 14 84 15 32 16 89 17 83 18 85 19 33 20 88 21 82 22 81 23
REMARK SMILES IDX 34 25 68 26 47 27 67 28 48 29 51 30 66 31 86 32 49 33 50 34
REMARK SMILES IDX 65 36 87 37 52 38 35 39 36 40 45 41 37 42 38 43 44 44 46 45
REMARK SMILES IDX 39 46 40 47 41 48 42 49 43 50 69 51 70 52 79 53 71 54 72 55
REMARK SMILES IDX 78 56 80 57 73 58 74 59 75 60 76 61 77 62 53 63 54 64 63 65
REMARK SMILES IDX 55 66 56 67 62 68 64 69 57 70 58 71 59 72 60 73 61 74 6 75
REMARK SMILES IDX 7 76 8 77 9 79 10 80 11 81 16 82 12 83 15 84 13 85 14 86
REMARK SMILES IDX 17 87 18 88 19 89 20 90 24 91 21 92 23 93 25 94 22 95
REMARK H PARENT 3 6 85 24 51 35 7 78
REMARK Flexibility Score: inf
ROOT
ATOM      1  C   UNL A   1      33.850  28.161  25.460  1.00  0.00     0.042 C 
ENDROOT
BRANCH   1   2
ATOM      2  C   UNL A   1      33.661  28.286  26.972  1.00  0.00     0.118 C 
BRANCH   2   3
ATOM      3  N   UNL A   1      33.536  29.666  27.417  1.00  0.00    -0.352 N 
ATOM      4  O   UNL A   1      34.002  31.546  28.544  1.00  0.00    -0.269 OA
ATOM      5  C   UNL A   1      34.411  30.476  28.092  1.00  0.00     0.251 C 
ATOM      6  H   UNL A   1      32.675  30.090  27.196  1.00  0.00     0.163 HD
BRANCH   5   7
ATOM      7  C   UNL A   1      35.819  30.082  28.303  1.00  0.00     0.039 A 
ATOM      8  C   UNL A   1      36.773  30.195  27.287  1.00  0.00     0.014 A 
ATOM      9  C   UNL A   1      36.213  29.674  29.583  1.00  0.00     0.014 A 
ATOM     10  C   UNL A   1      38.091  29.804  27.520  1.00  0.00     0.010 A 
ATOM     11  C   UNL A   1      37.545  29.335  29.831  1.00  0.00     0.010 A 
ATOM     12  C   UNL A   1      38.490  29.377  28.795  1.00  0.00    -0.014 A 
BRANCH  12  13
ATOM     13  C   UNL A   1      39.909  29.037  29.052  1.00  0.00     0.031 A 
ATOM     14  C   UNL A   1      40.818  30.002  29.755  1.00  0.00     0.074 A 
ATOM     15  C   UNL A   1      40.379  27.841  28.649  1.00  0.00     0.049 A 
ATOM     16  N   UNL A   1      42.085  29.865  30.056  1.00  0.00    -0.248 NA
ATOM     17  C   UNL A   1      40.234  31.286  30.170  1.00  0.00     0.031 C 
ATOM     18  C   UNL A   1      39.598  26.823  27.945  1.00  0.00     0.029 A 
ATOM     19  N   UNL A   1      41.622  27.277  28.783  1.00  0.00    -0.354 N 
ATOM     20  C   UNL A   1      42.458  31.052  30.672  1.00  0.00     0.074 A 
ATOM     21  C   UNL A   1      41.284  31.900  30.700  1.00  0.00     0.031 C 
ATOM     22  C   UNL A   1      40.368  25.743  27.744  1.00  0.00     0.029 A 
ATOM     23  C   UNL A   1      41.704  26.005  28.272  1.00  0.00     0.049 A 
ATOM     24  H   UNL A   1      42.381  27.739  29.207  1.00  0.00     0.167 HD
ATOM     25  C   UNL A   1      43.667  31.401  31.172  1.00  0.00     0.037 A 
ATOM     26  C   UNL A   1      42.739  25.145  28.226  1.00  0.00     0.037 A 
ATOM     27  C   UNL A   1      44.825  30.549  31.179  1.00  0.00     0.049 A 
ATOM     28  C   UNL A   1      44.069  25.553  28.781  1.00  0.00     0.074 A 
ATOM     29  C   UNL A   1      46.074  30.796  31.724  1.00  0.00     0.029 A 
ATOM     30  N   UNL A   1      44.880  29.285  30.610  1.00  0.00    -0.354 N 
ATOM     31  N   UNL A   1      44.398  26.672  29.378  1.00  0.00    -0.248 NA
ATOM     32  C   UNL A   1      45.172  24.593  28.639  1.00  0.00     0.031 C 
ATOM     33  C   UNL A   1      46.890  29.686  31.469  1.00  0.00     0.029 A 
ATOM     34  C   UNL A   1      46.145  28.747  30.774  1.00  0.00     0.049 A 
ATOM     35  H   UNL A   1      44.129  28.837  30.158  1.00  0.00     0.167 HD
ATOM     36  C   UNL A   1      45.749  26.558  29.676  1.00  0.00     0.074 A 
ATOM     37  C   UNL A   1      46.175  25.255  29.204  1.00  0.00     0.031 C 
ATOM     38  C   UNL A   1      46.560  27.458  30.283  1.00  0.00     0.037 A 
BRANCH  25  39
ATOM     39  C   UNL A   1      43.792  32.778  31.746  1.00  0.00     0.058 A 
ATOM     40  C   UNL A   1      44.109  33.867  30.921  1.00  0.00     0.135 A 
ATOM     41  C   UNL A   1      43.592  33.019  33.113  1.00  0.00     0.135 A 
ATOM     42  F   UNL A   1      44.292  33.686  29.604  1.00  0.00    -0.206 F 
ATOM     43  C   UNL A   1      44.217  35.156  31.431  1.00  0.00     0.059 A 
ATOM     44  C   UNL A   1      43.688  34.302  33.644  1.00  0.00     0.059 A 
ATOM     45  F   UNL A   1      43.263  32.012  33.936  1.00  0.00    -0.206 F 
ATOM     46  C   UNL A   1      44.006  35.365  32.795  1.00  0.00     0.060 A 
BRANCH  46  47
ATOM     47  S   UNL A   1      44.052  37.047  33.449  1.00  0.00     0.124 S 
ATOM     48  O   UNL A   1      44.129  37.841  32.227  1.00  0.00    -0.237 OA
ATOM     49  O   UNL A   1      42.797  37.138  34.190  1.00  0.00    -0.237 OA
ATOM     50  O   UNL A   1      45.253  37.042  34.279  1.00  0.00    -0.744 OA
ENDBRANCH  46  47
ENDBRANCH  25  39
BRANCH  26  51
ATOM     51  C   UNL A   1      42.521  23.808  27.628  1.00  0.00     0.058 A 
ATOM     52  C   UNL A   1      42.332  22.679  28.436  1.00  0.00     0.135 A 
ATOM     53  C   UNL A   1      42.622  23.624  26.242  1.00  0.00     0.135 A 
ATOM     54  F   UNL A   1      42.237  22.813  29.767  1.00  0.00    -0.206 F 
ATOM     55  C   UNL A   1      42.291  21.399  27.893  1.00  0.00     0.059 A 
ATOM     56  C   UNL A   1      42.576  22.355  25.675  1.00  0.00     0.059 A 
ATOM     57  F   UNL A   1      42.799  24.681  25.436  1.00  0.00    -0.206 F 
ATOM     58  C   UNL A   1      42.439  21.247  26.513  1.00  0.00     0.060 A 
BRANCH  58  59
ATOM     59  S   UNL A   1      42.467  19.581  25.818  1.00  0.00     0.124 S 
ATOM     60  O   UNL A   1      43.453  19.731  24.752  1.00  0.00    -0.237 OA
ATOM     61  O   UNL A   1      42.882  18.770  26.957  1.00  0.00    -0.237 OA
ATOM     62  O   UNL A   1      41.089  19.382  25.380  1.00  0.00    -0.744 OA
ENDBRANCH  58  59
ENDBRANCH  26  51
BRANCH  38  63
ATOM     63  C   UNL A   1      47.999  27.080  30.453  1.00  0.00     0.058 A 
ATOM     64  C   UNL A   1      48.427  26.363  31.580  1.00  0.00     0.135 A 
ATOM     65  C   UNL A   1      48.965  27.490  29.522  1.00  0.00     0.135 A 
ATOM     66  F   UNL A   1      47.538  25.947  32.495  1.00  0.00    -0.206 F 
ATOM     67  C   UNL A   1      49.773  26.076  31.786  1.00  0.00     0.059 A 
ATOM     68  C   UNL A   1      50.314  27.208  29.704  1.00  0.00     0.059 A 
ATOM     69  F   UNL A   1      48.597  28.166  28.422  1.00  0.00    -0.206 F 
ATOM     70  C   UNL A   1      50.710  26.513  30.848  1.00  0.00     0.060 A 
BRANCH  70  71
ATOM     71  S   UNL A   1      52.455  26.133  31.117  1.00  0.00     0.124 S 
ATOM     72  O   UNL A   1      52.958  26.067  29.749  1.00  0.00    -0.237 OA
ATOM     73  O   UNL A   1      52.910  27.274  31.905  1.00  0.00    -0.237 OA
ATOM     74  O   UNL A   1      52.413  24.863  31.836  1.00  0.00    -0.744 OA
ENDBRANCH  70  71
ENDBRANCH  38  63
ENDBRANCH  12  13
ENDBRANCH   5   7
ENDBRANCH   2   3
ENDBRANCH   1   2
BRANCH   1  75
ATOM     75  C   UNL A   1      33.048  29.157  24.623  1.00  0.00     0.118 C 
BRANCH  75  76
ATOM     76  N   UNL A   1      33.159  28.876  23.201  1.00  0.00    -0.352 N 
ATOM     77  C   UNL A   1      33.179  27.674  22.539  1.00  0.00     0.255 C 
ATOM     78  H   UNL A   1      33.230  29.671  22.625  1.00  0.00     0.163 HD
ATOM     79  O   UNL A   1      33.979  27.625  21.613  1.00  0.00    -0.269 OA
BRANCH  77  80
ATOM     80  C   UNL A   1      32.227  26.568  22.876  1.00  0.00     0.082 A 
ATOM     81  C   UNL A   1      32.792  25.271  22.898  1.00  0.00     0.033 A 
ATOM     82  C   UNL A   1      30.878  26.700  23.258  1.00  0.00     0.132 A 
ATOM     83  C   UNL A   1      32.028  24.132  23.147  1.00  0.00     0.019 A 
ATOM     84  C   UNL A   1      30.122  25.522  23.479  1.00  0.00     0.048 A 
ATOM     85  Br  UNL A   1      32.841  22.427  23.129  1.00  0.00    -0.051 Br
ATOM     86  C   UNL A   1      30.678  24.249  23.413  1.00  0.00     0.019 A 
BRANCH  82  87
ATOM     87  O   UNL A   1      30.072  27.764  23.529  1.00  0.00    -0.488 OA
BRANCH  87  88
ATOM     88  C   UNL A   1      29.176  28.406  22.635  1.00  0.00     0.268 C 
BRANCH  88  89
ATOM     89  C   UNL A   1      29.031  29.914  22.670  1.00  0.00     0.025 A 
ATOM     90  C   UNL A   1      29.563  30.588  23.788  1.00  0.00     0.010 A 
ATOM     91  C   UNL A   1      28.345  30.672  21.722  1.00  0.00     0.129 A 
ATOM     92  C   UNL A   1      29.362  31.959  23.970  1.00  0.00     0.001 A 
ATOM     93  C   UNL A   1      28.132  32.040  21.904  1.00  0.00     0.039 A 
ATOM     94  F   UNL A   1      27.850  30.116  20.609  1.00  0.00    -0.207 F 
ATOM     95  C   UNL A   1      28.632  32.684  23.034  1.00  0.00     0.003 A 
ENDBRANCH  88  89
ENDBRANCH  87  88
ENDBRANCH  82  87
ENDBRANCH  77  80
ENDBRANCH  75  76
ENDBRANCH   1  75
TORSDOF 16
ENDMDL
MODEL 2
REMARK VINA RESULT:     -11.6      3.220      4.693
REMARK SMILES O=C(NCCCNC(=O)c1cc(Br)ccc1OCc1ccccc1F)c1ccc(-c2c3nc(c(-c4c(F)cc(S(=O)(=O)[O-])cc4F)c4ccc([nH]4)c(-c4c(F)cc(S(=O)(=O)[O-])cc4F)c4nc(c(-c5c(F)cc(S(=O)(=O)[O-])cc5F)c5ccc2[nH]5)C=C4)C=C3)cc1
REMARK SMILES IDX 5 1 4 2 3 3 1 4 2 5 26 7 27 8 91 9 28 10 90 11 29 12 30 13
REMARK SMILES IDX 31 14 84 15 32 16 89 17 83 18 85 19 33 20 88 21 82 22 81 23
REMARK SMILES IDX 34 25 68 26 47 27 67 28 48 29 51 30 66 31 86 32 49 33 50 34
REMARK SMILES IDX 65 36 87 37 52 38 35 39 36 40 45 41 37 42 38 43 44 44 46 45
REMARK SMILES IDX 39 46 40 47 41 48 42 49 43 50 69 51 70 52 79 53 71 54 72 55
REMARK SMILES IDX 78 56 80 57 73 58 74 59 75 60 76 61 77 62 53 63 54 64 63 65
REMARK SMILES IDX 55 66 56 67 62 68 64 69 57 70 58 71 59 72 60 73 61 74 6 75
REMARK SMILES IDX 7 76 8 77 9 79 10 80 11 81 16 82 12 83 15 84 13 85 14 86
REMARK SMILES IDX 17 87 18 88 19 89 20 90 24 91 21 92 23 93 25 94 22 95
REMARK H PARENT 3 6 85 24 51 35 7 78
REMARK Flexibility Score: inf
ROOT
ATOM      1  C   UNL A   1      33.891  28.747  26.897  1.00  0.00     0.042 C 
ENDROOT
BRANCH   1   2
ATOM      2  C   UNL A   1      35.219  29.365  27.339  1.00  0.00     0.118 C 
BRANCH   2   3
ATOM      3  N   UNL A   1      35.192  29.849  28.710  1.00  0.00    -0.352 N 
ATOM      4  O   UNL A   1      35.843  30.138  30.835  1.00  0.00    -0.269 OA
ATOM      5  C   UNL A   1      36.162  29.866  29.678  1.00  0.00     0.251 C 
ATOM      6  H   UNL A   1      34.328  30.230  28.992  1.00  0.00     0.163 HD
BRANCH   5   7
ATOM      7  C   UNL A   1      37.570  29.546  29.362  1.00  0.00     0.039 A 
ATOM      8  C   UNL A   1      38.433  29.011  30.324  1.00  0.00     0.014 A 
ATOM      9  C   UNL A   1      38.010  29.701  28.043  1.00  0.00     0.014 A 
ATOM     10  C   UNL A   1      39.759  28.731  29.992  1.00  0.00     0.010 A 
ATOM     11  C   UNL A   1      39.323  29.368  27.698  1.00  0.00     0.010 A 
ATOM     12  C   UNL A   1      40.213  28.900  28.676  1.00  0.00    -0.014 A 
BRANCH  12  13
ATOM     13  C   UNL A   1      41.602  28.527  28.318  1.00  0.00     0.031 A 
ATOM     14  C   UNL A   1      42.711  29.535  28.379  1.00  0.00     0.074 A 
ATOM     15  C   UNL A   1      41.862  27.261  27.938  1.00  0.00     0.049 A 
ATOM     16  N   UNL A   1      43.979  29.377  28.097  1.00  0.00    -0.248 NA
ATOM     17  C   UNL A   1      42.351  30.895  28.807  1.00  0.00     0.031 C 
ATOM     18  C   UNL A   1      40.868  26.193  27.828  1.00  0.00     0.029 A 
ATOM     19  N   UNL A   1      43.043  26.658  27.587  1.00  0.00    -0.354 N 
ATOM     20  C   UNL A   1      44.567  30.621  28.287  1.00  0.00     0.074 A 
ATOM     21  C   UNL A   1      43.515  31.525  28.707  1.00  0.00     0.031 C 
ATOM     22  C   UNL A   1      41.485  25.056  27.473  1.00  0.00     0.029 A 
ATOM     23  C   UNL A   1      42.911  25.322  27.298  1.00  0.00     0.049 A 
ATOM     24  H   UNL A   1      43.902  27.137  27.547  1.00  0.00     0.167 HD
ATOM     25  C   UNL A   1      45.864  30.975  28.131  1.00  0.00     0.037 A 
ATOM     26  C   UNL A   1      43.830  24.411  26.927  1.00  0.00     0.037 A 
ATOM     27  C   UNL A   1      46.918  30.074  27.750  1.00  0.00     0.049 A 
ATOM     28  C   UNL A   1      45.259  24.825  26.755  1.00  0.00     0.074 A 
ATOM     29  C   UNL A   1      48.273  30.332  27.632  1.00  0.00     0.029 A 
ATOM     30  N   UNL A   1      46.735  28.739  27.421  1.00  0.00    -0.354 N 
ATOM     31  N   UNL A   1      45.800  26.001  26.959  1.00  0.00    -0.248 NA
ATOM     32  C   UNL A   1      46.198  23.798  26.284  1.00  0.00     0.031 C 
ATOM     33  C   UNL A   1      48.908  29.156  27.213  1.00  0.00     0.029 A 
ATOM     34  C   UNL A   1      47.948  28.165  27.081  1.00  0.00     0.049 A 
ATOM     35  H   UNL A   1      45.870  28.269  27.430  1.00  0.00     0.167 HD
ATOM     36  C   UNL A   1      47.142  25.862  26.633  1.00  0.00     0.074 A 
ATOM     37  C   UNL A   1      47.335  24.483  26.229  1.00  0.00     0.031 C 
ATOM     38  C   UNL A   1      48.122  26.797  26.663  1.00  0.00     0.037 A 
BRANCH  25  39
ATOM     39  C   UNL A   1      46.208  32.414  28.367  1.00  0.00     0.058 A 
ATOM     40  C   UNL A   1      46.617  32.849  29.635  1.00  0.00     0.135 A 
ATOM     41  C   UNL A   1      46.135  33.359  27.334  1.00  0.00     0.135 A 
ATOM     42  F   UNL A   1      46.717  31.976  30.650  1.00  0.00    -0.206 F 
ATOM     43  C   UNL A   1      46.953  34.178  29.872  1.00  0.00     0.059 A 
ATOM     44  C   UNL A   1      46.474  34.692  27.546  1.00  0.00     0.059 A 
ATOM     45  F   UNL A   1      45.772  32.983  26.098  1.00  0.00    -0.206 F 
ATOM     46  C   UNL A   1      46.878  35.093  28.822  1.00  0.00     0.060 A 
BRANCH  46  47
ATOM     47  S   UNL A   1      47.401  36.799  29.098  1.00  0.00     0.124 S 
ATOM     48  O   UNL A   1      48.129  37.091  27.868  1.00  0.00    -0.237 OA
ATOM     49  O   UNL A   1      46.131  37.501  29.268  1.00  0.00    -0.237 OA
ATOM     50  O   UNL A   1      48.212  36.700  30.308  1.00  0.00    -0.744 OA
ENDBRANCH  46  47
ENDBRANCH  25  39
BRANCH  26  51
ATOM     51  C   UNL A   1      43.392  23.014  26.705  1.00  0.00     0.058 A 
ATOM     52  C   UNL A   1      43.086  22.175  27.786  1.00  0.00     0.135 A 
ATOM     53  C   UNL A   1      43.392  22.464  25.417  1.00  0.00     0.135 A 
ATOM     54  F   UNL A   1      43.082  22.662  29.035  1.00  0.00    -0.206 F 
ATOM     55  C   UNL A   1      42.834  20.820  27.600  1.00  0.00     0.059 A 
ATOM     56  C   UNL A   1      43.135  21.114  25.206  1.00  0.00     0.059 A 
ATOM     57  F   UNL A   1      43.675  23.237  24.358  1.00  0.00    -0.206 F 
ATOM     58  C   UNL A   1      42.885  20.295  26.307  1.00  0.00     0.060 A 
BRANCH  58  59
ATOM     59  S   UNL A   1      42.638  18.521  26.076  1.00  0.00     0.124 S 
ATOM     60  O   UNL A   1      41.206  18.465  25.799  1.00  0.00    -0.237 OA
ATOM     61  O   UNL A   1      43.515  18.224  24.949  1.00  0.00    -0.237 OA
ATOM     62  O   UNL A   1      43.056  17.960  27.357  1.00  0.00    -0.744 OA
ENDBRANCH  58  59
ENDBRANCH  26  51
BRANCH  38  63
ATOM     63  C   UNL A   1      49.490  26.373  26.227  1.00  0.00     0.058 A 
ATOM     64  C   UNL A   1      50.355  25.710  27.109  1.00  0.00     0.135 A 
ATOM     65  C   UNL A   1      49.964  26.686  24.944  1.00  0.00     0.135 A 
ATOM     66  F   UNL A   1      49.943  25.387  28.345  1.00  0.00    -0.206 F 
ATOM     67  C   UNL A   1      51.655  25.382  26.739  1.00  0.00     0.059 A 
ATOM     68  C   UNL A   1      51.257  26.362  24.550  1.00  0.00     0.059 A 
ATOM     69  F   UNL A   1      49.165  27.308  24.063  1.00  0.00    -0.206 F 
ATOM     70  C   UNL A   1      52.101  25.723  25.460  1.00  0.00     0.060 A 
BRANCH  70  71
ATOM     71  S   UNL A   1      53.787  25.290  24.981  1.00  0.00     0.124 S 
ATOM     72  O   UNL A   1      53.907  25.954  23.687  1.00  0.00    -0.237 OA
ATOM     73  O   UNL A   1      54.581  25.864  26.063  1.00  0.00    -0.237 OA
ATOM     74  O   UNL A   1      53.760  23.831  24.941  1.00  0.00    -0.744 OA
ENDBRANCH  70  71
ENDBRANCH  38  63
ENDBRANCH  12  13
ENDBRANCH   5   7
ENDBRANCH   2   3
ENDBRANCH   1   2
BRANCH   1  75
ATOM     75  C   UNL A   1      32.954  29.696  26.150  1.00  0.00     0.118 C 
BRANCH  75  76
ATOM     76  N   UNL A   1      33.229  29.709  24.723  1.00  0.00    -0.352 N 
ATOM     77  C   UNL A   1      32.852  28.823  23.744  1.00  0.00     0.255 C 
ATOM     78  H   UNL A   1      33.769  30.471  24.411  1.00  0.00     0.163 HD
ATOM     79  O   UNL A   1      33.724  28.592  22.915  1.00  0.00    -0.269 OA
BRANCH  77  80
ATOM     80  C   UNL A   1      31.459  28.279  23.662  1.00  0.00     0.082 A 
ATOM     81  C   UNL A   1      30.484  29.187  23.187  1.00  0.00     0.033 A 
ATOM     82  C   UNL A   1      31.052  26.955  23.916  1.00  0.00     0.132 A 
ATOM     83  C   UNL A   1      29.135  28.849  23.098  1.00  0.00     0.019 A 
ATOM     84  C   UNL A   1      29.670  26.650  23.843  1.00  0.00     0.048 A 
ATOM     85  Br  UNL A   1      27.881  30.122  22.484  1.00  0.00    -0.051 Br
ATOM     86  C   UNL A   1      28.714  27.583  23.452  1.00  0.00     0.019 A 
BRANCH  82  87
ATOM     87  O   UNL A   1      31.715  25.798  24.194  1.00  0.00    -0.488 OA
BRANCH  87  88
ATOM     88  C   UNL A   1      31.194  24.653  24.851  1.00  0.00     0.268 C 
BRANCH  88  89
ATOM     89  C   UNL A   1      31.710  23.276  24.483  1.00  0.00     0.025 A 
ATOM     90  C   UNL A   1      31.792  22.962  23.111  1.00  0.00     0.010 A 
ATOM     91  C   UNL A   1      32.033  22.274  25.397  1.00  0.00     0.129 A 
ATOM     92  C   UNL A   1      32.131  21.677  22.681  1.00  0.00     0.001 A 
ATOM     93  C   UNL A   1      32.361  20.985  24.973  1.00  0.00     0.039 A 
ATOM     94  F   UNL A   1      32.025  22.504  26.717  1.00  0.00    -0.207 F 
ATOM     95  C   UNL A   1      32.401  20.682  23.614  1.00  0.00     0.003 A 
ENDBRANCH  88  89
ENDBRANCH  87  88
ENDBRANCH  82  87
ENDBRANCH  77  80
ENDBRANCH  75  76
ENDBRANCH   1  75
TORSDOF 16
ENDMDL
MODEL 3
REMARK VINA RESULT:     -11.6      4.941     10.314
REMARK SMILES O=C(NCCCNC(=O)c1cc(Br)ccc1OCc1ccccc1F)c1ccc(-c2c3nc(c(-c4c(F)cc(S(=O)(=O)[O-])cc4F)c4ccc([nH]4)c(-c4c(F)cc(S(=O)(=O)[O-])cc4F)c4nc(c(-c5c(F)cc(S(=O)(=O)[O-])cc5F)c5ccc2[nH]5)C=C4)C=C3)cc1
REMARK SMILES IDX 5 1 4 2 3 3 1 4 2 5 26 7 27 8 91 9 28 10 90 11 29 12 30 13
REMARK SMILES IDX 31 14 84 15 32 16 89 17 83 18 85 19 33 20 88 21 82 22 81 23
REMARK SMILES IDX 34 25 68 26 47 27 67 28 48 29 51 30 66 31 86 32 49 33 50 34
REMARK SMILES IDX 65 36 87 37 52 38 35 39 36 40 45 41 37 42 38 43 44 44 46 45
REMARK SMILES IDX 39 46 40 47 41 48 42 49 43 50 69 51 70 52 79 53 71 54 72 55
REMARK SMILES IDX 78 56 80 57 73 58 74 59 75 60 76 61 77 62 53 63 54 64 63 65
REMARK SMILES IDX 55 66 56 67 62 68 64 69 57 70 58 71 59 72 60 73 61 74 6 75
REMARK SMILES IDX 7 76 8 77 9 79 10 80 11 81 16 82 12 83 15 84 13 85 14 86
REMARK SMILES IDX 17 87 18 88 19 89 20 90 24 91 21 92 23 93 25 94 22 95
REMARK H PARENT 3 6 85 24 51 35 7 78
REMARK Flexibility Score: inf
ROOT
ATOM      1  C   UNL A   1      36.984  23.212  25.482  1.00  0.00     0.042 C 
ENDROOT
BRANCH   1   2
ATOM      2  C   UNL A   1      37.880  24.088  26.358  1.00  0.00     0.118 C 
BRANCH   2   3
ATOM      3  N   UNL A   1      39.299  23.833  26.155  1.00  0.00    -0.352 N 
ATOM      4  O   UNL A   1      41.508  24.208  26.151  1.00  0.00    -0.269 OA
ATOM      5  C   UNL A   1      40.407  24.484  26.629  1.00  0.00     0.251 C 
ATOM      6  H   UNL A   1      39.496  23.058  25.579  1.00  0.00     0.163 HD
BRANCH   5   7
ATOM      7  C   UNL A   1      40.302  25.519  27.679  1.00  0.00     0.039 A 
ATOM      8  C   UNL A   1      39.339  25.443  28.690  1.00  0.00     0.014 A 
ATOM      9  C   UNL A   1      41.254  26.544  27.702  1.00  0.00     0.014 A 
ATOM     10  C   UNL A   1      39.264  26.443  29.658  1.00  0.00     0.010 A 
ATOM     11  C   UNL A   1      41.213  27.516  28.704  1.00  0.00     0.010 A 
ATOM     12  C   UNL A   1      40.205  27.484  29.678  1.00  0.00    -0.014 A 
BRANCH  12  13
ATOM     13  C   UNL A   1      40.162  28.500  30.757  1.00  0.00     0.031 A 
ATOM     14  C   UNL A   1      41.112  28.432  31.916  1.00  0.00     0.074 A 
ATOM     15  C   UNL A   1      39.259  29.496  30.684  1.00  0.00     0.049 A 
ATOM     16  N   UNL A   1      41.209  29.236  32.946  1.00  0.00    -0.248 NA
ATOM     17  C   UNL A   1      42.073  27.319  31.926  1.00  0.00     0.031 C 
ATOM     18  C   UNL A   1      38.275  29.663  29.613  1.00  0.00     0.029 A 
ATOM     19  N   UNL A   1      39.031  30.559  31.519  1.00  0.00    -0.354 N 
ATOM     20  C   UNL A   1      42.221  28.714  33.739  1.00  0.00     0.074 A 
ATOM     21  C   UNL A   1      42.708  27.523  33.074  1.00  0.00     0.031 C 
ATOM     22  C   UNL A   1      37.574  30.785  29.836  1.00  0.00     0.029 A 
ATOM     23  C   UNL A   1      38.035  31.396  31.080  1.00  0.00     0.049 A 
ATOM     24  H   UNL A   1      39.533  30.709  32.352  1.00  0.00     0.167 HD
ATOM     25  C   UNL A   1      42.704  29.188  34.912  1.00  0.00     0.037 A 
ATOM     26  C   UNL A   1      37.540  32.527  31.618  1.00  0.00     0.037 A 
ATOM     27  C   UNL A   1      42.250  30.389  35.558  1.00  0.00     0.049 A 
ATOM     28  C   UNL A   1      38.085  33.030  32.919  1.00  0.00     0.074 A 
ATOM     29  C   UNL A   1      42.728  30.979  36.716  1.00  0.00     0.029 A 
ATOM     30  N   UNL A   1      41.207  31.184  35.105  1.00  0.00    -0.354 N 
ATOM     31  N   UNL A   1      39.057  32.535  33.645  1.00  0.00    -0.248 NA
ATOM     32  C   UNL A   1      37.456  34.231  33.484  1.00  0.00     0.031 C 
ATOM     33  C   UNL A   1      41.961  32.124  36.972  1.00  0.00     0.029 A 
ATOM     34  C   UNL A   1      41.014  32.249  35.968  1.00  0.00     0.049 A 
ATOM     35  H   UNL A   1      40.684  31.015  34.288  1.00  0.00     0.167 HD
ATOM     36  C   UNL A   1      39.153  33.358  34.760  1.00  0.00     0.074 A 
ATOM     37  C   UNL A   1      38.147  34.390  34.607  1.00  0.00     0.031 C 
ATOM     38  C   UNL A   1      39.997  33.258  35.814  1.00  0.00     0.037 A 
BRANCH  25  39
ATOM     39  C   UNL A   1      43.782  28.386  35.575  1.00  0.00     0.058 A 
ATOM     40  C   UNL A   1      45.131  28.618  35.269  1.00  0.00     0.135 A 
ATOM     41  C   UNL A   1      43.477  27.393  36.516  1.00  0.00     0.135 A 
ATOM     42  F   UNL A   1      45.470  29.569  34.387  1.00  0.00    -0.206 F 
ATOM     43  C   UNL A   1      46.148  27.893  35.883  1.00  0.00     0.059 A 
ATOM     44  C   UNL A   1      44.478  26.661  37.148  1.00  0.00     0.059 A 
ATOM     45  F   UNL A   1      42.201  27.154  36.858  1.00  0.00    -0.206 F 
ATOM     46  C   UNL A   1      45.812  26.916  36.821  1.00  0.00     0.060 A 
BRANCH  46  47
ATOM     47  S   UNL A   1      47.128  26.037  37.690  1.00  0.00     0.124 S 
ATOM     48  O   UNL A   1      47.924  25.519  36.583  1.00  0.00    -0.237 OA
ATOM     49  O   UNL A   1      47.752  27.094  38.482  1.00  0.00    -0.237 OA
ATOM     50  O   UNL A   1      46.397  25.040  38.468  1.00  0.00    -0.744 OA
ENDBRANCH  46  47
ENDBRANCH  25  39
BRANCH  26  51
ATOM     51  C   UNL A   1      36.466  33.244  30.894  1.00  0.00     0.058 A 
ATOM     52  C   UNL A   1      36.768  34.124  29.845  1.00  0.00     0.135 A 
ATOM     53  C   UNL A   1      35.135  33.153  31.321  1.00  0.00     0.135 A 
ATOM     54  F   UNL A   1      38.031  34.245  29.411  1.00  0.00    -0.206 F 
ATOM     55  C   UNL A   1      35.788  34.925  29.268  1.00  0.00     0.059 A 
ATOM     56  C   UNL A   1      34.137  33.937  30.754  1.00  0.00     0.059 A 
ATOM     57  F   UNL A   1      34.807  32.318  32.319  1.00  0.00    -0.206 F 
ATOM     58  C   UNL A   1      34.479  34.840  29.748  1.00  0.00     0.060 A 
BRANCH  58  59
ATOM     59  S   UNL A   1      33.224  35.938  29.054  1.00  0.00     0.124 S 
ATOM     60  O   UNL A   1      32.670  36.540  30.263  1.00  0.00    -0.237 OA
ATOM     61  O   UNL A   1      34.014  36.826  28.207  1.00  0.00    -0.237 OA
ATOM     62  O   UNL A   1      32.340  35.022  28.342  1.00  0.00    -0.744 OA
ENDBRANCH  58  59
ENDBRANCH  26  51
BRANCH  38  63
ATOM     63  C   UNL A   1      39.860  34.277  36.903  1.00  0.00     0.058 A 
ATOM     64  C   UNL A   1      38.991  34.065  37.983  1.00  0.00     0.135 A 
ATOM     65  C   UNL A   1      40.548  35.497  36.836  1.00  0.00     0.135 A 
ATOM     66  F   UNL A   1      38.314  32.911  38.090  1.00  0.00    -0.206 F 
ATOM     67  C   UNL A   1      38.798  35.038  38.958  1.00  0.00     0.059 A 
ATOM     68  C   UNL A   1      40.376  36.482  37.802  1.00  0.00     0.059 A 
ATOM     69  F   UNL A   1      41.400  35.736  35.826  1.00  0.00    -0.206 F 
ATOM     70  C   UNL A   1      39.486  36.249  38.852  1.00  0.00     0.060 A 
BRANCH  70  71
ATOM     71  S   UNL A   1      39.237  37.507  40.122  1.00  0.00     0.124 S 
ATOM     72  O   UNL A   1      38.889  36.693  41.282  1.00  0.00    -0.237 OA
ATOM     73  O   UNL A   1      40.539  38.165  40.177  1.00  0.00    -0.237 OA
ATOM     74  O   UNL A   1      38.155  38.323  39.578  1.00  0.00    -0.744 OA
ENDBRANCH  70  71
ENDBRANCH  38  63
ENDBRANCH  12  13
ENDBRANCH   5   7
ENDBRANCH   2   3
ENDBRANCH   1   2
BRANCH   1  75
ATOM     75  C   UNL A   1      35.509  23.611  25.463  1.00  0.00     0.118 C 
BRANCH  75  76
ATOM     76  N   UNL A   1      35.201  24.474  24.335  1.00  0.00    -0.352 N 
ATOM     77  C   UNL A   1      33.992  24.765  23.752  1.00  0.00     0.255 C 
ATOM     78  H   UNL A   1      35.978  24.919  23.927  1.00  0.00     0.163 HD
ATOM     79  O   UNL A   1      34.027  24.825  22.530  1.00  0.00    -0.269 OA
BRANCH  77  80
ATOM     80  C   UNL A   1      32.775  25.078  24.567  1.00  0.00     0.082 A 
ATOM     81  C   UNL A   1      32.134  23.957  25.147  1.00  0.00     0.033 A 
ATOM     82  C   UNL A   1      32.273  26.354  24.884  1.00  0.00     0.132 A 
ATOM     83  C   UNL A   1      30.963  24.075  25.894  1.00  0.00     0.019 A 
ATOM     84  C   UNL A   1      31.066  26.440  25.622  1.00  0.00     0.048 A 
ATOM     85  Br  UNL A   1      30.142  22.534  26.613  1.00  0.00    -0.051 Br
ATOM     86  C   UNL A   1      30.405  25.319  26.114  1.00  0.00     0.019 A 
BRANCH  82  87
ATOM     87  O   UNL A   1      32.719  27.625  24.675  1.00  0.00    -0.488 OA
BRANCH  87  88
ATOM     88  C   UNL A   1      32.191  28.817  25.232  1.00  0.00     0.268 C 
BRANCH  88  89
ATOM     89  C   UNL A   1      33.049  29.661  26.153  1.00  0.00     0.025 A 
ATOM     90  C   UNL A   1      34.275  29.111  26.578  1.00  0.00     0.010 A 
ATOM     91  C   UNL A   1      32.681  30.903  26.671  1.00  0.00     0.129 A 
ATOM     92  C   UNL A   1      35.069  29.760  27.528  1.00  0.00     0.001 A 
ATOM     93  C   UNL A   1      33.466  31.549  27.628  1.00  0.00     0.039 A 
ATOM     94  F   UNL A   1      31.555  31.516  26.283  1.00  0.00    -0.207 F 
ATOM     95  C   UNL A   1      34.656  30.973  28.066  1.00  0.00     0.003 A 
ENDBRANCH  88  89
ENDBRANCH  87  88
ENDBRANCH  82  87
ENDBRANCH  77  80
ENDBRANCH  75  76
ENDBRANCH   1  75
TORSDOF 16
ENDMDL
