MODEL 1
REMARK VINA RESULT:     -12.3      0.000      0.000
REMARK SMILES O=C(NCCCNC(=O)C1(NC(=O)c2ccncc2Cl)CCCCC1)c1ccc(-c2c3nc(c(-c4c(F)cc(S(=O)(=O)[O-])cc4F)c4ccc([nH]4)c(-c4c(F)cc(S(=O)(=O)[O-])cc4F)c4nc(c(-c5c(F)cc(S(=O)(=O)[O-])cc5F)c5ccc2[nH]5)C=C4)C=C3)cc1
REMARK SMILES IDX 4 1 3 2 1 3 2 4 26 6 27 7 91 8 28 9 90 10 29 11 30 12 31 13
REMARK SMILES IDX 84 14 32 15 89 16 83 17 85 18 33 19 88 20 82 21 81 22 34 24
REMARK SMILES IDX 68 25 47 26 67 27 48 28 51 29 66 30 86 31 49 32 50 33 65 35
REMARK SMILES IDX 87 36 52 37 35 38 36 39 45 40 37 41 38 42 44 43 46 44 39 45
REMARK SMILES IDX 40 46 41 47 42 48 43 49 69 50 70 51 79 52 71 53 72 54 78 55
REMARK SMILES IDX 80 56 73 57 74 58 75 59 76 60 77 61 53 62 54 63 63 64 55 65
REMARK SMILES IDX 56 66 62 67 64 68 57 69 58 70 59 71 60 72 61 73 5 74 6 75
REMARK SMILES IDX 7 76 8 77 9 79 10 80 21 81 25 82 22 83 24 84 23 85 11 86
REMARK SMILES IDX 12 87 13 89 14 90 15 91 19 92 16 93 18 94 20 95 17 96
REMARK H PARENT 3 5 85 23 51 34 7 78 11 88
REMARK Flexibility Score: inf
ROOT
ATOM      1  C   UNL A   1      38.958  23.764  26.796  1.00  0.00     0.118 C 
ENDROOT
BRANCH   1   2
ATOM      2  N   UNL A   1      40.140  24.199  26.065  1.00  0.00    -0.352 N 
ATOM      3  O   UNL A   1      41.720  25.610  25.319  1.00  0.00    -0.269 OA
ATOM      4  C   UNL A   1      40.899  25.338  26.188  1.00  0.00     0.251 C 
ATOM      5  H   UNL A   1      40.445  23.575  25.367  1.00  0.00     0.163 HD
BRANCH   4   6
ATOM      6  C   UNL A   1      40.720  26.239  27.349  1.00  0.00     0.039 A 
ATOM      7  C   UNL A   1      41.454  27.420  27.453  1.00  0.00     0.014 A 
ATOM      8  C   UNL A   1      39.776  25.918  28.328  1.00  0.00     0.014 A 
ATOM      9  C   UNL A   1      41.373  28.187  28.608  1.00  0.00     0.010 A 
ATOM     10  C   UNL A   1      39.615  26.751  29.441  1.00  0.00     0.010 A 
ATOM     11  C   UNL A   1      40.437  27.875  29.608  1.00  0.00    -0.014 A 
BRANCH  11  12
ATOM     12  C   UNL A   1      40.302  28.782  30.776  1.00  0.00     0.031 A 
ATOM     13  C   UNL A   1      41.212  28.663  31.967  1.00  0.00     0.074 A 
ATOM     14  C   UNL A   1      39.365  29.752  30.733  1.00  0.00     0.049 A 
ATOM     15  N   UNL A   1      41.254  29.402  33.048  1.00  0.00    -0.248 NA
ATOM     16  C   UNL A   1      42.197  27.571  31.952  1.00  0.00     0.031 C 
ATOM     17  C   UNL A   1      38.418  29.956  29.632  1.00  0.00     0.029 A 
ATOM     18  N   UNL A   1      39.069  30.760  31.614  1.00  0.00    -0.354 N 
ATOM     19  C   UNL A   1      42.253  28.856  33.847  1.00  0.00     0.074 A 
ATOM     20  C   UNL A   1      42.772  27.704  33.141  1.00  0.00     0.031 C 
ATOM     21  C   UNL A   1      37.689  31.055  29.875  1.00  0.00     0.029 A 
ATOM     22  C   UNL A   1      38.064  31.591  31.177  1.00  0.00     0.049 A 
ATOM     23  H   UNL A   1      39.529  30.876  32.475  1.00  0.00     0.167 HD
ATOM     24  C   UNL A   1      42.699  29.285  35.054  1.00  0.00     0.037 A 
ATOM     25  C   UNL A   1      37.495  32.660  31.765  1.00  0.00     0.037 A 
ATOM     26  C   UNL A   1      42.179  30.439  35.743  1.00  0.00     0.049 A 
ATOM     27  C   UNL A   1      37.987  33.092  33.116  1.00  0.00     0.074 A 
ATOM     28  C   UNL A   1      42.584  30.975  36.954  1.00  0.00     0.029 A 
ATOM     29  N   UNL A   1      41.133  31.232  35.288  1.00  0.00    -0.354 N 
ATOM     30  N   UNL A   1      38.956  32.585  33.839  1.00  0.00    -0.248 NA
ATOM     31  C   UNL A   1      37.308  34.239  33.731  1.00  0.00     0.031 C 
ATOM     32  C   UNL A   1      41.750  32.057  37.255  1.00  0.00     0.029 A 
ATOM     33  C   UNL A   1      40.863  32.236  36.206  1.00  0.00     0.049 A 
ATOM     34  H   UNL A   1      40.654  31.102  34.438  1.00  0.00     0.167 HD
ATOM     35  C   UNL A   1      39.019  33.366  34.987  1.00  0.00     0.074 A 
ATOM     36  C   UNL A   1      38.001  34.388  34.851  1.00  0.00     0.031 C 
ATOM     37  C   UNL A   1      39.845  33.247  36.056  1.00  0.00     0.037 A 
BRANCH  24  38
ATOM     38  C   UNL A   1      43.789  28.486  35.721  1.00  0.00     0.058 A 
ATOM     39  C   UNL A   1      45.149  28.762  35.512  1.00  0.00     0.135 A 
ATOM     40  C   UNL A   1      43.466  27.446  36.610  1.00  0.00     0.135 A 
ATOM     41  F   UNL A   1      45.520  29.736  34.664  1.00  0.00    -0.206 F 
ATOM     42  C   UNL A   1      46.149  28.016  36.131  1.00  0.00     0.059 A 
ATOM     43  C   UNL A   1      44.449  26.707  37.263  1.00  0.00     0.059 A 
ATOM     44  F   UNL A   1      42.182  27.139  36.853  1.00  0.00    -0.206 F 
ATOM     45  C   UNL A   1      45.788  26.988  37.003  1.00  0.00     0.060 A 
BRANCH  45  46
ATOM     46  S   UNL A   1      47.098  26.019  37.783  1.00  0.00     0.124 S 
ATOM     47  O   UNL A   1      46.696  24.659  37.439  1.00  0.00    -0.237 OA
ATOM     48  O   UNL A   1      48.295  26.515  37.111  1.00  0.00    -0.237 OA
ATOM     49  O   UNL A   1      46.985  26.369  39.195  1.00  0.00    -0.744 OA
ENDBRANCH  45  46
ENDBRANCH  24  38
BRANCH  25  50
ATOM     50  C   UNL A   1      36.399  33.389  31.072  1.00  0.00     0.058 A 
ATOM     51  C   UNL A   1      35.079  33.320  31.536  1.00  0.00     0.135 A 
ATOM     52  C   UNL A   1      36.657  34.190  29.947  1.00  0.00     0.135 A 
ATOM     53  F   UNL A   1      34.781  32.566  32.605  1.00  0.00    -0.206 F 
ATOM     54  C   UNL A   1      34.048  34.007  30.902  1.00  0.00     0.059 A 
ATOM     55  C   UNL A   1      35.649  34.909  29.315  1.00  0.00     0.059 A 
ATOM     56  F   UNL A   1      37.908  34.304  29.475  1.00  0.00    -0.206 F 
ATOM     57  C   UNL A   1      34.344  34.802  29.794  1.00  0.00     0.060 A 
BRANCH  57  58
ATOM     58  S   UNL A   1      33.007  35.724  29.006  1.00  0.00     0.124 S 
ATOM     59  O   UNL A   1      32.393  34.696  28.174  1.00  0.00    -0.237 OA
ATOM     60  O   UNL A   1      32.225  36.169  30.156  1.00  0.00    -0.237 OA
ATOM     61  O   UNL A   1      33.709  36.783  28.287  1.00  0.00    -0.744 OA
ENDBRANCH  57  58
ENDBRANCH  25  50
BRANCH  37  62
ATOM     62  C   UNL A   1      39.705  34.274  37.146  1.00  0.00     0.058 A 
ATOM     63  C   UNL A   1      38.974  34.018  38.317  1.00  0.00     0.135 A 
ATOM     64  C   UNL A   1      40.335  35.525  37.027  1.00  0.00     0.135 A 
ATOM     65  F   UNL A   1      38.345  32.843  38.477  1.00  0.00    -0.206 F 
ATOM     66  C   UNL A   1      38.846  34.977  39.317  1.00  0.00     0.059 A 
ATOM     67  C   UNL A   1      40.246  36.486  38.029  1.00  0.00     0.059 A 
ATOM     68  F   UNL A   1      41.054  35.818  35.932  1.00  0.00    -0.206 F 
ATOM     69  C   UNL A   1      39.486  36.208  39.164  1.00  0.00     0.060 A 
BRANCH  69  70
ATOM     70  S   UNL A   1      39.328  37.435  40.477  1.00  0.00     0.124 S 
ATOM     71  O   UNL A   1      40.669  38.009  40.506  1.00  0.00    -0.237 OA
ATOM     72  O   UNL A   1      38.274  38.307  39.965  1.00  0.00    -0.237 OA
ATOM     73  O   UNL A   1      38.961  36.638  41.644  1.00  0.00    -0.744 OA
ENDBRANCH  69  70
ENDBRANCH  37  62
ENDBRANCH  11  12
ENDBRANCH   4   6
ENDBRANCH   1   2
BRANCH   1  74
ATOM     74  C   UNL A   1      37.984  22.977  25.928  1.00  0.00     0.042 C 
BRANCH  74  75
ATOM     75  C   UNL A   1      36.679  23.709  25.642  1.00  0.00     0.117 C 
BRANCH  75  76
ATOM     76  N   UNL A   1      36.275  23.634  24.251  1.00  0.00    -0.354 N 
ATOM     77  C   UNL A   1      35.101  23.268  23.681  1.00  0.00     0.245 C 
ATOM     78  H   UNL A   1      36.975  23.895  23.611  1.00  0.00     0.163 HD
ATOM     79  O   UNL A   1      34.833  23.873  22.633  1.00  0.00    -0.272 OA
BRANCH  77  80
ATOM     80  C   UNL A   1      34.075  22.263  24.303  1.00  0.00     0.119 C 
ATOM     81  C   UNL A   1      32.885  21.801  23.435  1.00  0.00     0.038 C 
ATOM     82  C   UNL A   1      34.984  21.056  24.678  1.00  0.00     0.038 C 
ATOM     83  C   UNL A   1      32.189  20.528  23.931  1.00  0.00     0.003 C 
ATOM     84  C   UNL A   1      34.247  19.800  25.131  1.00  0.00     0.003 C 
ATOM     85  C   UNL A   1      33.183  19.394  24.127  1.00  0.00     0.000 C 
BRANCH  80  86
ATOM     86  N   UNL A   1      33.510  22.839  25.572  1.00  0.00    -0.338 N 
ATOM     87  C   UNL A   1      32.694  23.926  25.809  1.00  0.00     0.253 C 
ATOM     88  H   UNL A   1      33.771  22.348  26.385  1.00  0.00     0.164 HD
ATOM     89  O   UNL A   1      32.059  23.992  26.859  1.00  0.00    -0.269 OA
BRANCH  87  90
ATOM     90  C   UNL A   1      32.718  25.113  24.940  1.00  0.00     0.061 A 
ATOM     91  C   UNL A   1      33.676  26.088  25.252  1.00  0.00     0.035 A 
ATOM     92  C   UNL A   1      31.846  25.323  23.878  1.00  0.00     0.072 A 
ATOM     93  C   UNL A   1      33.797  27.182  24.415  1.00  0.00     0.112 A 
ATOM     94  C   UNL A   1      32.055  26.454  23.101  1.00  0.00     0.132 A 
ATOM     95  Cl  UNL A   1      30.518  24.303  23.508  1.00  0.00    -0.082 Cl
ATOM     96  N   UNL A   1      33.018  27.378  23.332  1.00  0.00    -0.263 NA
ENDBRANCH  87  90
ENDBRANCH  80  86
ENDBRANCH  77  80
ENDBRANCH  75  76
ENDBRANCH  74  75
ENDBRANCH   1  74
TORSDOF 15
ENDMDL
MODEL 2
REMARK VINA RESULT:     -12.2      1.008      2.491
REMARK SMILES O=C(NCCCNC(=O)C1(NC(=O)c2ccncc2Cl)CCCCC1)c1ccc(-c2c3nc(c(-c4c(F)cc(S(=O)(=O)[O-])cc4F)c4ccc([nH]4)c(-c4c(F)cc(S(=O)(=O)[O-])cc4F)c4nc(c(-c5c(F)cc(S(=O)(=O)[O-])cc5F)c5ccc2[nH]5)C=C4)C=C3)cc1
REMARK SMILES IDX 4 1 3 2 1 3 2 4 26 6 27 7 91 8 28 9 90 10 29 11 30 12 31 13
REMARK SMILES IDX 84 14 32 15 89 16 83 17 85 18 33 19 88 20 82 21 81 22 34 24
REMARK SMILES IDX 68 25 47 26 67 27 48 28 51 29 66 30 86 31 49 32 50 33 65 35
REMARK SMILES IDX 87 36 52 37 35 38 36 39 45 40 37 41 38 42 44 43 46 44 39 45
REMARK SMILES IDX 40 46 41 47 42 48 43 49 69 50 70 51 79 52 71 53 72 54 78 55
REMARK SMILES IDX 80 56 73 57 74 58 75 59 76 60 77 61 53 62 54 63 63 64 55 65
REMARK SMILES IDX 56 66 62 67 64 68 57 69 58 70 59 71 60 72 61 73 5 74 6 75
REMARK SMILES IDX 7 76 8 77 9 79 10 80 21 81 25 82 22 83 24 84 23 85 11 86
REMARK SMILES IDX 12 87 13 89 14 90 15 91 19 92 16 93 18 94 20 95 17 96
REMARK H PARENT 3 5 85 23 51 34 7 78 11 88
REMARK Flexibility Score: inf
ROOT
ATOM      1  C   UNL A   1      38.364  24.084  26.492  1.00  0.00     0.118 C 
ENDROOT
BRANCH   1   2
ATOM      2  N   UNL A   1      39.771  24.054  26.114  1.00  0.00    -0.352 N 
ATOM      3  O   UNL A   1      41.873  24.805  25.871  1.00  0.00    -0.269 OA
ATOM      4  C   UNL A   1      40.813  24.871  26.483  1.00  0.00     0.251 C 
ATOM      5  H   UNL A   1      40.015  23.332  25.492  1.00  0.00     0.163 HD
BRANCH   4   6
ATOM      6  C   UNL A   1      40.657  25.832  27.598  1.00  0.00     0.039 A 
ATOM      7  C   UNL A   1      41.506  26.933  27.713  1.00  0.00     0.014 A 
ATOM      8  C   UNL A   1      39.621  25.653  28.519  1.00  0.00     0.014 A 
ATOM      9  C   UNL A   1      41.433  27.751  28.833  1.00  0.00     0.010 A 
ATOM     10  C   UNL A   1      39.479  26.544  29.589  1.00  0.00     0.010 A 
ATOM     11  C   UNL A   1      40.406  27.580  29.775  1.00  0.00    -0.014 A 
BRANCH  11  12
ATOM     12  C   UNL A   1      40.293  28.544  30.900  1.00  0.00     0.031 A 
ATOM     13  C   UNL A   1      41.208  28.465  32.091  1.00  0.00     0.074 A 
ATOM     14  C   UNL A   1      39.373  29.527  30.815  1.00  0.00     0.049 A 
ATOM     15  N   UNL A   1      41.269  29.253  33.135  1.00  0.00    -0.248 NA
ATOM     16  C   UNL A   1      42.173  27.356  32.122  1.00  0.00     0.031 C 
ATOM     17  C   UNL A   1      38.423  29.696  29.711  1.00  0.00     0.029 A 
ATOM     18  N   UNL A   1      39.099  30.580  31.649  1.00  0.00    -0.354 N 
ATOM     19  C   UNL A   1      42.263  28.728  33.954  1.00  0.00     0.074 A 
ATOM     20  C   UNL A   1      42.757  27.535  33.300  1.00  0.00     0.031 C 
ATOM     21  C   UNL A   1      37.715  30.817  29.906  1.00  0.00     0.029 A 
ATOM     22  C   UNL A   1      38.107  31.408  31.180  1.00  0.00     0.049 A 
ATOM     23  H   UNL A   1      39.567  30.729  32.502  1.00  0.00     0.167 HD
ATOM     24  C   UNL A   1      42.724  29.205  35.137  1.00  0.00     0.037 A 
ATOM     25  C   UNL A   1      37.560  32.513  31.718  1.00  0.00     0.037 A 
ATOM     26  C   UNL A   1      42.227  30.399  35.773  1.00  0.00     0.049 A 
ATOM     27  C   UNL A   1      38.067  32.999  33.045  1.00  0.00     0.074 A 
ATOM     28  C   UNL A   1      42.650  30.985  36.955  1.00  0.00     0.029 A 
ATOM     29  N   UNL A   1      41.194  31.189  35.287  1.00  0.00    -0.354 N 
ATOM     30  N   UNL A   1      39.032  32.510  33.787  1.00  0.00    -0.248 NA
ATOM     31  C   UNL A   1      37.412  34.186  33.609  1.00  0.00     0.031 C 
ATOM     32  C   UNL A   1      41.836  32.094  37.210  1.00  0.00     0.029 A 
ATOM     33  C   UNL A   1      40.946  32.239  36.158  1.00  0.00     0.049 A 
ATOM     34  H   UNL A   1      40.707  31.027  34.446  1.00  0.00     0.167 HD
ATOM     35  C   UNL A   1      39.115  33.343  34.896  1.00  0.00     0.074 A 
ATOM     36  C   UNL A   1      38.115  34.376  34.717  1.00  0.00     0.031 C 
ATOM     37  C   UNL A   1      39.946  33.260  35.965  1.00  0.00     0.037 A 
BRANCH  24  38
ATOM     38  C   UNL A   1      43.803  28.419  35.835  1.00  0.00     0.058 A 
ATOM     39  C   UNL A   1      45.167  28.691  35.640  1.00  0.00     0.135 A 
ATOM     40  C   UNL A   1      43.467  27.398  36.741  1.00  0.00     0.135 A 
ATOM     41  F   UNL A   1      45.550  29.646  34.778  1.00  0.00    -0.206 F 
ATOM     42  C   UNL A   1      46.157  27.957  36.288  1.00  0.00     0.059 A 
ATOM     43  C   UNL A   1      44.440  26.671  37.423  1.00  0.00     0.059 A 
ATOM     44  F   UNL A   1      42.180  27.096  36.971  1.00  0.00    -0.206 F 
ATOM     45  C   UNL A   1      45.783  26.947  37.175  1.00  0.00     0.060 A 
BRANCH  45  46
ATOM     46  S   UNL A   1      47.080  25.993  37.994  1.00  0.00     0.124 S 
ATOM     47  O   UNL A   1      47.084  24.768  37.201  1.00  0.00    -0.237 OA
ATOM     48  O   UNL A   1      48.249  26.854  37.833  1.00  0.00    -0.237 OA
ATOM     49  O   UNL A   1      46.591  25.854  39.361  1.00  0.00    -0.744 OA
ENDBRANCH  45  46
ENDBRANCH  24  38
BRANCH  25  50
ATOM     50  C   UNL A   1      36.473  33.228  30.998  1.00  0.00     0.058 A 
ATOM     51  C   UNL A   1      35.151  33.187  31.459  1.00  0.00     0.135 A 
ATOM     52  C   UNL A   1      36.742  33.988  29.847  1.00  0.00     0.135 A 
ATOM     53  F   UNL A   1      34.843  32.472  32.552  1.00  0.00    -0.206 F 
ATOM     54  C   UNL A   1      34.128  33.861  30.799  1.00  0.00     0.059 A 
ATOM     55  C   UNL A   1      35.743  34.694  29.188  1.00  0.00     0.059 A 
ATOM     56  F   UNL A   1      37.995  34.075  29.375  1.00  0.00    -0.206 F 
ATOM     57  C   UNL A   1      34.435  34.615  29.665  1.00  0.00     0.060 A 
BRANCH  57  58
ATOM     58  S   UNL A   1      33.109  35.522  28.842  1.00  0.00     0.124 S 
ATOM     59  O   UNL A   1      32.497  34.475  28.032  1.00  0.00    -0.237 OA
ATOM     60  O   UNL A   1      32.319  36.000  29.973  1.00  0.00    -0.237 OA
ATOM     61  O   UNL A   1      33.821  36.559  28.101  1.00  0.00    -0.744 OA
ENDBRANCH  57  58
ENDBRANCH  25  50
BRANCH  37  62
ATOM     62  C   UNL A   1      39.829  34.340  37.007  1.00  0.00     0.058 A 
ATOM     63  C   UNL A   1      40.442  35.592  36.848  1.00  0.00     0.135 A 
ATOM     64  C   UNL A   1      39.070  34.124  38.169  1.00  0.00     0.135 A 
ATOM     65  F   UNL A   1      41.187  35.847  35.761  1.00  0.00    -0.206 F 
ATOM     66  C   UNL A   1      40.334  36.582  37.819  1.00  0.00     0.059 A 
ATOM     67  C   UNL A   1      38.921  35.111  39.138  1.00  0.00     0.059 A 
ATOM     68  F   UNL A   1      38.454  32.947  38.366  1.00  0.00    -0.206 F 
ATOM     69  C   UNL A   1      39.570  36.332  38.961  1.00  0.00     0.060 A 
BRANCH  69  70
ATOM     70  S   UNL A   1      39.420  37.631  40.204  1.00  0.00     0.124 S 
ATOM     71  O   UNL A   1      40.782  38.153  40.250  1.00  0.00    -0.237 OA
ATOM     72  O   UNL A   1      38.420  38.516  39.612  1.00  0.00    -0.237 OA
ATOM     73  O   UNL A   1      38.983  36.912  41.397  1.00  0.00    -0.744 OA
ENDBRANCH  69  70
ENDBRANCH  37  62
ENDBRANCH  11  12
ENDBRANCH   4   6
ENDBRANCH   1   2
BRANCH   1  74
ATOM     74  C   UNL A   1      37.444  23.595  25.380  1.00  0.00     0.042 C 
BRANCH  74  75
ATOM     75  C   UNL A   1      36.014  24.111  25.489  1.00  0.00     0.117 C 
BRANCH  75  76
ATOM     76  N   UNL A   1      35.243  23.916  24.276  1.00  0.00    -0.354 N 
ATOM     77  C   UNL A   1      34.337  24.712  23.656  1.00  0.00     0.245 C 
ATOM     78  H   UNL A   1      35.406  23.056  23.825  1.00  0.00     0.163 HD
ATOM     79  O   UNL A   1      34.333  24.613  22.421  1.00  0.00    -0.272 OA
BRANCH  77  80
ATOM     80  C   UNL A   1      33.432  25.770  24.372  1.00  0.00     0.119 C 
ATOM     81  C   UNL A   1      33.375  25.758  25.915  1.00  0.00     0.038 C 
ATOM     82  C   UNL A   1      34.025  27.113  23.855  1.00  0.00     0.038 C 
ATOM     83  C   UNL A   1      32.837  27.049  26.544  1.00  0.00     0.003 C 
ATOM     84  C   UNL A   1      33.487  28.368  24.533  1.00  0.00     0.003 C 
ATOM     85  C   UNL A   1      33.598  28.267  26.044  1.00  0.00     0.000 C 
BRANCH  80  86
ATOM     86  N   UNL A   1      32.022  25.652  23.868  1.00  0.00    -0.338 N 
ATOM     87  C   UNL A   1      31.077  24.654  23.993  1.00  0.00     0.253 C 
ATOM     88  H   UNL A   1      31.714  26.432  23.352  1.00  0.00     0.164 HD
ATOM     89  O   UNL A   1      29.888  24.918  23.830  1.00  0.00    -0.269 OA
BRANCH  87  90
ATOM     90  C   UNL A   1      31.461  23.238  24.107  1.00  0.00     0.061 A 
ATOM     91  C   UNL A   1      31.723  22.569  22.903  1.00  0.00     0.035 A 
ATOM     92  C   UNL A   1      31.544  22.545  25.309  1.00  0.00     0.072 A 
ATOM     93  C   UNL A   1      32.170  21.262  22.961  1.00  0.00     0.112 A 
ATOM     94  C   UNL A   1      32.004  21.236  25.256  1.00  0.00     0.132 A 
ATOM     95  Cl  UNL A   1      31.073  23.191  26.826  1.00  0.00    -0.082 Cl
ATOM     96  N   UNL A   1      32.335  20.584  24.115  1.00  0.00    -0.263 NA
ENDBRANCH  87  90
ENDBRANCH  80  86
ENDBRANCH  77  80
ENDBRANCH  75  76
ENDBRANCH  74  75
ENDBRANCH   1  74
TORSDOF 15
ENDMDL
MODEL 3
REMARK VINA RESULT:     -12.1      6.856     12.115
REMARK SMILES O=C(NCCCNC(=O)C1(NC(=O)c2ccncc2Cl)CCCCC1)c1ccc(-c2c3nc(c(-c4c(F)cc(S(=O)(=O)[O-])cc4F)c4ccc([nH]4)c(-c4c(F)cc(S(=O)(=O)[O-])cc4F)c4nc(c(-c5c(F)cc(S(=O)(=O)[O-])cc5F)c5ccc2[nH]5)C=C4)C=C3)cc1
REMARK SMILES IDX 4 1 3 2 1 3 2 4 26 6 27 7 91 8 28 9 90 10 29 11 30 12 31 13
REMARK SMILES IDX 84 14 32 15 89 16 83 17 85 18 33 19 88 20 82 21 81 22 34 24
REMARK SMILES IDX 68 25 47 26 67 27 48 28 51 29 66 30 86 31 49 32 50 33 65 35
REMARK SMILES IDX 87 36 52 37 35 38 36 39 45 40 37 41 38 42 44 43 46 44 39 45
REMARK SMILES IDX 40 46 41 47 42 48 43 49 69 50 70 51 79 52 71 53 72 54 78 55
REMARK SMILES IDX 80 56 73 57 74 58 75 59 76 60 77 61 53 62 54 63 63 64 55 65
REMARK SMILES IDX 56 66 62 67 64 68 57 69 58 70 59 71 60 72 61 73 5 74 6 75
REMARK SMILES IDX 7 76 8 77 9 79 10 80 21 81 25 82 22 83 24 84 23 85 11 86
REMARK SMILES IDX 12 87 13 89 14 90 15 91 19 92 16 93 18 94 20 95 17 96
REMARK H PARENT 3 5 85 23 51 34 7 78 11 88
REMARK Flexibility Score: inf
ROOT
ATOM      1  C   UNL A   1      35.162  29.331  27.614  1.00  0.00     0.118 C 
ENDROOT
BRANCH   1   2
ATOM      2  N   UNL A   1      35.245  29.981  28.915  1.00  0.00    -0.352 N 
ATOM      3  O   UNL A   1      36.081  30.482  30.938  1.00  0.00    -0.269 OA
ATOM      4  C   UNL A   1      36.293  30.084  29.798  1.00  0.00     0.251 C 
ATOM      5  H   UNL A   1      34.414  30.417  29.211  1.00  0.00     0.163 HD
BRANCH   4   6
ATOM      6  C   UNL A   1      37.663  29.705  29.386  1.00  0.00     0.039 A 
ATOM      7  C   UNL A   1      38.591  29.256  30.326  1.00  0.00     0.014 A 
ATOM      8  C   UNL A   1      38.014  29.761  28.035  1.00  0.00     0.014 A 
ATOM      9  C   UNL A   1      39.907  29.030  29.948  1.00  0.00     0.010 A 
ATOM     10  C   UNL A   1      39.314  29.427  27.638  1.00  0.00     0.010 A 
ATOM     11  C   UNL A   1      40.283  29.092  28.596  1.00  0.00    -0.014 A 
BRANCH  11  12
ATOM     12  C   UNL A   1      41.674  28.735  28.217  1.00  0.00     0.031 A 
ATOM     13  C   UNL A   1      42.778  29.755  28.247  1.00  0.00     0.074 A 
ATOM     14  C   UNL A   1      41.941  27.455  27.881  1.00  0.00     0.049 A 
ATOM     15  N   UNL A   1      44.052  29.597  27.988  1.00  0.00    -0.248 NA
ATOM     16  C   UNL A   1      42.408  31.133  28.605  1.00  0.00     0.031 C 
ATOM     17  C   UNL A   1      40.946  26.381  27.807  1.00  0.00     0.029 A 
ATOM     18  N   UNL A   1      43.121  26.833  27.567  1.00  0.00    -0.354 N 
ATOM     19  C   UNL A   1      44.632  30.852  28.133  1.00  0.00     0.074 A 
ATOM     20  C   UNL A   1      43.565  31.769  28.473  1.00  0.00     0.031 C 
ATOM     21  C   UNL A   1      41.565  25.225  27.528  1.00  0.00     0.029 A 
ATOM     22  C   UNL A   1      42.985  25.485  27.333  1.00  0.00     0.049 A 
ATOM     23  H   UNL A   1      43.983  27.306  27.512  1.00  0.00     0.167 HD
ATOM     24  C   UNL A   1      45.936  31.202  28.003  1.00  0.00     0.037 A 
ATOM     25  C   UNL A   1      43.899  24.560  26.986  1.00  0.00     0.037 A 
ATOM     26  C   UNL A   1      46.990  30.276  27.671  1.00  0.00     0.049 A 
ATOM     27  C   UNL A   1      45.329  24.982  26.817  1.00  0.00     0.074 A 
ATOM     28  C   UNL A   1      48.347  30.524  27.548  1.00  0.00     0.029 A 
ATOM     29  N   UNL A   1      46.807  28.926  27.402  1.00  0.00    -0.354 N 
ATOM     30  N   UNL A   1      45.864  26.166  26.993  1.00  0.00    -0.248 NA
ATOM     31  C   UNL A   1      46.280  23.944  26.399  1.00  0.00     0.031 C 
ATOM     32  C   UNL A   1      48.975  29.338  27.151  1.00  0.00     0.029 A 
ATOM     33  C   UNL A   1      48.021  28.334  27.086  1.00  0.00     0.049 A 
ATOM     34  H   UNL A   1      45.942  28.457  27.431  1.00  0.00     0.167 HD
ATOM     35  C   UNL A   1      47.220  26.012  26.730  1.00  0.00     0.074 A 
ATOM     36  C   UNL A   1      47.424  24.616  26.400  1.00  0.00     0.031 C 
ATOM     37  C   UNL A   1      48.207  26.942  26.760  1.00  0.00     0.037 A 
BRANCH  24  38
ATOM     38  C   UNL A   1      46.293  32.653  28.193  1.00  0.00     0.058 A 
ATOM     39  C   UNL A   1      46.196  33.586  27.148  1.00  0.00     0.135 A 
ATOM     40  C   UNL A   1      46.709  33.126  29.449  1.00  0.00     0.135 A 
ATOM     41  F   UNL A   1      45.816  33.192  25.922  1.00  0.00    -0.206 F 
ATOM     42  C   UNL A   1      46.531  34.925  27.332  1.00  0.00     0.059 A 
ATOM     43  C   UNL A   1      47.021  34.465  29.664  1.00  0.00     0.059 A 
ATOM     44  F   UNL A   1      46.817  32.281  30.487  1.00  0.00    -0.206 F 
ATOM     45  C   UNL A   1      46.946  35.355  28.593  1.00  0.00     0.060 A 
BRANCH  45  46
ATOM     46  S   UNL A   1      47.394  37.091  28.810  1.00  0.00     0.124 S 
ATOM     47  O   UNL A   1      46.602  37.727  27.762  1.00  0.00    -0.237 OA
ATOM     48  O   UNL A   1      46.961  37.355  30.179  1.00  0.00    -0.237 OA
ATOM     49  O   UNL A   1      48.837  37.100  28.598  1.00  0.00    -0.744 OA
ENDBRANCH  45  46
ENDBRANCH  24  38
BRANCH  25  50
ATOM     50  C   UNL A   1      43.480  23.148  26.779  1.00  0.00     0.058 A 
ATOM     51  C   UNL A   1      43.413  22.595  25.493  1.00  0.00     0.135 A 
ATOM     52  C   UNL A   1      43.165  22.317  27.866  1.00  0.00     0.135 A 
ATOM     53  F   UNL A   1      43.701  23.350  24.422  1.00  0.00    -0.206 F 
ATOM     54  C   UNL A   1      43.032  21.273  25.289  1.00  0.00     0.059 A 
ATOM     55  C   UNL A   1      42.812  20.984  27.690  1.00  0.00     0.059 A 
ATOM     56  F   UNL A   1      43.233  22.793  29.120  1.00  0.00    -0.206 F 
ATOM     57  C   UNL A   1      42.737  20.473  26.394  1.00  0.00     0.060 A 
BRANCH  57  58
ATOM     58  S   UNL A   1      42.289  18.746  26.121  1.00  0.00     0.124 S 
ATOM     59  O   UNL A   1      42.536  18.168  27.436  1.00  0.00    -0.237 OA
ATOM     60  O   UNL A   1      40.889  18.854  25.721  1.00  0.00    -0.237 OA
ATOM     61  O   UNL A   1      43.204  18.326  25.063  1.00  0.00    -0.744 OA
ENDBRANCH  57  58
ENDBRANCH  25  50
BRANCH  37  62
ATOM     62  C   UNL A   1      49.603  26.467  26.463  1.00  0.00     0.058 A 
ATOM     63  C   UNL A   1      50.151  26.536  25.173  1.00  0.00     0.135 A 
ATOM     64  C   UNL A   1      50.413  25.959  27.493  1.00  0.00     0.135 A 
ATOM     65  F   UNL A   1      49.417  27.005  24.151  1.00  0.00    -0.206 F 
ATOM     66  C   UNL A   1      51.442  26.090  24.907  1.00  0.00     0.059 A 
ATOM     67  C   UNL A   1      51.717  25.537  27.255  1.00  0.00     0.059 A 
ATOM     68  F   UNL A   1      49.941  25.880  28.747  1.00  0.00    -0.206 F 
ATOM     69  C   UNL A   1      52.217  25.592  25.955  1.00  0.00     0.060 A 
BRANCH  69  70
ATOM     70  S   UNL A   1      53.897  25.034  25.601  1.00  0.00     0.124 S 
ATOM     71  O   UNL A   1      54.217  25.805  24.405  1.00  0.00    -0.237 OA
ATOM     72  O   UNL A   1      54.614  25.415  26.814  1.00  0.00    -0.237 OA
ATOM     73  O   UNL A   1      53.741  23.597  25.398  1.00  0.00    -0.744 OA
ENDBRANCH  69  70
ENDBRANCH  37  62
ENDBRANCH  11  12
ENDBRANCH   4   6
ENDBRANCH   1   2
BRANCH   1  74
ATOM     74  C   UNL A   1      33.758  28.839  27.288  1.00  0.00     0.042 C 
BRANCH  74  75
ATOM     75  C   UNL A   1      33.719  27.711  26.264  1.00  0.00     0.117 C 
BRANCH  75  76
ATOM     76  N   UNL A   1      32.497  26.932  26.318  1.00  0.00    -0.354 N 
ATOM     77  C   UNL A   1      32.291  25.592  26.311  1.00  0.00     0.245 C 
ATOM     78  H   UNL A   1      31.674  27.470  26.369  1.00  0.00     0.163 HD
ATOM     79  O   UNL A   1      31.312  25.223  26.974  1.00  0.00    -0.272 OA
BRANCH  77  80
ATOM     80  C   UNL A   1      33.239  24.541  25.641  1.00  0.00     0.119 C 
ATOM     81  C   UNL A   1      34.460  25.058  24.850  1.00  0.00     0.038 C 
ATOM     82  C   UNL A   1      33.696  23.687  26.861  1.00  0.00     0.038 C 
ATOM     83  C   UNL A   1      35.550  24.009  24.601  1.00  0.00     0.003 C 
ATOM     84  C   UNL A   1      34.806  22.682  26.575  1.00  0.00     0.003 C 
ATOM     85  C   UNL A   1      35.991  23.350  25.899  1.00  0.00     0.000 C 
BRANCH  80  86
ATOM     86  N   UNL A   1      32.445  23.659  24.720  1.00  0.00    -0.338 N 
ATOM     87  C   UNL A   1      31.753  23.926  23.556  1.00  0.00     0.253 C 
ATOM     88  H   UNL A   1      32.413  22.715  24.998  1.00  0.00     0.164 HD
ATOM     89  O   UNL A   1      31.498  23.010  22.777  1.00  0.00    -0.269 OA
BRANCH  87  90
ATOM     90  C   UNL A   1      31.125  25.234  23.314  1.00  0.00     0.061 A 
ATOM     91  C   UNL A   1      29.862  25.429  23.889  1.00  0.00     0.035 A 
ATOM     92  C   UNL A   1      31.691  26.242  22.542  1.00  0.00     0.072 A 
ATOM     93  C   UNL A   1      29.267  26.671  23.763  1.00  0.00     0.112 A 
ATOM     94  C   UNL A   1      31.011  27.451  22.481  1.00  0.00     0.132 A 
ATOM     95  Cl  UNL A   1      33.137  26.064  21.637  1.00  0.00    -0.082 Cl
ATOM     96  N   UNL A   1      29.824  27.696  23.086  1.00  0.00    -0.263 NA
ENDBRANCH  87  90
ENDBRANCH  80  86
ENDBRANCH  77  80
ENDBRANCH  75  76
ENDBRANCH  74  75
ENDBRANCH   1  74
TORSDOF 15
ENDMDL
