MODEL 1
REMARK VINA RESULT:     -11.7      0.000      0.000
REMARK SMILES COc1ccc(-c2noc(CC(=O)NCCCNC(=O)c3ccc(-c4c5nc(c(-c6c(F)cc(S(=O)(=O)[O-])cc6F)c6ccc([nH]6)c(-c6c(F)cc(S(=O)(=O)[O-])cc6F)c6nc(c(-c7c(F)cc(S(=O)(=O)[O-])cc7F)c7ccc4[nH]7)C=C6)C=C5)cc3)c2-c2ccc(OC)cc2)cc1
REMARK SMILES IDX 16 1 15 2 14 3 12 4 13 5 11 7 10 8 7 9 8 10 87 11 9 12 6 13
REMARK SMILES IDX 3 14 4 15 97 16 5 17 96 18 2 19 1 20 88 21 89 22 95 23 90 24
REMARK SMILES IDX 94 25 91 26 92 27 93 28 17 29 18 30 19 31 20 33 21 34 22 35
REMARK SMILES IDX 86 36 23 37 85 38 24 39 25 40 26 41 79 42 27 43 84 44 78 45
REMARK SMILES IDX 80 46 28 47 83 48 77 49 76 50 29 52 63 53 42 54 62 55 43 56
REMARK SMILES IDX 46 57 61 58 81 59 44 60 45 61 60 63 82 64 47 65 30 66 31 67
REMARK SMILES IDX 40 68 32 69 33 70 39 71 41 72 34 73 35 74 36 75 37 76 38 77
REMARK SMILES IDX 64 78 65 79 74 80 66 81 67 82 73 83 75 84 68 85 69 86 70 87
REMARK SMILES IDX 71 88 72 89 48 90 49 91 58 92 50 93 51 94 57 95 59 96 52 97
REMARK SMILES IDX 53 98 54 99 55 100 56 101
REMARK H PARENT 14 6 18 32 80 51 46 62
REMARK Flexibility Score: inf
ROOT
ATOM      1  C   UNL A   1      32.583  27.511  27.197  1.00  0.00     0.042 C 
ENDROOT
BRANCH   1   2
ATOM      2  C   UNL A   1      32.019  26.616  26.097  1.00  0.00     0.117 C 
BRANCH   2   3
ATOM      3  N   UNL A   1      31.508  27.386  24.979  1.00  0.00    -0.356 N 
ATOM      4  C   UNL A   1      31.901  27.373  23.672  1.00  0.00     0.227 C 
ATOM      5  O   UNL A   1      31.329  28.134  22.888  1.00  0.00    -0.275 OA
ATOM      6  H   UNL A   1      30.773  28.005  25.194  1.00  0.00     0.163 HD
BRANCH   4   7
ATOM      7  C   UNL A   1      32.931  26.373  23.183  1.00  0.00     0.179 C 
BRANCH   7   8
ATOM      8  C   UNL A   1      32.472  24.971  23.327  1.00  0.00     0.154 A 
ATOM      9  C   UNL A   1      32.052  22.804  23.561  1.00  0.00     0.122 A 
ATOM     10  N   UNL A   1      30.947  23.352  23.035  1.00  0.00    -0.079 NA
ATOM     11  C   UNL A   1      33.047  23.804  23.790  1.00  0.00     0.053 A 
ATOM     12  O   UNL A   1      31.205  24.702  22.909  1.00  0.00    -0.360 OA
BRANCH   9  13
ATOM     13  C   UNL A   1      32.177  21.369  23.789  1.00  0.00     0.005 A 
ATOM     14  C   UNL A   1      32.718  18.645  24.200  1.00  0.00     0.118 A 
ATOM     15  C   UNL A   1      32.442  19.126  22.918  1.00  0.00     0.047 A 
ATOM     16  C   UNL A   1      32.704  19.521  25.282  1.00  0.00     0.047 A 
ATOM     17  C   UNL A   1      32.159  20.478  22.710  1.00  0.00     0.014 A 
ATOM     18  C   UNL A   1      32.430  20.877  25.077  1.00  0.00     0.014 A 
BRANCH  14  19
ATOM     19  O   UNL A   1      33.043  17.320  24.263  1.00  0.00    -0.497 OA
ATOM     20  C   UNL A   1      33.823  16.807  23.190  1.00  0.00     0.278 C 
ENDBRANCH  14  19
ENDBRANCH   9  13
BRANCH  11  21
ATOM     21  C   UNL A   1      34.417  23.677  24.251  1.00  0.00    -0.012 A 
ATOM     22  C   UNL A   1      34.776  24.163  25.513  1.00  0.00     0.013 A 
ATOM     23  C   UNL A   1      35.396  23.087  23.446  1.00  0.00     0.013 A 
ATOM     24  C   UNL A   1      36.091  24.044  25.966  1.00  0.00     0.047 A 
ATOM     25  C   UNL A   1      36.715  22.971  23.904  1.00  0.00     0.047 A 
ATOM     26  C   UNL A   1      37.066  23.447  25.168  1.00  0.00     0.118 A 
BRANCH  26  27
ATOM     27  O   UNL A   1      38.309  23.394  25.734  1.00  0.00    -0.497 OA
ATOM     28  C   UNL A   1      38.802  22.110  26.087  1.00  0.00     0.278 C 
ENDBRANCH  26  27
ENDBRANCH  11  21
ENDBRANCH   7   8
ENDBRANCH   4   7
ENDBRANCH   2   3
ENDBRANCH   1   2
BRANCH   1  29
ATOM     29  C   UNL A   1      33.767  28.362  26.747  1.00  0.00     0.118 C 
BRANCH  29  30
ATOM     30  N   UNL A   1      33.643  29.749  27.177  1.00  0.00    -0.352 N 
ATOM     31  C   UNL A   1      34.500  30.525  27.914  1.00  0.00     0.251 C 
ATOM     32  H   UNL A   1      32.815  30.199  26.895  1.00  0.00     0.163 HD
ATOM     33  O   UNL A   1      34.105  31.614  28.340  1.00  0.00    -0.269 OA
BRANCH  31  34
ATOM     34  C   UNL A   1      35.873  30.069  28.213  1.00  0.00     0.039 A 
ATOM     35  C   UNL A   1      36.829  30.090  27.192  1.00  0.00     0.014 A 
ATOM     36  C   UNL A   1      36.218  29.586  29.478  1.00  0.00     0.014 A 
ATOM     37  C   UNL A   1      38.139  29.685  27.456  1.00  0.00     0.010 A 
ATOM     38  C   UNL A   1      37.541  29.257  29.762  1.00  0.00     0.010 A 
ATOM     39  C   UNL A   1      38.515  29.298  28.753  1.00  0.00    -0.014 A 
BRANCH  39  40
ATOM     40  C   UNL A   1      39.919  28.933  29.074  1.00  0.00     0.031 A 
ATOM     41  C   UNL A   1      40.832  29.932  29.732  1.00  0.00     0.074 A 
ATOM     42  C   UNL A   1      40.387  27.721  28.717  1.00  0.00     0.049 A 
ATOM     43  N   UNL A   1      42.100  29.820  30.034  1.00  0.00    -0.248 NA
ATOM     44  C   UNL A   1      40.248  31.238  30.073  1.00  0.00     0.031 C 
ATOM     45  C   UNL A   1      39.609  26.679  28.043  1.00  0.00     0.029 A 
ATOM     46  N   UNL A   1      41.631  27.160  28.867  1.00  0.00    -0.354 N 
ATOM     47  C   UNL A   1      42.467  31.039  30.591  1.00  0.00     0.074 A 
ATOM     48  C   UNL A   1      41.303  31.897  30.529  1.00  0.00     0.031 C 
ATOM     49  C   UNL A   1      40.383  25.595  27.867  1.00  0.00     0.029 A 
ATOM     50  C   UNL A   1      41.722  25.879  28.376  1.00  0.00     0.049 A 
ATOM     51  H   UNL A   1      42.386  27.630  29.288  1.00  0.00     0.167 HD
ATOM     52  C   UNL A   1      43.657  31.404  31.128  1.00  0.00     0.037 A 
ATOM     53  C   UNL A   1      42.767  25.030  28.334  1.00  0.00     0.037 A 
ATOM     54  C   UNL A   1      44.808  30.541  31.193  1.00  0.00     0.049 A 
ATOM     55  C   UNL A   1      44.089  25.469  28.904  1.00  0.00     0.074 A 
ATOM     56  C   UNL A   1      46.049  30.799  31.751  1.00  0.00     0.029 A 
ATOM     57  N   UNL A   1      44.864  29.253  30.676  1.00  0.00    -0.354 N 
ATOM     58  N   UNL A   1      44.404  26.607  29.476  1.00  0.00    -0.248 NA
ATOM     59  C   UNL A   1      45.196  24.508  28.824  1.00  0.00     0.031 C 
ATOM     60  C   UNL A   1      46.867  29.686  31.531  1.00  0.00     0.029 A 
ATOM     61  C   UNL A   1      46.123  28.713  30.883  1.00  0.00     0.049 A 
ATOM     62  H   UNL A   1      44.119  28.792  30.229  1.00  0.00     0.167 HD
ATOM     63  C   UNL A   1      45.737  26.486  29.854  1.00  0.00     0.074 A 
ATOM     64  C   UNL A   1      46.165  25.162  29.451  1.00  0.00     0.031 C 
ATOM     65  C   UNL A   1      46.533  27.389  30.481  1.00  0.00     0.037 A 
BRANCH  52  66
ATOM     66  C   UNL A   1      43.768  32.801  31.680  1.00  0.00     0.058 A 
ATOM     67  C   UNL A   1      43.418  33.098  33.009  1.00  0.00     0.135 A 
ATOM     68  C   UNL A   1      44.233  33.856  30.878  1.00  0.00     0.135 A 
ATOM     69  F   UNL A   1      42.957  32.131  33.819  1.00  0.00    -0.206 F 
ATOM     70  C   UNL A   1      43.478  34.395  33.506  1.00  0.00     0.059 A 
ATOM     71  C   UNL A   1      44.331  35.157  31.365  1.00  0.00     0.059 A 
ATOM     72  F   UNL A   1      44.586  33.632  29.603  1.00  0.00    -0.206 F 
ATOM     73  C   UNL A   1      43.930  35.420  32.674  1.00  0.00     0.060 A 
BRANCH  73  74
ATOM     74  S   UNL A   1      43.976  37.103  33.326  1.00  0.00     0.124 S 
ATOM     75  O   UNL A   1      45.315  37.153  33.905  1.00  0.00    -0.237 OA
ATOM     76  O   UNL A   1      43.775  37.910  32.126  1.00  0.00    -0.237 OA
ATOM     77  O   UNL A   1      42.878  37.127  34.286  1.00  0.00    -0.744 OA
ENDBRANCH  73  74
ENDBRANCH  52  66
BRANCH  53  78
ATOM     78  C   UNL A   1      42.593  23.665  27.768  1.00  0.00     0.058 A 
ATOM     79  C   UNL A   1      42.695  23.448  26.386  1.00  0.00     0.135 A 
ATOM     80  C   UNL A   1      42.344  22.554  28.588  1.00  0.00     0.135 A 
ATOM     81  F   UNL A   1      42.927  24.478  25.560  1.00  0.00    -0.206 F 
ATOM     82  C   UNL A   1      42.543  22.179  25.833  1.00  0.00     0.059 A 
ATOM     83  C   UNL A   1      42.215  21.272  28.061  1.00  0.00     0.059 A 
ATOM     84  F   UNL A   1      42.253  22.706  29.918  1.00  0.00    -0.206 F 
ATOM     85  C   UNL A   1      42.308  21.096  26.681  1.00  0.00     0.060 A 
BRANCH  85  86
ATOM     86  S   UNL A   1      42.161  19.448  25.955  1.00  0.00     0.124 S 
ATOM     87  O   UNL A   1      43.011  19.570  24.776  1.00  0.00    -0.237 OA
ATOM     88  O   UNL A   1      42.672  18.597  27.025  1.00  0.00    -0.237 OA
ATOM     89  O   UNL A   1      40.732  19.321  25.692  1.00  0.00    -0.744 OA
ENDBRANCH  85  86
ENDBRANCH  53  78
BRANCH  65  90
ATOM     90  C   UNL A   1      47.939  26.963  30.807  1.00  0.00     0.058 A 
ATOM     91  C   UNL A   1      49.003  27.176  29.917  1.00  0.00     0.135 A 
ATOM     92  C   UNL A   1      48.231  26.375  32.049  1.00  0.00     0.135 A 
ATOM     93  F   UNL A   1      48.778  27.726  28.713  1.00  0.00    -0.206 F 
ATOM     94  C   UNL A   1      50.304  26.801  30.237  1.00  0.00     0.059 A 
ATOM     95  C   UNL A   1      49.529  26.020  32.401  1.00  0.00     0.059 A 
ATOM     96  F   UNL A   1      47.253  26.157  32.942  1.00  0.00    -0.206 F 
ATOM     97  C   UNL A   1      50.558  26.226  31.484  1.00  0.00     0.060 A 
BRANCH  97  98
ATOM     98  S   UNL A   1      52.257  25.777  31.901  1.00  0.00     0.124 S 
ATOM     99  O   UNL A   1      52.958  26.098  30.662  1.00  0.00    -0.237 OA
ATOM    100  O   UNL A   1      52.541  26.651  33.034  1.00  0.00    -0.237 OA
ATOM    101  O   UNL A   1      52.165  24.356  32.220  1.00  0.00    -0.744 OA
ENDBRANCH  97  98
ENDBRANCH  65  90
ENDBRANCH  39  40
ENDBRANCH  31  34
ENDBRANCH  29  30
ENDBRANCH   1  29
TORSDOF 18
ENDMDL
MODEL 2
REMARK VINA RESULT:     -11.6      4.665     10.505
REMARK SMILES COc1ccc(-c2noc(CC(=O)NCCCNC(=O)c3ccc(-c4c5nc(c(-c6c(F)cc(S(=O)(=O)[O-])cc6F)c6ccc([nH]6)c(-c6c(F)cc(S(=O)(=O)[O-])cc6F)c6nc(c(-c7c(F)cc(S(=O)(=O)[O-])cc7F)c7ccc4[nH]7)C=C6)C=C5)cc3)c2-c2ccc(OC)cc2)cc1
REMARK SMILES IDX 16 1 15 2 14 3 12 4 13 5 11 7 10 8 7 9 8 10 87 11 9 12 6 13
REMARK SMILES IDX 3 14 4 15 97 16 5 17 96 18 2 19 1 20 88 21 89 22 95 23 90 24
REMARK SMILES IDX 94 25 91 26 92 27 93 28 17 29 18 30 19 31 20 33 21 34 22 35
REMARK SMILES IDX 86 36 23 37 85 38 24 39 25 40 26 41 79 42 27 43 84 44 78 45
REMARK SMILES IDX 80 46 28 47 83 48 77 49 76 50 29 52 63 53 42 54 62 55 43 56
REMARK SMILES IDX 46 57 61 58 81 59 44 60 45 61 60 63 82 64 47 65 30 66 31 67
REMARK SMILES IDX 40 68 32 69 33 70 39 71 41 72 34 73 35 74 36 75 37 76 38 77
REMARK SMILES IDX 64 78 65 79 74 80 66 81 67 82 73 83 75 84 68 85 69 86 70 87
REMARK SMILES IDX 71 88 72 89 48 90 49 91 58 92 50 93 51 94 57 95 59 96 52 97
REMARK SMILES IDX 53 98 54 99 55 100 56 101
REMARK H PARENT 14 6 18 32 80 51 46 62
REMARK Flexibility Score: inf
ROOT
ATOM      1  C   UNL A   1      37.118  23.968  25.566  1.00  0.00     0.042 C 
ENDROOT
BRANCH   1   2
ATOM      2  C   UNL A   1      35.896  23.162  25.999  1.00  0.00     0.117 C 
BRANCH   2   3
ATOM      3  N   UNL A   1      35.122  22.698  24.864  1.00  0.00    -0.356 N 
ATOM      4  C   UNL A   1      33.790  22.849  24.608  1.00  0.00     0.227 C 
ATOM      5  O   UNL A   1      33.338  22.350  23.575  1.00  0.00    -0.275 OA
ATOM      6  H   UNL A   1      35.631  22.204  24.180  1.00  0.00     0.163 HD
BRANCH   4   7
ATOM      7  C   UNL A   1      32.920  23.699  25.514  1.00  0.00     0.179 C 
BRANCH   7   8
ATOM      8  C   UNL A   1      31.957  24.532  24.756  1.00  0.00     0.154 A 
ATOM      9  C   UNL A   1      30.561  25.976  23.810  1.00  0.00     0.122 A 
ATOM     10  N   UNL A   1      30.236  24.764  23.335  1.00  0.00    -0.079 NA
ATOM     11  C   UNL A   1      31.673  25.883  24.702  1.00  0.00     0.053 A 
ATOM     12  O   UNL A   1      31.119  23.873  23.911  1.00  0.00    -0.360 OA
BRANCH   9  13
ATOM     13  C   UNL A   1      29.806  27.175  23.466  1.00  0.00     0.005 A 
ATOM     14  C   UNL A   1      28.297  29.351  22.533  1.00  0.00     0.118 A 
ATOM     15  C   UNL A   1      29.683  29.329  22.367  1.00  0.00     0.047 A 
ATOM     16  C   UNL A   1      27.664  28.295  23.184  1.00  0.00     0.047 A 
ATOM     17  C   UNL A   1      30.440  28.254  22.841  1.00  0.00     0.014 A 
ATOM     18  C   UNL A   1      28.417  27.213  23.652  1.00  0.00     0.014 A 
BRANCH  14  19
ATOM     19  O   UNL A   1      27.664  30.422  21.970  1.00  0.00    -0.497 OA
ATOM     20  C   UNL A   1      28.413  31.628  21.886  1.00  0.00     0.278 C 
ENDBRANCH  14  19
ENDBRANCH   9  13
BRANCH  11  21
ATOM     21  C   UNL A   1      32.309  26.900  25.519  1.00  0.00    -0.012 A 
ATOM     22  C   UNL A   1      33.582  27.372  25.179  1.00  0.00     0.013 A 
ATOM     23  C   UNL A   1      31.677  27.411  26.656  1.00  0.00     0.013 A 
ATOM     24  C   UNL A   1      34.202  28.351  25.956  1.00  0.00     0.047 A 
ATOM     25  C   UNL A   1      32.302  28.393  27.435  1.00  0.00     0.047 A 
ATOM     26  C   UNL A   1      33.567  28.868  27.085  1.00  0.00     0.118 A 
BRANCH  26  27
ATOM     27  O   UNL A   1      34.284  29.821  27.753  1.00  0.00    -0.497 OA
ATOM     28  C   UNL A   1      33.826  31.161  27.652  1.00  0.00     0.278 C 
ENDBRANCH  26  27
ENDBRANCH  11  21
ENDBRANCH   7   8
ENDBRANCH   4   7
ENDBRANCH   2   3
ENDBRANCH   1   2
BRANCH   1  29
ATOM     29  C   UNL A   1      38.175  24.110  26.656  1.00  0.00     0.118 C 
BRANCH  29  30
ATOM     30  N   UNL A   1      39.529  24.101  26.115  1.00  0.00    -0.352 N 
ATOM     31  C   UNL A   1      40.597  24.913  26.394  1.00  0.00     0.251 C 
ATOM     32  H   UNL A   1      39.703  23.402  25.444  1.00  0.00     0.163 HD
ATOM     33  O   UNL A   1      41.594  24.861  25.668  1.00  0.00    -0.269 OA
BRANCH  31  34
ATOM     34  C   UNL A   1      40.562  25.852  27.534  1.00  0.00     0.039 A 
ATOM     35  C   UNL A   1      41.474  26.911  27.566  1.00  0.00     0.014 A 
ATOM     36  C   UNL A   1      39.664  25.676  28.591  1.00  0.00     0.014 A 
ATOM     37  C   UNL A   1      41.445  27.824  28.622  1.00  0.00     0.010 A 
ATOM     38  C   UNL A   1      39.584  26.629  29.603  1.00  0.00     0.010 A 
ATOM     39  C   UNL A   1      40.477  27.711  29.632  1.00  0.00    -0.014 A 
BRANCH  39  40
ATOM     40  C   UNL A   1      40.381  28.711  30.726  1.00  0.00     0.031 A 
ATOM     41  C   UNL A   1      41.275  28.606  31.932  1.00  0.00     0.074 A 
ATOM     42  C   UNL A   1      39.447  29.681  30.658  1.00  0.00     0.049 A 
ATOM     43  N   UNL A   1      41.298  29.345  33.012  1.00  0.00    -0.248 NA
ATOM     44  C   UNL A   1      42.255  27.510  31.936  1.00  0.00     0.031 C 
ATOM     45  C   UNL A   1      38.499  29.866  29.557  1.00  0.00     0.029 A 
ATOM     46  N   UNL A   1      39.136  30.690  31.535  1.00  0.00    -0.354 N 
ATOM     47  C   UNL A   1      42.285  28.800  33.825  1.00  0.00     0.074 A 
ATOM     48  C   UNL A   1      42.795  27.632  33.140  1.00  0.00     0.031 C 
ATOM     49  C   UNL A   1      37.737  30.943  29.808  1.00  0.00     0.029 A 
ATOM     50  C   UNL A   1      38.110  31.498  31.107  1.00  0.00     0.049 A 
ATOM     51  H   UNL A   1      39.605  30.823  32.390  1.00  0.00     0.167 HD
ATOM     52  C   UNL A   1      42.742  29.245  35.021  1.00  0.00     0.037 A 
ATOM     53  C   UNL A   1      37.530  32.563  31.694  1.00  0.00     0.037 A 
ATOM     54  C   UNL A   1      42.234  30.414  35.691  1.00  0.00     0.049 A 
ATOM     55  C   UNL A   1      38.031  33.018  33.038  1.00  0.00     0.074 A 
ATOM     56  C   UNL A   1      42.653  30.973  36.886  1.00  0.00     0.029 A 
ATOM     57  N   UNL A   1      41.187  31.201  35.229  1.00  0.00    -0.354 N 
ATOM     58  N   UNL A   1      39.002  32.523  33.769  1.00  0.00    -0.248 NA
ATOM     59  C   UNL A   1      37.357  34.177  33.638  1.00  0.00     0.031 C 
ATOM     60  C   UNL A   1      41.831  32.069  37.168  1.00  0.00     0.029 A 
ATOM     61  C   UNL A   1      40.933  32.227  36.125  1.00  0.00     0.049 A 
ATOM     62  H   UNL A   1      40.697  31.052  34.389  1.00  0.00     0.167 HD
ATOM     63  C   UNL A   1      39.078  33.331  34.898  1.00  0.00     0.074 A 
ATOM     64  C   UNL A   1      38.058  34.350  34.750  1.00  0.00     0.031 C 
ATOM     65  C   UNL A   1      39.918  33.240  35.960  1.00  0.00     0.037 A 
BRANCH  52  66
ATOM     66  C   UNL A   1      43.844  28.456  35.677  1.00  0.00     0.058 A 
ATOM     67  C   UNL A   1      45.199  28.732  35.424  1.00  0.00     0.135 A 
ATOM     68  C   UNL A   1      43.548  27.415  36.572  1.00  0.00     0.135 A 
ATOM     69  F   UNL A   1      45.542  29.708  34.569  1.00  0.00    -0.206 F 
ATOM     70  C   UNL A   1      46.216  27.975  35.996  1.00  0.00     0.059 A 
ATOM     71  C   UNL A   1      44.550  26.665  37.180  1.00  0.00     0.059 A 
ATOM     72  F   UNL A   1      42.272  27.109  36.856  1.00  0.00    -0.206 F 
ATOM     73  C   UNL A   1      45.881  26.938  36.868  1.00  0.00     0.060 A 
BRANCH  73  74
ATOM     74  S   UNL A   1      47.212  25.948  37.580  1.00  0.00     0.124 S 
ATOM     75  O   UNL A   1      47.331  26.536  38.911  1.00  0.00    -0.237 OA
ATOM     76  O   UNL A   1      46.659  24.598  37.533  1.00  0.00    -0.237 OA
ATOM     77  O   UNL A   1      48.337  26.194  36.684  1.00  0.00    -0.744 OA
ENDBRANCH  73  74
ENDBRANCH  52  66
BRANCH  53  78
ATOM     78  C   UNL A   1      36.440  33.295  30.995  1.00  0.00     0.058 A 
ATOM     79  C   UNL A   1      35.116  33.209  31.451  1.00  0.00     0.135 A 
ATOM     80  C   UNL A   1      36.695  34.106  29.879  1.00  0.00     0.135 A 
ATOM     81  F   UNL A   1      34.820  32.442  32.511  1.00  0.00    -0.206 F 
ATOM     82  C   UNL A   1      34.081  33.890  30.818  1.00  0.00     0.059 A 
ATOM     83  C   UNL A   1      35.681  34.818  29.245  1.00  0.00     0.059 A 
ATOM     84  F   UNL A   1      37.947  34.234  29.413  1.00  0.00    -0.206 F 
ATOM     85  C   UNL A   1      34.375  34.696  29.717  1.00  0.00     0.060 A 
BRANCH  85  86
ATOM     86  S   UNL A   1      33.028  35.613  28.935  1.00  0.00     0.124 S 
ATOM     87  O   UNL A   1      32.249  36.035  30.093  1.00  0.00    -0.237 OA
ATOM     88  O   UNL A   1      33.748  36.669  28.230  1.00  0.00    -0.237 OA
ATOM     89  O   UNL A   1      32.395  34.616  28.078  1.00  0.00    -0.744 OA
ENDBRANCH  85  86
ENDBRANCH  53  78
BRANCH  65  90
ATOM     90  C   UNL A   1      39.799  34.292  37.030  1.00  0.00     0.058 A 
ATOM     91  C   UNL A   1      40.382  35.560  36.890  1.00  0.00     0.135 A 
ATOM     92  C   UNL A   1      39.049  34.040  38.190  1.00  0.00     0.135 A 
ATOM     93  F   UNL A   1      41.116  35.851  35.804  1.00  0.00    -0.206 F 
ATOM     94  C   UNL A   1      40.246  36.535  37.873  1.00  0.00     0.059 A 
ATOM     95  C   UNL A   1      38.875  35.009  39.173  1.00  0.00     0.059 A 
ATOM     96  F   UNL A   1      38.462  32.846  38.371  1.00  0.00    -0.206 F 
ATOM     97  C   UNL A   1      39.488  36.251  39.010  1.00  0.00     0.060 A 
BRANCH  97  98
ATOM     98  S   UNL A   1      39.289  37.537  40.262  1.00  0.00     0.124 S 
ATOM     99  O   UNL A   1      38.257  38.376  39.660  1.00  0.00    -0.237 OA
ATOM    100  O   UNL A   1      38.878  36.771  41.435  1.00  0.00    -0.237 OA
ATOM    101  O   UNL A   1      40.616  38.138  40.347  1.00  0.00    -0.744 OA
ENDBRANCH  97  98
ENDBRANCH  65  90
ENDBRANCH  39  40
ENDBRANCH  31  34
ENDBRANCH  29  30
ENDBRANCH   1  29
TORSDOF 18
ENDMDL
MODEL 3
REMARK VINA RESULT:     -11.5      4.318     11.104
REMARK SMILES COc1ccc(-c2noc(CC(=O)NCCCNC(=O)c3ccc(-c4c5nc(c(-c6c(F)cc(S(=O)(=O)[O-])cc6F)c6ccc([nH]6)c(-c6c(F)cc(S(=O)(=O)[O-])cc6F)c6nc(c(-c7c(F)cc(S(=O)(=O)[O-])cc7F)c7ccc4[nH]7)C=C6)C=C5)cc3)c2-c2ccc(OC)cc2)cc1
REMARK SMILES IDX 16 1 15 2 14 3 12 4 13 5 11 7 10 8 7 9 8 10 87 11 9 12 6 13
REMARK SMILES IDX 3 14 4 15 97 16 5 17 96 18 2 19 1 20 88 21 89 22 95 23 90 24
REMARK SMILES IDX 94 25 91 26 92 27 93 28 17 29 18 30 19 31 20 33 21 34 22 35
REMARK SMILES IDX 86 36 23 37 85 38 24 39 25 40 26 41 79 42 27 43 84 44 78 45
REMARK SMILES IDX 80 46 28 47 83 48 77 49 76 50 29 52 63 53 42 54 62 55 43 56
REMARK SMILES IDX 46 57 61 58 81 59 44 60 45 61 60 63 82 64 47 65 30 66 31 67
REMARK SMILES IDX 40 68 32 69 33 70 39 71 41 72 34 73 35 74 36 75 37 76 38 77
REMARK SMILES IDX 64 78 65 79 74 80 66 81 67 82 73 83 75 84 68 85 69 86 70 87
REMARK SMILES IDX 71 88 72 89 48 90 49 91 58 92 50 93 51 94 57 95 59 96 52 97
REMARK SMILES IDX 53 98 54 99 55 100 56 101
REMARK H PARENT 14 6 18 32 80 51 46 62
REMARK Flexibility Score: inf
ROOT
ATOM      1  C   UNL A   1      41.223  20.558  26.295  1.00  0.00     0.042 C 
ENDROOT
BRANCH   1   2
ATOM      2  C   UNL A   1      42.727  20.818  26.345  1.00  0.00     0.117 C 
BRANCH   2   3
ATOM      3  N   UNL A   1      43.330  20.773  25.027  1.00  0.00    -0.356 N 
ATOM      4  C   UNL A   1      44.520  21.292  24.605  1.00  0.00     0.227 C 
ATOM      5  O   UNL A   1      44.827  21.146  23.420  1.00  0.00    -0.275 OA
ATOM      6  H   UNL A   1      42.807  20.300  24.340  1.00  0.00     0.163 HD
BRANCH   4   7
ATOM      7  C   UNL A   1      45.480  21.929  25.591  1.00  0.00     0.179 C 
BRANCH   7   8
ATOM      8  C   UNL A   1      45.362  23.406  25.623  1.00  0.00     0.154 A 
ATOM      9  C   UNL A   1      45.043  25.584  25.907  1.00  0.00     0.122 A 
ATOM     10  N   UNL A   1      45.350  25.409  24.613  1.00  0.00    -0.079 NA
ATOM     11  C   UNL A   1      45.063  24.335  26.601  1.00  0.00     0.053 A 
ATOM     12  O   UNL A   1      45.567  24.056  24.446  1.00  0.00    -0.360 OA
BRANCH   9  13
ATOM     13  C   UNL A   1      44.692  26.889  26.454  1.00  0.00     0.005 A 
ATOM     14  C   UNL A   1      44.145  29.524  27.256  1.00  0.00     0.118 A 
ATOM     15  C   UNL A   1      45.319  28.889  27.666  1.00  0.00     0.047 A 
ATOM     16  C   UNL A   1      43.232  28.836  26.461  1.00  0.00     0.047 A 
ATOM     17  C   UNL A   1      45.590  27.574  27.281  1.00  0.00     0.014 A 
ATOM     18  C   UNL A   1      43.504  27.522  26.065  1.00  0.00     0.014 A 
BRANCH  14  19
ATOM     19  O   UNL A   1      44.027  30.828  27.644  1.00  0.00    -0.497 OA
ATOM     20  C   UNL A   1      44.520  31.806  26.738  1.00  0.00     0.278 C 
ENDBRANCH  14  19
ENDBRANCH   9  13
BRANCH  11  21
ATOM     21  C   UNL A   1      44.711  24.016  27.972  1.00  0.00    -0.012 A 
ATOM     22  C   UNL A   1      43.477  23.417  28.253  1.00  0.00     0.013 A 
ATOM     23  C   UNL A   1      45.580  24.310  29.026  1.00  0.00     0.013 A 
ATOM     24  C   UNL A   1      43.129  23.105  29.568  1.00  0.00     0.047 A 
ATOM     25  C   UNL A   1      45.227  23.996  30.345  1.00  0.00     0.047 A 
ATOM     26  C   UNL A   1      44.001  23.389  30.619  1.00  0.00     0.118 A 
BRANCH  26  27
ATOM     27  O   UNL A   1      43.536  23.030  31.854  1.00  0.00    -0.497 OA
ATOM     28  C   UNL A   1      44.277  23.481  32.978  1.00  0.00     0.278 C 
ENDBRANCH  26  27
ENDBRANCH  11  21
ENDBRANCH   7   8
ENDBRANCH   4   7
ENDBRANCH   2   3
ENDBRANCH   1   2
BRANCH   1  29
ATOM     29  C   UNL A   1      40.392  21.646  26.967  1.00  0.00     0.118 C 
BRANCH  29  30
ATOM     30  N   UNL A   1      39.327  22.140  26.101  1.00  0.00    -0.352 N 
ATOM     31  C   UNL A   1      38.690  23.353  26.089  1.00  0.00     0.251 C 
ATOM     32  H   UNL A   1      39.017  21.502  25.419  1.00  0.00     0.163 HD
ATOM     33  O   UNL A   1      37.673  23.488  25.403  1.00  0.00    -0.269 OA
BRANCH  31  34
ATOM     34  C   UNL A   1      39.195  24.486  26.893  1.00  0.00     0.039 A 
ATOM     35  C   UNL A   1      39.969  25.466  26.266  1.00  0.00     0.014 A 
ATOM     36  C   UNL A   1      38.943  24.570  28.265  1.00  0.00     0.014 A 
ATOM     37  C   UNL A   1      40.439  26.558  26.999  1.00  0.00     0.010 A 
ATOM     38  C   UNL A   1      39.344  25.697  28.978  1.00  0.00     0.010 A 
ATOM     39  C   UNL A   1      40.100  26.700  28.354  1.00  0.00    -0.014 A 
BRANCH  39  40
ATOM     40  C   UNL A   1      40.527  27.890  29.136  1.00  0.00     0.031 A 
ATOM     41  C   UNL A   1      41.869  27.910  29.817  1.00  0.00     0.074 A 
ATOM     42  C   UNL A   1      39.680  28.928  29.280  1.00  0.00     0.049 A 
ATOM     43  N   UNL A   1      42.392  28.828  30.590  1.00  0.00    -0.248 NA
ATOM     44  C   UNL A   1      42.727  26.730  29.624  1.00  0.00     0.031 C 
ATOM     45  C   UNL A   1      38.339  29.012  28.697  1.00  0.00     0.029 A 
ATOM     46  N   UNL A   1      39.817  30.109  29.965  1.00  0.00    -0.354 N 
ATOM     47  C   UNL A   1      43.631  28.335  30.981  1.00  0.00     0.074 A 
ATOM     48  C   UNL A   1      43.756  27.011  30.410  1.00  0.00     0.031 C 
ATOM     49  C   UNL A   1      37.791  30.195  29.021  1.00  0.00     0.029 A 
ATOM     50  C   UNL A   1      38.721  30.934  29.870  1.00  0.00     0.049 A 
ATOM     51  H   UNL A   1      40.625  30.345  30.475  1.00  0.00     0.167 HD
ATOM     52  C   UNL A   1      44.588  28.939  31.727  1.00  0.00     0.037 A 
ATOM     53  C   UNL A   1      38.488  32.146  30.409  1.00  0.00     0.037 A 
ATOM     54  C   UNL A   1      44.458  30.260  32.285  1.00  0.00     0.049 A 
ATOM     55  C   UNL A   1      39.551  32.783  31.263  1.00  0.00     0.074 A 
ATOM     56  C   UNL A   1      45.383  30.980  33.022  1.00  0.00     0.029 A 
ATOM     57  N   UNL A   1      43.328  31.060  32.174  1.00  0.00    -0.354 N 
ATOM     58  N   UNL A   1      40.740  32.326  31.578  1.00  0.00    -0.248 NA
ATOM     59  C   UNL A   1      39.241  34.100  31.833  1.00  0.00     0.031 C 
ATOM     60  C   UNL A   1      44.796  32.194  33.395  1.00  0.00     0.029 A 
ATOM     61  C   UNL A   1      43.525  32.256  32.846  1.00  0.00     0.049 A 
ATOM     62  H   UNL A   1      42.509  30.815  31.688  1.00  0.00     0.167 HD
ATOM     63  C   UNL A   1      41.333  33.314  32.357  1.00  0.00     0.074 A 
ATOM     64  C   UNL A   1      40.373  34.395  32.458  1.00  0.00     0.031 C 
ATOM     65  C   UNL A   1      42.562  33.327  32.932  1.00  0.00     0.037 A 
BRANCH  52  66
ATOM     66  C   UNL A   1      45.855  28.167  31.984  1.00  0.00     0.058 A 
ATOM     67  C   UNL A   1      45.938  27.204  33.005  1.00  0.00     0.135 A 
ATOM     68  C   UNL A   1      47.000  28.385  31.201  1.00  0.00     0.135 A 
ATOM     69  F   UNL A   1      44.879  26.961  33.793  1.00  0.00    -0.206 F 
ATOM     70  C   UNL A   1      47.121  26.524  33.271  1.00  0.00     0.059 A 
ATOM     71  C   UNL A   1      48.186  27.692  31.428  1.00  0.00     0.059 A 
ATOM     72  F   UNL A   1      46.979  29.288  30.208  1.00  0.00    -0.206 F 
ATOM     73  C   UNL A   1      48.243  26.779  32.481  1.00  0.00     0.060 A 
BRANCH  73  74
ATOM     74  S   UNL A   1      49.779  25.907  32.856  1.00  0.00     0.124 S 
ATOM     75  O   UNL A   1      49.924  25.057  31.679  1.00  0.00    -0.237 OA
ATOM     76  O   UNL A   1      50.740  27.000  32.968  1.00  0.00    -0.237 OA
ATOM     77  O   UNL A   1      49.478  25.209  34.101  1.00  0.00    -0.744 OA
ENDBRANCH  73  74
ENDBRANCH  52  66
BRANCH  53  78
ATOM     78  C   UNL A   1      37.211  32.854  30.122  1.00  0.00     0.058 A 
ATOM     79  C   UNL A   1      36.065  32.596  30.888  1.00  0.00     0.135 A 
ATOM     80  C   UNL A   1      37.113  33.810  29.099  1.00  0.00     0.135 A 
ATOM     81  F   UNL A   1      36.107  31.687  31.873  1.00  0.00    -0.206 F 
ATOM     82  C   UNL A   1      34.861  33.250  30.644  1.00  0.00     0.059 A 
ATOM     83  C   UNL A   1      35.927  34.497  28.853  1.00  0.00     0.059 A 
ATOM     84  F   UNL A   1      38.185  34.105  28.348  1.00  0.00    -0.206 F 
ATOM     85  C   UNL A   1      34.804  34.203  29.625  1.00  0.00     0.060 A 
BRANCH  85  86
ATOM     86  S   UNL A   1      33.248  35.080  29.351  1.00  0.00     0.124 S 
ATOM     87  O   UNL A   1      32.706  35.146  30.703  1.00  0.00    -0.237 OA
ATOM     88  O   UNL A   1      33.707  36.344  28.784  1.00  0.00    -0.237 OA
ATOM     89  O   UNL A   1      32.530  34.211  28.425  1.00  0.00    -0.744 OA
ENDBRANCH  85  86
ENDBRANCH  53  78
BRANCH  65  90
ATOM     90  C   UNL A   1      42.958  34.565  33.692  1.00  0.00     0.058 A 
ATOM     91  C   UNL A   1      42.719  34.697  35.069  1.00  0.00     0.135 A 
ATOM     92  C   UNL A   1      43.628  35.612  33.039  1.00  0.00     0.135 A 
ATOM     93  F   UNL A   1      42.074  33.729  35.740  1.00  0.00    -0.206 F 
ATOM     94  C   UNL A   1      43.110  35.834  35.768  1.00  0.00     0.059 A 
ATOM     95  C   UNL A   1      44.054  36.745  33.725  1.00  0.00     0.059 A 
ATOM     96  F   UNL A   1      43.890  35.534  31.725  1.00  0.00    -0.206 F 
ATOM     97  C   UNL A   1      43.781  36.852  35.087  1.00  0.00     0.060 A 
BRANCH  97  98
ATOM     98  S   UNL A   1      44.315  38.308  36.013  1.00  0.00     0.124 S 
ATOM     99  O   UNL A   1      45.755  38.084  36.105  1.00  0.00    -0.237 OA
ATOM    100  O   UNL A   1      43.898  39.403  35.144  1.00  0.00    -0.237 OA
ATOM    101  O   UNL A   1      43.582  38.199  37.270  1.00  0.00    -0.744 OA
ENDBRANCH  97  98
ENDBRANCH  65  90
ENDBRANCH  39  40
ENDBRANCH  31  34
ENDBRANCH  29  30
ENDBRANCH   1  29
TORSDOF 18
ENDMDL
