MODEL 1
REMARK VINA RESULT:     -11.5      0.000      0.000
REMARK SMILES C[C@@H](O)[C@@H](NC(=O)CSc1ccncc1)C(=O)NCCCNC(=O)c1ccc(-c2c3nc(c(-c4c(F)cc(S(=O)(=O)[O-])cc4F)c4ccc([nH]4)c(-c4c(F)cc(S(=O)(=O)[O-])cc4F)c4nc(c(-c5c(F)cc(S(=O)(=O)[O-])cc5F)c5ccc2[nH]5)C=C4)C=C3)cc1
REMARK SMILES IDX 19 1 18 2 16 3 17 4 4 6 2 7 1 8 3 9 5 11 6 12 7 14 8 15 9 16
REMARK SMILES IDX 10 17 11 18 15 19 12 20 14 21 13 22 20 23 21 24 22 25 23 26
REMARK SMILES IDX 24 28 25 29 26 30 90 31 27 32 89 33 28 34 29 35 30 36 83 37
REMARK SMILES IDX 31 38 88 39 82 40 84 41 32 42 87 43 81 44 80 45 33 47 67 48
REMARK SMILES IDX 46 49 66 50 47 51 50 52 65 53 85 54 48 55 49 56 64 58 86 59
REMARK SMILES IDX 51 60 34 61 35 62 44 63 36 64 37 65 43 66 45 67 38 68 39 69
REMARK SMILES IDX 40 70 41 71 42 72 68 73 69 74 78 75 70 76 71 77 77 78 79 79
REMARK SMILES IDX 72 80 73 81 74 82 75 83 76 84 52 85 53 86 62 87 54 88 55 89
REMARK SMILES IDX 61 90 63 91 56 92 57 93 58 94 59 95 60 96
REMARK H PARENT 18 5 3 10 5 13 22 27 84 46 50 57
REMARK Flexibility Score: inf
ROOT
ATOM      1  C   UNL A   1      34.147  29.288  27.219  1.00  0.00     0.117 C 
ENDROOT
BRANCH   1   2
ATOM      2  N   UNL A   1      32.813  28.939  27.654  1.00  0.00    -0.354 N 
ATOM      3  C   UNL A   1      32.011  27.958  27.143  1.00  0.00     0.245 C 
ATOM      4  O   UNL A   1      31.077  27.554  27.839  1.00  0.00    -0.273 OA
ATOM      5  H   UNL A   1      32.442  29.465  28.400  1.00  0.00     0.163 HD
BRANCH   3   6
ATOM      6  C   UNL A   1      32.253  27.404  25.726  1.00  0.00     0.200 C 
BRANCH   6   7
ATOM      7  C   UNL A   1      33.441  26.387  25.838  1.00  0.00     0.143 C 
ATOM      8  C   UNL A   1      33.028  24.979  26.253  1.00  0.00     0.041 C 
BRANCH   7   9
ATOM      9  O   UNL A   1      34.116  26.263  24.584  1.00  0.00    -0.391 OA
ATOM     10  H   UNL A   1      33.606  26.715  23.895  1.00  0.00     0.211 HD
ENDBRANCH   7   9
ENDBRANCH   6   7
BRANCH   6  11
ATOM     11  N   UNL A   1      31.083  26.797  25.042  1.00  0.00    -0.341 N 
ATOM     12  C   UNL A   1      30.489  27.068  23.844  1.00  0.00     0.231 C 
ATOM     13  H   UNL A   1      30.659  26.064  25.545  1.00  0.00     0.164 HD
ATOM     14  O   UNL A   1      30.068  26.089  23.220  1.00  0.00    -0.274 OA
BRANCH  12  15
ATOM     15  C   UNL A   1      30.230  28.485  23.377  1.00  0.00     0.174 C 
BRANCH  15  16
ATOM     16  S   UNL A   1      28.464  28.774  22.900  1.00  0.00    -0.116 SA
BRANCH  16  17
ATOM     17  C   UNL A   1      28.279  30.491  22.406  1.00  0.00     0.011 A 
ATOM     18  C   UNL A   1      28.554  31.467  23.371  1.00  0.00     0.035 A 
ATOM     19  C   UNL A   1      28.007  30.934  21.114  1.00  0.00     0.035 A 
ATOM     20  C   UNL A   1      28.521  32.809  23.013  1.00  0.00     0.112 A 
ATOM     21  C   UNL A   1      27.980  32.300  20.852  1.00  0.00     0.112 A 
ATOM     22  N   UNL A   1      28.226  33.247  21.774  1.00  0.00    -0.265 NA
ENDBRANCH  16  17
ENDBRANCH  15  16
ENDBRANCH  12  15
ENDBRANCH   6  11
ENDBRANCH   3   6
ENDBRANCH   1   2
BRANCH   1  23
ATOM     23  C   UNL A   1      34.450  30.763  27.295  1.00  0.00     0.042 C 
BRANCH  23  24
ATOM     24  C   UNL A   1      35.717  31.055  28.079  1.00  0.00     0.118 C 
BRANCH  24  25
ATOM     25  N   UNL A   1      35.556  30.922  29.526  1.00  0.00    -0.352 N 
ATOM     26  C   UNL A   1      36.386  30.338  30.453  1.00  0.00     0.251 C 
ATOM     27  H   UNL A   1      34.728  31.309  29.892  1.00  0.00     0.163 HD
ATOM     28  O   UNL A   1      36.052  30.253  31.633  1.00  0.00    -0.269 OA
BRANCH  26  29
ATOM     29  C   UNL A   1      37.685  29.807  30.015  1.00  0.00     0.039 A 
ATOM     30  C   UNL A   1      38.069  29.918  28.677  1.00  0.00     0.014 A 
ATOM     31  C   UNL A   1      38.536  29.233  30.957  1.00  0.00     0.014 A 
ATOM     32  C   UNL A   1      39.348  29.505  28.300  1.00  0.00     0.010 A 
ATOM     33  C   UNL A   1      39.844  28.952  30.608  1.00  0.00     0.010 A 
ATOM     34  C   UNL A   1      40.256  29.056  29.271  1.00  0.00    -0.014 A 
BRANCH  34  35
ATOM     35  C   UNL A   1      41.637  28.635  28.938  1.00  0.00     0.031 A 
ATOM     36  C   UNL A   1      42.725  29.676  28.891  1.00  0.00     0.074 A 
ATOM     37  C   UNL A   1      41.881  27.366  28.562  1.00  0.00     0.049 A 
ATOM     38  N   UNL A   1      43.949  29.576  28.450  1.00  0.00    -0.248 NA
ATOM     39  C   UNL A   1      42.364  31.028  29.355  1.00  0.00     0.031 C 
ATOM     40  C   UNL A   1      40.890  26.289  28.513  1.00  0.00     0.029 A 
ATOM     41  N   UNL A   1      43.037  26.773  28.122  1.00  0.00    -0.354 N 
ATOM     42  C   UNL A   1      44.487  30.854  28.543  1.00  0.00     0.074 A 
ATOM     43  C   UNL A   1      43.437  31.725  29.019  1.00  0.00     0.031 C 
ATOM     44  C   UNL A   1      41.484  25.164  28.085  1.00  0.00     0.029 A 
ATOM     45  C   UNL A   1      42.883  25.451  27.782  1.00  0.00     0.049 A 
ATOM     46  H   UNL A   1      43.896  27.250  28.057  1.00  0.00     0.167 HD
ATOM     47  C   UNL A   1      45.753  31.259  28.281  1.00  0.00     0.037 A 
ATOM     48  C   UNL A   1      43.767  24.575  27.268  1.00  0.00     0.037 A 
ATOM     49  C   UNL A   1      46.795  30.367  27.850  1.00  0.00     0.049 A 
ATOM     50  C   UNL A   1      45.175  25.035  27.011  1.00  0.00     0.074 A 
ATOM     51  C   UNL A   1      48.131  30.645  27.633  1.00  0.00     0.029 A 
ATOM     52  N   UNL A   1      46.614  29.018  27.569  1.00  0.00    -0.354 N 
ATOM     53  N   UNL A   1      45.692  26.232  27.167  1.00  0.00    -0.248 NA
ATOM     54  C   UNL A   1      46.124  24.029  26.519  1.00  0.00     0.031 C 
ATOM     55  C   UNL A   1      48.748  29.477  27.171  1.00  0.00     0.029 A 
ATOM     56  C   UNL A   1      47.810  28.456  27.157  1.00  0.00     0.049 A 
ATOM     57  H   UNL A   1      45.761  28.534  27.651  1.00  0.00     0.167 HD
ATOM     58  C   UNL A   1      47.031  26.117  26.815  1.00  0.00     0.074 A 
ATOM     59  C   UNL A   1      47.246  24.731  26.451  1.00  0.00     0.031 C 
ATOM     60  C   UNL A   1      47.998  27.071  26.798  1.00  0.00     0.037 A 
BRANCH  47  61
ATOM     61  C   UNL A   1      46.065  32.723  28.450  1.00  0.00     0.058 A 
ATOM     62  C   UNL A   1      45.931  33.640  27.394  1.00  0.00     0.135 A 
ATOM     63  C   UNL A   1      46.510  33.217  29.688  1.00  0.00     0.135 A 
ATOM     64  F   UNL A   1      45.525  33.225  26.183  1.00  0.00    -0.206 F 
ATOM     65  C   UNL A   1      46.271  34.981  27.544  1.00  0.00     0.059 A 
ATOM     66  C   UNL A   1      46.821  34.562  29.871  1.00  0.00     0.059 A 
ATOM     67  F   UNL A   1      46.659  32.389  30.733  1.00  0.00    -0.206 F 
ATOM     68  C   UNL A   1      46.720  35.432  28.786  1.00  0.00     0.060 A 
BRANCH  68  69
ATOM     69  S   UNL A   1      47.172  37.170  28.960  1.00  0.00     0.124 S 
ATOM     70  O   UNL A   1      47.144  37.333  30.411  1.00  0.00    -0.237 OA
ATOM     71  O   UNL A   1      48.494  37.210  28.344  1.00  0.00    -0.237 OA
ATOM     72  O   UNL A   1      46.121  37.871  28.230  1.00  0.00    -0.744 OA
ENDBRANCH  68  69
ENDBRANCH  47  61
BRANCH  48  73
ATOM     73  C   UNL A   1      43.342  23.175  26.997  1.00  0.00     0.058 A 
ATOM     74  C   UNL A   1      43.196  22.709  25.682  1.00  0.00     0.135 A 
ATOM     75  C   UNL A   1      43.133  22.261  28.041  1.00  0.00     0.135 A 
ATOM     76  F   UNL A   1      43.380  23.547  24.649  1.00  0.00    -0.206 F 
ATOM     77  C   UNL A   1      42.855  21.388  25.410  1.00  0.00     0.059 A 
ATOM     78  C   UNL A   1      42.816  20.928  27.794  1.00  0.00     0.059 A 
ATOM     79  F   UNL A   1      43.279  22.651  29.316  1.00  0.00    -0.206 F 
ATOM     80  C   UNL A   1      42.677  20.502  26.473  1.00  0.00     0.060 A 
BRANCH  80  81
ATOM     81  S   UNL A   1      42.316  18.771  26.106  1.00  0.00     0.124 S 
ATOM     82  O   UNL A   1      42.561  18.138  27.395  1.00  0.00    -0.237 OA
ATOM     83  O   UNL A   1      40.922  18.834  25.679  1.00  0.00    -0.237 OA
ATOM     84  O   UNL A   1      43.272  18.445  25.051  1.00  0.00    -0.744 OA
ENDBRANCH  80  81
ENDBRANCH  48  73
BRANCH  60  85
ATOM     85  C   UNL A   1      49.382  26.641  26.399  1.00  0.00     0.058 A 
ATOM     86  C   UNL A   1      50.251  26.015  27.304  1.00  0.00     0.135 A 
ATOM     87  C   UNL A   1      49.820  26.808  25.075  1.00  0.00     0.135 A 
ATOM     88  F   UNL A   1      49.883  25.836  28.583  1.00  0.00    -0.206 F 
ATOM     89  C   UNL A   1      51.519  25.592  26.917  1.00  0.00     0.059 A 
ATOM     90  C   UNL A   1      51.070  26.365  24.659  1.00  0.00     0.059 A 
ATOM     91  F   UNL A   1      49.022  27.390  24.165  1.00  0.00    -0.206 F 
ATOM     92  C   UNL A   1      51.918  25.769  25.591  1.00  0.00     0.060 A 
BRANCH  92  93
ATOM     93  S   UNL A   1      53.553  25.189  25.096  1.00  0.00     0.124 S 
ATOM     94  O   UNL A   1      53.430  23.750  25.310  1.00  0.00    -0.237 OA
ATOM     95  O   UNL A   1      53.626  25.618  23.702  1.00  0.00    -0.237 OA
ATOM     96  O   UNL A   1      54.454  25.885  26.009  1.00  0.00    -0.744 OA
ENDBRANCH  92  93
ENDBRANCH  60  85
ENDBRANCH  34  35
ENDBRANCH  26  29
ENDBRANCH  24  25
ENDBRANCH  23  24
ENDBRANCH   1  23
TORSDOF 19
ENDMDL
MODEL 2
REMARK VINA RESULT:     -11.4      1.598      3.623
REMARK SMILES C[C@@H](O)[C@@H](NC(=O)CSc1ccncc1)C(=O)NCCCNC(=O)c1ccc(-c2c3nc(c(-c4c(F)cc(S(=O)(=O)[O-])cc4F)c4ccc([nH]4)c(-c4c(F)cc(S(=O)(=O)[O-])cc4F)c4nc(c(-c5c(F)cc(S(=O)(=O)[O-])cc5F)c5ccc2[nH]5)C=C4)C=C3)cc1
REMARK SMILES IDX 19 1 18 2 16 3 17 4 4 6 2 7 1 8 3 9 5 11 6 12 7 14 8 15 9 16
REMARK SMILES IDX 10 17 11 18 15 19 12 20 14 21 13 22 20 23 21 24 22 25 23 26
REMARK SMILES IDX 24 28 25 29 26 30 90 31 27 32 89 33 28 34 29 35 30 36 83 37
REMARK SMILES IDX 31 38 88 39 82 40 84 41 32 42 87 43 81 44 80 45 33 47 67 48
REMARK SMILES IDX 46 49 66 50 47 51 50 52 65 53 85 54 48 55 49 56 64 58 86 59
REMARK SMILES IDX 51 60 34 61 35 62 44 63 36 64 37 65 43 66 45 67 38 68 39 69
REMARK SMILES IDX 40 70 41 71 42 72 68 73 69 74 78 75 70 76 71 77 77 78 79 79
REMARK SMILES IDX 72 80 73 81 74 82 75 83 76 84 52 85 53 86 62 87 54 88 55 89
REMARK SMILES IDX 61 90 63 91 56 92 57 93 58 94 59 95 60 96
REMARK H PARENT 18 5 3 10 5 13 22 27 84 46 50 57
REMARK Flexibility Score: inf
ROOT
ATOM      1  C   UNL A   1      33.615  29.700  26.081  1.00  0.00     0.117 C 
ENDROOT
BRANCH   1   2
ATOM      2  N   UNL A   1      33.938  29.176  24.773  1.00  0.00    -0.354 N 
ATOM      3  C   UNL A   1      33.076  28.974  23.732  1.00  0.00     0.245 C 
ATOM      4  O   UNL A   1      33.552  28.870  22.599  1.00  0.00    -0.273 OA
ATOM      5  H   UNL A   1      34.880  28.938  24.615  1.00  0.00     0.163 HD
BRANCH   3   6
ATOM      6  C   UNL A   1      31.561  28.847  23.980  1.00  0.00     0.200 C 
BRANCH   6   7
ATOM      7  C   UNL A   1      30.880  28.772  22.569  1.00  0.00     0.143 C 
ATOM      8  C   UNL A   1      29.359  28.663  22.608  1.00  0.00     0.041 C 
BRANCH   7   9
ATOM      9  O   UNL A   1      31.188  29.936  21.799  1.00  0.00    -0.391 OA
ATOM     10  H   UNL A   1      30.773  29.865  20.926  1.00  0.00     0.211 HD
ENDBRANCH   7   9
ENDBRANCH   6   7
BRANCH   6  11
ATOM     11  N   UNL A   1      31.122  27.729  24.853  1.00  0.00    -0.341 N 
ATOM     12  C   UNL A   1      31.687  26.520  25.136  1.00  0.00     0.231 C 
ATOM     13  H   UNL A   1      30.266  27.891  25.312  1.00  0.00     0.164 HD
ATOM     14  O   UNL A   1      31.557  26.126  26.299  1.00  0.00    -0.274 OA
BRANCH  12  15
ATOM     15  C   UNL A   1      32.306  25.650  24.062  1.00  0.00     0.174 C 
BRANCH  15  16
ATOM     16  S   UNL A   1      34.074  25.225  24.412  1.00  0.00    -0.116 SA
BRANCH  16  17
ATOM     17  C   UNL A   1      34.158  23.504  24.918  1.00  0.00     0.011 A 
ATOM     18  C   UNL A   1      33.202  23.062  25.839  1.00  0.00     0.035 A 
ATOM     19  C   UNL A   1      35.013  22.545  24.381  1.00  0.00     0.035 A 
ATOM     20  C   UNL A   1      33.161  21.718  26.190  1.00  0.00     0.112 A 
ATOM     21  C   UNL A   1      34.911  21.224  24.804  1.00  0.00     0.112 A 
ATOM     22  N   UNL A   1      34.007  20.790  25.700  1.00  0.00    -0.265 NA
ENDBRANCH  16  17
ENDBRANCH  15  16
ENDBRANCH  12  15
ENDBRANCH   6  11
ENDBRANCH   3   6
ENDBRANCH   1   2
BRANCH   1  23
ATOM     23  C   UNL A   1      34.163  28.881  27.222  1.00  0.00     0.042 C 
BRANCH  23  24
ATOM     24  C   UNL A   1      35.456  29.452  27.777  1.00  0.00     0.118 C 
BRANCH  24  25
ATOM     25  N   UNL A   1      35.276  30.236  28.999  1.00  0.00    -0.352 N 
ATOM     26  C   UNL A   1      36.199  30.620  29.941  1.00  0.00     0.251 C 
ATOM     27  H   UNL A   1      34.353  30.533  29.172  1.00  0.00     0.163 HD
ATOM     28  O   UNL A   1      35.852  31.223  30.954  1.00  0.00    -0.269 OA
BRANCH  26  29
ATOM     29  C   UNL A   1      37.617  30.296  29.726  1.00  0.00     0.039 A 
ATOM     30  C   UNL A   1      38.407  29.875  30.798  1.00  0.00     0.014 A 
ATOM     31  C   UNL A   1      38.144  30.376  28.439  1.00  0.00     0.014 A 
ATOM     32  C   UNL A   1      39.720  29.470  30.558  1.00  0.00     0.010 A 
ATOM     33  C   UNL A   1      39.397  29.849  28.184  1.00  0.00     0.010 A 
ATOM     34  C   UNL A   1      40.210  29.418  29.244  1.00  0.00    -0.014 A 
BRANCH  34  35
ATOM     35  C   UNL A   1      41.584  28.967  28.922  1.00  0.00     0.031 A 
ATOM     36  C   UNL A   1      42.695  29.983  28.882  1.00  0.00     0.074 A 
ATOM     37  C   UNL A   1      41.804  27.691  28.550  1.00  0.00     0.049 A 
ATOM     38  N   UNL A   1      43.920  29.856  28.450  1.00  0.00    -0.248 NA
ATOM     39  C   UNL A   1      42.359  31.344  29.340  1.00  0.00     0.031 C 
ATOM     40  C   UNL A   1      40.791  26.636  28.495  1.00  0.00     0.029 A 
ATOM     41  N   UNL A   1      42.950  27.073  28.121  1.00  0.00    -0.354 N 
ATOM     42  C   UNL A   1      44.485  31.122  28.545  1.00  0.00     0.074 A 
ATOM     43  C   UNL A   1      43.450  32.017  29.011  1.00  0.00     0.031 C 
ATOM     44  C   UNL A   1      41.363  25.498  28.075  1.00  0.00     0.029 A 
ATOM     45  C   UNL A   1      42.770  25.754  27.782  1.00  0.00     0.049 A 
ATOM     46  H   UNL A   1      43.820  27.531  28.061  1.00  0.00     0.167 HD
ATOM     47  C   UNL A   1      45.761  31.500  28.292  1.00  0.00     0.037 A 
ATOM     48  C   UNL A   1      43.639  24.857  27.276  1.00  0.00     0.037 A 
ATOM     49  C   UNL A   1      46.786  30.584  27.871  1.00  0.00     0.049 A 
ATOM     50  C   UNL A   1      45.059  25.286  27.030  1.00  0.00     0.074 A 
ATOM     51  C   UNL A   1      48.131  30.833  27.664  1.00  0.00     0.029 A 
ATOM     52  N   UNL A   1      46.579  29.239  27.591  1.00  0.00    -0.354 N 
ATOM     53  N   UNL A   1      45.600  26.472  27.188  1.00  0.00    -0.248 NA
ATOM     54  C   UNL A   1      45.989  24.259  26.547  1.00  0.00     0.031 C 
ATOM     55  C   UNL A   1      48.725  29.651  27.209  1.00  0.00     0.029 A 
ATOM     56  C   UNL A   1      47.766  28.651  27.190  1.00  0.00     0.049 A 
ATOM     57  H   UNL A   1      45.715  28.774  27.667  1.00  0.00     0.167 HD
ATOM     58  C   UNL A   1      46.939  26.329  26.846  1.00  0.00     0.074 A 
ATOM     59  C   UNL A   1      47.127  24.937  26.486  1.00  0.00     0.031 C 
ATOM     60  C   UNL A   1      47.926  27.261  26.834  1.00  0.00     0.037 A 
BRANCH  47  61
ATOM     61  C   UNL A   1      46.103  32.956  28.461  1.00  0.00     0.058 A 
ATOM     62  C   UNL A   1      46.006  33.873  27.400  1.00  0.00     0.135 A 
ATOM     63  C   UNL A   1      46.540  33.446  29.703  1.00  0.00     0.135 A 
ATOM     64  F   UNL A   1      45.610  33.462  26.184  1.00  0.00    -0.206 F 
ATOM     65  C   UNL A   1      46.374  35.206  27.550  1.00  0.00     0.059 A 
ATOM     66  C   UNL A   1      46.878  34.784  29.886  1.00  0.00     0.059 A 
ATOM     67  F   UNL A   1      46.654  32.619  30.754  1.00  0.00    -0.206 F 
ATOM     68  C   UNL A   1      46.814  35.652  28.797  1.00  0.00     0.060 A 
BRANCH  68  69
ATOM     69  S   UNL A   1      47.302  37.380  28.972  1.00  0.00     0.124 S 
ATOM     70  O   UNL A   1      46.122  37.951  29.615  1.00  0.00    -0.237 OA
ATOM     71  O   UNL A   1      48.494  37.283  29.808  1.00  0.00    -0.237 OA
ATOM     72  O   UNL A   1      47.537  37.809  27.597  1.00  0.00    -0.744 OA
ENDBRANCH  68  69
ENDBRANCH  47  61
BRANCH  48  73
ATOM     73  C   UNL A   1      43.186  23.467  27.005  1.00  0.00     0.058 A 
ATOM     74  C   UNL A   1      42.920  23.039  25.696  1.00  0.00     0.135 A 
ATOM     75  C   UNL A   1      43.069  22.523  28.037  1.00  0.00     0.135 A 
ATOM     76  F   UNL A   1      43.013  23.906  24.675  1.00  0.00    -0.206 F 
ATOM     77  C   UNL A   1      42.552  21.727  25.418  1.00  0.00     0.059 A 
ATOM     78  C   UNL A   1      42.726  21.198  27.782  1.00  0.00     0.059 A 
ATOM     79  F   UNL A   1      43.330  22.876  29.305  1.00  0.00    -0.206 F 
ATOM     80  C   UNL A   1      42.466  20.811  26.467  1.00  0.00     0.060 A 
BRANCH  80  81
ATOM     81  S   UNL A   1      42.067  19.091  26.084  1.00  0.00     0.124 S 
ATOM     82  O   UNL A   1      42.877  18.858  24.895  1.00  0.00    -0.237 OA
ATOM     83  O   UNL A   1      42.498  18.401  27.297  1.00  0.00    -0.237 OA
ATOM     84  O   UNL A   1      40.623  19.121  25.869  1.00  0.00    -0.744 OA
ENDBRANCH  80  81
ENDBRANCH  48  73
BRANCH  60  85
ATOM     85  C   UNL A   1      49.304  26.801  26.447  1.00  0.00     0.058 A 
ATOM     86  C   UNL A   1      50.181  26.227  27.379  1.00  0.00     0.135 A 
ATOM     87  C   UNL A   1      49.727  26.883  25.110  1.00  0.00     0.135 A 
ATOM     88  F   UNL A   1      49.828  26.130  28.671  1.00  0.00    -0.206 F 
ATOM     89  C   UNL A   1      51.442  25.776  27.005  1.00  0.00     0.059 A 
ATOM     90  C   UNL A   1      50.970  26.409  24.708  1.00  0.00     0.059 A 
ATOM     91  F   UNL A   1      48.920  27.410  24.175  1.00  0.00    -0.206 F 
ATOM     92  C   UNL A   1      51.827  25.868  25.667  1.00  0.00     0.060 A 
BRANCH  92  93
ATOM     93  S   UNL A   1      53.453  25.250  25.189  1.00  0.00     0.124 S 
ATOM     94  O   UNL A   1      53.550  25.716  23.810  1.00  0.00    -0.237 OA
ATOM     95  O   UNL A   1      54.332  25.915  26.146  1.00  0.00    -0.237 OA
ATOM     96  O   UNL A   1      53.332  23.805  25.357  1.00  0.00    -0.744 OA
ENDBRANCH  92  93
ENDBRANCH  60  85
ENDBRANCH  34  35
ENDBRANCH  26  29
ENDBRANCH  24  25
ENDBRANCH  23  24
ENDBRANCH   1  23
TORSDOF 19
ENDMDL
MODEL 3
REMARK VINA RESULT:     -11.2      2.824      3.841
REMARK SMILES C[C@@H](O)[C@@H](NC(=O)CSc1ccncc1)C(=O)NCCCNC(=O)c1ccc(-c2c3nc(c(-c4c(F)cc(S(=O)(=O)[O-])cc4F)c4ccc([nH]4)c(-c4c(F)cc(S(=O)(=O)[O-])cc4F)c4nc(c(-c5c(F)cc(S(=O)(=O)[O-])cc5F)c5ccc2[nH]5)C=C4)C=C3)cc1
REMARK SMILES IDX 19 1 18 2 16 3 17 4 4 6 2 7 1 8 3 9 5 11 6 12 7 14 8 15 9 16
REMARK SMILES IDX 10 17 11 18 15 19 12 20 14 21 13 22 20 23 21 24 22 25 23 26
REMARK SMILES IDX 24 28 25 29 26 30 90 31 27 32 89 33 28 34 29 35 30 36 83 37
REMARK SMILES IDX 31 38 88 39 82 40 84 41 32 42 87 43 81 44 80 45 33 47 67 48
REMARK SMILES IDX 46 49 66 50 47 51 50 52 65 53 85 54 48 55 49 56 64 58 86 59
REMARK SMILES IDX 51 60 34 61 35 62 44 63 36 64 37 65 43 66 45 67 38 68 39 69
REMARK SMILES IDX 40 70 41 71 42 72 68 73 69 74 78 75 70 76 71 77 77 78 79 79
REMARK SMILES IDX 72 80 73 81 74 82 75 83 76 84 52 85 53 86 62 87 54 88 55 89
REMARK SMILES IDX 61 90 63 91 56 92 57 93 58 94 59 95 60 96
REMARK H PARENT 18 5 3 10 5 13 22 27 84 46 50 57
REMARK Flexibility Score: inf
ROOT
ATOM      1  C   UNL A   1      31.651  26.965  26.196  1.00  0.00     0.117 C 
ENDROOT
BRANCH   1   2
ATOM      2  N   UNL A   1      30.600  26.000  26.433  1.00  0.00    -0.354 N 
ATOM      3  C   UNL A   1      30.734  24.644  26.527  1.00  0.00     0.245 C 
ATOM      4  O   UNL A   1      29.831  24.010  27.079  1.00  0.00    -0.273 OA
ATOM      5  H   UNL A   1      29.689  26.360  26.538  1.00  0.00     0.163 HD
BRANCH   3   6
ATOM      6  C   UNL A   1      31.962  23.932  25.928  1.00  0.00     0.200 C 
BRANCH   6   7
ATOM      7  C   UNL A   1      32.055  22.533  26.628  1.00  0.00     0.143 C 
ATOM      8  C   UNL A   1      33.182  21.643  26.112  1.00  0.00     0.041 C 
BRANCH   7   9
ATOM      9  O   UNL A   1      32.267  22.686  28.034  1.00  0.00    -0.391 OA
ATOM     10  H   UNL A   1      33.095  23.166  28.186  1.00  0.00     0.211 HD
ENDBRANCH   7   9
ENDBRANCH   6   7
BRANCH   6  11
ATOM     11  N   UNL A   1      31.998  23.802  24.450  1.00  0.00    -0.341 N 
ATOM     12  C   UNL A   1      32.908  24.219  23.522  1.00  0.00     0.231 C 
ATOM     13  H   UNL A   1      31.224  23.326  24.069  1.00  0.00     0.164 HD
ATOM     14  O   UNL A   1      33.094  23.453  22.570  1.00  0.00    -0.274 OA
BRANCH  12  15
ATOM     15  C   UNL A   1      33.540  25.593  23.577  1.00  0.00     0.174 C 
BRANCH  15  16
ATOM     16  S   UNL A   1      32.998  26.690  22.186  1.00  0.00    -0.116 SA
BRANCH  16  17
ATOM     17  C   UNL A   1      31.490  27.533  22.679  1.00  0.00     0.011 A 
ATOM     18  C   UNL A   1      31.519  28.931  22.708  1.00  0.00     0.035 A 
ATOM     19  C   UNL A   1      30.262  26.918  22.915  1.00  0.00     0.035 A 
ATOM     20  C   UNL A   1      30.354  29.633  22.988  1.00  0.00     0.112 A 
ATOM     21  C   UNL A   1      29.151  27.702  23.204  1.00  0.00     0.112 A 
ATOM     22  N   UNL A   1      29.170  29.046  23.250  1.00  0.00    -0.265 NA
ENDBRANCH  16  17
ENDBRANCH  15  16
ENDBRANCH  12  15
ENDBRANCH   6  11
ENDBRANCH   3   6
ENDBRANCH   1   2
BRANCH   1  23
ATOM     23  C   UNL A   1      32.244  27.546  27.455  1.00  0.00     0.042 C 
BRANCH  23  24
ATOM     24  C   UNL A   1      33.524  28.318  27.190  1.00  0.00     0.118 C 
BRANCH  24  25
ATOM     25  N   UNL A   1      33.440  29.735  27.540  1.00  0.00    -0.352 N 
ATOM     26  C   UNL A   1      34.398  30.571  28.060  1.00  0.00     0.251 C 
ATOM     27  H   UNL A   1      32.563  30.153  27.378  1.00  0.00     0.163 HD
ATOM     28  O   UNL A   1      34.126  31.730  28.363  1.00  0.00    -0.269 OA
BRANCH  26  29
ATOM     29  C   UNL A   1      35.762  30.059  28.257  1.00  0.00     0.039 A 
ATOM     30  C   UNL A   1      36.685  30.112  27.210  1.00  0.00     0.014 A 
ATOM     31  C   UNL A   1      36.128  29.562  29.507  1.00  0.00     0.014 A 
ATOM     32  C   UNL A   1      38.004  29.721  27.445  1.00  0.00     0.010 A 
ATOM     33  C   UNL A   1      37.460  29.304  29.772  1.00  0.00     0.010 A 
ATOM     34  C   UNL A   1      38.408  29.352  28.738  1.00  0.00    -0.014 A 
BRANCH  34  35
ATOM     35  C   UNL A   1      39.800  28.959  29.057  1.00  0.00     0.031 A 
ATOM     36  C   UNL A   1      40.740  29.993  29.617  1.00  0.00     0.074 A 
ATOM     37  C   UNL A   1      40.243  27.729  28.731  1.00  0.00     0.049 A 
ATOM     38  N   UNL A   1      42.032  29.930  29.795  1.00  0.00    -0.248 NA
ATOM     39  C   UNL A   1      40.150  31.297  29.971  1.00  0.00     0.031 C 
ATOM     40  C   UNL A   1      39.435  26.667  28.130  1.00  0.00     0.029 A 
ATOM     41  N   UNL A   1      41.493  27.176  28.836  1.00  0.00    -0.354 N 
ATOM     42  C   UNL A   1      42.411  31.191  30.240  1.00  0.00     0.074 A 
ATOM     43  C   UNL A   1      41.226  32.018  30.240  1.00  0.00     0.031 C 
ATOM     44  C   UNL A   1      40.204  25.585  27.935  1.00  0.00     0.029 A 
ATOM     45  C   UNL A   1      41.569  25.893  28.351  1.00  0.00     0.049 A 
ATOM     46  H   UNL A   1      42.263  27.653  29.224  1.00  0.00     0.167 HD
ATOM     47  C   UNL A   1      43.635  31.613  30.639  1.00  0.00     0.037 A 
ATOM     48  C   UNL A   1      42.626  25.065  28.238  1.00  0.00     0.037 A 
ATOM     49  C   UNL A   1      44.792  30.761  30.672  1.00  0.00     0.049 A 
ATOM     50  C   UNL A   1      43.971  25.541  28.713  1.00  0.00     0.074 A 
ATOM     51  C   UNL A   1      46.063  31.053  31.133  1.00  0.00     0.029 A 
ATOM     52  N   UNL A   1      44.819  29.447  30.223  1.00  0.00    -0.354 N 
ATOM     53  N   UNL A   1      44.306  26.715  29.197  1.00  0.00    -0.248 NA
ATOM     54  C   UNL A   1      45.080  24.583  28.639  1.00  0.00     0.031 C 
ATOM     55  C   UNL A   1      46.871  29.931  30.915  1.00  0.00     0.029 A 
ATOM     56  C   UNL A   1      46.090  28.921  30.375  1.00  0.00     0.049 A 
ATOM     57  H   UNL A   1      44.047  28.961  29.853  1.00  0.00     0.167 HD
ATOM     58  C   UNL A   1      45.658  26.629  29.506  1.00  0.00     0.074 A 
ATOM     59  C   UNL A   1      46.074  25.282  29.167  1.00  0.00     0.031 C 
ATOM     60  C   UNL A   1      46.480  27.575  30.027  1.00  0.00     0.037 A 
BRANCH  47  61
ATOM     61  C   UNL A   1      43.772  33.052  31.061  1.00  0.00     0.058 A 
ATOM     62  C   UNL A   1      43.626  33.454  32.400  1.00  0.00     0.135 A 
ATOM     63  C   UNL A   1      44.050  34.049  30.110  1.00  0.00     0.135 A 
ATOM     64  F   UNL A   1      43.344  32.550  33.351  1.00  0.00    -0.206 F 
ATOM     65  C   UNL A   1      43.703  34.792  32.773  1.00  0.00     0.059 A 
ATOM     66  C   UNL A   1      44.168  35.389  30.468  1.00  0.00     0.059 A 
ATOM     67  F   UNL A   1      44.199  33.727  28.816  1.00  0.00    -0.206 F 
ATOM     68  C   UNL A   1      43.970  35.754  31.799  1.00  0.00     0.060 A 
BRANCH  68  69
ATOM     69  S   UNL A   1      44.051  37.487  32.296  1.00  0.00     0.124 S 
ATOM     70  O   UNL A   1      45.431  37.590  32.762  1.00  0.00    -0.237 OA
ATOM     71  O   UNL A   1      43.750  38.182  31.049  1.00  0.00    -0.237 OA
ATOM     72  O   UNL A   1      43.029  37.591  33.332  1.00  0.00    -0.744 OA
ENDBRANCH  68  69
ENDBRANCH  47  61
BRANCH  48  73
ATOM     73  C   UNL A   1      42.435  23.700  27.679  1.00  0.00     0.058 A 
ATOM     74  C   UNL A   1      42.510  23.471  26.298  1.00  0.00     0.135 A 
ATOM     75  C   UNL A   1      42.234  22.591  28.516  1.00  0.00     0.135 A 
ATOM     76  F   UNL A   1      42.696  24.500  25.456  1.00  0.00    -0.206 F 
ATOM     77  C   UNL A   1      42.391  22.192  25.763  1.00  0.00     0.059 A 
ATOM     78  C   UNL A   1      42.137  21.299  28.008  1.00  0.00     0.059 A 
ATOM     79  F   UNL A   1      42.174  22.754  29.846  1.00  0.00    -0.206 F 
ATOM     80  C   UNL A   1      42.214  21.111  26.627  1.00  0.00     0.060 A 
BRANCH  80  81
ATOM     81  S   UNL A   1      42.143  19.447  25.928  1.00  0.00     0.124 S 
ATOM     82  O   UNL A   1      40.716  19.292  25.678  1.00  0.00    -0.237 OA
ATOM     83  O   UNL A   1      42.989  19.576  24.746  1.00  0.00    -0.237 OA
ATOM     84  O   UNL A   1      42.692  18.611  26.993  1.00  0.00    -0.744 OA
ENDBRANCH  80  81
ENDBRANCH  48  73
BRANCH  60  85
ATOM     85  C   UNL A   1      47.907  27.179  30.289  1.00  0.00     0.058 A 
ATOM     86  C   UNL A   1      48.928  27.434  29.362  1.00  0.00     0.135 A 
ATOM     87  C   UNL A   1      48.262  26.588  31.513  1.00  0.00     0.135 A 
ATOM     88  F   UNL A   1      48.641  27.992  28.175  1.00  0.00    -0.206 F 
ATOM     89  C   UNL A   1      50.249  27.091  29.627  1.00  0.00     0.059 A 
ATOM     90  C   UNL A   1      49.581  26.266  31.811  1.00  0.00     0.059 A 
ATOM     91  F   UNL A   1      47.325  26.334  32.441  1.00  0.00    -0.206 F 
ATOM     92  C   UNL A   1      50.567  26.510  30.856  1.00  0.00     0.060 A 
BRANCH  92  93
ATOM     93  S   UNL A   1      52.290  26.099  31.199  1.00  0.00     0.124 S 
ATOM     94  O   UNL A   1      52.869  26.123  29.860  1.00  0.00    -0.237 OA
ATOM     95  O   UNL A   1      52.698  27.185  32.085  1.00  0.00    -0.237 OA
ATOM     96  O   UNL A   1      52.209  24.784  31.825  1.00  0.00    -0.744 OA
ENDBRANCH  92  93
ENDBRANCH  60  85
ENDBRANCH  34  35
ENDBRANCH  26  29
ENDBRANCH  24  25
ENDBRANCH  23  24
ENDBRANCH   1  23
TORSDOF 19
ENDMDL
