MODEL 1
REMARK VINA RESULT:     -12.8      0.000      0.000
REMARK SMILES O=C(NCCCNC(=O)[C@H]1CCC(=O)N(C2CCCCC2)[C@H]1c1ccccc1)c1ccc(-c2c3nc(c(-c4c(F)cc(S(=O)(=O)[O-])cc4F)c4ccc([nH]4)c(-c4c(F)cc(S(=O)(=O)[O-])cc4F)c4nc(c(-c5c(F)cc(S(=O)(=O)[O-])cc5F)c5ccc2[nH]5)C=C4)C=C3)cc1
REMARK SMILES IDX 4 1 3 2 1 3 2 4 29 6 30 7 94 8 31 9 93 10 32 11 33 12 34 13
REMARK SMILES IDX 87 14 35 15 92 16 86 17 88 18 36 19 91 20 85 21 84 22 37 24
REMARK SMILES IDX 71 25 50 26 70 27 51 28 54 29 69 30 89 31 52 32 53 33 68 35
REMARK SMILES IDX 90 36 55 37 38 38 39 39 48 40 40 41 41 42 47 43 49 44 42 45
REMARK SMILES IDX 43 46 44 47 45 48 46 49 72 50 73 51 82 52 74 53 75 54 81 55
REMARK SMILES IDX 83 56 76 57 77 58 78 59 79 60 80 61 56 62 57 63 66 64 58 65
REMARK SMILES IDX 59 66 65 67 67 68 60 69 61 70 62 71 63 72 64 73 5 74 6 75
REMARK SMILES IDX 7 76 8 77 9 79 10 80 11 81 22 82 12 83 15 84 13 85 14 86
REMARK SMILES IDX 23 87 24 88 28 89 25 90 27 91 26 92 16 93 17 94 21 95 18 96
REMARK SMILES IDX 20 97 19 98
REMARK H PARENT 3 5 88 23 54 34 7 78
REMARK Flexibility Score: inf
ROOT
ATOM      1  C   UNL A   1      38.541  24.041  26.696  1.00  0.00     0.118 C 
ENDROOT
BRANCH   1   2
ATOM      2  N   UNL A   1      39.780  24.354  25.986  1.00  0.00    -0.352 N 
ATOM      3  O   UNL A   1      41.509  25.637  25.325  1.00  0.00    -0.269 OA
ATOM      4  C   UNL A   1      40.641  25.413  26.154  1.00  0.00     0.251 C 
ATOM      5  H   UNL A   1      40.035  23.713  25.284  1.00  0.00     0.163 HD
BRANCH   4   6
ATOM      6  C   UNL A   1      40.489  26.275  27.344  1.00  0.00     0.039 A 
ATOM      7  C   UNL A   1      41.197  27.473  27.425  1.00  0.00     0.014 A 
ATOM      8  C   UNL A   1      39.647  25.880  28.388  1.00  0.00     0.014 A 
ATOM      9  C   UNL A   1      41.210  28.184  28.611  1.00  0.00     0.010 A 
ATOM     10  C   UNL A   1      39.559  26.671  29.536  1.00  0.00     0.010 A 
ATOM     11  C   UNL A   1      40.359  27.816  29.664  1.00  0.00    -0.014 A 
BRANCH  11  12
ATOM     12  C   UNL A   1      40.261  28.724  30.831  1.00  0.00     0.031 A 
ATOM     13  C   UNL A   1      41.203  28.613  31.993  1.00  0.00     0.074 A 
ATOM     14  C   UNL A   1      39.331  29.698  30.782  1.00  0.00     0.049 A 
ATOM     15  N   UNL A   1      41.264  29.357  33.066  1.00  0.00    -0.248 NA
ATOM     16  C   UNL A   1      42.196  27.528  31.957  1.00  0.00     0.031 C 
ATOM     17  C   UNL A   1      38.358  29.879  29.697  1.00  0.00     0.029 A 
ATOM     18  N   UNL A   1      39.067  30.736  31.634  1.00  0.00    -0.354 N 
ATOM     19  C   UNL A   1      42.283  28.822  33.845  1.00  0.00     0.074 A 
ATOM     20  C   UNL A   1      42.804  27.678  33.128  1.00  0.00     0.031 C 
ATOM     21  C   UNL A   1      37.655  30.999  29.913  1.00  0.00     0.029 A 
ATOM     22  C   UNL A   1      38.068  31.569  31.188  1.00  0.00     0.049 A 
ATOM     23  H   UNL A   1      39.546  30.875  32.482  1.00  0.00     0.167 HD
ATOM     24  C   UNL A   1      42.737  29.255  35.046  1.00  0.00     0.037 A 
ATOM     25  C   UNL A   1      37.525  32.663  31.752  1.00  0.00     0.037 A 
ATOM     26  C   UNL A   1      42.215  30.409  35.734  1.00  0.00     0.049 A 
ATOM     27  C   UNL A   1      38.049  33.114  33.081  1.00  0.00     0.074 A 
ATOM     28  C   UNL A   1      42.616  30.944  36.947  1.00  0.00     0.029 A 
ATOM     29  N   UNL A   1      41.180  31.210  35.269  1.00  0.00    -0.354 N 
ATOM     30  N   UNL A   1      39.018  32.597  33.799  1.00  0.00    -0.248 NA
ATOM     31  C   UNL A   1      37.404  34.285  33.683  1.00  0.00     0.031 C 
ATOM     32  C   UNL A   1      41.802  32.046  37.231  1.00  0.00     0.029 A 
ATOM     33  C   UNL A   1      40.919  32.224  36.176  1.00  0.00     0.049 A 
ATOM     34  H   UNL A   1      40.702  31.076  34.419  1.00  0.00     0.167 HD
ATOM     35  C   UNL A   1      39.098  33.381  34.942  1.00  0.00     0.074 A 
ATOM     36  C   UNL A   1      38.101  34.425  34.801  1.00  0.00     0.031 C 
ATOM     37  C   UNL A   1      39.915  33.244  36.015  1.00  0.00     0.037 A 
BRANCH  24  38
ATOM     38  C   UNL A   1      43.840  28.473  35.706  1.00  0.00     0.058 A 
ATOM     39  C   UNL A   1      45.193  28.763  35.473  1.00  0.00     0.135 A 
ATOM     40  C   UNL A   1      43.538  27.459  36.630  1.00  0.00     0.135 A 
ATOM     41  F   UNL A   1      45.538  29.711  34.587  1.00  0.00    -0.206 F 
ATOM     42  C   UNL A   1      46.208  28.067  36.123  1.00  0.00     0.059 A 
ATOM     43  C   UNL A   1      44.537  26.764  37.308  1.00  0.00     0.059 A 
ATOM     44  F   UNL A   1      42.260  27.138  36.888  1.00  0.00    -0.206 F 
ATOM     45  C   UNL A   1      45.871  27.070  37.039  1.00  0.00     0.060 A 
BRANCH  45  46
ATOM     46  S   UNL A   1      47.199  26.190  37.890  1.00  0.00     0.124 S 
ATOM     47  O   UNL A   1      48.142  25.964  36.799  1.00  0.00    -0.237 OA
ATOM     48  O   UNL A   1      47.618  27.158  38.898  1.00  0.00    -0.237 OA
ATOM     49  O   UNL A   1      46.540  24.995  38.407  1.00  0.00    -0.744 OA
ENDBRANCH  45  46
ENDBRANCH  24  38
BRANCH  25  50
ATOM     50  C   UNL A   1      36.415  33.373  31.068  1.00  0.00     0.058 A 
ATOM     51  C   UNL A   1      35.104  33.318  31.562  1.00  0.00     0.135 A 
ATOM     52  C   UNL A   1      36.652  34.149  29.922  1.00  0.00     0.135 A 
ATOM     53  F   UNL A   1      34.829  32.591  32.655  1.00  0.00    -0.206 F 
ATOM     54  C   UNL A   1      34.063  33.995  30.935  1.00  0.00     0.059 A 
ATOM     55  C   UNL A   1      35.634  34.859  29.296  1.00  0.00     0.059 A 
ATOM     56  F   UNL A   1      37.895  34.252  29.425  1.00  0.00    -0.206 F 
ATOM     57  C   UNL A   1      34.339  34.764  29.803  1.00  0.00     0.060 A 
BRANCH  57  58
ATOM     58  S   UNL A   1      32.994  35.678  29.020  1.00  0.00     0.124 S 
ATOM     59  O   UNL A   1      32.366  34.638  28.214  1.00  0.00    -0.237 OA
ATOM     60  O   UNL A   1      32.228  36.148  30.169  1.00  0.00    -0.237 OA
ATOM     61  O   UNL A   1      33.691  36.723  28.275  1.00  0.00    -0.744 OA
ENDBRANCH  57  58
ENDBRANCH  25  50
BRANCH  37  62
ATOM     62  C   UNL A   1      39.760  34.260  37.110  1.00  0.00     0.058 A 
ATOM     63  C   UNL A   1      40.426  35.494  37.061  1.00  0.00     0.135 A 
ATOM     64  C   UNL A   1      38.929  33.998  38.210  1.00  0.00     0.135 A 
ATOM     65  F   UNL A   1      41.241  35.782  36.034  1.00  0.00    -0.206 F 
ATOM     66  C   UNL A   1      40.297  36.425  38.085  1.00  0.00     0.059 A 
ATOM     67  C   UNL A   1      38.766  34.927  39.232  1.00  0.00     0.059 A 
ATOM     68  F   UNL A   1      38.266  32.835  38.297  1.00  0.00    -0.206 F 
ATOM     69  C   UNL A   1      39.467  36.131  39.168  1.00  0.00     0.060 A 
BRANCH  69  70
ATOM     70  S   UNL A   1      39.295  37.352  40.485  1.00  0.00     0.124 S 
ATOM     71  O   UNL A   1      38.279  38.240  39.930  1.00  0.00    -0.237 OA
ATOM     72  O   UNL A   1      38.872  36.535  41.619  1.00  0.00    -0.237 OA
ATOM     73  O   UNL A   1      40.635  37.920  40.596  1.00  0.00    -0.744 OA
ENDBRANCH  69  70
ENDBRANCH  37  62
ENDBRANCH  11  12
ENDBRANCH   4   6
ENDBRANCH   1   2
BRANCH   1  74
ATOM     74  C   UNL A   1      37.683  23.055  25.930  1.00  0.00     0.042 C 
BRANCH  74  75
ATOM     75  C   UNL A   1      36.951  23.727  24.790  1.00  0.00     0.117 C 
BRANCH  75  76
ATOM     76  N   UNL A   1      35.844  22.942  24.283  1.00  0.00    -0.356 N 
ATOM     77  C   UNL A   1      34.713  23.336  23.646  1.00  0.00     0.225 C 
ATOM     78  H   UNL A   1      35.925  21.971  24.425  1.00  0.00     0.163 HD
ATOM     79  O   UNL A   1      34.032  22.454  23.110  1.00  0.00    -0.275 OA
BRANCH  77  80
ATOM     80  C   UNL A   1      34.281  24.792  23.538  1.00  0.00     0.106 C 
ATOM     81  C   UNL A   1      33.427  25.141  22.327  1.00  0.00     0.026 C 
ATOM     82  C   UNL A   1      33.744  25.418  24.841  1.00  0.00     0.128 C 
ATOM     83  C   UNL A   1      33.415  26.642  22.166  1.00  0.00     0.101 C 
ATOM     84  N   UNL A   1      33.311  26.829  24.657  1.00  0.00    -0.332 N 
ATOM     85  C   UNL A   1      33.010  27.393  23.418  1.00  0.00     0.223 C 
ATOM     86  O   UNL A   1      32.531  28.521  23.292  1.00  0.00    -0.275 OA
BRANCH  82  87
ATOM     87  C   UNL A   1      32.700  24.588  25.589  1.00  0.00    -0.025 A 
ATOM     88  C   UNL A   1      31.336  24.601  25.245  1.00  0.00     0.006 A 
ATOM     89  C   UNL A   1      33.111  23.723  26.622  1.00  0.00     0.006 A 
ATOM     90  C   UNL A   1      30.422  23.766  25.894  1.00  0.00     0.000 A 
ATOM     91  C   UNL A   1      32.198  22.877  27.258  1.00  0.00     0.000 A 
ATOM     92  C   UNL A   1      30.855  22.896  26.892  1.00  0.00     0.000 A 
ENDBRANCH  82  87
BRANCH  84  93
ATOM     93  C   UNL A   1      33.191  27.658  25.880  1.00  0.00     0.085 C 
ATOM     94  C   UNL A   1      34.320  28.703  25.953  1.00  0.00     0.025 C 
ATOM     95  C   UNL A   1      31.798  28.289  26.069  1.00  0.00     0.025 C 
ATOM     96  C   UNL A   1      34.209  29.584  27.192  1.00  0.00     0.002 C 
ATOM     97  C   UNL A   1      31.734  29.173  27.311  1.00  0.00     0.002 C 
ATOM     98  C   UNL A   1      32.832  30.228  27.297  1.00  0.00     0.000 C 
ENDBRANCH  84  93
ENDBRANCH  77  80
ENDBRANCH  75  76
ENDBRANCH  74  75
ENDBRANCH   1  74
TORSDOF 15
ENDMDL
MODEL 2
REMARK VINA RESULT:     -12.6      6.775     12.118
REMARK SMILES O=C(NCCCNC(=O)[C@H]1CCC(=O)N(C2CCCCC2)[C@H]1c1ccccc1)c1ccc(-c2c3nc(c(-c4c(F)cc(S(=O)(=O)[O-])cc4F)c4ccc([nH]4)c(-c4c(F)cc(S(=O)(=O)[O-])cc4F)c4nc(c(-c5c(F)cc(S(=O)(=O)[O-])cc5F)c5ccc2[nH]5)C=C4)C=C3)cc1
REMARK SMILES IDX 4 1 3 2 1 3 2 4 29 6 30 7 94 8 31 9 93 10 32 11 33 12 34 13
REMARK SMILES IDX 87 14 35 15 92 16 86 17 88 18 36 19 91 20 85 21 84 22 37 24
REMARK SMILES IDX 71 25 50 26 70 27 51 28 54 29 69 30 89 31 52 32 53 33 68 35
REMARK SMILES IDX 90 36 55 37 38 38 39 39 48 40 40 41 41 42 47 43 49 44 42 45
REMARK SMILES IDX 43 46 44 47 45 48 46 49 72 50 73 51 82 52 74 53 75 54 81 55
REMARK SMILES IDX 83 56 76 57 77 58 78 59 79 60 80 61 56 62 57 63 66 64 58 65
REMARK SMILES IDX 59 66 65 67 67 68 60 69 61 70 62 71 63 72 64 73 5 74 6 75
REMARK SMILES IDX 7 76 8 77 9 79 10 80 11 81 22 82 12 83 15 84 13 85 14 86
REMARK SMILES IDX 23 87 24 88 28 89 25 90 27 91 26 92 16 93 17 94 21 95 18 96
REMARK SMILES IDX 20 97 19 98
REMARK H PARENT 3 5 88 23 54 34 7 78
REMARK Flexibility Score: inf
ROOT
ATOM      1  C   UNL A   1      35.274  29.387  27.493  1.00  0.00     0.118 C 
ENDROOT
BRANCH   1   2
ATOM      2  N   UNL A   1      35.269  29.799  28.895  1.00  0.00    -0.352 N 
ATOM      3  O   UNL A   1      36.029  29.915  31.013  1.00  0.00    -0.269 OA
ATOM      4  C   UNL A   1      36.275  29.732  29.831  1.00  0.00     0.251 C 
ATOM      5  H   UNL A   1      34.421  30.180  29.218  1.00  0.00     0.163 HD
BRANCH   4   6
ATOM      6  C   UNL A   1      37.649  29.426  29.381  1.00  0.00     0.039 A 
ATOM      7  C   UNL A   1      38.571  28.902  30.286  1.00  0.00     0.014 A 
ATOM      8  C   UNL A   1      38.020  29.674  28.057  1.00  0.00     0.014 A 
ATOM      9  C   UNL A   1      39.902  28.797  29.925  1.00  0.00     0.010 A 
ATOM     10  C   UNL A   1      39.338  29.440  27.658  1.00  0.00     0.010 A 
ATOM     11  C   UNL A   1      40.293  29.023  28.596  1.00  0.00    -0.014 A 
BRANCH  11  12
ATOM     12  C   UNL A   1      41.689  28.701  28.217  1.00  0.00     0.031 A 
ATOM     13  C   UNL A   1      42.776  29.732  28.276  1.00  0.00     0.074 A 
ATOM     14  C   UNL A   1      41.960  27.426  27.874  1.00  0.00     0.049 A 
ATOM     15  N   UNL A   1      44.049  29.591  28.010  1.00  0.00    -0.248 NA
ATOM     16  C   UNL A   1      42.394  31.096  28.672  1.00  0.00     0.031 C 
ATOM     17  C   UNL A   1      40.964  26.351  27.775  1.00  0.00     0.029 A 
ATOM     18  N   UNL A   1      43.142  26.802  27.583  1.00  0.00    -0.354 N 
ATOM     19  C   UNL A   1      44.617  30.848  28.184  1.00  0.00     0.074 A 
ATOM     20  C   UNL A   1      43.547  31.745  28.563  1.00  0.00     0.031 C 
ATOM     21  C   UNL A   1      41.584  25.193  27.517  1.00  0.00     0.029 A 
ATOM     22  C   UNL A   1      43.007  25.454  27.351  1.00  0.00     0.049 A 
ATOM     23  H   UNL A   1      44.006  27.272  27.544  1.00  0.00     0.167 HD
ATOM     24  C   UNL A   1      45.915  31.208  28.041  1.00  0.00     0.037 A 
ATOM     25  C   UNL A   1      43.925  24.528  27.019  1.00  0.00     0.037 A 
ATOM     26  C   UNL A   1      46.969  30.292  27.680  1.00  0.00     0.049 A 
ATOM     27  C   UNL A   1      45.352  24.960  26.867  1.00  0.00     0.074 A 
ATOM     28  C   UNL A   1      48.320  30.551  27.526  1.00  0.00     0.029 A 
ATOM     29  N   UNL A   1      46.791  28.940  27.419  1.00  0.00    -0.354 N 
ATOM     30  N   UNL A   1      45.870  26.153  27.041  1.00  0.00    -0.248 NA
ATOM     31  C   UNL A   1      46.315  23.930  26.464  1.00  0.00     0.031 C 
ATOM     32  C   UNL A   1      48.953  29.364  27.139  1.00  0.00     0.029 A 
ATOM     33  C   UNL A   1      48.003  28.355  27.091  1.00  0.00     0.049 A 
ATOM     34  H   UNL A   1      45.929  28.467  27.462  1.00  0.00     0.167 HD
ATOM     35  C   UNL A   1      47.224  26.017  26.767  1.00  0.00     0.074 A 
ATOM     36  C   UNL A   1      47.446  24.620  26.448  1.00  0.00     0.031 C 
ATOM     37  C   UNL A   1      48.194  26.964  26.770  1.00  0.00     0.037 A 
BRANCH  24  38
ATOM     38  C   UNL A   1      46.273  32.653  28.255  1.00  0.00     0.058 A 
ATOM     39  C   UNL A   1      46.696  33.132  29.505  1.00  0.00     0.135 A 
ATOM     40  C   UNL A   1      46.250  33.559  27.181  1.00  0.00     0.135 A 
ATOM     41  F   UNL A   1      46.721  32.314  30.569  1.00  0.00    -0.206 F 
ATOM     42  C   UNL A   1      47.071  34.460  29.685  1.00  0.00     0.059 A 
ATOM     43  C   UNL A   1      46.640  34.887  27.334  1.00  0.00     0.059 A 
ATOM     44  F   UNL A   1      45.850  33.155  25.965  1.00  0.00    -0.206 F 
ATOM     45  C   UNL A   1      47.041  35.330  28.594  1.00  0.00     0.060 A 
BRANCH  45  46
ATOM     46  S   UNL A   1      47.550  37.046  28.840  1.00  0.00     0.124 S 
ATOM     47  O   UNL A   1      48.514  36.909  29.927  1.00  0.00    -0.237 OA
ATOM     48  O   UNL A   1      48.108  37.395  27.538  1.00  0.00    -0.237 OA
ATOM     49  O   UNL A   1      46.305  37.724  29.187  1.00  0.00    -0.744 OA
ENDBRANCH  45  46
ENDBRANCH  24  38
BRANCH  25  50
ATOM     50  C   UNL A   1      43.505  23.123  26.786  1.00  0.00     0.058 A 
ATOM     51  C   UNL A   1      43.471  22.579  25.495  1.00  0.00     0.135 A 
ATOM     52  C   UNL A   1      43.162  22.285  27.860  1.00  0.00     0.135 A 
ATOM     53  F   UNL A   1      43.791  23.341  24.438  1.00  0.00    -0.206 F 
ATOM     54  C   UNL A   1      43.095  21.258  25.272  1.00  0.00     0.059 A 
ATOM     55  C   UNL A   1      42.813  20.954  27.665  1.00  0.00     0.059 A 
ATOM     56  F   UNL A   1      43.203  22.752  29.117  1.00  0.00    -0.206 F 
ATOM     57  C   UNL A   1      42.769  20.454  26.365  1.00  0.00     0.060 A 
BRANCH  57  58
ATOM     58  S   UNL A   1      42.326  18.728  26.077  1.00  0.00     0.124 S 
ATOM     59  O   UNL A   1      40.915  18.843  25.729  1.00  0.00    -0.237 OA
ATOM     60  O   UNL A   1      43.225  18.355  24.989  1.00  0.00    -0.237 OA
ATOM     61  O   UNL A   1      42.613  18.091  27.359  1.00  0.00    -0.744 OA
ENDBRANCH  57  58
ENDBRANCH  25  50
BRANCH  37  62
ATOM     62  C   UNL A   1      49.580  26.505  26.423  1.00  0.00     0.058 A 
ATOM     63  C   UNL A   1      50.063  26.568  25.107  1.00  0.00     0.135 A 
ATOM     64  C   UNL A   1      50.435  26.009  27.418  1.00  0.00     0.135 A 
ATOM     65  F   UNL A   1      49.277  27.025  24.120  1.00  0.00    -0.206 F 
ATOM     66  C   UNL A   1      51.341  26.126  24.784  1.00  0.00     0.059 A 
ATOM     67  C   UNL A   1      51.726  25.584  27.121  1.00  0.00     0.059 A 
ATOM     68  F   UNL A   1      50.020  25.935  28.693  1.00  0.00    -0.206 F 
ATOM     69  C   UNL A   1      52.163  25.632  25.798  1.00  0.00     0.060 A 
BRANCH  69  70
ATOM     70  S   UNL A   1      53.825  25.072  25.370  1.00  0.00     0.124 S 
ATOM     71  O   UNL A   1      53.587  23.668  25.053  1.00  0.00    -0.237 OA
ATOM     72  O   UNL A   1      54.164  25.929  24.238  1.00  0.00    -0.237 OA
ATOM     73  O   UNL A   1      54.589  25.321  26.588  1.00  0.00    -0.744 OA
ENDBRANCH  69  70
ENDBRANCH  37  62
ENDBRANCH  11  12
ENDBRANCH   4   6
ENDBRANCH   1   2
BRANCH   1  74
ATOM     74  C   UNL A   1      33.889  29.439  26.883  1.00  0.00     0.042 C 
BRANCH  74  75
ATOM     75  C   UNL A   1      33.066  28.232  27.271  1.00  0.00     0.117 C 
BRANCH  75  76
ATOM     76  N   UNL A   1      31.967  27.975  26.362  1.00  0.00    -0.356 N 
ATOM     77  C   UNL A   1      31.442  26.799  25.936  1.00  0.00     0.225 C 
ATOM     78  H   UNL A   1      31.536  28.780  25.996  1.00  0.00     0.163 HD
ATOM     79  O   UNL A   1      30.360  26.848  25.341  1.00  0.00    -0.275 OA
BRANCH  77  80
ATOM     80  C   UNL A   1      32.102  25.450  26.190  1.00  0.00     0.106 C 
ATOM     81  C   UNL A   1      31.159  24.260  26.289  1.00  0.00     0.026 C 
ATOM     82  C   UNL A   1      33.343  25.152  25.326  1.00  0.00     0.128 C 
ATOM     83  C   UNL A   1      31.907  23.106  26.912  1.00  0.00     0.101 C 
ATOM     84  N   UNL A   1      33.918  23.808  25.602  1.00  0.00    -0.332 N 
ATOM     85  C   UNL A   1      33.214  22.775  26.221  1.00  0.00     0.223 C 
ATOM     86  O   UNL A   1      33.657  21.631  26.328  1.00  0.00    -0.275 OA
BRANCH  82  87
ATOM     87  C   UNL A   1      33.180  25.410  23.827  1.00  0.00    -0.025 A 
ATOM     88  C   UNL A   1      32.593  24.474  22.958  1.00  0.00     0.006 A 
ATOM     89  C   UNL A   1      33.568  26.654  23.292  1.00  0.00     0.006 A 
ATOM     90  C   UNL A   1      32.382  24.778  21.609  1.00  0.00     0.000 A 
ATOM     91  C   UNL A   1      33.341  26.962  21.947  1.00  0.00     0.000 A 
ATOM     92  C   UNL A   1      32.745  26.025  21.108  1.00  0.00     0.000 A 
ENDBRANCH  82  87
BRANCH  84  93
ATOM     93  C   UNL A   1      35.318  23.576  25.174  1.00  0.00     0.085 C 
ATOM     94  C   UNL A   1      36.257  23.470  26.390  1.00  0.00     0.025 C 
ATOM     95  C   UNL A   1      35.484  22.393  24.202  1.00  0.00     0.025 C 
ATOM     96  C   UNL A   1      37.703  23.211  25.980  1.00  0.00     0.002 C 
ATOM     97  C   UNL A   1      36.945  22.160  23.828  1.00  0.00     0.002 C 
ATOM     98  C   UNL A   1      37.814  21.995  25.068  1.00  0.00     0.000 C 
ENDBRANCH  84  93
ENDBRANCH  77  80
ENDBRANCH  75  76
ENDBRANCH  74  75
ENDBRANCH   1  74
TORSDOF 15
ENDMDL
MODEL 3
REMARK VINA RESULT:     -12.4      5.089      9.853
REMARK SMILES O=C(NCCCNC(=O)[C@H]1CCC(=O)N(C2CCCCC2)[C@H]1c1ccccc1)c1ccc(-c2c3nc(c(-c4c(F)cc(S(=O)(=O)[O-])cc4F)c4ccc([nH]4)c(-c4c(F)cc(S(=O)(=O)[O-])cc4F)c4nc(c(-c5c(F)cc(S(=O)(=O)[O-])cc5F)c5ccc2[nH]5)C=C4)C=C3)cc1
REMARK SMILES IDX 4 1 3 2 1 3 2 4 29 6 30 7 94 8 31 9 93 10 32 11 33 12 34 13
REMARK SMILES IDX 87 14 35 15 92 16 86 17 88 18 36 19 91 20 85 21 84 22 37 24
REMARK SMILES IDX 71 25 50 26 70 27 51 28 54 29 69 30 89 31 52 32 53 33 68 35
REMARK SMILES IDX 90 36 55 37 38 38 39 39 48 40 40 41 41 42 47 43 49 44 42 45
REMARK SMILES IDX 43 46 44 47 45 48 46 49 72 50 73 51 82 52 74 53 75 54 81 55
REMARK SMILES IDX 83 56 76 57 77 58 78 59 79 60 80 61 56 62 57 63 66 64 58 65
REMARK SMILES IDX 59 66 65 67 67 68 60 69 61 70 62 71 63 72 64 73 5 74 6 75
REMARK SMILES IDX 7 76 8 77 9 79 10 80 11 81 22 82 12 83 15 84 13 85 14 86
REMARK SMILES IDX 23 87 24 88 28 89 25 90 27 91 26 92 16 93 17 94 21 95 18 96
REMARK SMILES IDX 20 97 19 98
REMARK H PARENT 3 5 88 23 54 34 7 78
REMARK Flexibility Score: inf
ROOT
ATOM      1  C   UNL A   1      33.998  27.842  26.858  1.00  0.00     0.118 C 
ENDROOT
BRANCH   1   2
ATOM      2  N   UNL A   1      33.686  29.236  27.168  1.00  0.00    -0.352 N 
ATOM      3  O   UNL A   1      33.914  31.215  28.219  1.00  0.00    -0.269 OA
ATOM      4  C   UNL A   1      34.425  30.165  27.863  1.00  0.00     0.251 C 
ATOM      5  H   UNL A   1      32.819  29.558  26.829  1.00  0.00     0.163 HD
BRANCH   4   6
ATOM      6  C   UNL A   1      35.837  29.863  28.178  1.00  0.00     0.039 A 
ATOM      7  C   UNL A   1      36.822  30.094  27.219  1.00  0.00     0.014 A 
ATOM      8  C   UNL A   1      36.175  29.339  29.428  1.00  0.00     0.014 A 
ATOM      9  C   UNL A   1      38.109  29.636  27.435  1.00  0.00     0.010 A 
ATOM     10  C   UNL A   1      37.504  28.999  29.693  1.00  0.00     0.010 A 
ATOM     11  C   UNL A   1      38.475  29.122  28.689  1.00  0.00    -0.014 A 
BRANCH  11  12
ATOM     12  C   UNL A   1      39.908  28.835  28.933  1.00  0.00     0.031 A 
ATOM     13  C   UNL A   1      40.525  27.527  28.538  1.00  0.00     0.074 A 
ATOM     14  C   UNL A   1      40.656  29.821  29.468  1.00  0.00     0.049 A 
ATOM     15  N   UNL A   1      41.770  27.145  28.654  1.00  0.00    -0.248 NA
ATOM     16  C   UNL A   1      39.638  26.512  27.948  1.00  0.00     0.031 C 
ATOM     17  C   UNL A   1      40.142  31.128  29.898  1.00  0.00     0.029 A 
ATOM     18  N   UNL A   1      42.000  29.904  29.711  1.00  0.00    -0.354 N 
ATOM     19  C   UNL A   1      41.816  25.840  28.175  1.00  0.00     0.074 A 
ATOM     20  C   UNL A   1      40.469  25.490  27.780  1.00  0.00     0.031 C 
ATOM     21  C   UNL A   1      41.164  31.902  30.284  1.00  0.00     0.029 A 
ATOM     22  C   UNL A   1      42.392  31.124  30.207  1.00  0.00     0.049 A 
ATOM     23  H   UNL A   1      42.625  29.161  29.546  1.00  0.00     0.167 HD
ATOM     24  C   UNL A   1      42.890  25.021  28.074  1.00  0.00     0.037 A 
ATOM     25  C   UNL A   1      43.607  31.566  30.581  1.00  0.00     0.037 A 
ATOM     26  C   UNL A   1      44.228  25.399  28.456  1.00  0.00     0.049 A 
ATOM     27  C   UNL A   1      44.774  30.634  30.458  1.00  0.00     0.074 A 
ATOM     28  C   UNL A   1      45.390  24.650  28.378  1.00  0.00     0.029 A 
ATOM     29  N   UNL A   1      44.584  26.632  28.986  1.00  0.00    -0.354 N 
ATOM     30  N   UNL A   1      44.797  29.405  29.997  1.00  0.00    -0.248 NA
ATOM     31  C   UNL A   1      46.073  31.137  30.915  1.00  0.00     0.031 C 
ATOM     32  C   UNL A   1      46.441  25.418  28.892  1.00  0.00     0.029 A 
ATOM     33  C   UNL A   1      45.943  26.660  29.254  1.00  0.00     0.049 A 
ATOM     34  H   UNL A   1      43.961  27.377  29.147  1.00  0.00     0.167 HD
ATOM     35  C   UNL A   1      46.116  28.987  30.109  1.00  0.00     0.074 A 
ATOM     36  C   UNL A   1      46.862  30.106  30.651  1.00  0.00     0.031 C 
ATOM     37  C   UNL A   1      46.658  27.784  29.801  1.00  0.00     0.037 A 
BRANCH  24  38
ATOM     38  C   UNL A   1      42.667  23.630  27.548  1.00  0.00     0.058 A 
ATOM     39  C   UNL A   1      42.740  23.338  26.177  1.00  0.00     0.135 A 
ATOM     40  C   UNL A   1      42.439  22.562  28.432  1.00  0.00     0.135 A 
ATOM     41  F   UNL A   1      42.939  24.322  25.286  1.00  0.00    -0.206 F 
ATOM     42  C   UNL A   1      42.580  22.040  25.701  1.00  0.00     0.059 A 
ATOM     43  C   UNL A   1      42.297  21.253  27.980  1.00  0.00     0.059 A 
ATOM     44  F   UNL A   1      42.358  22.786  29.754  1.00  0.00    -0.206 F 
ATOM     45  C   UNL A   1      42.360  21.004  26.609  1.00  0.00     0.060 A 
BRANCH  45  46
ATOM     46  S   UNL A   1      42.175  19.322  25.977  1.00  0.00     0.124 S 
ATOM     47  O   UNL A   1      43.035  19.359  24.799  1.00  0.00    -0.237 OA
ATOM     48  O   UNL A   1      42.662  18.515  27.091  1.00  0.00    -0.237 OA
ATOM     49  O   UNL A   1      40.745  19.215  25.707  1.00  0.00    -0.744 OA
ENDBRANCH  45  46
ENDBRANCH  24  38
BRANCH  25  50
ATOM     50  C   UNL A   1      43.758  32.939  31.126  1.00  0.00     0.058 A 
ATOM     51  C   UNL A   1      43.983  34.034  30.281  1.00  0.00     0.135 A 
ATOM     52  C   UNL A   1      43.646  33.185  32.504  1.00  0.00     0.135 A 
ATOM     53  F   UNL A   1      44.096  33.848  28.957  1.00  0.00    -0.206 F 
ATOM     54  C   UNL A   1      44.108  35.325  30.783  1.00  0.00     0.059 A 
ATOM     55  C   UNL A   1      43.737  34.470  33.026  1.00  0.00     0.059 A 
ATOM     56  F   UNL A   1      43.407  32.172  33.351  1.00  0.00    -0.206 F 
ATOM     57  C   UNL A   1      43.983  35.532  32.158  1.00  0.00     0.060 A 
BRANCH  57  58
ATOM     58  S   UNL A   1      44.100  37.215  32.802  1.00  0.00     0.124 S 
ATOM     59  O   UNL A   1      43.965  38.002  31.582  1.00  0.00    -0.237 OA
ATOM     60  O   UNL A   1      42.973  37.272  33.728  1.00  0.00    -0.237 OA
ATOM     61  O   UNL A   1      45.417  37.240  33.431  1.00  0.00    -0.744 OA
ENDBRANCH  57  58
ENDBRANCH  25  50
BRANCH  37  62
ATOM     62  C   UNL A   1      48.133  27.632  30.040  1.00  0.00     0.058 A 
ATOM     63  C   UNL A   1      48.630  27.173  31.269  1.00  0.00     0.135 A 
ATOM     64  C   UNL A   1      49.053  27.938  29.026  1.00  0.00     0.135 A 
ATOM     65  F   UNL A   1      47.788  26.881  32.272  1.00  0.00    -0.206 F 
ATOM     66  C   UNL A   1      49.996  27.051  31.495  1.00  0.00     0.059 A 
ATOM     67  C   UNL A   1      50.422  27.798  29.223  1.00  0.00     0.059 A 
ATOM     68  F   UNL A   1      48.624  28.374  27.830  1.00  0.00    -0.206 F 
ATOM     69  C   UNL A   1      50.884  27.369  30.466  1.00  0.00     0.060 A 
BRANCH  69  70
ATOM     70  S   UNL A   1      52.656  27.194  30.766  1.00  0.00     0.124 S 
ATOM     71  O   UNL A   1      53.006  28.531  31.232  1.00  0.00    -0.237 OA
ATOM     72  O   UNL A   1      52.702  26.138  31.774  1.00  0.00    -0.237 OA
ATOM     73  O   UNL A   1      53.185  26.824  29.457  1.00  0.00    -0.744 OA
ENDBRANCH  69  70
ENDBRANCH  37  62
ENDBRANCH  11  12
ENDBRANCH   4   6
ENDBRANCH   1   2
BRANCH   1  74
ATOM     74  C   UNL A   1      33.943  27.567  25.370  1.00  0.00     0.042 C 
BRANCH  74  75
ATOM     75  C   UNL A   1      34.023  26.086  25.078  1.00  0.00     0.117 C 
BRANCH  75  76
ATOM     76  N   UNL A   1      33.682  25.756  23.708  1.00  0.00    -0.356 N 
ATOM     77  C   UNL A   1      33.879  24.610  23.011  1.00  0.00     0.225 C 
ATOM     78  H   UNL A   1      33.240  26.478  23.206  1.00  0.00     0.163 HD
ATOM     79  O   UNL A   1      33.291  24.500  21.929  1.00  0.00    -0.275 OA
BRANCH  77  80
ATOM     80  C   UNL A   1      34.747  23.465  23.515  1.00  0.00     0.106 C 
ATOM     81  C   UNL A   1      35.928  23.864  24.387  1.00  0.00     0.026 C 
ATOM     82  C   UNL A   1      33.976  22.254  24.080  1.00  0.00     0.128 C 
ATOM     83  C   UNL A   1      36.877  22.693  24.474  1.00  0.00     0.101 C 
ATOM     84  N   UNL A   1      34.883  21.188  24.583  1.00  0.00    -0.332 N 
ATOM     85  C   UNL A   1      36.221  21.400  24.914  1.00  0.00     0.223 C 
ATOM     86  O   UNL A   1      36.925  20.542  25.449  1.00  0.00    -0.275 OA
BRANCH  82  87
ATOM     87  C   UNL A   1      32.869  22.587  25.081  1.00  0.00    -0.025 A 
ATOM     88  C   UNL A   1      33.117  22.755  26.455  1.00  0.00     0.006 A 
ATOM     89  C   UNL A   1      31.556  22.800  24.618  1.00  0.00     0.006 A 
ATOM     90  C   UNL A   1      32.097  23.143  27.328  1.00  0.00     0.000 A 
ATOM     91  C   UNL A   1      30.541  23.204  25.490  1.00  0.00     0.000 A 
ATOM     92  C   UNL A   1      30.813  23.378  26.844  1.00  0.00     0.000 A 
ENDBRANCH  82  87
BRANCH  84  93
ATOM     93  C   UNL A   1      34.303  19.834  24.743  1.00  0.00     0.085 C 
ATOM     94  C   UNL A   1      33.029  19.674  23.892  1.00  0.00     0.025 C 
ATOM     95  C   UNL A   1      35.311  18.692  24.507  1.00  0.00     0.025 C 
ATOM     96  C   UNL A   1      32.421  18.282  24.021  1.00  0.00     0.002 C 
ATOM     97  C   UNL A   1      34.660  17.319  24.633  1.00  0.00     0.002 C 
ATOM     98  C   UNL A   1      33.447  17.195  23.720  1.00  0.00     0.000 C 
ENDBRANCH  84  93
ENDBRANCH  77  80
ENDBRANCH  75  76
ENDBRANCH  74  75
ENDBRANCH   1  74
TORSDOF 15
ENDMDL
