MODEL 1
REMARK VINA RESULT:     -11.9      0.000      0.000
REMARK SMILES CC[C@@](C)(NC(=O)c1cccc(Br)c1C)C(=O)NCCCNC(=O)c1ccc(-c2c3nc(c(-c4c(F)cc(S(=O)(=O)[O-])cc4F)c4ccc([nH]4)c(-c4c(F)cc(S(=O)(=O)[O-])cc4F)c4nc(c(-c5c(F)cc(S(=O)(=O)[O-])cc5F)c5ccc2[nH]5)C=C4)C=C3)cc1
REMARK SMILES IDX 20 1 19 2 18 3 16 4 17 5 3 7 4 8 2 9 1 10 5 11 6 12 7 14
REMARK SMILES IDX 8 15 9 16 14 17 10 18 12 19 15 20 11 21 13 22 21 23 22 24
REMARK SMILES IDX 23 25 24 27 25 28 26 29 90 30 27 31 89 32 28 33 29 34 30 35
REMARK SMILES IDX 83 36 31 37 88 38 82 39 84 40 32 41 87 42 81 43 80 44 33 46
REMARK SMILES IDX 67 47 46 48 66 49 47 50 50 51 65 52 85 53 48 54 49 55 64 57
REMARK SMILES IDX 86 58 51 59 34 60 35 61 44 62 36 63 37 64 43 65 45 66 38 67
REMARK SMILES IDX 39 68 40 69 41 70 42 71 68 72 69 73 78 74 70 75 71 76 77 77
REMARK SMILES IDX 79 78 72 79 73 80 74 81 75 82 76 83 52 84 53 85 62 86 54 87
REMARK SMILES IDX 55 88 61 89 63 90 56 91 57 92 58 93 59 94 60 95
REMARK H PARENT 18 6 5 13 22 26 84 45 50 56
REMARK Flexibility Score: inf
ROOT
ATOM      1  C   UNL A   1      37.496  23.055  25.318  1.00  0.00     0.042 C 
ENDROOT
BRANCH   1   2
ATOM      2  C   UNL A   1      37.449  21.483  25.281  1.00  0.00     0.117 C 
BRANCH   2   3
ATOM      3  N   UNL A   1      36.182  20.737  25.380  1.00  0.00    -0.354 N 
ATOM      4  C   UNL A   1      34.861  20.869  25.032  1.00  0.00     0.245 C 
ATOM      5  O   UNL A   1      34.315  19.765  24.857  1.00  0.00    -0.272 OA
ATOM      6  H   UNL A   1      36.328  19.879  25.840  1.00  0.00     0.163 HD
BRANCH   4   7
ATOM      7  C   UNL A   1      33.968  22.184  24.824  1.00  0.00     0.116 C 
ATOM      8  C   UNL A   1      32.492  21.770  24.681  1.00  0.00     0.045 C 
BRANCH   7   9
ATOM      9  C   UNL A   1      34.103  23.126  26.089  1.00  0.00     0.035 C 
ATOM     10  C   UNL A   1      33.769  22.562  27.467  1.00  0.00     0.007 C 
ENDBRANCH   7   9
BRANCH   7  11
ATOM     11  N   UNL A   1      34.261  23.107  23.661  1.00  0.00    -0.338 N 
ATOM     12  C   UNL A   1      33.371  23.791  22.842  1.00  0.00     0.252 C 
ATOM     13  H   UNL A   1      35.214  23.240  23.455  1.00  0.00     0.164 HD
ATOM     14  O   UNL A   1      33.518  23.742  21.623  1.00  0.00    -0.269 OA
BRANCH  12  15
ATOM     15  C   UNL A   1      32.310  24.650  23.426  1.00  0.00     0.043 A 
ATOM     16  C   UNL A   1      30.958  24.448  23.130  1.00  0.00     0.014 A 
ATOM     17  C   UNL A   1      32.663  25.831  24.074  1.00  0.00    -0.024 A 
ATOM     18  C   UNL A   1      29.985  25.311  23.647  1.00  0.00     0.002 A 
ATOM     19  C   UNL A   1      31.693  26.467  24.858  1.00  0.00     0.021 A 
ATOM     20  C   UNL A   1      33.823  26.563  23.438  1.00  0.00     0.046 C 
ATOM     21  C   UNL A   1      30.349  26.266  24.585  1.00  0.00     0.016 A 
ATOM     22  Br  UNL A   1      32.024  27.117  26.618  1.00  0.00    -0.051 Br
ENDBRANCH  12  15
ENDBRANCH   7  11
ENDBRANCH   4   7
ENDBRANCH   2   3
ENDBRANCH   1   2
BRANCH   1  23
ATOM     23  C   UNL A   1      38.375  23.895  26.271  1.00  0.00     0.118 C 
BRANCH  23  24
ATOM     24  N   UNL A   1      39.808  23.799  26.081  1.00  0.00    -0.352 N 
ATOM     25  C   UNL A   1      40.807  24.624  26.563  1.00  0.00     0.251 C 
ATOM     26  H   UNL A   1      40.113  23.041  25.532  1.00  0.00     0.163 HD
ATOM     27  O   UNL A   1      41.952  24.480  26.141  1.00  0.00    -0.269 OA
BRANCH  25  28
ATOM     28  C   UNL A   1      40.547  25.686  27.577  1.00  0.00     0.039 A 
ATOM     29  C   UNL A   1      41.466  26.735  27.708  1.00  0.00     0.014 A 
ATOM     30  C   UNL A   1      39.499  25.582  28.500  1.00  0.00     0.014 A 
ATOM     31  C   UNL A   1      41.328  27.684  28.736  1.00  0.00     0.010 A 
ATOM     32  C   UNL A   1      39.351  26.547  29.516  1.00  0.00     0.010 A 
ATOM     33  C   UNL A   1      40.270  27.602  29.657  1.00  0.00    -0.014 A 
BRANCH  33  34
ATOM     34  C   UNL A   1      40.159  28.588  30.780  1.00  0.00     0.031 A 
ATOM     35  C   UNL A   1      41.037  28.464  32.004  1.00  0.00     0.074 A 
ATOM     36  C   UNL A   1      39.266  29.599  30.716  1.00  0.00     0.049 A 
ATOM     37  N   UNL A   1      41.085  29.217  33.074  1.00  0.00    -0.248 NA
ATOM     38  C   UNL A   1      41.973  27.329  32.033  1.00  0.00     0.031 C 
ATOM     39  C   UNL A   1      38.330  29.826  29.614  1.00  0.00     0.029 A 
ATOM     40  N   UNL A   1      38.994  30.624  31.593  1.00  0.00    -0.354 N 
ATOM     41  C   UNL A   1      42.042  28.645  33.908  1.00  0.00     0.074 A 
ATOM     42  C   UNL A   1      42.515  27.453  33.237  1.00  0.00     0.031 C 
ATOM     43  C   UNL A   1      37.602  30.926  29.872  1.00  0.00     0.029 A 
ATOM     44  C   UNL A   1      37.999  31.474  31.166  1.00  0.00     0.049 A 
ATOM     45  H   UNL A   1      39.469  30.739  32.448  1.00  0.00     0.167 HD
ATOM     46  C   UNL A   1      42.504  29.079  35.108  1.00  0.00     0.037 A 
ATOM     47  C   UNL A   1      37.464  32.570  31.745  1.00  0.00     0.037 A 
ATOM     48  C   UNL A   1      42.056  30.282  35.763  1.00  0.00     0.049 A 
ATOM     49  C   UNL A   1      37.997  33.040  33.075  1.00  0.00     0.074 A 
ATOM     50  C   UNL A   1      42.506  30.836  36.951  1.00  0.00     0.029 A 
ATOM     51  N   UNL A   1      41.056  31.119  35.289  1.00  0.00    -0.354 N 
ATOM     52  N   UNL A   1      38.947  32.517  33.813  1.00  0.00    -0.248 NA
ATOM     53  C   UNL A   1      37.391  34.251  33.648  1.00  0.00     0.031 C 
ATOM     54  C   UNL A   1      41.751  31.985  37.213  1.00  0.00     0.029 A 
ATOM     55  C   UNL A   1      40.862  32.172  36.168  1.00  0.00     0.049 A 
ATOM     56  H   UNL A   1      40.557  30.983  34.451  1.00  0.00     0.167 HD
ATOM     57  C   UNL A   1      39.068  33.346  34.923  1.00  0.00     0.074 A 
ATOM     58  C   UNL A   1      38.104  34.414  34.754  1.00  0.00     0.031 C 
ATOM     59  C   UNL A   1      39.901  33.233  35.987  1.00  0.00     0.037 A 
BRANCH  46  60
ATOM     60  C   UNL A   1      43.557  28.248  35.796  1.00  0.00     0.058 A 
ATOM     61  C   UNL A   1      43.215  27.207  36.675  1.00  0.00     0.135 A 
ATOM     62  C   UNL A   1      44.922  28.470  35.549  1.00  0.00     0.135 A 
ATOM     63  F   UNL A   1      41.927  26.954  36.954  1.00  0.00    -0.206 F 
ATOM     64  C   UNL A   1      44.188  26.443  37.314  1.00  0.00     0.059 A 
ATOM     65  C   UNL A   1      45.911  27.699  36.156  1.00  0.00     0.059 A 
ATOM     66  F   UNL A   1      45.308  29.444  34.711  1.00  0.00    -0.206 F 
ATOM     67  C   UNL A   1      45.534  26.700  37.052  1.00  0.00     0.060 A 
BRANCH  67  68
ATOM     68  S   UNL A   1      46.782  25.706  37.899  1.00  0.00     0.124 S 
ATOM     69  O   UNL A   1      46.201  25.583  39.231  1.00  0.00    -0.237 OA
ATOM     70  O   UNL A   1      46.806  24.485  37.102  1.00  0.00    -0.237 OA
ATOM     71  O   UNL A   1      47.987  26.530  37.815  1.00  0.00    -0.744 OA
ENDBRANCH  67  68
ENDBRANCH  46  60
BRANCH  47  72
ATOM     72  C   UNL A   1      36.375  33.319  31.060  1.00  0.00     0.058 A 
ATOM     73  C   UNL A   1      35.054  33.271  31.533  1.00  0.00     0.135 A 
ATOM     74  C   UNL A   1      36.632  34.106  29.926  1.00  0.00     0.135 A 
ATOM     75  F   UNL A   1      34.754  32.524  32.607  1.00  0.00    -0.206 F 
ATOM     76  C   UNL A   1      34.026  33.967  30.903  1.00  0.00     0.059 A 
ATOM     77  C   UNL A   1      35.624  34.830  29.293  1.00  0.00     0.059 A 
ATOM     78  F   UNL A   1      37.878  34.195  29.438  1.00  0.00    -0.206 F 
ATOM     79  C   UNL A   1      34.322  34.748  29.784  1.00  0.00     0.060 A 
BRANCH  79  80
ATOM     80  S   UNL A   1      32.993  35.695  29.010  1.00  0.00     0.124 S 
ATOM     81  O   UNL A   1      33.735  36.780  28.377  1.00  0.00    -0.237 OA
ATOM     82  O   UNL A   1      32.402  34.713  28.106  1.00  0.00    -0.237 OA
ATOM     83  O   UNL A   1      32.153  36.079  30.140  1.00  0.00    -0.744 OA
ENDBRANCH  79  80
ENDBRANCH  47  72
BRANCH  59  84
ATOM     84  C   UNL A   1      39.830  34.300  37.045  1.00  0.00     0.058 A 
ATOM     85  C   UNL A   1      40.469  35.539  36.883  1.00  0.00     0.135 A 
ATOM     86  C   UNL A   1      39.065  34.103  38.206  1.00  0.00     0.135 A 
ATOM     87  F   UNL A   1      41.218  35.778  35.795  1.00  0.00    -0.206 F 
ATOM     88  C   UNL A   1      40.364  36.541  37.845  1.00  0.00     0.059 A 
ATOM     89  C   UNL A   1      38.928  35.099  39.169  1.00  0.00     0.059 A 
ATOM     90  F   UNL A   1      38.426  32.939  38.405  1.00  0.00    -0.206 F 
ATOM     91  C   UNL A   1      39.590  36.311  38.983  1.00  0.00     0.060 A 
BRANCH  91  92
ATOM     92  S   UNL A   1      39.430  37.634  40.202  1.00  0.00     0.124 S 
ATOM     93  O   UNL A   1      40.807  38.102  40.312  1.00  0.00    -0.237 OA
ATOM     94  O   UNL A   1      38.499  38.550  39.550  1.00  0.00    -0.237 OA
ATOM     95  O   UNL A   1      38.903  36.949  41.379  1.00  0.00    -0.744 OA
ENDBRANCH  91  92
ENDBRANCH  59  84
ENDBRANCH  33  34
ENDBRANCH  25  28
ENDBRANCH  23  24
ENDBRANCH   1  23
TORSDOF 16
ENDMDL
MODEL 2
REMARK VINA RESULT:     -11.9      1.165      2.128
REMARK SMILES CC[C@@](C)(NC(=O)c1cccc(Br)c1C)C(=O)NCCCNC(=O)c1ccc(-c2c3nc(c(-c4c(F)cc(S(=O)(=O)[O-])cc4F)c4ccc([nH]4)c(-c4c(F)cc(S(=O)(=O)[O-])cc4F)c4nc(c(-c5c(F)cc(S(=O)(=O)[O-])cc5F)c5ccc2[nH]5)C=C4)C=C3)cc1
REMARK SMILES IDX 20 1 19 2 18 3 16 4 17 5 3 7 4 8 2 9 1 10 5 11 6 12 7 14
REMARK SMILES IDX 8 15 9 16 14 17 10 18 12 19 15 20 11 21 13 22 21 23 22 24
REMARK SMILES IDX 23 25 24 27 25 28 26 29 90 30 27 31 89 32 28 33 29 34 30 35
REMARK SMILES IDX 83 36 31 37 88 38 82 39 84 40 32 41 87 42 81 43 80 44 33 46
REMARK SMILES IDX 67 47 46 48 66 49 47 50 50 51 65 52 85 53 48 54 49 55 64 57
REMARK SMILES IDX 86 58 51 59 34 60 35 61 44 62 36 63 37 64 43 65 45 66 38 67
REMARK SMILES IDX 39 68 40 69 41 70 42 71 68 72 69 73 78 74 70 75 71 76 77 77
REMARK SMILES IDX 79 78 72 79 73 80 74 81 75 82 76 83 52 84 53 85 62 86 54 87
REMARK SMILES IDX 55 88 61 89 63 90 56 91 57 92 58 93 59 94 60 95
REMARK H PARENT 18 6 5 13 22 26 84 45 50 56
REMARK Flexibility Score: inf
ROOT
ATOM      1  C   UNL A   1      37.800  23.045  25.454  1.00  0.00     0.042 C 
ENDROOT
BRANCH   1   2
ATOM      2  C   UNL A   1      36.754  21.890  25.674  1.00  0.00     0.117 C 
BRANCH   2   3
ATOM      3  N   UNL A   1      35.635  22.021  26.624  1.00  0.00    -0.354 N 
ATOM      4  C   UNL A   1      34.286  21.773  26.691  1.00  0.00     0.245 C 
ATOM      5  O   UNL A   1      33.913  21.555  27.857  1.00  0.00    -0.272 OA
ATOM      6  H   UNL A   1      35.953  22.404  27.472  1.00  0.00     0.163 HD
BRANCH   4   7
ATOM      7  C   UNL A   1      33.181  21.724  25.531  1.00  0.00     0.116 C 
ATOM      8  C   UNL A   1      33.787  22.298  24.237  1.00  0.00     0.045 C 
BRANCH   7   9
ATOM      9  C   UNL A   1      32.758  20.223  25.261  1.00  0.00     0.035 C 
ATOM     10  C   UNL A   1      33.815  19.232  24.783  1.00  0.00     0.007 C 
ENDBRANCH   7   9
BRANCH   7  11
ATOM     11  N   UNL A   1      31.861  22.436  25.729  1.00  0.00    -0.338 N 
ATOM     12  C   UNL A   1      31.624  23.734  26.164  1.00  0.00     0.252 C 
ATOM     13  H   UNL A   1      31.058  21.905  25.522  1.00  0.00     0.164 HD
ATOM     14  O   UNL A   1      30.789  23.929  27.044  1.00  0.00    -0.269 OA
BRANCH  12  15
ATOM     15  C   UNL A   1      32.298  24.886  25.513  1.00  0.00     0.043 A 
ATOM     16  C   UNL A   1      33.230  25.672  26.199  1.00  0.00     0.014 A 
ATOM     17  C   UNL A   1      31.821  25.359  24.294  1.00  0.00    -0.024 A 
ATOM     18  C   UNL A   1      33.803  26.789  25.579  1.00  0.00     0.002 A 
ATOM     19  C   UNL A   1      32.631  26.241  23.568  1.00  0.00     0.021 A 
ATOM     20  C   UNL A   1      30.316  25.318  24.159  1.00  0.00     0.046 C 
ATOM     21  C   UNL A   1      33.569  27.017  24.231  1.00  0.00     0.016 A 
ATOM     22  Br  UNL A   1      32.977  26.059  21.703  1.00  0.00    -0.051 Br
ENDBRANCH  12  15
ENDBRANCH   7  11
ENDBRANCH   4   7
ENDBRANCH   2   3
ENDBRANCH   1   2
BRANCH   1  23
ATOM     23  C   UNL A   1      38.728  23.624  26.545  1.00  0.00     0.118 C 
BRANCH  23  24
ATOM     24  N   UNL A   1      40.141  23.682  26.228  1.00  0.00    -0.352 N 
ATOM     25  C   UNL A   1      41.075  24.632  26.590  1.00  0.00     0.251 C 
ATOM     26  H   UNL A   1      40.482  22.941  25.676  1.00  0.00     0.163 HD
ATOM     27  O   UNL A   1      42.189  24.601  26.069  1.00  0.00    -0.269 OA
BRANCH  25  28
ATOM     28  C   UNL A   1      40.784  25.699  27.591  1.00  0.00     0.039 A 
ATOM     29  C   UNL A   1      41.696  26.752  27.741  1.00  0.00     0.014 A 
ATOM     30  C   UNL A   1      39.713  25.596  28.486  1.00  0.00     0.014 A 
ATOM     31  C   UNL A   1      41.527  27.706  28.759  1.00  0.00     0.010 A 
ATOM     32  C   UNL A   1      39.534  26.566  29.492  1.00  0.00     0.010 A 
ATOM     33  C   UNL A   1      40.445  27.626  29.652  1.00  0.00    -0.014 A 
BRANCH  33  34
ATOM     34  C   UNL A   1      40.300  28.617  30.766  1.00  0.00     0.031 A 
ATOM     35  C   UNL A   1      41.161  28.516  32.004  1.00  0.00     0.074 A 
ATOM     36  C   UNL A   1      39.392  29.613  30.681  1.00  0.00     0.049 A 
ATOM     37  N   UNL A   1      41.179  29.278  33.070  1.00  0.00    -0.248 NA
ATOM     38  C   UNL A   1      42.114  27.396  32.057  1.00  0.00     0.031 C 
ATOM     39  C   UNL A   1      38.470  29.817  29.562  1.00  0.00     0.029 A 
ATOM     40  N   UNL A   1      39.090  30.640  31.546  1.00  0.00    -0.354 N 
ATOM     41  C   UNL A   1      42.132  28.726  33.923  1.00  0.00     0.074 A 
ATOM     42  C   UNL A   1      42.635  27.538  33.268  1.00  0.00     0.031 C 
ATOM     43  C   UNL A   1      37.721  30.907  29.800  1.00  0.00     0.029 A 
ATOM     44  C   UNL A   1      38.088  31.471  31.097  1.00  0.00     0.049 A 
ATOM     45  H   UNL A   1      39.549  30.768  32.407  1.00  0.00     0.167 HD
ATOM     46  C   UNL A   1      42.568  29.176  35.127  1.00  0.00     0.037 A 
ATOM     47  C   UNL A   1      37.527  32.561  31.659  1.00  0.00     0.037 A 
ATOM     48  C   UNL A   1      42.090  30.377  35.766  1.00  0.00     0.049 A 
ATOM     49  C   UNL A   1      38.030  33.049  32.994  1.00  0.00     0.074 A 
ATOM     50  C   UNL A   1      42.513  30.946  36.956  1.00  0.00     0.029 A 
ATOM     51  N   UNL A   1      41.084  31.194  35.270  1.00  0.00    -0.354 N 
ATOM     52  N   UNL A   1      38.977  32.547  33.750  1.00  0.00    -0.248 NA
ATOM     53  C   UNL A   1      37.397  34.254  33.548  1.00  0.00     0.031 C 
ATOM     54  C   UNL A   1      41.735  32.085  37.198  1.00  0.00     0.029 A 
ATOM     55  C   UNL A   1      40.860  32.250  36.138  1.00  0.00     0.049 A 
ATOM     56  H   UNL A   1      40.602  31.044  34.426  1.00  0.00     0.167 HD
ATOM     57  C   UNL A   1      39.068  33.386  34.857  1.00  0.00     0.074 A 
ATOM     58  C   UNL A   1      38.089  34.437  34.664  1.00  0.00     0.031 C 
ATOM     59  C   UNL A   1      39.885  33.294  35.934  1.00  0.00     0.037 A 
BRANCH  46  60
ATOM     60  C   UNL A   1      43.623  28.367  35.837  1.00  0.00     0.058 A 
ATOM     61  C   UNL A   1      44.992  28.625  35.659  1.00  0.00     0.135 A 
ATOM     62  C   UNL A   1      43.264  27.345  36.732  1.00  0.00     0.135 A 
ATOM     63  F   UNL A   1      45.394  29.585  34.811  1.00  0.00    -0.206 F 
ATOM     64  C   UNL A   1      45.967  27.874  36.310  1.00  0.00     0.059 A 
ATOM     65  C   UNL A   1      44.222  26.600  37.415  1.00  0.00     0.059 A 
ATOM     66  F   UNL A   1      41.971  27.059  36.950  1.00  0.00    -0.206 F 
ATOM     67  C   UNL A   1      45.572  26.860  37.184  1.00  0.00     0.060 A 
BRANCH  67  68
ATOM     68  S   UNL A   1      46.851  25.890  38.011  1.00  0.00     0.124 S 
ATOM     69  O   UNL A   1      46.790  24.635  37.270  1.00  0.00    -0.237 OA
ATOM     70  O   UNL A   1      48.046  26.696  37.796  1.00  0.00    -0.237 OA
ATOM     71  O   UNL A   1      46.384  25.823  39.396  1.00  0.00    -0.744 OA
ENDBRANCH  67  68
ENDBRANCH  46  60
BRANCH  47  72
ATOM     72  C   UNL A   1      36.437  33.289  30.952  1.00  0.00     0.058 A 
ATOM     73  C   UNL A   1      35.099  33.163  31.359  1.00  0.00     0.135 A 
ATOM     74  C   UNL A   1      36.709  34.131  29.862  1.00  0.00     0.135 A 
ATOM     75  F   UNL A   1      34.785  32.361  32.387  1.00  0.00    -0.206 F 
ATOM     76  C   UNL A   1      34.070  33.836  30.707  1.00  0.00     0.059 A 
ATOM     77  C   UNL A   1      35.699  34.834  29.209  1.00  0.00     0.059 A 
ATOM     78  F   UNL A   1      37.971  34.295  29.439  1.00  0.00    -0.206 F 
ATOM     79  C   UNL A   1      34.381  34.674  29.634  1.00  0.00     0.060 A 
BRANCH  79  80
ATOM     80  S   UNL A   1      33.046  35.591  28.834  1.00  0.00     0.124 S 
ATOM     81  O   UNL A   1      32.356  34.532  28.106  1.00  0.00    -0.237 OA
ATOM     82  O   UNL A   1      32.330  36.152  29.976  1.00  0.00    -0.237 OA
ATOM     83  O   UNL A   1      33.756  36.565  28.011  1.00  0.00    -0.744 OA
ENDBRANCH  79  80
ENDBRANCH  47  72
BRANCH  59  84
ATOM     84  C   UNL A   1      39.780  34.367  36.984  1.00  0.00     0.058 A 
ATOM     85  C   UNL A   1      38.988  34.197  38.130  1.00  0.00     0.135 A 
ATOM     86  C   UNL A   1      40.526  35.550  36.871  1.00  0.00     0.135 A 
ATOM     87  F   UNL A   1      38.250  33.087  38.284  1.00  0.00    -0.206 F 
ATOM     88  C   UNL A   1      38.927  35.173  39.120  1.00  0.00     0.059 A 
ATOM     89  C   UNL A   1      40.499  36.529  37.861  1.00  0.00     0.059 A 
ATOM     90  F   UNL A   1      41.307  35.758  35.799  1.00  0.00    -0.206 F 
ATOM     91  C   UNL A   1      39.688  36.335  38.978  1.00  0.00     0.060 A 
BRANCH  91  92
ATOM     92  S   UNL A   1      39.631  37.574  40.290  1.00  0.00     0.124 S 
ATOM     93  O   UNL A   1      38.954  36.843  41.356  1.00  0.00    -0.237 OA
ATOM     94  O   UNL A   1      41.045  37.857  40.515  1.00  0.00    -0.237 OA
ATOM     95  O   UNL A   1      38.867  38.665  39.694  1.00  0.00    -0.744 OA
ENDBRANCH  91  92
ENDBRANCH  59  84
ENDBRANCH  33  34
ENDBRANCH  25  28
ENDBRANCH  23  24
ENDBRANCH   1  23
TORSDOF 16
ENDMDL
MODEL 3
REMARK VINA RESULT:     -11.9      4.929     10.530
REMARK SMILES CC[C@@](C)(NC(=O)c1cccc(Br)c1C)C(=O)NCCCNC(=O)c1ccc(-c2c3nc(c(-c4c(F)cc(S(=O)(=O)[O-])cc4F)c4ccc([nH]4)c(-c4c(F)cc(S(=O)(=O)[O-])cc4F)c4nc(c(-c5c(F)cc(S(=O)(=O)[O-])cc5F)c5ccc2[nH]5)C=C4)C=C3)cc1
REMARK SMILES IDX 20 1 19 2 18 3 16 4 17 5 3 7 4 8 2 9 1 10 5 11 6 12 7 14
REMARK SMILES IDX 8 15 9 16 14 17 10 18 12 19 15 20 11 21 13 22 21 23 22 24
REMARK SMILES IDX 23 25 24 27 25 28 26 29 90 30 27 31 89 32 28 33 29 34 30 35
REMARK SMILES IDX 83 36 31 37 88 38 82 39 84 40 32 41 87 42 81 43 80 44 33 46
REMARK SMILES IDX 67 47 46 48 66 49 47 50 50 51 65 52 85 53 48 54 49 55 64 57
REMARK SMILES IDX 86 58 51 59 34 60 35 61 44 62 36 63 37 64 43 65 45 66 38 67
REMARK SMILES IDX 39 68 40 69 41 70 42 71 68 72 69 73 78 74 70 75 71 76 77 77
REMARK SMILES IDX 79 78 72 79 73 80 74 81 75 82 76 83 52 84 53 85 62 86 54 87
REMARK SMILES IDX 55 88 61 89 63 90 56 91 57 92 58 93 59 94 60 95
REMARK H PARENT 18 6 5 13 22 26 84 45 50 56
REMARK Flexibility Score: inf
ROOT
ATOM      1  C   UNL A   1      33.843  28.044  25.812  1.00  0.00     0.042 C 
ENDROOT
BRANCH   1   2
ATOM      2  C   UNL A   1      33.225  28.540  24.453  1.00  0.00     0.117 C 
BRANCH   2   3
ATOM      3  N   UNL A   1      31.978  27.974  23.908  1.00  0.00    -0.354 N 
ATOM      4  C   UNL A   1      31.223  26.831  23.998  1.00  0.00     0.245 C 
ATOM      5  O   UNL A   1      30.020  27.052  23.771  1.00  0.00    -0.272 OA
ATOM      6  H   UNL A   1      31.558  28.612  23.288  1.00  0.00     0.163 HD
BRANCH   4   7
ATOM      7  C   UNL A   1      31.654  25.326  24.341  1.00  0.00     0.116 C 
ATOM      8  C   UNL A   1      30.617  24.359  23.740  1.00  0.00     0.045 C 
BRANCH   7   9
ATOM      9  C   UNL A   1      33.063  25.013  23.693  1.00  0.00     0.035 C 
ATOM     10  C   UNL A   1      33.127  24.618  22.220  1.00  0.00     0.007 C 
ENDBRANCH   7   9
BRANCH   7  11
ATOM     11  N   UNL A   1      31.827  24.912  25.786  1.00  0.00    -0.338 N 
ATOM     12  C   UNL A   1      31.722  23.647  26.351  1.00  0.00     0.252 C 
ATOM     13  H   UNL A   1      32.042  25.640  26.413  1.00  0.00     0.164 HD
ATOM     14  O   UNL A   1      31.049  23.499  27.369  1.00  0.00    -0.269 OA
BRANCH  12  15
ATOM     15  C   UNL A   1      32.485  22.502  25.795  1.00  0.00     0.043 A 
ATOM     16  C   UNL A   1      31.840  21.378  25.268  1.00  0.00     0.014 A 
ATOM     17  C   UNL A   1      33.856  22.416  26.024  1.00  0.00    -0.024 A 
ATOM     18  C   UNL A   1      32.587  20.287  24.807  1.00  0.00     0.002 A 
ATOM     19  C   UNL A   1      34.595  21.504  25.261  1.00  0.00     0.021 A 
ATOM     20  C   UNL A   1      34.286  22.886  27.396  1.00  0.00     0.046 C 
ATOM     21  C   UNL A   1      33.967  20.392  24.721  1.00  0.00     0.016 A 
ATOM     22  Br  UNL A   1      36.242  21.938  24.406  1.00  0.00    -0.051 Br
ENDBRANCH  12  15
ENDBRANCH   7  11
ENDBRANCH   4   7
ENDBRANCH   2   3
ENDBRANCH   1   2
BRANCH   1  23
ATOM     23  C   UNL A   1      33.304  28.398  27.216  1.00  0.00     0.118 C 
BRANCH  23  24
ATOM     24  N   UNL A   1      33.286  29.804  27.564  1.00  0.00    -0.352 N 
ATOM     25  C   UNL A   1      34.282  30.573  28.134  1.00  0.00     0.251 C 
ATOM     26  H   UNL A   1      32.444  30.278  27.369  1.00  0.00     0.163 HD
ATOM     27  O   UNL A   1      34.010  31.708  28.521  1.00  0.00    -0.269 OA
BRANCH  25  28
ATOM     28  C   UNL A   1      35.679  30.077  28.299  1.00  0.00     0.039 A 
ATOM     29  C   UNL A   1      36.100  29.653  29.566  1.00  0.00     0.014 A 
ATOM     30  C   UNL A   1      36.619  30.168  27.266  1.00  0.00     0.014 A 
ATOM     31  C   UNL A   1      37.442  29.302  29.794  1.00  0.00     0.010 A 
ATOM     32  C   UNL A   1      37.959  29.794  27.492  1.00  0.00     0.010 A 
ATOM     33  C   UNL A   1      38.392  29.370  28.761  1.00  0.00    -0.014 A 
BRANCH  33  34
ATOM     34  C   UNL A   1      39.830  29.042  29.025  1.00  0.00     0.031 A 
ATOM     35  C   UNL A   1      40.747  30.058  29.667  1.00  0.00     0.074 A 
ATOM     36  C   UNL A   1      40.329  27.833  28.686  1.00  0.00     0.049 A 
ATOM     37  N   UNL A   1      42.017  29.958  29.972  1.00  0.00    -0.248 NA
ATOM     38  C   UNL A   1      40.159  31.367  29.990  1.00  0.00     0.031 C 
ATOM     39  C   UNL A   1      39.573  26.765  28.030  1.00  0.00     0.029 A 
ATOM     40  N   UNL A   1      41.587  27.297  28.842  1.00  0.00    -0.354 N 
ATOM     41  C   UNL A   1      42.383  31.189  30.510  1.00  0.00     0.074 A 
ATOM     42  C   UNL A   1      41.210  32.034  30.446  1.00  0.00     0.031 C 
ATOM     43  C   UNL A   1      40.373  25.700  27.856  1.00  0.00     0.029 A 
ATOM     44  C   UNL A   1      41.707  26.011  28.365  1.00  0.00     0.049 A 
ATOM     45  H   UNL A   1      42.332  27.789  29.256  1.00  0.00     0.167 HD
ATOM     46  C   UNL A   1      43.575  31.576  31.032  1.00  0.00     0.037 A 
ATOM     47  C   UNL A   1      42.765  25.174  28.338  1.00  0.00     0.037 A 
ATOM     48  C   UNL A   1      44.734  30.725  31.126  1.00  0.00     0.049 A 
ATOM     49  C   UNL A   1      44.078  25.620  28.930  1.00  0.00     0.074 A 
ATOM     50  C   UNL A   1      45.967  31.007  31.693  1.00  0.00     0.029 A 
ATOM     51  N   UNL A   1      44.808  29.427  30.642  1.00  0.00    -0.354 N 
ATOM     52  N   UNL A   1      44.381  26.766  29.492  1.00  0.00    -0.248 NA
ATOM     53  C   UNL A   1      45.190  24.660  28.893  1.00  0.00     0.031 C 
ATOM     54  C   UNL A   1      46.796  29.893  31.516  1.00  0.00     0.029 A 
ATOM     55  C   UNL A   1      46.068  28.902  30.880  1.00  0.00     0.049 A 
ATOM     56  H   UNL A   1      44.072  28.949  30.196  1.00  0.00     0.167 HD
ATOM     57  C   UNL A   1      45.708  26.657  29.894  1.00  0.00     0.074 A 
ATOM     58  C   UNL A   1      46.147  25.326  29.524  1.00  0.00     0.031 C 
ATOM     59  C   UNL A   1      46.493  27.573  30.511  1.00  0.00     0.037 A 
BRANCH  46  60
ATOM     60  C   UNL A   1      43.687  32.986  31.551  1.00  0.00     0.058 A 
ATOM     61  C   UNL A   1      43.402  33.304  32.889  1.00  0.00     0.135 A 
ATOM     62  C   UNL A   1      44.117  34.029  30.712  1.00  0.00     0.135 A 
ATOM     63  F   UNL A   1      42.980  32.350  33.735  1.00  0.00    -0.206 F 
ATOM     64  C   UNL A   1      43.500  34.608  33.367  1.00  0.00     0.059 A 
ATOM     65  C   UNL A   1      44.249  35.335  31.177  1.00  0.00     0.059 A 
ATOM     66  F   UNL A   1      44.413  33.784  29.427  1.00  0.00    -0.206 F 
ATOM     67  C   UNL A   1      43.921  35.618  32.502  1.00  0.00     0.060 A 
BRANCH  67  68
ATOM     68  S   UNL A   1      44.032  37.305  33.136  1.00  0.00     0.124 S 
ATOM     69  O   UNL A   1      45.332  37.284  33.797  1.00  0.00    -0.237 OA
ATOM     70  O   UNL A   1      43.952  38.105  31.919  1.00  0.00    -0.237 OA
ATOM     71  O   UNL A   1      42.877  37.409  34.028  1.00  0.00    -0.744 OA
ENDBRANCH  67  68
ENDBRANCH  46  60
BRANCH  47  72
ATOM     72  C   UNL A   1      42.626  23.813  27.751  1.00  0.00     0.058 A 
ATOM     73  C   UNL A   1      42.676  23.615  26.362  1.00  0.00     0.135 A 
ATOM     74  C   UNL A   1      42.450  22.682  28.563  1.00  0.00     0.135 A 
ATOM     75  F   UNL A   1      42.831  24.665  25.541  1.00  0.00    -0.206 F 
ATOM     76  C   UNL A   1      42.547  22.348  25.799  1.00  0.00     0.059 A 
ATOM     77  C   UNL A   1      42.343  21.402  28.025  1.00  0.00     0.059 A 
ATOM     78  F   UNL A   1      42.405  22.814  29.898  1.00  0.00    -0.206 F 
ATOM     79  C   UNL A   1      42.385  21.246  26.640  1.00  0.00     0.060 A 
BRANCH  79  80
ATOM     80  S   UNL A   1      42.280  19.599  25.903  1.00  0.00     0.124 S 
ATOM     81  O   UNL A   1      42.595  18.746  27.044  1.00  0.00    -0.237 OA
ATOM     82  O   UNL A   1      40.897  19.558  25.439  1.00  0.00    -0.237 OA
ATOM     83  O   UNL A   1      43.286  19.641  24.847  1.00  0.00    -0.744 OA
ENDBRANCH  79  80
ENDBRANCH  47  72
BRANCH  59  84
ATOM     84  C   UNL A   1      47.901  27.171  30.851  1.00  0.00     0.058 A 
ATOM     85  C   UNL A   1      48.199  26.456  32.022  1.00  0.00     0.135 A 
ATOM     86  C   UNL A   1      48.956  27.450  29.968  1.00  0.00     0.135 A 
ATOM     87  F   UNL A   1      47.229  26.168  32.904  1.00  0.00    -0.206 F 
ATOM     88  C   UNL A   1      49.497  26.046  32.312  1.00  0.00     0.059 A 
ATOM     89  C   UNL A   1      50.257  27.028  30.226  1.00  0.00     0.059 A 
ATOM     90  F   UNL A   1      48.724  28.122  28.829  1.00  0.00    -0.206 F 
ATOM     91  C   UNL A   1      50.519  26.335  31.407  1.00  0.00     0.060 A 
BRANCH  91  92
ATOM     92  S   UNL A   1      52.192  25.762  31.776  1.00  0.00     0.124 S 
ATOM     93  O   UNL A   1      52.564  26.634  32.884  1.00  0.00    -0.237 OA
ATOM     94  O   UNL A   1      51.973  24.360  32.119  1.00  0.00    -0.237 OA
ATOM     95  O   UNL A   1      52.912  25.990  30.527  1.00  0.00    -0.744 OA
ENDBRANCH  91  92
ENDBRANCH  59  84
ENDBRANCH  33  34
ENDBRANCH  25  28
ENDBRANCH  23  24
ENDBRANCH   1  23
TORSDOF 16
ENDMDL
