MODEL 1
REMARK VINA RESULT:     -12.3      0.000      0.000
REMARK SMILES O=C(NCCCNC(=O)[C@@H]1CC[C@@H](CNC(=O)c2cc(Cl)ccc2Cl)O1)c1ccc(-c2c3nc(c(-c4c(F)cc(S(=O)(=O)[O-])cc4F)c4ccc([nH]4)c(-c4c(F)cc(S(=O)(=O)[O-])cc4F)c4nc(c(-c5c(F)cc(S(=O)(=O)[O-])cc5F)c5ccc2[nH]5)C=C4)C=C3)cc1
REMARK SMILES IDX 5 1 4 2 3 3 1 4 2 5 27 7 28 8 92 9 29 10 91 11 30 12 31 13
REMARK SMILES IDX 32 14 85 15 33 16 90 17 84 18 86 19 34 20 89 21 83 22 82 23
REMARK SMILES IDX 35 25 69 26 48 27 68 28 49 29 52 30 67 31 87 32 50 33 51 34
REMARK SMILES IDX 66 36 88 37 53 38 36 39 37 40 46 41 38 42 39 43 45 44 47 45
REMARK SMILES IDX 40 46 41 47 42 48 43 49 44 50 70 51 71 52 80 53 72 54 73 55
REMARK SMILES IDX 79 56 81 57 74 58 75 59 76 60 77 61 78 62 54 63 55 64 64 65
REMARK SMILES IDX 56 66 57 67 63 68 65 69 58 70 59 71 60 72 61 73 62 74 6 75
REMARK SMILES IDX 7 76 8 77 9 79 10 80 11 81 26 82 12 83 13 84 14 85 15 86
REMARK SMILES IDX 16 87 17 89 18 90 19 91 24 92 20 93 23 94 25 95 21 96 22 97
REMARK H PARENT 3 6 86 24 52 35 7 78 15 88
REMARK Flexibility Score: inf
ROOT
ATOM      1  C   UNL A   1      34.716  30.004  27.510  1.00  0.00     0.042 C 
ENDROOT
BRANCH   1   2
ATOM      2  C   UNL A   1      35.422  31.270  27.991  1.00  0.00     0.118 C 
BRANCH   2   3
ATOM      3  N   UNL A   1      35.414  31.365  29.440  1.00  0.00    -0.352 N 
ATOM      4  O   UNL A   1      35.917  30.765  31.540  1.00  0.00    -0.269 OA
ATOM      5  C   UNL A   1      36.267  30.814  30.362  1.00  0.00     0.251 C 
ATOM      6  H   UNL A   1      34.685  31.908  29.819  1.00  0.00     0.163 HD
BRANCH   5   7
ATOM      7  C   UNL A   1      37.595  30.285  29.966  1.00  0.00     0.039 A 
ATOM      8  C   UNL A   1      38.016  30.292  28.632  1.00  0.00     0.014 A 
ATOM      9  C   UNL A   1      38.477  29.871  30.969  1.00  0.00     0.014 A 
ATOM     10  C   UNL A   1      39.282  29.813  28.294  1.00  0.00     0.010 A 
ATOM     11  C   UNL A   1      39.765  29.445  30.636  1.00  0.00     0.010 A 
ATOM     12  C   UNL A   1      40.175  29.405  29.294  1.00  0.00    -0.014 A 
BRANCH  12  13
ATOM     13  C   UNL A   1      41.564  29.008  28.950  1.00  0.00     0.031 A 
ATOM     14  C   UNL A   1      42.671  30.023  28.934  1.00  0.00     0.074 A 
ATOM     15  C   UNL A   1      41.814  27.732  28.600  1.00  0.00     0.049 A 
ATOM     16  N   UNL A   1      43.918  29.877  28.569  1.00  0.00    -0.248 NA
ATOM     17  C   UNL A   1      42.326  31.382  29.377  1.00  0.00     0.031 C 
ATOM     18  C   UNL A   1      40.816  26.660  28.562  1.00  0.00     0.029 A 
ATOM     19  N   UNL A   1      42.973  27.122  28.192  1.00  0.00    -0.354 N 
ATOM     20  C   UNL A   1      44.505  31.128  28.712  1.00  0.00     0.074 A 
ATOM     21  C   UNL A   1      43.470  32.025  29.184  1.00  0.00     0.031 C 
ATOM     22  C   UNL A   1      41.405  25.526  28.155  1.00  0.00     0.029 A 
ATOM     23  C   UNL A   1      42.807  25.799  27.855  1.00  0.00     0.049 A 
ATOM     24  H   UNL A   1      43.840  27.587  28.145  1.00  0.00     0.167 HD
ATOM     25  C   UNL A   1      45.787  31.494  28.472  1.00  0.00     0.037 A 
ATOM     26  C   UNL A   1      43.676  24.911  27.335  1.00  0.00     0.037 A 
ATOM     27  C   UNL A   1      46.812  30.593  28.009  1.00  0.00     0.049 A 
ATOM     28  C   UNL A   1      45.090  25.335  27.067  1.00  0.00     0.074 A 
ATOM     29  C   UNL A   1      48.149  30.857  27.772  1.00  0.00     0.029 A 
ATOM     30  N   UNL A   1      46.609  29.254  27.702  1.00  0.00    -0.354 N 
ATOM     31  N   UNL A   1      45.638  26.513  27.245  1.00  0.00    -0.248 NA
ATOM     32  C   UNL A   1      46.003  24.318  26.532  1.00  0.00     0.031 C 
ATOM     33  C   UNL A   1      48.748  29.688  27.290  1.00  0.00     0.029 A 
ATOM     34  C   UNL A   1      47.792  28.683  27.263  1.00  0.00     0.049 A 
ATOM     35  H   UNL A   1      45.750  28.780  27.785  1.00  0.00     0.167 HD
ATOM     36  C   UNL A   1      46.966  26.376  26.860  1.00  0.00     0.074 A 
ATOM     37  C   UNL A   1      47.139  24.998  26.443  1.00  0.00     0.031 C 
ATOM     38  C   UNL A   1      47.950  27.307  26.858  1.00  0.00     0.037 A 
BRANCH  25  39
ATOM     39  C   UNL A   1      46.141  32.940  28.679  1.00  0.00     0.058 A 
ATOM     40  C   UNL A   1      46.595  33.419  29.918  1.00  0.00     0.135 A 
ATOM     41  C   UNL A   1      46.015  33.860  27.627  1.00  0.00     0.135 A 
ATOM     42  F   UNL A   1      46.722  32.583  30.961  1.00  0.00    -0.206 F 
ATOM     43  C   UNL A   1      46.867  34.769  30.120  1.00  0.00     0.059 A 
ATOM     44  C   UNL A   1      46.302  35.212  27.799  1.00  0.00     0.059 A 
ATOM     45  F   UNL A   1      45.590  33.455  26.420  1.00  0.00    -0.206 F 
ATOM     46  C   UNL A   1      46.703  35.660  29.057  1.00  0.00     0.060 A 
BRANCH  46  47
ATOM     47  S   UNL A   1      47.004  37.417  29.345  1.00  0.00     0.124 S 
ATOM     48  O   UNL A   1      47.916  37.735  28.251  1.00  0.00    -0.237 OA
ATOM     49  O   UNL A   1      45.666  37.989  29.240  1.00  0.00    -0.237 OA
ATOM     50  O   UNL A   1      47.591  37.445  30.682  1.00  0.00    -0.744 OA
ENDBRANCH  46  47
ENDBRANCH  25  39
BRANCH  26  51
ATOM     51  C   UNL A   1      43.203  23.535  27.038  1.00  0.00     0.058 A 
ATOM     52  C   UNL A   1      42.958  23.124  25.722  1.00  0.00     0.135 A 
ATOM     53  C   UNL A   1      43.084  22.577  28.059  1.00  0.00     0.135 A 
ATOM     54  F   UNL A   1      43.056  24.006  24.715  1.00  0.00    -0.206 F 
ATOM     55  C   UNL A   1      42.627  21.807  25.421  1.00  0.00     0.059 A 
ATOM     56  C   UNL A   1      42.773  21.250  27.782  1.00  0.00     0.059 A 
ATOM     57  F   UNL A   1      43.325  22.920  29.334  1.00  0.00    -0.206 F 
ATOM     58  C   UNL A   1      42.549  20.874  26.458  1.00  0.00     0.060 A 
BRANCH  58  59
ATOM     59  S   UNL A   1      42.234  19.143  26.046  1.00  0.00     0.124 S 
ATOM     60  O   UNL A   1      42.625  18.472  27.280  1.00  0.00    -0.237 OA
ATOM     61  O   UNL A   1      40.804  19.153  25.749  1.00  0.00    -0.237 OA
ATOM     62  O   UNL A   1      43.101  18.911  24.895  1.00  0.00    -0.744 OA
ENDBRANCH  58  59
ENDBRANCH  26  51
BRANCH  38  63
ATOM     63  C   UNL A   1      49.319  26.872  26.421  1.00  0.00     0.058 A 
ATOM     64  C   UNL A   1      50.166  26.149  27.272  1.00  0.00     0.135 A 
ATOM     65  C   UNL A   1      49.747  27.104  25.105  1.00  0.00     0.135 A 
ATOM     66  F   UNL A   1      49.806  25.911  28.544  1.00  0.00    -0.206 F 
ATOM     67  C   UNL A   1      51.394  25.666  26.832  1.00  0.00     0.059 A 
ATOM     68  C   UNL A   1      50.962  26.614  24.637  1.00  0.00     0.059 A 
ATOM     69  F   UNL A   1      48.968  27.787  24.250  1.00  0.00    -0.206 F 
ATOM     70  C   UNL A   1      51.780  25.896  25.510  1.00  0.00     0.060 A 
BRANCH  70  71
ATOM     71  S   UNL A   1      53.339  25.199  24.924  1.00  0.00     0.124 S 
ATOM     72  O   UNL A   1      53.239  23.820  25.391  1.00  0.00    -0.237 OA
ATOM     73  O   UNL A   1      53.245  25.388  23.479  1.00  0.00    -0.237 OA
ATOM     74  O   UNL A   1      54.349  26.016  25.591  1.00  0.00    -0.744 OA
ENDBRANCH  70  71
ENDBRANCH  38  63
ENDBRANCH  12  13
ENDBRANCH   5   7
ENDBRANCH   2   3
ENDBRANCH   1   2
BRANCH   1  75
ATOM     75  C   UNL A   1      33.253  30.228  27.123  1.00  0.00     0.117 C 
BRANCH  75  76
ATOM     76  N   UNL A   1      32.397  29.173  27.637  1.00  0.00    -0.354 N 
ATOM     77  C   UNL A   1      31.794  28.128  26.992  1.00  0.00     0.249 C 
ATOM     78  H   UNL A   1      32.223  29.217  28.605  1.00  0.00     0.163 HD
ATOM     79  O   UNL A   1      31.049  27.414  27.668  1.00  0.00    -0.272 OA
BRANCH  77  80
ATOM     80  C   UNL A   1      32.088  27.840  25.498  1.00  0.00     0.207 C 
ATOM     81  C   UNL A   1      31.084  28.469  24.532  1.00  0.00     0.045 C 
ATOM     82  O   UNL A   1      32.055  26.415  25.225  1.00  0.00    -0.363 OA
ATOM     83  C   UNL A   1      30.769  27.366  23.555  1.00  0.00     0.037 C 
ATOM     84  C   UNL A   1      30.857  26.165  24.469  1.00  0.00     0.138 C 
BRANCH  84  85
ATOM     85  C   UNL A   1      30.869  24.803  23.771  1.00  0.00     0.148 C 
BRANCH  85  86
ATOM     86  N   UNL A   1      31.573  24.799  22.494  1.00  0.00    -0.349 N 
ATOM     87  C   UNL A   1      32.813  24.321  22.179  1.00  0.00     0.252 C 
ATOM     88  H   UNL A   1      31.078  25.201  21.744  1.00  0.00     0.163 HD
ATOM     89  O   UNL A   1      33.295  24.541  21.069  1.00  0.00    -0.269 OA
BRANCH  87  90
ATOM     90  C   UNL A   1      33.546  23.468  23.128  1.00  0.00     0.059 A 
ATOM     91  C   UNL A   1      34.543  24.064  23.914  1.00  0.00     0.036 A 
ATOM     92  C   UNL A   1      33.179  22.135  23.347  1.00  0.00     0.053 A 
ATOM     93  C   UNL A   1      35.194  23.316  24.888  1.00  0.00     0.041 A 
ATOM     94  C   UNL A   1      33.830  21.398  24.343  1.00  0.00     0.023 A 
ATOM     95  Cl  UNL A   1      31.961  21.333  22.423  1.00  0.00    -0.083 Cl
ATOM     96  Cl  UNL A   1      36.434  24.041  25.834  1.00  0.00    -0.084 Cl
ATOM     97  C   UNL A   1      34.839  21.986  25.111  1.00  0.00     0.022 A 
ENDBRANCH  87  90
ENDBRANCH  85  86
ENDBRANCH  84  85
ENDBRANCH  77  80
ENDBRANCH  75  76
ENDBRANCH   1  75
TORSDOF 16
ENDMDL
MODEL 2
REMARK VINA RESULT:     -12.1      0.619      1.780
REMARK SMILES O=C(NCCCNC(=O)[C@@H]1CC[C@@H](CNC(=O)c2cc(Cl)ccc2Cl)O1)c1ccc(-c2c3nc(c(-c4c(F)cc(S(=O)(=O)[O-])cc4F)c4ccc([nH]4)c(-c4c(F)cc(S(=O)(=O)[O-])cc4F)c4nc(c(-c5c(F)cc(S(=O)(=O)[O-])cc5F)c5ccc2[nH]5)C=C4)C=C3)cc1
REMARK SMILES IDX 5 1 4 2 3 3 1 4 2 5 27 7 28 8 92 9 29 10 91 11 30 12 31 13
REMARK SMILES IDX 32 14 85 15 33 16 90 17 84 18 86 19 34 20 89 21 83 22 82 23
REMARK SMILES IDX 35 25 69 26 48 27 68 28 49 29 52 30 67 31 87 32 50 33 51 34
REMARK SMILES IDX 66 36 88 37 53 38 36 39 37 40 46 41 38 42 39 43 45 44 47 45
REMARK SMILES IDX 40 46 41 47 42 48 43 49 44 50 70 51 71 52 80 53 72 54 73 55
REMARK SMILES IDX 79 56 81 57 74 58 75 59 76 60 77 61 78 62 54 63 55 64 64 65
REMARK SMILES IDX 56 66 57 67 63 68 65 69 58 70 59 71 60 72 61 73 62 74 6 75
REMARK SMILES IDX 7 76 8 77 9 79 10 80 11 81 26 82 12 83 13 84 14 85 15 86
REMARK SMILES IDX 16 87 17 89 18 90 19 91 24 92 20 93 23 94 25 95 21 96 22 97
REMARK H PARENT 3 6 86 24 52 35 7 78 15 88
REMARK Flexibility Score: inf
ROOT
ATOM      1  C   UNL A   1      33.948  31.242  27.742  1.00  0.00     0.042 C 
ENDROOT
BRANCH   1   2
ATOM      2  C   UNL A   1      35.378  31.237  28.277  1.00  0.00     0.118 C 
BRANCH   2   3
ATOM      3  N   UNL A   1      35.403  31.230  29.728  1.00  0.00    -0.352 N 
ATOM      4  O   UNL A   1      35.948  30.481  31.768  1.00  0.00    -0.269 OA
ATOM      5  C   UNL A   1      36.273  30.610  30.589  1.00  0.00     0.251 C 
ATOM      6  H   UNL A   1      34.688  31.750  30.160  1.00  0.00     0.163 HD
BRANCH   5   7
ATOM      7  C   UNL A   1      37.586  30.102  30.127  1.00  0.00     0.039 A 
ATOM      8  C   UNL A   1      37.959  30.158  28.780  1.00  0.00     0.014 A 
ATOM      9  C   UNL A   1      38.506  29.656  31.082  1.00  0.00     0.014 A 
ATOM     10  C   UNL A   1      39.213  29.697  28.379  1.00  0.00     0.010 A 
ATOM     11  C   UNL A   1      39.782  29.248  30.688  1.00  0.00     0.010 A 
ATOM     12  C   UNL A   1      40.144  29.257  29.331  1.00  0.00    -0.014 A 
BRANCH  12  13
ATOM     13  C   UNL A   1      41.520  28.878  28.923  1.00  0.00     0.031 A 
ATOM     14  C   UNL A   1      42.611  29.909  28.852  1.00  0.00     0.074 A 
ATOM     15  C   UNL A   1      41.771  27.604  28.565  1.00  0.00     0.049 A 
ATOM     16  N   UNL A   1      43.841  29.779  28.429  1.00  0.00    -0.248 NA
ATOM     17  C   UNL A   1      42.268  31.264  29.307  1.00  0.00     0.031 C 
ATOM     18  C   UNL A   1      40.788  26.519  28.577  1.00  0.00     0.029 A 
ATOM     19  N   UNL A   1      42.919  27.010  28.105  1.00  0.00    -0.354 N 
ATOM     20  C   UNL A   1      44.416  31.039  28.541  1.00  0.00     0.074 A 
ATOM     21  C   UNL A   1      43.392  31.923  29.059  1.00  0.00     0.031 C 
ATOM     22  C   UNL A   1      41.374  25.392  28.146  1.00  0.00     0.029 A 
ATOM     23  C   UNL A   1      42.756  25.684  27.780  1.00  0.00     0.049 A 
ATOM     24  H   UNL A   1      43.776  27.487  28.016  1.00  0.00     0.167 HD
ATOM     25  C   UNL A   1      45.681  31.422  28.240  1.00  0.00     0.037 A 
ATOM     26  C   UNL A   1      43.612  24.806  27.222  1.00  0.00     0.037 A 
ATOM     27  C   UNL A   1      46.695  30.534  27.732  1.00  0.00     0.049 A 
ATOM     28  C   UNL A   1      45.005  25.249  26.886  1.00  0.00     0.074 A 
ATOM     29  C   UNL A   1      48.016  30.817  27.431  1.00  0.00     0.029 A 
ATOM     30  N   UNL A   1      46.497  29.191  27.438  1.00  0.00    -0.354 N 
ATOM     31  N   UNL A   1      45.545  26.435  27.035  1.00  0.00    -0.248 NA
ATOM     32  C   UNL A   1      45.907  24.243  26.311  1.00  0.00     0.031 C 
ATOM     33  C   UNL A   1      48.608  29.654  26.924  1.00  0.00     0.029 A 
ATOM     34  C   UNL A   1      47.666  28.636  26.945  1.00  0.00     0.049 A 
ATOM     35  H   UNL A   1      45.649  28.706  27.563  1.00  0.00     0.167 HD
ATOM     36  C   UNL A   1      46.855  26.316  26.588  1.00  0.00     0.074 A 
ATOM     37  C   UNL A   1      47.028  24.939  26.167  1.00  0.00     0.031 C 
ATOM     38  C   UNL A   1      47.825  27.261  26.538  1.00  0.00     0.037 A 
BRANCH  25  39
ATOM     39  C   UNL A   1      46.023  32.874  28.426  1.00  0.00     0.058 A 
ATOM     40  C   UNL A   1      45.867  33.808  27.390  1.00  0.00     0.135 A 
ATOM     41  C   UNL A   1      46.523  33.334  29.654  1.00  0.00     0.135 A 
ATOM     42  F   UNL A   1      45.404  33.419  26.192  1.00  0.00    -0.206 F 
ATOM     43  C   UNL A   1      46.240  35.140  27.551  1.00  0.00     0.059 A 
ATOM     44  C   UNL A   1      46.881  34.666  29.845  1.00  0.00     0.059 A 
ATOM     45  F   UNL A   1      46.688  32.484  30.680  1.00  0.00    -0.206 F 
ATOM     46  C   UNL A   1      46.759  35.555  28.778  1.00  0.00     0.060 A 
BRANCH  46  47
ATOM     47  S   UNL A   1      47.292  37.271  28.957  1.00  0.00     0.124 S 
ATOM     48  O   UNL A   1      47.424  37.678  27.561  1.00  0.00    -0.237 OA
ATOM     49  O   UNL A   1      46.181  37.873  29.688  1.00  0.00    -0.237 OA
ATOM     50  O   UNL A   1      48.542  37.162  29.702  1.00  0.00    -0.744 OA
ENDBRANCH  46  47
ENDBRANCH  25  39
BRANCH  26  51
ATOM     51  C   UNL A   1      43.145  23.422  26.951  1.00  0.00     0.058 A 
ATOM     52  C   UNL A   1      42.933  22.975  25.641  1.00  0.00     0.135 A 
ATOM     53  C   UNL A   1      43.000  22.493  27.995  1.00  0.00     0.135 A 
ATOM     54  F   UNL A   1      43.055  23.830  24.613  1.00  0.00    -0.206 F 
ATOM     55  C   UNL A   1      42.608  21.651  25.368  1.00  0.00     0.059 A 
ATOM     56  C   UNL A   1      42.695  21.159  27.746  1.00  0.00     0.059 A 
ATOM     57  F   UNL A   1      43.210  22.871  29.265  1.00  0.00    -0.206 F 
ATOM     58  C   UNL A   1      42.504  20.747  26.428  1.00  0.00     0.060 A 
BRANCH  58  59
ATOM     59  S   UNL A   1      42.196  19.006  26.056  1.00  0.00     0.124 S 
ATOM     60  O   UNL A   1      43.110  18.778  24.943  1.00  0.00    -0.237 OA
ATOM     61  O   UNL A   1      42.547  18.354  27.315  1.00  0.00    -0.237 OA
ATOM     62  O   UNL A   1      40.775  18.981  25.725  1.00  0.00    -0.744 OA
ENDBRANCH  58  59
ENDBRANCH  26  51
BRANCH  38  63
ATOM     63  C   UNL A   1      49.177  26.844  26.038  1.00  0.00     0.058 A 
ATOM     64  C   UNL A   1      49.566  27.057  24.708  1.00  0.00     0.135 A 
ATOM     65  C   UNL A   1      50.124  26.308  26.925  1.00  0.00     0.135 A 
ATOM     66  F   UNL A   1      48.693  27.557  23.819  1.00  0.00    -0.206 F 
ATOM     67  C   UNL A   1      50.853  26.757  24.272  1.00  0.00     0.059 A 
ATOM     68  C   UNL A   1      51.422  26.018  26.516  1.00  0.00     0.059 A 
ATOM     69  F   UNL A   1      49.801  26.091  28.210  1.00  0.00    -0.206 F 
ATOM     70  C   UNL A   1      51.777  26.245  25.186  1.00  0.00     0.060 A 
BRANCH  70  71
ATOM     71  S   UNL A   1      53.466  25.931  24.632  1.00  0.00     0.124 S 
ATOM     72  O   UNL A   1      54.243  26.667  25.623  1.00  0.00    -0.237 OA
ATOM     73  O   UNL A   1      53.557  24.475  24.708  1.00  0.00    -0.237 OA
ATOM     74  O   UNL A   1      53.488  26.482  23.280  1.00  0.00    -0.744 OA
ENDBRANCH  70  71
ENDBRANCH  38  63
ENDBRANCH  12  13
ENDBRANCH   5   7
ENDBRANCH   2   3
ENDBRANCH   1   2
BRANCH   1  75
ATOM     75  C   UNL A   1      33.635  30.063  26.818  1.00  0.00     0.117 C 
BRANCH  75  76
ATOM     76  N   UNL A   1      32.701  29.135  27.433  1.00  0.00    -0.354 N 
ATOM     77  C   UNL A   1      31.969  28.119  26.882  1.00  0.00     0.249 C 
ATOM     78  H   UNL A   1      32.576  29.255  28.402  1.00  0.00     0.163 HD
ATOM     79  O   UNL A   1      31.187  27.528  27.630  1.00  0.00    -0.272 OA
BRANCH  77  80
ATOM     80  C   UNL A   1      32.166  27.712  25.399  1.00  0.00     0.207 C 
ATOM     81  C   UNL A   1      31.091  28.252  24.456  1.00  0.00     0.045 C 
ATOM     82  O   UNL A   1      32.132  26.269  25.246  1.00  0.00    -0.363 OA
ATOM     83  C   UNL A   1      30.725  27.070  23.596  1.00  0.00     0.037 C 
ATOM     84  C   UNL A   1      30.890  25.949  24.596  1.00  0.00     0.138 C 
BRANCH  84  85
ATOM     85  C   UNL A   1      30.872  24.535  24.012  1.00  0.00     0.148 C 
BRANCH  85  86
ATOM     86  N   UNL A   1      31.629  24.397  22.773  1.00  0.00    -0.349 N 
ATOM     87  C   UNL A   1      32.725  23.630  22.496  1.00  0.00     0.252 C 
ATOM     88  H   UNL A   1      31.298  24.939  22.021  1.00  0.00     0.163 HD
ATOM     89  O   UNL A   1      33.313  23.759  21.424  1.00  0.00    -0.269 OA
BRANCH  87  90
ATOM     90  C   UNL A   1      33.159  22.584  23.437  1.00  0.00     0.059 A 
ATOM     91  C   UNL A   1      32.587  21.309  23.311  1.00  0.00     0.036 A 
ATOM     92  C   UNL A   1      34.202  22.802  24.344  1.00  0.00     0.053 A 
ATOM     93  C   UNL A   1      33.036  20.269  24.118  1.00  0.00     0.041 A 
ATOM     94  C   UNL A   1      34.656  21.743  25.137  1.00  0.00     0.023 A 
ATOM     95  Cl  UNL A   1      34.955  24.342  24.554  1.00  0.00    -0.083 Cl
ATOM     96  Cl  UNL A   1      32.319  18.713  23.980  1.00  0.00    -0.084 Cl
ATOM     97  C   UNL A   1      34.072  20.478  25.027  1.00  0.00     0.022 A 
ENDBRANCH  87  90
ENDBRANCH  85  86
ENDBRANCH  84  85
ENDBRANCH  77  80
ENDBRANCH  75  76
ENDBRANCH   1  75
TORSDOF 16
ENDMDL
MODEL 3
REMARK VINA RESULT:     -12.0      6.387     11.894
REMARK SMILES O=C(NCCCNC(=O)[C@@H]1CC[C@@H](CNC(=O)c2cc(Cl)ccc2Cl)O1)c1ccc(-c2c3nc(c(-c4c(F)cc(S(=O)(=O)[O-])cc4F)c4ccc([nH]4)c(-c4c(F)cc(S(=O)(=O)[O-])cc4F)c4nc(c(-c5c(F)cc(S(=O)(=O)[O-])cc5F)c5ccc2[nH]5)C=C4)C=C3)cc1
REMARK SMILES IDX 5 1 4 2 3 3 1 4 2 5 27 7 28 8 92 9 29 10 91 11 30 12 31 13
REMARK SMILES IDX 32 14 85 15 33 16 90 17 84 18 86 19 34 20 89 21 83 22 82 23
REMARK SMILES IDX 35 25 69 26 48 27 68 28 49 29 52 30 67 31 87 32 50 33 51 34
REMARK SMILES IDX 66 36 88 37 53 38 36 39 37 40 46 41 38 42 39 43 45 44 47 45
REMARK SMILES IDX 40 46 41 47 42 48 43 49 44 50 70 51 71 52 80 53 72 54 73 55
REMARK SMILES IDX 79 56 81 57 74 58 75 59 76 60 77 61 78 62 54 63 55 64 64 65
REMARK SMILES IDX 56 66 57 67 63 68 65 69 58 70 59 71 60 72 61 73 62 74 6 75
REMARK SMILES IDX 7 76 8 77 9 79 10 80 11 81 26 82 12 83 13 84 14 85 15 86
REMARK SMILES IDX 16 87 17 89 18 90 19 91 24 92 20 93 23 94 25 95 21 96 22 97
REMARK H PARENT 3 6 86 24 52 35 7 78 15 88
REMARK Flexibility Score: inf
ROOT
ATOM      1  C   UNL A   1      39.200  22.000  25.993  1.00  0.00     0.042 C 
ENDROOT
BRANCH   1   2
ATOM      2  C   UNL A   1      39.836  23.192  26.703  1.00  0.00     0.118 C 
BRANCH   2   3
ATOM      3  N   UNL A   1      41.125  23.530  26.125  1.00  0.00    -0.352 N 
ATOM      4  O   UNL A   1      42.766  24.880  25.415  1.00  0.00    -0.269 OA
ATOM      5  C   UNL A   1      41.851  24.690  26.215  1.00  0.00     0.251 C 
ATOM      6  H   UNL A   1      41.540  22.817  25.588  1.00  0.00     0.163 HD
BRANCH   5   7
ATOM      7  C   UNL A   1      41.558  25.706  27.254  1.00  0.00     0.039 A 
ATOM      8  C   UNL A   1      40.547  25.513  28.201  1.00  0.00     0.014 A 
ATOM      9  C   UNL A   1      42.387  26.830  27.344  1.00  0.00     0.014 A 
ATOM     10  C   UNL A   1      40.313  26.475  29.183  1.00  0.00     0.010 A 
ATOM     11  C   UNL A   1      42.189  27.765  28.362  1.00  0.00     0.010 A 
ATOM     12  C   UNL A   1      41.145  27.600  29.286  1.00  0.00    -0.014 A 
BRANCH  12  13
ATOM     13  C   UNL A   1      40.976  28.565  30.402  1.00  0.00     0.031 A 
ATOM     14  C   UNL A   1      41.802  28.448  31.650  1.00  0.00     0.074 A 
ATOM     15  C   UNL A   1      40.032  29.521  30.304  1.00  0.00     0.049 A 
ATOM     16  N   UNL A   1      41.726  29.140  32.757  1.00  0.00    -0.248 NA
ATOM     17  C   UNL A   1      42.843  27.410  31.657  1.00  0.00     0.031 C 
ATOM     18  C   UNL A   1      39.156  29.723  29.148  1.00  0.00     0.029 A 
ATOM     19  N   UNL A   1      39.637  30.488  31.194  1.00  0.00    -0.354 N 
ATOM     20  C   UNL A   1      42.690  28.608  33.605  1.00  0.00     0.074 A 
ATOM     21  C   UNL A   1      43.328  27.524  32.887  1.00  0.00     0.031 C 
ATOM     22  C   UNL A   1      38.329  30.748  29.397  1.00  0.00     0.029 A 
ATOM     23  C   UNL A   1      38.580  31.244  30.747  1.00  0.00     0.049 A 
ATOM     24  H   UNL A   1      40.069  30.627  32.067  1.00  0.00     0.167 HD
ATOM     25  C   UNL A   1      43.011  28.988  34.865  1.00  0.00     0.037 A 
ATOM     26  C   UNL A   1      37.869  32.209  31.362  1.00  0.00     0.037 A 
ATOM     27  C   UNL A   1      42.375  30.072  35.569  1.00  0.00     0.049 A 
ATOM     28  C   UNL A   1      38.233  32.612  32.761  1.00  0.00     0.074 A 
ATOM     29  C   UNL A   1      42.655  30.560  36.834  1.00  0.00     0.029 A 
ATOM     30  N   UNL A   1      41.324  30.830  35.073  1.00  0.00    -0.354 N 
ATOM     31  N   UNL A   1      39.174  32.124  33.534  1.00  0.00    -0.248 NA
ATOM     32  C   UNL A   1      37.448  33.692  33.372  1.00  0.00     0.031 C 
ATOM     33  C   UNL A   1      41.750  31.590  37.115  1.00  0.00     0.029 A 
ATOM     34  C   UNL A   1      40.931  31.771  36.010  1.00  0.00     0.049 A 
ATOM     35  H   UNL A   1      40.916  30.715  34.183  1.00  0.00     0.167 HD
ATOM     36  C   UNL A   1      39.105  32.849  34.718  1.00  0.00     0.074 A 
ATOM     37  C   UNL A   1      38.033  33.811  34.557  1.00  0.00     0.031 C 
ATOM     38  C   UNL A   1      39.867  32.728  35.832  1.00  0.00     0.037 A 
BRANCH  25  39
ATOM     39  C   UNL A   1      44.082  28.202  35.570  1.00  0.00     0.058 A 
ATOM     40  C   UNL A   1      43.774  27.095  36.377  1.00  0.00     0.135 A 
ATOM     41  C   UNL A   1      45.431  28.568  35.444  1.00  0.00     0.135 A 
ATOM     42  F   UNL A   1      42.499  26.710  36.540  1.00  0.00    -0.206 F 
ATOM     43  C   UNL A   1      44.764  26.406  37.072  1.00  0.00     0.059 A 
ATOM     44  C   UNL A   1      46.440  27.879  36.112  1.00  0.00     0.059 A 
ATOM     45  F   UNL A   1      45.780  29.615  34.681  1.00  0.00    -0.206 F 
ATOM     46  C   UNL A   1      46.093  26.816  36.944  1.00  0.00     0.060 A 
BRANCH  46  47
ATOM     47  S   UNL A   1      47.361  25.950  37.894  1.00  0.00     0.124 S 
ATOM     48  O   UNL A   1      46.552  25.008  38.661  1.00  0.00    -0.237 OA
ATOM     49  O   UNL A   1      48.195  25.364  36.850  1.00  0.00    -0.237 OA
ATOM     50  O   UNL A   1      47.990  27.016  38.669  1.00  0.00    -0.744 OA
ENDBRANCH  46  47
ENDBRANCH  25  39
BRANCH  26  51
ATOM     51  C   UNL A   1      36.740  32.843  30.635  1.00  0.00     0.058 A 
ATOM     52  C   UNL A   1      35.411  32.560  30.977  1.00  0.00     0.135 A 
ATOM     53  C   UNL A   1      36.972  33.818  29.651  1.00  0.00     0.135 A 
ATOM     54  F   UNL A   1      35.142  31.632  31.908  1.00  0.00    -0.206 F 
ATOM     55  C   UNL A   1      34.349  33.233  30.383  1.00  0.00     0.059 A 
ATOM     56  C   UNL A   1      35.928  34.518  29.056  1.00  0.00     0.059 A 
ATOM     57  F   UNL A   1      38.230  34.135  29.302  1.00  0.00    -0.206 F 
ATOM     58  C   UNL A   1      34.619  34.220  29.432  1.00  0.00     0.060 A 
BRANCH  58  59
ATOM     59  S   UNL A   1      33.240  35.168  28.751  1.00  0.00     0.124 S 
ATOM     60  O   UNL A   1      32.529  35.562  29.961  1.00  0.00    -0.237 OA
ATOM     61  O   UNL A   1      33.926  36.240  28.035  1.00  0.00    -0.237 OA
ATOM     62  O   UNL A   1      32.556  34.199  27.900  1.00  0.00    -0.744 OA
ENDBRANCH  58  59
ENDBRANCH  26  51
BRANCH  38  63
ATOM     63  C   UNL A   1      39.598  33.676  36.965  1.00  0.00     0.058 A 
ATOM     64  C   UNL A   1      38.722  33.344  38.008  1.00  0.00     0.135 A 
ATOM     65  C   UNL A   1      40.295  34.891  37.050  1.00  0.00     0.135 A 
ATOM     66  F   UNL A   1      38.025  32.198  37.966  1.00  0.00    -0.206 F 
ATOM     67  C   UNL A   1      38.549  34.184  39.103  1.00  0.00     0.059 A 
ATOM     68  C   UNL A   1      40.152  35.738  38.144  1.00  0.00     0.059 A 
ATOM     69  F   UNL A   1      41.149  35.251  36.077  1.00  0.00    -0.206 F 
ATOM     70  C   UNL A   1      39.274  35.376  39.166  1.00  0.00     0.060 A 
BRANCH  70  71
ATOM     71  S   UNL A   1      39.102  36.423  40.627  1.00  0.00     0.124 S 
ATOM     72  O   UNL A   1      38.546  37.642  40.051  1.00  0.00    -0.237 OA
ATOM     73  O   UNL A   1      38.193  35.646  41.465  1.00  0.00    -0.237 OA
ATOM     74  O   UNL A   1      40.468  36.530  41.131  1.00  0.00    -0.744 OA
ENDBRANCH  70  71
ENDBRANCH  38  63
ENDBRANCH  12  13
ENDBRANCH   5   7
ENDBRANCH   2   3
ENDBRANCH   1   2
BRANCH   1  75
ATOM     75  C   UNL A   1      37.682  22.114  25.843  1.00  0.00     0.117 C 
BRANCH  75  76
ATOM     76  N   UNL A   1      37.309  22.573  24.516  1.00  0.00    -0.354 N 
ATOM     77  C   UNL A   1      36.076  22.713  23.941  1.00  0.00     0.249 C 
ATOM     78  H   UNL A   1      38.065  22.825  23.938  1.00  0.00     0.163 HD
ATOM     79  O   UNL A   1      36.050  23.058  22.757  1.00  0.00    -0.272 OA
BRANCH  77  80
ATOM     80  C   UNL A   1      34.783  22.496  24.769  1.00  0.00     0.207 C 
ATOM     81  C   UNL A   1      34.105  21.148  24.524  1.00  0.00     0.045 C 
ATOM     82  O   UNL A   1      33.786  23.500  24.452  1.00  0.00    -0.363 OA
ATOM     83  C   UNL A   1      32.646  21.491  24.371  1.00  0.00     0.037 C 
ATOM     84  C   UNL A   1      32.755  22.839  23.697  1.00  0.00     0.138 C 
BRANCH  84  85
ATOM     85  C   UNL A   1      31.460  23.649  23.623  1.00  0.00     0.148 C 
BRANCH  85  86
ATOM     86  N   UNL A   1      30.679  23.628  24.855  1.00  0.00    -0.349 N 
ATOM     87  C   UNL A   1      30.497  24.603  25.794  1.00  0.00     0.252 C 
ATOM     88  H   UNL A   1      30.210  22.782  25.036  1.00  0.00     0.163 HD
ATOM     89  O   UNL A   1      29.914  24.345  26.846  1.00  0.00    -0.269 OA
BRANCH  87  90
ATOM     90  C   UNL A   1      30.917  25.987  25.521  1.00  0.00     0.059 A 
ATOM     91  C   UNL A   1      32.118  26.434  26.091  1.00  0.00     0.036 A 
ATOM     92  C   UNL A   1      30.221  26.799  24.618  1.00  0.00     0.053 A 
ATOM     93  C   UNL A   1      32.599  27.702  25.783  1.00  0.00     0.041 A 
ATOM     94  C   UNL A   1      30.724  28.065  24.304  1.00  0.00     0.023 A 
ATOM     95  Cl  UNL A   1      28.738  26.318  23.876  1.00  0.00    -0.083 Cl
ATOM     96  Cl  UNL A   1      34.059  28.258  26.501  1.00  0.00    -0.084 Cl
ATOM     97  C   UNL A   1      31.910  28.518  24.888  1.00  0.00     0.022 A 
ENDBRANCH  87  90
ENDBRANCH  85  86
ENDBRANCH  84  85
ENDBRANCH  77  80
ENDBRANCH  75  76
ENDBRANCH   1  75
TORSDOF 16
ENDMDL
