MODEL 1
REMARK VINA RESULT:     -11.8      0.000      0.000
REMARK SMILES CCN(C(=O)Cc1c(C(=O)NCCCNC(=O)c2ccc(-c3c4nc(c(-c5c(F)cc(S(=O)(=O)[O-])cc5F)c5ccc([nH]5)c(-c5c(F)cc(S(=O)(=O)[O-])cc5F)c5nc(c(-c6c(F)cc(S(=O)(=O)[O-])cc6F)c6ccc3[nH]6)C=C5)C=C4)cc2)[nH]c2ccc(Cl)cc12)c1ccc(C)c(C)c1
REMARK SMILES IDX 12 1 11 2 9 3 10 4 8 6 7 7 91 8 84 9 85 10 90 11 86 13 88 14
REMARK SMILES IDX 87 15 89 16 6 17 4 18 5 19 3 20 2 21 1 22 92 23 93 24 99 25
REMARK SMILES IDX 94 26 97 27 95 28 98 29 96 30 13 31 14 32 15 33 16 34 17 36
REMARK SMILES IDX 18 37 19 38 83 39 20 40 82 41 21 42 22 43 23 44 76 45 24 46
REMARK SMILES IDX 81 47 75 48 77 49 25 50 80 51 74 52 73 53 26 55 60 56 39 57
REMARK SMILES IDX 59 58 40 59 43 60 58 61 78 62 41 63 42 64 57 66 79 67 44 68
REMARK SMILES IDX 27 69 28 70 37 71 29 72 30 73 36 74 38 75 31 76 32 77 33 78
REMARK SMILES IDX 34 79 35 80 61 81 62 82 71 83 63 84 64 85 70 86 72 87 65 88
REMARK SMILES IDX 66 89 67 90 68 91 69 92 45 93 46 94 55 95 47 96 48 97 54 98
REMARK SMILES IDX 56 99 49 100 50 101 51 102 52 103 53 104
REMARK H PARENT 11 5 84 12 15 35 77 54 43 65
REMARK Flexibility Score: inf
ROOT
ATOM      1  C   UNL A   1      34.079  29.964  27.240  1.00  0.00     0.118 C 
ENDROOT
BRANCH   1   2
ATOM      2  N   UNL A   1      33.711  29.797  25.851  1.00  0.00    -0.351 N 
ATOM      3  C   UNL A   1      33.310  28.798  25.020  1.00  0.00     0.268 C 
ATOM      4  O   UNL A   1      32.952  29.207  23.908  1.00  0.00    -0.268 OA
ATOM      5  H   UNL A   1      33.768  30.653  25.369  1.00  0.00     0.163 HD
BRANCH   3   6
ATOM      6  C   UNL A   1      33.249  27.368  25.292  1.00  0.00     0.109 A 
ATOM      7  C   UNL A   1      32.451  26.410  25.933  1.00  0.00    -0.000 A 
ATOM      8  C   UNL A   1      33.233  25.188  25.986  1.00  0.00     0.005 A 
ATOM      9  N   UNL A   1      34.286  26.641  24.718  1.00  0.00    -0.350 N 
ATOM     10  C   UNL A   1      34.340  25.357  25.170  1.00  0.00     0.046 A 
ATOM     11  C   UNL A   1      33.101  23.959  26.673  1.00  0.00     0.031 A 
ATOM     12  H   UNL A   1      34.913  27.014  24.057  1.00  0.00     0.167 HD
ATOM     13  C   UNL A   1      35.294  24.362  24.934  1.00  0.00     0.028 A 
ATOM     14  C   UNL A   1      34.083  22.975  26.505  1.00  0.00     0.041 A 
ATOM     15  C   UNL A   1      35.152  23.163  25.632  1.00  0.00     0.022 A 
ATOM     16  Cl  UNL A   1      33.984  21.513  27.412  1.00  0.00    -0.084 Cl
BRANCH   7  17
ATOM     17  C   UNL A   1      31.116  26.511  26.602  1.00  0.00     0.139 C 
BRANCH  17  18
ATOM     18  C   UNL A   1      29.914  25.842  25.910  1.00  0.00     0.231 C 
ATOM     19  O   UNL A   1      29.083  25.297  26.654  1.00  0.00    -0.274 OA
BRANCH  18  20
ATOM     20  N   UNL A   1      29.710  25.910  24.523  1.00  0.00    -0.312 N 
BRANCH  20  21
ATOM     21  C   UNL A   1      28.522  26.458  23.850  1.00  0.00     0.122 C 
ATOM     22  C   UNL A   1      28.536  27.930  23.474  1.00  0.00     0.028 C 
ENDBRANCH  20  21
BRANCH  20  23
ATOM     23  C   UNL A   1      30.608  25.219  23.641  1.00  0.00     0.044 A 
ATOM     24  C   UNL A   1      31.309  25.896  22.642  1.00  0.00     0.026 A 
ATOM     25  C   UNL A   1      30.897  23.867  23.851  1.00  0.00     0.030 A 
ATOM     26  C   UNL A   1      32.302  25.237  21.908  1.00  0.00     0.006 A 
ATOM     27  C   UNL A   1      31.905  23.194  23.143  1.00  0.00    -0.046 A 
ATOM     28  C   UNL A   1      32.618  23.888  22.153  1.00  0.00    -0.048 A 
ATOM     29  C   UNL A   1      32.159  21.751  23.475  1.00  0.00     0.044 C 
ATOM     30  C   UNL A   1      33.686  23.245  21.315  1.00  0.00     0.044 C 
ENDBRANCH  20  23
ENDBRANCH  18  20
ENDBRANCH  17  18
ENDBRANCH   7  17
ENDBRANCH   3   6
ENDBRANCH   1   2
BRANCH   1  31
ATOM     31  C   UNL A   1      35.579  30.044  27.451  1.00  0.00     0.042 C 
BRANCH  31  32
ATOM     32  C   UNL A   1      35.964  29.401  28.769  1.00  0.00     0.118 C 
BRANCH  32  33
ATOM     33  N   UNL A   1      35.680  30.232  29.936  1.00  0.00    -0.352 N 
ATOM     34  C   UNL A   1      36.596  30.834  30.770  1.00  0.00     0.251 C 
ATOM     35  H   UNL A   1      34.730  30.378  30.149  1.00  0.00     0.163 HD
ATOM     36  O   UNL A   1      36.230  31.459  31.760  1.00  0.00    -0.269 OA
BRANCH  34  37
ATOM     37  C   UNL A   1      38.031  30.654  30.470  1.00  0.00     0.039 A 
ATOM     38  C   UNL A   1      38.843  30.007  31.402  1.00  0.00     0.014 A 
ATOM     39  C   UNL A   1      38.524  30.999  29.210  1.00  0.00     0.014 A 
ATOM     40  C   UNL A   1      40.133  29.624  31.032  1.00  0.00     0.010 A 
ATOM     41  C   UNL A   1      39.762  30.519  28.810  1.00  0.00     0.010 A 
ATOM     42  C   UNL A   1      40.582  29.830  29.718  1.00  0.00    -0.014 A 
BRANCH  42  43
ATOM     43  C   UNL A   1      41.913  29.360  29.260  1.00  0.00     0.031 A 
ATOM     44  C   UNL A   1      43.046  30.347  29.160  1.00  0.00     0.074 A 
ATOM     45  C   UNL A   1      42.074  28.087  28.842  1.00  0.00     0.049 A 
ATOM     46  N   UNL A   1      44.236  30.187  28.646  1.00  0.00    -0.248 NA
ATOM     47  C   UNL A   1      42.788  31.708  29.660  1.00  0.00     0.031 C 
ATOM     48  C   UNL A   1      41.030  27.059  28.822  1.00  0.00     0.029 A 
ATOM     49  N   UNL A   1      43.175  27.446  28.336  1.00  0.00    -0.354 N 
ATOM     50  C   UNL A   1      44.849  31.432  28.724  1.00  0.00     0.074 A 
ATOM     51  C   UNL A   1      43.884  32.350  29.284  1.00  0.00     0.031 C 
ATOM     52  C   UNL A   1      41.547  25.912  28.349  1.00  0.00     0.029 A 
ATOM     53  C   UNL A   1      42.946  26.130  28.000  1.00  0.00     0.049 A 
ATOM     54  H   UNL A   1      44.050  27.884  28.224  1.00  0.00     0.167 HD
ATOM     55  C   UNL A   1      46.115  31.773  28.389  1.00  0.00     0.037 A 
ATOM     56  C   UNL A   1      43.773  25.211  27.464  1.00  0.00     0.037 A 
ATOM     57  C   UNL A   1      47.093  30.836  27.908  1.00  0.00     0.049 A 
ATOM     58  C   UNL A   1      45.195  25.600  27.164  1.00  0.00     0.074 A 
ATOM     59  C   UNL A   1      48.429  31.056  27.627  1.00  0.00     0.029 A 
ATOM     60  N   UNL A   1      46.843  29.496  27.654  1.00  0.00    -0.354 N 
ATOM     61  N   UNL A   1      45.778  26.766  27.309  1.00  0.00    -0.248 NA
ATOM     62  C   UNL A   1      46.077  24.548  26.637  1.00  0.00     0.031 C 
ATOM     63  C   UNL A   1      48.982  29.853  27.179  1.00  0.00     0.029 A 
ATOM     64  C   UNL A   1      47.999  28.877  27.215  1.00  0.00     0.049 A 
ATOM     65  H   UNL A   1      45.973  29.051  27.770  1.00  0.00     0.167 HD
ATOM     66  C   UNL A   1      47.100  26.582  26.917  1.00  0.00     0.074 A 
ATOM     67  C   UNL A   1      47.234  25.190  26.542  1.00  0.00     0.031 C 
ATOM     68  C   UNL A   1      48.111  27.483  26.871  1.00  0.00     0.037 A 
BRANCH  55  69
ATOM     69  C   UNL A   1      46.525  33.208  28.559  1.00  0.00     0.058 A 
ATOM     70  C   UNL A   1      46.393  34.139  27.516  1.00  0.00     0.135 A 
ATOM     71  C   UNL A   1      47.013  33.670  29.792  1.00  0.00     0.135 A 
ATOM     72  F   UNL A   1      45.953  33.745  26.310  1.00  0.00    -0.206 F 
ATOM     73  C   UNL A   1      46.747  35.472  27.684  1.00  0.00     0.059 A 
ATOM     74  C   UNL A   1      47.348  35.006  29.990  1.00  0.00     0.059 A 
ATOM     75  F   UNL A   1      47.165  32.820  30.820  1.00  0.00    -0.206 F 
ATOM     76  C   UNL A   1      47.220  35.898  28.926  1.00  0.00     0.060 A 
BRANCH  76  77
ATOM     77  S   UNL A   1      47.646  37.639  29.135  1.00  0.00     0.124 S 
ATOM     78  O   UNL A   1      47.265  37.867  30.525  1.00  0.00    -0.237 OA
ATOM     79  O   UNL A   1      49.079  37.646  28.862  1.00  0.00    -0.237 OA
ATOM     80  O   UNL A   1      46.817  38.312  28.139  1.00  0.00    -0.744 OA
ENDBRANCH  76  77
ENDBRANCH  55  69
BRANCH  56  81
ATOM     81  C   UNL A   1      43.290  23.830  27.195  1.00  0.00     0.058 A 
ATOM     82  C   UNL A   1      42.898  23.443  25.905  1.00  0.00     0.135 A 
ATOM     83  C   UNL A   1      43.193  22.876  28.220  1.00  0.00     0.135 A 
ATOM     84  F   UNL A   1      42.969  24.320  24.892  1.00  0.00    -0.206 F 
ATOM     85  C   UNL A   1      42.398  22.171  25.643  1.00  0.00     0.059 A 
ATOM     86  C   UNL A   1      42.719  21.589  27.979  1.00  0.00     0.059 A 
ATOM     87  F   UNL A   1      43.576  23.188  29.468  1.00  0.00    -0.206 F 
ATOM     88  C   UNL A   1      42.307  21.252  26.690  1.00  0.00     0.060 A 
BRANCH  88  89
ATOM     89  S   UNL A   1      41.672  19.597  26.341  1.00  0.00     0.124 S 
ATOM     90  O   UNL A   1      40.251  19.865  26.150  1.00  0.00    -0.237 OA
ATOM     91  O   UNL A   1      42.419  19.226  25.143  1.00  0.00    -0.237 OA
ATOM     92  O   UNL A   1      42.019  18.847  27.544  1.00  0.00    -0.744 OA
ENDBRANCH  88  89
ENDBRANCH  56  81
BRANCH  68  93
ATOM     93  C   UNL A   1      49.460  26.987  26.442  1.00  0.00     0.058 A 
ATOM     94  C   UNL A   1      50.342  26.378  27.347  1.00  0.00     0.135 A 
ATOM     95  C   UNL A   1      49.844  27.059  25.092  1.00  0.00     0.135 A 
ATOM     96  F   UNL A   1      50.021  26.291  28.648  1.00  0.00    -0.206 F 
ATOM     97  C   UNL A   1      51.566  25.868  26.932  1.00  0.00     0.059 A 
ATOM     98  C   UNL A   1      51.054  26.533  24.652  1.00  0.00     0.059 A 
ATOM     99  F   UNL A   1      49.029  27.622  24.187  1.00  0.00    -0.206 F 
ATOM    100  C   UNL A   1      51.912  25.948  25.582  1.00  0.00     0.060 A 
BRANCH 100 101
ATOM    101  S   UNL A   1      53.483  25.239  25.047  1.00  0.00     0.124 S 
ATOM    102  O   UNL A   1      53.533  25.658  23.649  1.00  0.00    -0.237 OA
ATOM    103  O   UNL A   1      54.441  25.887  25.938  1.00  0.00    -0.237 OA
ATOM    104  O   UNL A   1      53.302  23.807  25.267  1.00  0.00    -0.744 OA
ENDBRANCH 100 101
ENDBRANCH  68  93
ENDBRANCH  42  43
ENDBRANCH  34  37
ENDBRANCH  32  33
ENDBRANCH  31  32
ENDBRANCH   1  31
TORSDOF 18
ENDMDL
MODEL 2
REMARK VINA RESULT:     -11.7      1.543      2.778
REMARK SMILES CCN(C(=O)Cc1c(C(=O)NCCCNC(=O)c2ccc(-c3c4nc(c(-c5c(F)cc(S(=O)(=O)[O-])cc5F)c5ccc([nH]5)c(-c5c(F)cc(S(=O)(=O)[O-])cc5F)c5nc(c(-c6c(F)cc(S(=O)(=O)[O-])cc6F)c6ccc3[nH]6)C=C5)C=C4)cc2)[nH]c2ccc(Cl)cc12)c1ccc(C)c(C)c1
REMARK SMILES IDX 12 1 11 2 9 3 10 4 8 6 7 7 91 8 84 9 85 10 90 11 86 13 88 14
REMARK SMILES IDX 87 15 89 16 6 17 4 18 5 19 3 20 2 21 1 22 92 23 93 24 99 25
REMARK SMILES IDX 94 26 97 27 95 28 98 29 96 30 13 31 14 32 15 33 16 34 17 36
REMARK SMILES IDX 18 37 19 38 83 39 20 40 82 41 21 42 22 43 23 44 76 45 24 46
REMARK SMILES IDX 81 47 75 48 77 49 25 50 80 51 74 52 73 53 26 55 60 56 39 57
REMARK SMILES IDX 59 58 40 59 43 60 58 61 78 62 41 63 42 64 57 66 79 67 44 68
REMARK SMILES IDX 27 69 28 70 37 71 29 72 30 73 36 74 38 75 31 76 32 77 33 78
REMARK SMILES IDX 34 79 35 80 61 81 62 82 71 83 63 84 64 85 70 86 72 87 65 88
REMARK SMILES IDX 66 89 67 90 68 91 69 92 45 93 46 94 55 95 47 96 48 97 54 98
REMARK SMILES IDX 56 99 49 100 50 101 51 102 52 103 53 104
REMARK H PARENT 11 5 84 12 15 35 77 54 43 65
REMARK Flexibility Score: inf
ROOT
ATOM      1  C   UNL A   1      34.823  29.112  27.284  1.00  0.00     0.118 C 
ENDROOT
BRANCH   1   2
ATOM      2  N   UNL A   1      33.469  28.741  27.629  1.00  0.00    -0.351 N 
ATOM      3  C   UNL A   1      32.490  27.922  27.160  1.00  0.00     0.268 C 
ATOM      4  O   UNL A   1      31.523  27.835  27.926  1.00  0.00    -0.268 OA
ATOM      5  H   UNL A   1      33.169  29.219  28.436  1.00  0.00     0.163 HD
BRANCH   3   6
ATOM      6  C   UNL A   1      32.468  27.164  25.915  1.00  0.00     0.109 A 
ATOM      7  C   UNL A   1      33.177  26.171  25.227  1.00  0.00    -0.000 A 
ATOM      8  C   UNL A   1      32.648  26.143  23.876  1.00  0.00     0.005 A 
ATOM      9  N   UNL A   1      31.376  27.449  25.102  1.00  0.00    -0.350 N 
ATOM     10  C   UNL A   1      31.493  26.908  23.857  1.00  0.00     0.046 A 
ATOM     11  C   UNL A   1      33.062  25.545  22.664  1.00  0.00     0.031 A 
ATOM     12  H   UNL A   1      30.602  27.983  25.395  1.00  0.00     0.167 HD
ATOM     13  C   UNL A   1      30.681  27.068  22.730  1.00  0.00     0.028 A 
ATOM     14  C   UNL A   1      32.300  25.750  21.507  1.00  0.00     0.041 A 
ATOM     15  C   UNL A   1      31.115  26.481  21.542  1.00  0.00     0.022 A 
ATOM     16  Cl  UNL A   1      32.848  25.108  20.004  1.00  0.00    -0.084 Cl
BRANCH   7  17
ATOM     17  C   UNL A   1      34.353  25.332  25.621  1.00  0.00     0.139 C 
BRANCH  17  18
ATOM     18  C   UNL A   1      34.195  23.801  25.560  1.00  0.00     0.231 C 
ATOM     19  O   UNL A   1      35.241  23.144  25.435  1.00  0.00    -0.274 OA
BRANCH  18  20
ATOM     20  N   UNL A   1      32.954  23.165  25.723  1.00  0.00    -0.312 N 
BRANCH  20  21
ATOM     21  C   UNL A   1      31.962  23.462  26.768  1.00  0.00     0.122 C 
ATOM     22  C   UNL A   1      30.599  23.966  26.328  1.00  0.00     0.028 C 
ENDBRANCH  20  21
BRANCH  20  23
ATOM     23  C   UNL A   1      32.660  21.982  24.965  1.00  0.00     0.044 A 
ATOM     24  C   UNL A   1      32.427  22.040  23.590  1.00  0.00     0.026 A 
ATOM     25  C   UNL A   1      32.731  20.724  25.570  1.00  0.00     0.030 A 
ATOM     26  C   UNL A   1      32.310  20.861  22.845  1.00  0.00     0.006 A 
ATOM     27  C   UNL A   1      32.642  19.530  24.838  1.00  0.00    -0.046 A 
ATOM     28  C   UNL A   1      32.426  19.598  23.453  1.00  0.00    -0.048 A 
ATOM     29  C   UNL A   1      32.771  18.232  25.584  1.00  0.00     0.044 C 
ATOM     30  C   UNL A   1      32.276  18.377  22.589  1.00  0.00     0.044 C 
ENDBRANCH  20  23
ENDBRANCH  18  20
ENDBRANCH  17  18
ENDBRANCH   7  17
ENDBRANCH   3   6
ENDBRANCH   1   2
BRANCH   1  31
ATOM     31  C   UNL A   1      35.377  30.222  28.159  1.00  0.00     0.042 C 
BRANCH  31  32
ATOM     32  C   UNL A   1      36.114  29.640  29.350  1.00  0.00     0.118 C 
BRANCH  32  33
ATOM     33  N   UNL A   1      35.890  30.369  30.595  1.00  0.00    -0.352 N 
ATOM     34  C   UNL A   1      36.848  30.870  31.449  1.00  0.00     0.251 C 
ATOM     35  H   UNL A   1      34.951  30.520  30.852  1.00  0.00     0.163 HD
ATOM     36  O   UNL A   1      36.531  31.411  32.503  1.00  0.00    -0.269 OA
BRANCH  34  37
ATOM     37  C   UNL A   1      38.267  30.679  31.087  1.00  0.00     0.039 A 
ATOM     38  C   UNL A   1      39.108  30.001  31.969  1.00  0.00     0.014 A 
ATOM     39  C   UNL A   1      38.713  31.049  29.817  1.00  0.00     0.014 A 
ATOM     40  C   UNL A   1      40.377  29.612  31.539  1.00  0.00     0.010 A 
ATOM     41  C   UNL A   1      39.928  30.564  29.356  1.00  0.00     0.010 A 
ATOM     42  C   UNL A   1      40.775  29.844  30.213  1.00  0.00    -0.014 A 
BRANCH  42  43
ATOM     43  C   UNL A   1      42.081  29.369  29.690  1.00  0.00     0.031 A 
ATOM     44  C   UNL A   1      43.234  30.335  29.608  1.00  0.00     0.074 A 
ATOM     45  C   UNL A   1      42.199  28.118  29.201  1.00  0.00     0.049 A 
ATOM     46  N   UNL A   1      44.404  30.177  29.050  1.00  0.00    -0.248 NA
ATOM     47  C   UNL A   1      43.023  31.673  30.186  1.00  0.00     0.031 C 
ATOM     48  C   UNL A   1      41.131  27.115  29.159  1.00  0.00     0.029 A 
ATOM     49  N   UNL A   1      43.270  27.480  28.629  1.00  0.00    -0.354 N 
ATOM     50  C   UNL A   1      45.049  31.402  29.175  1.00  0.00     0.074 A 
ATOM     51  C   UNL A   1      44.122  32.309  29.811  1.00  0.00     0.031 C 
ATOM     52  C   UNL A   1      41.607  25.984  28.612  1.00  0.00     0.029 A 
ATOM     53  C   UNL A   1      42.999  26.189  28.231  1.00  0.00     0.049 A 
ATOM     54  H   UNL A   1      44.151  27.904  28.514  1.00  0.00     0.167 HD
ATOM     55  C   UNL A   1      46.311  31.731  28.819  1.00  0.00     0.037 A 
ATOM     56  C   UNL A   1      43.788  25.281  27.623  1.00  0.00     0.037 A 
ATOM     57  C   UNL A   1      47.252  30.800  28.260  1.00  0.00     0.049 A 
ATOM     58  C   UNL A   1      45.210  25.654  27.300  1.00  0.00     0.074 A 
ATOM     59  C   UNL A   1      48.585  31.005  27.950  1.00  0.00     0.029 A 
ATOM     60  N   UNL A   1      46.963  29.481  27.944  1.00  0.00    -0.354 N 
ATOM     61  N   UNL A   1      45.824  26.798  27.488  1.00  0.00    -0.248 NA
ATOM     62  C   UNL A   1      46.050  24.613  26.692  1.00  0.00     0.031 C 
ATOM     63  C   UNL A   1      49.096  29.815  27.423  1.00  0.00     0.029 A 
ATOM     64  C   UNL A   1      48.091  28.861  27.437  1.00  0.00     0.049 A 
ATOM     65  H   UNL A   1      46.086  29.050  28.063  1.00  0.00     0.167 HD
ATOM     66  C   UNL A   1      47.129  26.606  27.048  1.00  0.00     0.074 A 
ATOM     67  C   UNL A   1      47.219  25.233  26.595  1.00  0.00     0.031 C 
ATOM     68  C   UNL A   1      48.160  27.485  27.018  1.00  0.00     0.037 A 
BRANCH  55  69
ATOM     69  C   UNL A   1      46.760  33.146  29.052  1.00  0.00     0.058 A 
ATOM     70  C   UNL A   1      47.354  33.540  30.262  1.00  0.00     0.135 A 
ATOM     71  C   UNL A   1      46.638  34.109  28.037  1.00  0.00     0.135 A 
ATOM     72  F   UNL A   1      47.475  32.665  31.272  1.00  0.00    -0.206 F 
ATOM     73  C   UNL A   1      47.794  34.843  30.464  1.00  0.00     0.059 A 
ATOM     74  C   UNL A   1      47.096  35.412  28.208  1.00  0.00     0.059 A 
ATOM     75  F   UNL A   1      46.071  33.787  26.863  1.00  0.00    -0.206 F 
ATOM     76  C   UNL A   1      47.664  35.772  29.429  1.00  0.00     0.060 A 
BRANCH  76  77
ATOM     77  S   UNL A   1      48.269  37.450  29.699  1.00  0.00     0.124 S 
ATOM     78  O   UNL A   1      48.619  37.855  28.342  1.00  0.00    -0.237 OA
ATOM     79  O   UNL A   1      47.104  38.113  30.277  1.00  0.00    -0.237 OA
ATOM     80  O   UNL A   1      49.396  37.263  30.608  1.00  0.00    -0.744 OA
ENDBRANCH  76  77
ENDBRANCH  55  69
BRANCH  56  81
ATOM     81  C   UNL A   1      43.264  23.928  27.297  1.00  0.00     0.058 A 
ATOM     82  C   UNL A   1      43.178  22.933  28.282  1.00  0.00     0.135 A 
ATOM     83  C   UNL A   1      42.855  23.596  25.996  1.00  0.00     0.135 A 
ATOM     84  F   UNL A   1      43.559  23.201  29.540  1.00  0.00    -0.206 F 
ATOM     85  C   UNL A   1      42.737  21.646  27.985  1.00  0.00     0.059 A 
ATOM     86  C   UNL A   1      42.387  22.323  25.679  1.00  0.00     0.059 A 
ATOM     87  F   UNL A   1      42.897  24.518  25.022  1.00  0.00    -0.206 F 
ATOM     88  C   UNL A   1      42.348  21.351  26.678  1.00  0.00     0.060 A 
BRANCH  88  89
ATOM     89  S   UNL A   1      41.761  19.684  26.303  1.00  0.00     0.124 S 
ATOM     90  O   UNL A   1      40.331  19.912  26.124  1.00  0.00    -0.237 OA
ATOM     91  O   UNL A   1      42.511  19.356  25.094  1.00  0.00    -0.237 OA
ATOM     92  O   UNL A   1      42.137  18.923  27.491  1.00  0.00    -0.744 OA
ENDBRANCH  88  89
ENDBRANCH  56  81
BRANCH  68  93
ATOM     93  C   UNL A   1      49.484  26.982  26.522  1.00  0.00     0.058 A 
ATOM     94  C   UNL A   1      50.392  26.341  27.376  1.00  0.00     0.135 A 
ATOM     95  C   UNL A   1      49.813  27.083  25.160  1.00  0.00     0.135 A 
ATOM     96  F   UNL A   1      50.124  26.226  28.686  1.00  0.00    -0.206 F 
ATOM     97  C   UNL A   1      51.592  25.825  26.899  1.00  0.00     0.059 A 
ATOM     98  C   UNL A   1      50.997  26.553  24.658  1.00  0.00     0.059 A 
ATOM     99  F   UNL A   1      48.970  27.678  24.302  1.00  0.00    -0.206 F 
ATOM    100  C   UNL A   1      51.884  25.934  25.538  1.00  0.00     0.060 A 
BRANCH 100 101
ATOM    101  S   UNL A   1      53.422  25.218  24.922  1.00  0.00     0.124 S 
ATOM    102  O   UNL A   1      53.235  23.806  25.238  1.00  0.00    -0.237 OA
ATOM    103  O   UNL A   1      53.383  25.562  23.504  1.00  0.00    -0.237 OA
ATOM    104  O   UNL A   1      54.451  25.905  25.698  1.00  0.00    -0.744 OA
ENDBRANCH 100 101
ENDBRANCH  68  93
ENDBRANCH  42  43
ENDBRANCH  34  37
ENDBRANCH  32  33
ENDBRANCH  31  32
ENDBRANCH   1  31
TORSDOF 18
ENDMDL
MODEL 3
REMARK VINA RESULT:     -11.4      1.197      2.576
REMARK SMILES CCN(C(=O)Cc1c(C(=O)NCCCNC(=O)c2ccc(-c3c4nc(c(-c5c(F)cc(S(=O)(=O)[O-])cc5F)c5ccc([nH]5)c(-c5c(F)cc(S(=O)(=O)[O-])cc5F)c5nc(c(-c6c(F)cc(S(=O)(=O)[O-])cc6F)c6ccc3[nH]6)C=C5)C=C4)cc2)[nH]c2ccc(Cl)cc12)c1ccc(C)c(C)c1
REMARK SMILES IDX 12 1 11 2 9 3 10 4 8 6 7 7 91 8 84 9 85 10 90 11 86 13 88 14
REMARK SMILES IDX 87 15 89 16 6 17 4 18 5 19 3 20 2 21 1 22 92 23 93 24 99 25
REMARK SMILES IDX 94 26 97 27 95 28 98 29 96 30 13 31 14 32 15 33 16 34 17 36
REMARK SMILES IDX 18 37 19 38 83 39 20 40 82 41 21 42 22 43 23 44 76 45 24 46
REMARK SMILES IDX 81 47 75 48 77 49 25 50 80 51 74 52 73 53 26 55 60 56 39 57
REMARK SMILES IDX 59 58 40 59 43 60 58 61 78 62 41 63 42 64 57 66 79 67 44 68
REMARK SMILES IDX 27 69 28 70 37 71 29 72 30 73 36 74 38 75 31 76 32 77 33 78
REMARK SMILES IDX 34 79 35 80 61 81 62 82 71 83 63 84 64 85 70 86 72 87 65 88
REMARK SMILES IDX 66 89 67 90 68 91 69 92 45 93 46 94 55 95 47 96 48 97 54 98
REMARK SMILES IDX 56 99 49 100 50 101 51 102 52 103 53 104
REMARK H PARENT 11 5 84 12 15 35 77 54 43 65
REMARK Flexibility Score: inf
ROOT
ATOM      1  C   UNL A   1      34.428  28.313  26.558  1.00  0.00     0.118 C 
ENDROOT
BRANCH   1   2
ATOM      2  N   UNL A   1      33.068  27.826  26.619  1.00  0.00    -0.351 N 
ATOM      3  C   UNL A   1      32.407  26.644  26.498  1.00  0.00     0.268 C 
ATOM      4  O   UNL A   1      31.210  26.726  26.801  1.00  0.00    -0.268 OA
ATOM      5  H   UNL A   1      32.441  28.563  26.801  1.00  0.00     0.163 HD
BRANCH   3   6
ATOM      6  C   UNL A   1      32.936  25.353  26.081  1.00  0.00     0.109 A 
ATOM      7  C   UNL A   1      33.485  24.704  24.966  1.00  0.00    -0.000 A 
ATOM      8  C   UNL A   1      33.520  23.289  25.285  1.00  0.00     0.005 A 
ATOM      9  N   UNL A   1      32.971  24.403  27.097  1.00  0.00    -0.350 N 
ATOM     10  C   UNL A   1      33.250  23.152  26.637  1.00  0.00     0.046 A 
ATOM     11  C   UNL A   1      33.744  22.112  24.535  1.00  0.00     0.031 A 
ATOM     12  H   UNL A   1      32.813  24.614  28.046  1.00  0.00     0.167 HD
ATOM     13  C   UNL A   1      33.251  21.928  27.312  1.00  0.00     0.028 A 
ATOM     14  C   UNL A   1      33.680  20.870  25.179  1.00  0.00     0.041 A 
ATOM     15  C   UNL A   1      33.460  20.778  26.551  1.00  0.00     0.022 A 
ATOM     16  Cl  UNL A   1      33.854  19.425  24.256  1.00  0.00    -0.084 Cl
BRANCH   7  17
ATOM     17  C   UNL A   1      33.868  25.208  23.609  1.00  0.00     0.139 C 
BRANCH  17  18
ATOM     18  C   UNL A   1      32.753  25.787  22.718  1.00  0.00     0.231 C 
ATOM     19  O   UNL A   1      32.237  25.005  21.903  1.00  0.00    -0.274 OA
BRANCH  18  20
ATOM     20  N   UNL A   1      32.276  27.099  22.866  1.00  0.00    -0.312 N 
BRANCH  20  21
ATOM     21  C   UNL A   1      33.089  28.282  23.191  1.00  0.00     0.122 C 
ATOM     22  C   UNL A   1      34.286  28.583  22.305  1.00  0.00     0.028 C 
ENDBRANCH  20  21
BRANCH  20  23
ATOM     23  C   UNL A   1      30.861  27.337  22.918  1.00  0.00     0.044 A 
ATOM     24  C   UNL A   1      30.007  26.481  23.616  1.00  0.00     0.026 A 
ATOM     25  C   UNL A   1      30.325  28.509  22.377  1.00  0.00     0.030 A 
ATOM     26  C   UNL A   1      28.661  26.822  23.795  1.00  0.00     0.006 A 
ATOM     27  C   UNL A   1      28.985  28.881  22.567  1.00  0.00    -0.046 A 
ATOM     28  C   UNL A   1      28.138  28.024  23.285  1.00  0.00    -0.048 A 
ATOM     29  C   UNL A   1      28.522  30.182  21.974  1.00  0.00     0.044 C 
ATOM     30  C   UNL A   1      26.680  28.314  23.507  1.00  0.00     0.044 C 
ENDBRANCH  20  23
ENDBRANCH  18  20
ENDBRANCH  17  18
ENDBRANCH   7  17
ENDBRANCH   3   6
ENDBRANCH   1   2
BRANCH   1  31
ATOM     31  C   UNL A   1      34.609  29.661  27.231  1.00  0.00     0.042 C 
BRANCH  31  32
ATOM     32  C   UNL A   1      35.789  29.624  28.183  1.00  0.00     0.118 C 
BRANCH  32  33
ATOM     33  N   UNL A   1      35.501  30.189  29.498  1.00  0.00    -0.352 N 
ATOM     34  C   UNL A   1      36.416  30.584  30.451  1.00  0.00     0.251 C 
ATOM     35  H   UNL A   1      34.551  30.301  29.730  1.00  0.00     0.163 HD
ATOM     36  O   UNL A   1      36.046  30.987  31.549  1.00  0.00    -0.269 OA
BRANCH  34  37
ATOM     37  C   UNL A   1      37.851  30.449  30.132  1.00  0.00     0.039 A 
ATOM     38  C   UNL A   1      38.734  30.045  31.134  1.00  0.00     0.014 A 
ATOM     39  C   UNL A   1      38.283  30.585  28.811  1.00  0.00     0.014 A 
ATOM     40  C   UNL A   1      40.038  29.690  30.790  1.00  0.00     0.010 A 
ATOM     41  C   UNL A   1      39.542  30.125  28.458  1.00  0.00     0.010 A 
ATOM     42  C   UNL A   1      40.436  29.677  29.443  1.00  0.00    -0.014 A 
BRANCH  42  43
ATOM     43  C   UNL A   1      41.786  29.221  29.027  1.00  0.00     0.031 A 
ATOM     44  C   UNL A   1      42.904  30.226  28.936  1.00  0.00     0.074 A 
ATOM     45  C   UNL A   1      41.978  27.944  28.637  1.00  0.00     0.049 A 
ATOM     46  N   UNL A   1      44.109  30.078  28.454  1.00  0.00    -0.248 NA
ATOM     47  C   UNL A   1      42.610  31.592  29.403  1.00  0.00     0.031 C 
ATOM     48  C   UNL A   1      40.953  26.897  28.611  1.00  0.00     0.029 A 
ATOM     49  N   UNL A   1      43.103  27.313  28.171  1.00  0.00    -0.354 N 
ATOM     50  C   UNL A   1      44.698  31.335  28.523  1.00  0.00     0.074 A 
ATOM     51  C   UNL A   1      43.703  32.246  29.042  1.00  0.00     0.031 C 
ATOM     52  C   UNL A   1      41.502  25.751  28.174  1.00  0.00     0.029 A 
ATOM     53  C   UNL A   1      42.905  25.988  27.854  1.00  0.00     0.049 A 
ATOM     54  H   UNL A   1      43.973  27.765  28.072  1.00  0.00     0.167 HD
ATOM     55  C   UNL A   1      45.965  31.692  28.212  1.00  0.00     0.037 A 
ATOM     56  C   UNL A   1      43.760  25.073  27.356  1.00  0.00     0.037 A 
ATOM     57  C   UNL A   1      46.971  30.764  27.773  1.00  0.00     0.049 A 
ATOM     58  C   UNL A   1      45.183  25.481  27.083  1.00  0.00     0.074 A 
ATOM     59  C   UNL A   1      48.310  31.002  27.521  1.00  0.00     0.029 A 
ATOM     60  N   UNL A   1      46.750  29.415  27.539  1.00  0.00    -0.354 N 
ATOM     61  N   UNL A   1      45.742  26.660  27.220  1.00  0.00    -0.248 NA
ATOM     62  C   UNL A   1      46.096  24.436  26.598  1.00  0.00     0.031 C 
ATOM     63  C   UNL A   1      48.895  29.800  27.109  1.00  0.00     0.029 A 
ATOM     64  C   UNL A   1      47.928  28.808  27.140  1.00  0.00     0.049 A 
ATOM     65  H   UNL A   1      45.885  28.957  27.642  1.00  0.00     0.167 HD
ATOM     66  C   UNL A   1      47.075  26.493  26.864  1.00  0.00     0.074 A 
ATOM     67  C   UNL A   1      47.243  25.097  26.519  1.00  0.00     0.031 C 
ATOM     68  C   UNL A   1      48.072  27.410  26.826  1.00  0.00     0.037 A 
BRANCH  55  69
ATOM     69  C   UNL A   1      46.346  33.137  28.364  1.00  0.00     0.058 A 
ATOM     70  C   UNL A   1      46.806  33.652  29.587  1.00  0.00     0.135 A 
ATOM     71  C   UNL A   1      46.295  34.008  27.264  1.00  0.00     0.135 A 
ATOM     72  F   UNL A   1      46.853  32.868  30.676  1.00  0.00    -0.206 F 
ATOM     73  C   UNL A   1      47.184  34.983  29.718  1.00  0.00     0.059 A 
ATOM     74  C   UNL A   1      46.694  35.338  27.366  1.00  0.00     0.059 A 
ATOM     75  F   UNL A   1      45.856  33.569  26.074  1.00  0.00    -0.206 F 
ATOM     76  C   UNL A   1      47.128  35.818  28.601  1.00  0.00     0.060 A 
BRANCH  76  77
ATOM     77  S   UNL A   1      47.653  37.535  28.783  1.00  0.00     0.124 S 
ATOM     78  O   UNL A   1      48.591  37.436  29.896  1.00  0.00    -0.237 OA
ATOM     79  O   UNL A   1      48.245  37.821  27.480  1.00  0.00    -0.237 OA
ATOM     80  O   UNL A   1      46.408  38.241  29.071  1.00  0.00    -0.744 OA
ENDBRANCH  76  77
ENDBRANCH  55  69
BRANCH  56  81
ATOM     81  C   UNL A   1      43.308  23.679  27.102  1.00  0.00     0.058 A 
ATOM     82  C   UNL A   1      42.985  23.252  25.805  1.00  0.00     0.135 A 
ATOM     83  C   UNL A   1      43.172  22.752  28.147  1.00  0.00     0.135 A 
ATOM     84  F   UNL A   1      43.096  24.103  24.773  1.00  0.00    -0.206 F 
ATOM     85  C   UNL A   1      42.514  21.967  25.554  1.00  0.00     0.059 A 
ATOM     86  C   UNL A   1      42.726  21.453  27.918  1.00  0.00     0.059 A 
ATOM     87  F   UNL A   1      43.489  23.103  29.403  1.00  0.00    -0.206 F 
ATOM     88  C   UNL A   1      42.383  21.076  26.621  1.00  0.00     0.060 A 
BRANCH  88  89
ATOM     89  S   UNL A   1      41.786  19.403  26.286  1.00  0.00     0.124 S 
ATOM     90  O   UNL A   1      42.489  19.085  25.048  1.00  0.00    -0.237 OA
ATOM     91  O   UNL A   1      42.223  18.676  27.474  1.00  0.00    -0.237 OA
ATOM     92  O   UNL A   1      40.342  19.584  26.166  1.00  0.00    -0.744 OA
ENDBRANCH  88  89
ENDBRANCH  56  81
BRANCH  68  93
ATOM     93  C   UNL A   1      49.440  26.930  26.438  1.00  0.00     0.058 A 
ATOM     94  C   UNL A   1      50.314  26.366  27.379  1.00  0.00     0.135 A 
ATOM     95  C   UNL A   1      49.851  26.971  25.096  1.00  0.00     0.135 A 
ATOM     96  F   UNL A   1      49.968  26.310  28.675  1.00  0.00    -0.206 F 
ATOM     97  C   UNL A   1      51.557  25.870  27.005  1.00  0.00     0.059 A 
ATOM     98  C   UNL A   1      51.080  26.459  24.696  1.00  0.00     0.059 A 
ATOM     99  F   UNL A   1      49.044  27.491  24.158  1.00  0.00    -0.206 F 
ATOM    100  C   UNL A   1      51.930  25.918  25.660  1.00  0.00     0.060 A 
BRANCH 100 101
ATOM    101  S   UNL A   1      53.526  25.227  25.178  1.00  0.00     0.124 S 
ATOM    102  O   UNL A   1      53.667  25.736  23.817  1.00  0.00    -0.237 OA
ATOM    103  O   UNL A   1      54.430  25.804  26.168  1.00  0.00    -0.237 OA
ATOM    104  O   UNL A   1      53.320  23.786  25.291  1.00  0.00    -0.744 OA
ENDBRANCH 100 101
ENDBRANCH  68  93
ENDBRANCH  42  43
ENDBRANCH  34  37
ENDBRANCH  32  33
ENDBRANCH  31  32
ENDBRANCH   1  31
TORSDOF 18
ENDMDL
