MODEL 1
REMARK VINA RESULT:     -12.8      0.000      0.000
REMARK SMILES O=C(NCCCNC(=O)[C@H]1C[N@H+](Cc2ccc(Cl)c(Cl)c2)CC12CCCCC2)c1ccc(-c2c3nc(c(-c4c(F)cc(S(=O)(=O)[O-])cc4F)c4ccc([nH]4)c(-c4c(F)cc(S(=O)(=O)[O-])cc4F)c4nc(c(-c5c(F)cc(S(=O)(=O)[O-])cc5F)c5ccc2[nH]5)C=C4)C=C3)cc1
REMARK SMILES IDX 4 1 3 2 1 3 2 4 29 6 30 7 94 8 31 9 93 10 32 11 33 12 34 13
REMARK SMILES IDX 87 14 35 15 92 16 86 17 88 18 36 19 91 20 85 21 84 22 37 24
REMARK SMILES IDX 71 25 50 26 70 27 51 28 54 29 69 30 89 31 52 32 53 33 68 35
REMARK SMILES IDX 90 36 55 37 38 38 39 39 48 40 40 41 41 42 47 43 49 44 42 45
REMARK SMILES IDX 43 46 44 47 45 48 46 49 72 50 73 51 82 52 74 53 75 54 81 55
REMARK SMILES IDX 83 56 76 57 77 58 78 59 79 60 80 61 56 62 57 63 66 64 58 65
REMARK SMILES IDX 59 66 65 67 67 68 60 69 61 70 62 71 63 72 64 73 5 74 6 75
REMARK SMILES IDX 7 76 8 77 9 79 10 80 11 81 23 82 12 83 22 84 24 85 28 86
REMARK SMILES IDX 25 88 27 89 26 90 13 91 14 92 15 93 21 94 16 95 19 96 17 97
REMARK SMILES IDX 20 98 18 99
REMARK H PARENT 3 5 88 23 54 34 7 78 12 87
REMARK Flexibility Score: inf
ROOT
ATOM      1  C   UNL A   1      38.331  24.089  26.496  1.00  0.00     0.118 C 
ENDROOT
BRANCH   1   2
ATOM      2  N   UNL A   1      39.730  23.821  26.213  1.00  0.00    -0.352 N 
ATOM      3  O   UNL A   1      41.909  24.312  25.987  1.00  0.00    -0.269 OA
ATOM      4  C   UNL A   1      40.838  24.555  26.545  1.00  0.00     0.251 C 
ATOM      5  H   UNL A   1      39.908  22.993  25.711  1.00  0.00     0.163 HD
BRANCH   4   6
ATOM      6  C   UNL A   1      40.752  25.629  27.557  1.00  0.00     0.039 A 
ATOM      7  C   UNL A   1      39.766  25.604  28.549  1.00  0.00     0.014 A 
ATOM      8  C   UNL A   1      41.710  26.645  27.549  1.00  0.00     0.014 A 
ATOM      9  C   UNL A   1      39.669  26.649  29.464  1.00  0.00     0.010 A 
ATOM     10  C   UNL A   1      41.662  27.648  28.520  1.00  0.00     0.010 A 
ATOM     11  C   UNL A   1      40.635  27.664  29.475  1.00  0.00    -0.014 A 
BRANCH  11  12
ATOM     12  C   UNL A   1      40.621  28.694  30.543  1.00  0.00     0.031 A 
ATOM     13  C   UNL A   1      41.534  28.582  31.728  1.00  0.00     0.074 A 
ATOM     14  C   UNL A   1      39.736  29.705  30.457  1.00  0.00     0.049 A 
ATOM     15  N   UNL A   1      41.579  29.321  32.805  1.00  0.00    -0.248 NA
ATOM     16  C   UNL A   1      42.514  27.486  31.707  1.00  0.00     0.031 C 
ATOM     17  C   UNL A   1      38.795  29.906  29.351  1.00  0.00     0.029 A 
ATOM     18  N   UNL A   1      39.465  30.738  31.315  1.00  0.00    -0.354 N 
ATOM     19  C   UNL A   1      42.571  28.768  33.605  1.00  0.00     0.074 A 
ATOM     20  C   UNL A   1      43.089  27.617  32.895  1.00  0.00     0.031 C 
ATOM     21  C   UNL A   1      38.051  30.994  29.600  1.00  0.00     0.029 A 
ATOM     22  C   UNL A   1      38.416  31.527  30.908  1.00  0.00     0.049 A 
ATOM     23  H   UNL A   1      39.972  30.900  32.143  1.00  0.00     0.167 HD
ATOM     24  C   UNL A   1      43.004  29.185  34.819  1.00  0.00     0.037 A 
ATOM     25  C   UNL A   1      37.784  32.540  31.531  1.00  0.00     0.037 A 
ATOM     26  C   UNL A   1      42.476  30.334  35.509  1.00  0.00     0.049 A 
ATOM     27  C   UNL A   1      38.261  32.970  32.887  1.00  0.00     0.074 A 
ATOM     28  C   UNL A   1      42.874  30.867  36.722  1.00  0.00     0.029 A 
ATOM     29  N   UNL A   1      41.425  31.119  35.054  1.00  0.00    -0.354 N 
ATOM     30  N   UNL A   1      39.228  32.464  33.613  1.00  0.00    -0.248 NA
ATOM     31  C   UNL A   1      37.568  34.104  33.509  1.00  0.00     0.031 C 
ATOM     32  C   UNL A   1      42.030  31.942  37.025  1.00  0.00     0.029 A 
ATOM     33  C   UNL A   1      41.142  32.115  35.974  1.00  0.00     0.049 A 
ATOM     34  H   UNL A   1      40.949  30.986  34.202  1.00  0.00     0.167 HD
ATOM     35  C   UNL A   1      39.277  33.232  34.769  1.00  0.00     0.074 A 
ATOM     36  C   UNL A   1      38.241  34.239  34.645  1.00  0.00     0.031 C 
ATOM     37  C   UNL A   1      40.112  33.117  35.831  1.00  0.00     0.037 A 
BRANCH  24  38
ATOM     38  C   UNL A   1      44.074  28.367  35.492  1.00  0.00     0.058 A 
ATOM     39  C   UNL A   1      43.767  27.266  36.307  1.00  0.00     0.135 A 
ATOM     40  C   UNL A   1      45.429  28.694  35.322  1.00  0.00     0.135 A 
ATOM     41  F   UNL A   1      42.487  26.913  36.514  1.00  0.00    -0.206 F 
ATOM     42  C   UNL A   1      44.760  26.552  36.972  1.00  0.00     0.059 A 
ATOM     43  C   UNL A   1      46.441  27.976  35.953  1.00  0.00     0.059 A 
ATOM     44  F   UNL A   1      45.782  29.732  34.547  1.00  0.00    -0.206 F 
ATOM     45  C   UNL A   1      46.094  26.923  36.797  1.00  0.00     0.060 A 
BRANCH  45  46
ATOM     46  S   UNL A   1      47.367  26.022  37.706  1.00  0.00     0.124 S 
ATOM     47  O   UNL A   1      48.176  27.118  38.231  1.00  0.00    -0.237 OA
ATOM     48  O   UNL A   1      46.587  25.284  38.692  1.00  0.00    -0.237 OA
ATOM     49  O   UNL A   1      48.006  25.207  36.678  1.00  0.00    -0.744 OA
ENDBRANCH  45  46
ENDBRANCH  24  38
BRANCH  25  50
ATOM     50  C   UNL A   1      36.628  33.186  30.859  1.00  0.00     0.058 A 
ATOM     51  C   UNL A   1      35.323  33.004  31.332  1.00  0.00     0.135 A 
ATOM     52  C   UNL A   1      36.822  34.083  29.795  1.00  0.00     0.135 A 
ATOM     53  F   UNL A   1      35.088  32.154  32.344  1.00  0.00    -0.206 F 
ATOM     54  C   UNL A   1      34.249  33.696  30.783  1.00  0.00     0.059 A 
ATOM     55  C   UNL A   1      35.769  34.805  29.246  1.00  0.00     0.059 A 
ATOM     56  F   UNL A   1      38.059  34.307  29.322  1.00  0.00    -0.206 F 
ATOM     57  C   UNL A   1      34.484  34.606  29.750  1.00  0.00     0.060 A 
BRANCH  57  58
ATOM     58  S   UNL A   1      33.098  35.579  29.120  1.00  0.00     0.124 S 
ATOM     59  O   UNL A   1      33.789  36.648  28.410  1.00  0.00    -0.237 OA
ATOM     60  O   UNL A   1      32.397  34.607  28.286  1.00  0.00    -0.237 OA
ATOM     61  O   UNL A   1      32.390  35.979  30.332  1.00  0.00    -0.744 OA
ENDBRANCH  57  58
ENDBRANCH  25  50
BRANCH  37  62
ATOM     62  C   UNL A   1      39.980  34.125  36.936  1.00  0.00     0.058 A 
ATOM     63  C   UNL A   1      40.613  35.376  36.875  1.00  0.00     0.135 A 
ATOM     64  C   UNL A   1      39.124  33.873  38.021  1.00  0.00     0.135 A 
ATOM     65  F   UNL A   1      41.450  35.661  35.866  1.00  0.00    -0.206 F 
ATOM     66  C   UNL A   1      40.394  36.346  37.849  1.00  0.00     0.059 A 
ATOM     67  C   UNL A   1      38.873  34.836  38.992  1.00  0.00     0.059 A 
ATOM     68  F   UNL A   1      38.493  32.692  38.122  1.00  0.00    -0.206 F 
ATOM     69  C   UNL A   1      39.513  36.071  38.897  1.00  0.00     0.060 A 
BRANCH  69  70
ATOM     70  S   UNL A   1      39.169  37.369  40.104  1.00  0.00     0.124 S 
ATOM     71  O   UNL A   1      38.347  38.288  39.322  1.00  0.00    -0.237 OA
ATOM     72  O   UNL A   1      38.473  36.638  41.158  1.00  0.00    -0.237 OA
ATOM     73  O   UNL A   1      40.495  37.862  40.461  1.00  0.00    -0.744 OA
ENDBRANCH  69  70
ENDBRANCH  37  62
ENDBRANCH  11  12
ENDBRANCH   4   6
ENDBRANCH   1   2
BRANCH   1  74
ATOM     74  C   UNL A   1      37.417  23.452  25.466  1.00  0.00     0.042 C 
BRANCH  74  75
ATOM     75  C   UNL A   1      36.001  23.213  25.973  1.00  0.00     0.117 C 
BRANCH  75  76
ATOM     76  N   UNL A   1      35.433  21.992  25.426  1.00  0.00    -0.356 N 
ATOM     77  C   UNL A   1      34.407  21.815  24.546  1.00  0.00     0.229 C 
ATOM     78  H   UNL A   1      35.856  21.162  25.742  1.00  0.00     0.163 HD
ATOM     79  O   UNL A   1      34.103  20.660  24.248  1.00  0.00    -0.275 OA
BRANCH  77  80
ATOM     80  C   UNL A   1      33.700  23.028  23.959  1.00  0.00     0.145 C 
ATOM     81  C   UNL A   1      33.470  22.826  22.460  1.00  0.00     0.276 C 
ATOM     82  C   UNL A   1      32.305  23.424  24.531  1.00  0.00     0.037 C 
ATOM     83  N   UNL A   1      32.406  23.754  22.103  1.00  0.00    -0.330 N 
ATOM     84  C   UNL A   1      31.487  23.762  23.246  1.00  0.00     0.270 C 
ATOM     85  C   UNL A   1      31.646  22.288  25.354  1.00  0.00     0.014 C 
ATOM     86  C   UNL A   1      32.415  24.676  25.432  1.00  0.00     0.014 C 
ATOM     87  H   UNL A   1      31.911  23.427  21.273  1.00  0.00     0.348 HD
ATOM     88  C   UNL A   1      30.355  22.703  26.067  1.00  0.00     0.001 C 
ATOM     89  C   UNL A   1      31.108  25.095  26.092  1.00  0.00     0.001 C 
ATOM     90  C   UNL A   1      30.542  23.953  26.919  1.00  0.00     0.000 C 
BRANCH  83  91
ATOM     91  C   UNL A   1      32.798  25.039  21.512  1.00  0.00     0.299 C 
BRANCH  91  92
ATOM     92  C   UNL A   1      32.491  26.315  22.274  1.00  0.00     0.008 A 
ATOM     93  C   UNL A   1      33.469  26.946  23.058  1.00  0.00     0.011 A 
ATOM     94  C   UNL A   1      31.197  26.861  22.253  1.00  0.00     0.031 A 
ATOM     95  C   UNL A   1      33.126  27.996  23.915  1.00  0.00     0.022 A 
ATOM     96  C   UNL A   1      30.855  27.928  23.097  1.00  0.00     0.060 A 
ATOM     97  C   UNL A   1      31.814  28.471  23.957  1.00  0.00     0.059 A 
ATOM     98  Cl  UNL A   1      29.213  28.466  23.085  1.00  0.00    -0.083 Cl
ATOM     99  Cl  UNL A   1      31.439  29.687  25.124  1.00  0.00    -0.083 Cl
ENDBRANCH  91  92
ENDBRANCH  83  91
ENDBRANCH  77  80
ENDBRANCH  75  76
ENDBRANCH  74  75
ENDBRANCH   1  74
TORSDOF 15
ENDMDL
MODEL 2
REMARK VINA RESULT:     -12.8      6.780     12.001
REMARK SMILES O=C(NCCCNC(=O)[C@H]1C[N@H+](Cc2ccc(Cl)c(Cl)c2)CC12CCCCC2)c1ccc(-c2c3nc(c(-c4c(F)cc(S(=O)(=O)[O-])cc4F)c4ccc([nH]4)c(-c4c(F)cc(S(=O)(=O)[O-])cc4F)c4nc(c(-c5c(F)cc(S(=O)(=O)[O-])cc5F)c5ccc2[nH]5)C=C4)C=C3)cc1
REMARK SMILES IDX 4 1 3 2 1 3 2 4 29 6 30 7 94 8 31 9 93 10 32 11 33 12 34 13
REMARK SMILES IDX 87 14 35 15 92 16 86 17 88 18 36 19 91 20 85 21 84 22 37 24
REMARK SMILES IDX 71 25 50 26 70 27 51 28 54 29 69 30 89 31 52 32 53 33 68 35
REMARK SMILES IDX 90 36 55 37 38 38 39 39 48 40 40 41 41 42 47 43 49 44 42 45
REMARK SMILES IDX 43 46 44 47 45 48 46 49 72 50 73 51 82 52 74 53 75 54 81 55
REMARK SMILES IDX 83 56 76 57 77 58 78 59 79 60 80 61 56 62 57 63 66 64 58 65
REMARK SMILES IDX 59 66 65 67 67 68 60 69 61 70 62 71 63 72 64 73 5 74 6 75
REMARK SMILES IDX 7 76 8 77 9 79 10 80 11 81 23 82 12 83 22 84 24 85 28 86
REMARK SMILES IDX 25 88 27 89 26 90 13 91 14 92 15 93 21 94 16 95 19 96 17 97
REMARK SMILES IDX 20 98 18 99
REMARK H PARENT 3 5 88 23 54 34 7 78 12 87
REMARK Flexibility Score: inf
ROOT
ATOM      1  C   UNL A   1      35.707  30.989  28.014  1.00  0.00     0.118 C 
ENDROOT
BRANCH   1   2
ATOM      2  N   UNL A   1      35.570  30.904  29.457  1.00  0.00    -0.352 N 
ATOM      3  O   UNL A   1      36.018  30.141  31.521  1.00  0.00    -0.269 OA
ATOM      4  C   UNL A   1      36.426  30.362  30.380  1.00  0.00     0.251 C 
ATOM      5  H   UNL A   1      34.744  31.294  29.826  1.00  0.00     0.163 HD
BRANCH   4   6
ATOM      6  C   UNL A   1      37.821  30.041  30.012  1.00  0.00     0.039 A 
ATOM      7  C   UNL A   1      38.795  29.836  30.995  1.00  0.00     0.014 A 
ATOM      8  C   UNL A   1      38.146  29.883  28.663  1.00  0.00     0.014 A 
ATOM      9  C   UNL A   1      40.114  29.584  30.630  1.00  0.00     0.010 A 
ATOM     10  C   UNL A   1      39.452  29.545  28.301  1.00  0.00     0.010 A 
ATOM     11  C   UNL A   1      40.447  29.406  29.280  1.00  0.00    -0.014 A 
BRANCH  11  12
ATOM     12  C   UNL A   1      41.819  28.987  28.900  1.00  0.00     0.031 A 
ATOM     13  C   UNL A   1      42.932  29.989  28.819  1.00  0.00     0.074 A 
ATOM     14  C   UNL A   1      42.035  27.699  28.574  1.00  0.00     0.049 A 
ATOM     15  N   UNL A   1      44.158  29.825  28.398  1.00  0.00    -0.248 NA
ATOM     16  C   UNL A   1      42.623  31.359  29.258  1.00  0.00     0.031 C 
ATOM     17  C   UNL A   1      41.021  26.641  28.609  1.00  0.00     0.029 A 
ATOM     18  N   UNL A   1      43.165  27.062  28.132  1.00  0.00    -0.354 N 
ATOM     19  C   UNL A   1      44.763  31.073  28.491  1.00  0.00     0.074 A 
ATOM     20  C   UNL A   1      43.760  31.988  28.993  1.00  0.00     0.031 C 
ATOM     21  C   UNL A   1      41.575  25.489  28.204  1.00  0.00     0.029 A 
ATOM     22  C   UNL A   1      42.960  25.739  27.821  1.00  0.00     0.049 A 
ATOM     23  H   UNL A   1      44.039  27.507  28.046  1.00  0.00     0.167 HD
ATOM     24  C   UNL A   1      46.037  31.416  28.184  1.00  0.00     0.037 A 
ATOM     25  C   UNL A   1      43.777  24.833  27.250  1.00  0.00     0.037 A 
ATOM     26  C   UNL A   1      47.021  30.489  27.687  1.00  0.00     0.049 A 
ATOM     27  C   UNL A   1      45.176  25.240  26.891  1.00  0.00     0.074 A 
ATOM     28  C   UNL A   1      48.351  30.726  27.385  1.00  0.00     0.029 A 
ATOM     29  N   UNL A   1      46.779  29.152  27.401  1.00  0.00    -0.354 N 
ATOM     30  N   UNL A   1      45.747  26.412  27.025  1.00  0.00    -0.248 NA
ATOM     31  C   UNL A   1      46.043  24.208  26.309  1.00  0.00     0.031 C 
ATOM     32  C   UNL A   1      48.898  29.545  26.870  1.00  0.00     0.029 A 
ATOM     33  C   UNL A   1      47.926  28.557  26.903  1.00  0.00     0.049 A 
ATOM     34  H   UNL A   1      45.917  28.694  27.534  1.00  0.00     0.167 HD
ATOM     35  C   UNL A   1      47.048  26.256  26.565  1.00  0.00     0.074 A 
ATOM     36  C   UNL A   1      47.180  24.873  26.150  1.00  0.00     0.031 C 
ATOM     37  C   UNL A   1      48.043  27.174  26.502  1.00  0.00     0.037 A 
BRANCH  24  38
ATOM     38  C   UNL A   1      46.421  32.863  28.340  1.00  0.00     0.058 A 
ATOM     39  C   UNL A   1      46.974  33.363  29.530  1.00  0.00     0.135 A 
ATOM     40  C   UNL A   1      46.226  33.767  27.283  1.00  0.00     0.135 A 
ATOM     41  F   UNL A   1      47.173  32.547  30.579  1.00  0.00    -0.206 F 
ATOM     42  C   UNL A   1      47.271  34.714  29.684  1.00  0.00     0.059 A 
ATOM     43  C   UNL A   1      46.543  35.117  27.404  1.00  0.00     0.059 A 
ATOM     44  F   UNL A   1      45.707  33.344  26.119  1.00  0.00    -0.206 F 
ATOM     45  C   UNL A   1      47.041  35.585  28.618  1.00  0.00     0.060 A 
BRANCH  45  46
ATOM     46  S   UNL A   1      47.381  37.342  28.850  1.00  0.00     0.124 S 
ATOM     47  O   UNL A   1      48.122  37.329  30.108  1.00  0.00    -0.237 OA
ATOM     48  O   UNL A   1      48.159  37.672  27.661  1.00  0.00    -0.237 OA
ATOM     49  O   UNL A   1      46.051  37.942  28.911  1.00  0.00    -0.744 OA
ENDBRANCH  45  46
ENDBRANCH  24  38
BRANCH  25  50
ATOM     50  C   UNL A   1      43.259  23.467  26.982  1.00  0.00     0.058 A 
ATOM     51  C   UNL A   1      42.941  23.057  25.681  1.00  0.00     0.135 A 
ATOM     52  C   UNL A   1      43.175  22.514  28.011  1.00  0.00     0.135 A 
ATOM     53  F   UNL A   1      43.004  23.933  24.666  1.00  0.00    -0.206 F 
ATOM     54  C   UNL A   1      42.568  21.746  25.405  1.00  0.00     0.059 A 
ATOM     55  C   UNL A   1      42.828  21.192  27.756  1.00  0.00     0.059 A 
ATOM     56  F   UNL A   1      43.491  22.855  29.270  1.00  0.00    -0.206 F 
ATOM     57  C   UNL A   1      42.528  20.817  26.447  1.00  0.00     0.060 A 
BRANCH  57  58
ATOM     58  S   UNL A   1      42.148  19.095  26.057  1.00  0.00     0.124 S 
ATOM     59  O   UNL A   1      40.703  19.147  25.870  1.00  0.00    -0.237 OA
ATOM     60  O   UNL A   1      42.941  18.872  24.852  1.00  0.00    -0.237 OA
ATOM     61  O   UNL A   1      42.606  18.374  27.241  1.00  0.00    -0.744 OA
ENDBRANCH  57  58
ENDBRANCH  25  50
BRANCH  37  62
ATOM     62  C   UNL A   1      49.385  26.718  26.005  1.00  0.00     0.058 A 
ATOM     63  C   UNL A   1      49.811  26.970  24.693  1.00  0.00     0.135 A 
ATOM     64  C   UNL A   1      50.295  26.112  26.888  1.00  0.00     0.135 A 
ATOM     65  F   UNL A   1      48.976  27.535  23.807  1.00  0.00    -0.206 F 
ATOM     66  C   UNL A   1      51.098  26.645  24.274  1.00  0.00     0.059 A 
ATOM     67  C   UNL A   1      51.593  25.800  26.498  1.00  0.00     0.059 A 
ATOM     68  F   UNL A   1      49.935  25.853  28.155  1.00  0.00    -0.206 F 
ATOM     69  C   UNL A   1      51.985  26.071  25.188  1.00  0.00     0.060 A 
BRANCH  69  70
ATOM     70  S   UNL A   1      53.679  25.736  24.659  1.00  0.00     0.124 S 
ATOM     71  O   UNL A   1      53.612  26.055  23.236  1.00  0.00    -0.237 OA
ATOM     72  O   UNL A   1      54.451  26.662  25.481  1.00  0.00    -0.237 OA
ATOM     73  O   UNL A   1      53.861  24.323  24.976  1.00  0.00    -0.744 OA
ENDBRANCH  69  70
ENDBRANCH  37  62
ENDBRANCH  11  12
ENDBRANCH   4   6
ENDBRANCH   1   2
BRANCH   1  74
ATOM     74  C   UNL A   1      34.960  29.869  27.312  1.00  0.00     0.042 C 
BRANCH  74  75
ATOM     75  C   UNL A   1      33.516  30.218  26.978  1.00  0.00     0.117 C 
BRANCH  75  76
ATOM     76  N   UNL A   1      32.584  29.279  27.579  1.00  0.00    -0.356 N 
ATOM     77  C   UNL A   1      32.226  28.022  27.192  1.00  0.00     0.229 C 
ATOM     78  H   UNL A   1      32.139  29.603  28.395  1.00  0.00     0.163 HD
ATOM     79  O   UNL A   1      31.389  27.430  27.874  1.00  0.00    -0.275 OA
BRANCH  77  80
ATOM     80  C   UNL A   1      32.875  27.398  25.965  1.00  0.00     0.145 C 
ATOM     81  C   UNL A   1      33.051  25.893  26.173  1.00  0.00     0.276 C 
ATOM     82  C   UNL A   1      32.150  27.533  24.591  1.00  0.00     0.037 C 
ATOM     83  N   UNL A   1      33.204  25.332  24.838  1.00  0.00    -0.330 N 
ATOM     84  C   UNL A   1      32.304  26.107  23.977  1.00  0.00     0.270 C 
ATOM     85  C   UNL A   1      30.662  27.944  24.732  1.00  0.00     0.014 C 
ATOM     86  C   UNL A   1      32.860  28.574  23.694  1.00  0.00     0.014 C 
ATOM     87  H   UNL A   1      32.922  24.352  24.828  1.00  0.00     0.348 HD
ATOM     88  C   UNL A   1      29.970  28.248  23.399  1.00  0.00     0.001 C 
ATOM     89  C   UNL A   1      32.177  28.822  22.355  1.00  0.00     0.001 C 
ATOM     90  C   UNL A   1      30.740  29.267  22.567  1.00  0.00     0.000 C 
BRANCH  83  91
ATOM     91  C   UNL A   1      34.569  25.071  24.365  1.00  0.00     0.299 C 
BRANCH  91  92
ATOM     92  C   UNL A   1      35.210  23.736  24.693  1.00  0.00     0.008 A 
ATOM     93  C   UNL A   1      36.580  23.638  24.980  1.00  0.00     0.011 A 
ATOM     94  C   UNL A   1      34.449  22.555  24.660  1.00  0.00     0.031 A 
ATOM     95  C   UNL A   1      37.201  22.389  25.077  1.00  0.00     0.022 A 
ATOM     96  C   UNL A   1      35.066  21.300  24.778  1.00  0.00     0.060 A 
ATOM     97  C   UNL A   1      36.451  21.218  24.949  1.00  0.00     0.059 A 
ATOM     98  Cl  UNL A   1      34.069  19.898  24.617  1.00  0.00    -0.083 Cl
ATOM     99  Cl  UNL A   1      37.302  19.716  24.959  1.00  0.00    -0.083 Cl
ENDBRANCH  91  92
ENDBRANCH  83  91
ENDBRANCH  77  80
ENDBRANCH  75  76
ENDBRANCH  74  75
ENDBRANCH   1  74
TORSDOF 15
ENDMDL
MODEL 3
REMARK VINA RESULT:     -12.7      6.638     11.908
REMARK SMILES O=C(NCCCNC(=O)[C@H]1C[N@H+](Cc2ccc(Cl)c(Cl)c2)CC12CCCCC2)c1ccc(-c2c3nc(c(-c4c(F)cc(S(=O)(=O)[O-])cc4F)c4ccc([nH]4)c(-c4c(F)cc(S(=O)(=O)[O-])cc4F)c4nc(c(-c5c(F)cc(S(=O)(=O)[O-])cc5F)c5ccc2[nH]5)C=C4)C=C3)cc1
REMARK SMILES IDX 4 1 3 2 1 3 2 4 29 6 30 7 94 8 31 9 93 10 32 11 33 12 34 13
REMARK SMILES IDX 87 14 35 15 92 16 86 17 88 18 36 19 91 20 85 21 84 22 37 24
REMARK SMILES IDX 71 25 50 26 70 27 51 28 54 29 69 30 89 31 52 32 53 33 68 35
REMARK SMILES IDX 90 36 55 37 38 38 39 39 48 40 40 41 41 42 47 43 49 44 42 45
REMARK SMILES IDX 43 46 44 47 45 48 46 49 72 50 73 51 82 52 74 53 75 54 81 55
REMARK SMILES IDX 83 56 76 57 77 58 78 59 79 60 80 61 56 62 57 63 66 64 58 65
REMARK SMILES IDX 59 66 65 67 67 68 60 69 61 70 62 71 63 72 64 73 5 74 6 75
REMARK SMILES IDX 7 76 8 77 9 79 10 80 11 81 23 82 12 83 22 84 24 85 28 86
REMARK SMILES IDX 25 88 27 89 26 90 13 91 14 92 15 93 21 94 16 95 19 96 17 97
REMARK SMILES IDX 20 98 18 99
REMARK H PARENT 3 5 88 23 54 34 7 78 12 87
REMARK Flexibility Score: inf
ROOT
ATOM      1  C   UNL A   1      35.110  29.356  27.636  1.00  0.00     0.118 C 
ENDROOT
BRANCH   1   2
ATOM      2  N   UNL A   1      35.140  30.267  28.767  1.00  0.00    -0.352 N 
ATOM      3  O   UNL A   1      35.893  31.103  30.710  1.00  0.00    -0.269 OA
ATOM      4  C   UNL A   1      36.147  30.501  29.666  1.00  0.00     0.251 C 
ATOM      5  H   UNL A   1      34.319  30.793  28.907  1.00  0.00     0.163 HD
BRANCH   4   6
ATOM      6  C   UNL A   1      37.522  30.033  29.391  1.00  0.00     0.039 A 
ATOM      7  C   UNL A   1      38.037  30.038  28.090  1.00  0.00     0.014 A 
ATOM      8  C   UNL A   1      38.330  29.641  30.461  1.00  0.00     0.014 A 
ATOM      9  C   UNL A   1      39.316  29.548  27.843  1.00  0.00     0.010 A 
ATOM     10  C   UNL A   1      39.643  29.230  30.221  1.00  0.00     0.010 A 
ATOM     11  C   UNL A   1      40.140  29.168  28.911  1.00  0.00    -0.014 A 
BRANCH  11  12
ATOM     12  C   UNL A   1      41.553  28.791  28.663  1.00  0.00     0.031 A 
ATOM     13  C   UNL A   1      42.638  29.828  28.677  1.00  0.00     0.074 A 
ATOM     14  C   UNL A   1      41.840  27.509  28.372  1.00  0.00     0.049 A 
ATOM     15  N   UNL A   1      43.902  29.701  28.373  1.00  0.00    -0.248 NA
ATOM     16  C   UNL A   1      42.246  31.189  29.072  1.00  0.00     0.031 C 
ATOM     17  C   UNL A   1      40.861  26.418  28.322  1.00  0.00     0.029 A 
ATOM     18  N   UNL A   1      43.026  26.905  28.042  1.00  0.00    -0.354 N 
ATOM     19  C   UNL A   1      44.456  30.968  28.510  1.00  0.00     0.074 A 
ATOM     20  C   UNL A   1      43.382  31.853  28.908  1.00  0.00     0.031 C 
ATOM     21  C   UNL A   1      41.486  25.282  27.981  1.00  0.00     0.029 A 
ATOM     22  C   UNL A   1      42.892  25.574  27.726  1.00  0.00     0.049 A 
ATOM     23  H   UNL A   1      43.889  27.378  28.033  1.00  0.00     0.167 HD
ATOM     24  C   UNL A   1      45.741  31.350  28.319  1.00  0.00     0.037 A 
ATOM     25  C   UNL A   1      43.786  24.692  27.242  1.00  0.00     0.037 A 
ATOM     26  C   UNL A   1      46.796  30.452  27.924  1.00  0.00     0.049 A 
ATOM     27  C   UNL A   1      45.199  25.141  27.011  1.00  0.00     0.074 A 
ATOM     28  C   UNL A   1      48.140  30.729  27.745  1.00  0.00     0.029 A 
ATOM     29  N   UNL A   1      46.624  29.105  27.630  1.00  0.00    -0.354 N 
ATOM     30  N   UNL A   1      45.718  26.331  27.186  1.00  0.00    -0.248 NA
ATOM     31  C   UNL A   1      46.148  24.134  26.521  1.00  0.00     0.031 C 
ATOM     32  C   UNL A   1      48.770  29.564  27.294  1.00  0.00     0.029 A 
ATOM     33  C   UNL A   1      47.831  28.544  27.246  1.00  0.00     0.049 A 
ATOM     34  H   UNL A   1      45.768  28.621  27.686  1.00  0.00     0.167 HD
ATOM     35  C   UNL A   1      47.061  26.214  26.850  1.00  0.00     0.074 A 
ATOM     36  C   UNL A   1      47.274  24.834  26.462  1.00  0.00     0.031 C 
ATOM     37  C   UNL A   1      48.028  27.163  26.871  1.00  0.00     0.037 A 
BRANCH  24  38
ATOM     38  C   UNL A   1      46.064  32.810  28.496  1.00  0.00     0.058 A 
ATOM     39  C   UNL A   1      46.461  33.339  29.734  1.00  0.00     0.135 A 
ATOM     40  C   UNL A   1      45.967  33.694  27.410  1.00  0.00     0.135 A 
ATOM     41  F   UNL A   1      46.561  32.542  30.811  1.00  0.00    -0.206 F 
ATOM     42  C   UNL A   1      46.700  34.700  29.901  1.00  0.00     0.059 A 
ATOM     43  C   UNL A   1      46.229  35.055  27.546  1.00  0.00     0.059 A 
ATOM     44  F   UNL A   1      45.598  33.242  26.201  1.00  0.00    -0.206 F 
ATOM     45  C   UNL A   1      46.570  35.552  28.803  1.00  0.00     0.060 A 
BRANCH  45  46
ATOM     46  S   UNL A   1      46.831  37.321  29.045  1.00  0.00     0.124 S 
ATOM     47  O   UNL A   1      45.787  37.636  30.016  1.00  0.00    -0.237 OA
ATOM     48  O   UNL A   1      48.199  37.371  29.550  1.00  0.00    -0.237 OA
ATOM     49  O   UNL A   1      46.637  37.880  27.711  1.00  0.00    -0.744 OA
ENDBRANCH  45  46
ENDBRANCH  24  38
BRANCH  25  50
ATOM     50  C   UNL A   1      43.339  23.308  26.940  1.00  0.00     0.058 A 
ATOM     51  C   UNL A   1      43.216  22.860  25.619  1.00  0.00     0.135 A 
ATOM     52  C   UNL A   1      43.129  22.378  27.971  1.00  0.00     0.135 A 
ATOM     53  F   UNL A   1      43.405  23.713  24.600  1.00  0.00    -0.206 F 
ATOM     54  C   UNL A   1      42.912  21.535  25.327  1.00  0.00     0.059 A 
ATOM     55  C   UNL A   1      42.847  21.042  27.705  1.00  0.00     0.059 A 
ATOM     56  F   UNL A   1      43.256  22.755  29.254  1.00  0.00    -0.206 F 
ATOM     57  C   UNL A   1      42.743  20.630  26.377  1.00  0.00     0.060 A 
BRANCH  57  58
ATOM     58  S   UNL A   1      42.457  18.890  25.985  1.00  0.00     0.124 S 
ATOM     59  O   UNL A   1      41.045  18.899  25.623  1.00  0.00    -0.237 OA
ATOM     60  O   UNL A   1      43.396  18.665  24.890  1.00  0.00    -0.237 OA
ATOM     61  O   UNL A   1      42.786  18.206  27.231  1.00  0.00    -0.744 OA
ENDBRANCH  57  58
ENDBRANCH  25  50
BRANCH  37  62
ATOM     62  C   UNL A   1      49.424  26.747  26.505  1.00  0.00     0.058 A 
ATOM     63  C   UNL A   1      50.254  26.070  27.410  1.00  0.00     0.135 A 
ATOM     64  C   UNL A   1      49.896  26.940  25.195  1.00  0.00     0.135 A 
ATOM     65  F   UNL A   1      49.855  25.873  28.676  1.00  0.00    -0.206 F 
ATOM     66  C   UNL A   1      51.503  25.589  27.026  1.00  0.00     0.059 A 
ATOM     67  C   UNL A   1      51.129  26.447  24.784  1.00  0.00     0.059 A 
ATOM     68  F   UNL A   1      49.136  27.580  24.292  1.00  0.00    -0.206 F 
ATOM     69  C   UNL A   1      51.926  25.771  25.708  1.00  0.00     0.060 A 
BRANCH  69  70
ATOM     70  S   UNL A   1      53.507  25.065  25.199  1.00  0.00     0.124 S 
ATOM     71  O   UNL A   1      54.437  25.747  26.094  1.00  0.00    -0.237 OA
ATOM     72  O   UNL A   1      53.310  23.642  25.454  1.00  0.00    -0.237 OA
ATOM     73  O   UNL A   1      53.608  25.435  23.790  1.00  0.00    -0.744 OA
ENDBRANCH  69  70
ENDBRANCH  37  62
ENDBRANCH  11  12
ENDBRANCH   4   6
ENDBRANCH   1   2
BRANCH   1  74
ATOM     74  C   UNL A   1      33.692  29.102  27.156  1.00  0.00     0.042 C 
BRANCH  74  75
ATOM     75  C   UNL A   1      33.608  28.718  25.685  1.00  0.00     0.117 C 
BRANCH  75  76
ATOM     76  N   UNL A   1      32.312  29.049  25.117  1.00  0.00    -0.356 N 
ATOM     77  C   UNL A   1      31.269  28.242  24.773  1.00  0.00     0.229 C 
ATOM     78  H   UNL A   1      32.165  30.008  24.954  1.00  0.00     0.163 HD
ATOM     79  O   UNL A   1      30.270  28.774  24.287  1.00  0.00    -0.275 OA
BRANCH  77  80
ATOM     80  C   UNL A   1      31.365  26.742  25.013  1.00  0.00     0.145 C 
ATOM     81  C   UNL A   1      30.054  26.221  25.604  1.00  0.00     0.276 C 
ATOM     82  C   UNL A   1      31.657  25.812  23.797  1.00  0.00     0.037 C 
ATOM     83  N   UNL A   1      30.054  24.787  25.346  1.00  0.00    -0.330 N 
ATOM     84  C   UNL A   1      30.672  24.623  24.026  1.00  0.00     0.270 C 
ATOM     85  C   UNL A   1      31.415  26.507  22.433  1.00  0.00     0.014 C 
ATOM     86  C   UNL A   1      33.117  25.302  23.832  1.00  0.00     0.014 C 
ATOM     87  H   UNL A   1      29.100  24.429  25.321  1.00  0.00     0.348 HD
ATOM     88  C   UNL A   1      31.853  25.677  21.223  1.00  0.00     0.001 C 
ATOM     89  C   UNL A   1      33.512  24.440  22.640  1.00  0.00     0.001 C 
ATOM     90  C   UNL A   1      33.296  25.198  21.341  1.00  0.00     0.000 C 
BRANCH  83  91
ATOM     91  C   UNL A   1      30.488  23.904  26.435  1.00  0.00     0.299 C 
BRANCH  91  92
ATOM     92  C   UNL A   1      31.727  23.053  26.233  1.00  0.00     0.008 A 
ATOM     93  C   UNL A   1      32.966  23.434  26.768  1.00  0.00     0.011 A 
ATOM     94  C   UNL A   1      31.666  21.885  25.453  1.00  0.00     0.031 A 
ATOM     95  C   UNL A   1      34.136  22.759  26.407  1.00  0.00     0.022 A 
ATOM     96  C   UNL A   1      32.837  21.193  25.106  1.00  0.00     0.060 A 
ATOM     97  C   UNL A   1      34.078  21.655  25.554  1.00  0.00     0.059 A 
ATOM     98  Cl  UNL A   1      32.682  19.832  24.054  1.00  0.00    -0.083 Cl
ATOM     99  Cl  UNL A   1      35.572  20.947  25.057  1.00  0.00    -0.083 Cl
ENDBRANCH  91  92
ENDBRANCH  83  91
ENDBRANCH  77  80
ENDBRANCH  75  76
ENDBRANCH  74  75
ENDBRANCH   1  74
TORSDOF 15
ENDMDL
