MODEL 1
REMARK VINA RESULT:     -11.4      0.000      0.000
REMARK SMILES C[C@H]1[C@H](C(=O)NCCCNC(=O)c2ccc(-c3c4nc(c(-c5c(F)cc(S(=O)(=O)[O-])cc5F)c5ccc([nH]5)c(-c5c(F)cc(S(=O)(=O)[O-])cc5F)c5nc(c(-c6c(F)cc(S(=O)(=O)[O-])cc6F)c6ccc3[nH]6)C=C5)C=C4)cc2)CCN1S(=O)(=O)C(F)(F)F
REMARK SMILES IDX 8 1 7 2 6 3 4 4 5 5 3 7 1 8 2 9 81 10 79 11 80 12 82 13
REMARK SMILES IDX 83 14 84 15 85 16 86 17 87 18 88 19 9 20 10 21 11 22 12 24
REMARK SMILES IDX 13 25 14 26 78 27 15 28 77 29 16 30 17 31 18 32 71 33 19 34
REMARK SMILES IDX 76 35 70 36 72 37 20 38 75 39 69 40 68 41 21 43 55 44 34 45
REMARK SMILES IDX 54 46 35 47 38 48 53 49 73 50 36 51 37 52 52 54 74 55 39 56
REMARK SMILES IDX 22 57 23 58 32 59 24 60 25 61 31 62 33 63 26 64 27 65 28 66
REMARK SMILES IDX 29 67 30 68 56 69 57 70 66 71 58 72 59 73 65 74 67 75 60 76
REMARK SMILES IDX 61 77 62 78 63 79 64 80 40 81 41 82 50 83 42 84 43 85 49 86
REMARK SMILES IDX 51 87 44 88 45 89 46 90 47 91 48 92
REMARK H PARENT 6 6 10 23 72 42 38 53
REMARK Flexibility Score: inf
ROOT
ATOM      1  C   UNL A   1      40.032  22.427  27.469  1.00  0.00     0.042 C 
ENDROOT
BRANCH   1   2
ATOM      2  C   UNL A   1      39.392  22.188  26.106  1.00  0.00     0.117 C 
BRANCH   2   3
ATOM      3  N   UNL A   1      38.414  23.202  25.751  1.00  0.00    -0.356 N 
ATOM      4  C   UNL A   1      37.056  23.156  25.692  1.00  0.00     0.224 C 
ATOM      5  O   UNL A   1      36.469  24.204  25.408  1.00  0.00    -0.275 OA
ATOM      6  H   UNL A   1      38.802  24.076  25.513  1.00  0.00     0.163 HD
BRANCH   4   7
ATOM      7  C   UNL A   1      36.246  21.887  25.939  1.00  0.00     0.098 C 
ATOM      8  C   UNL A   1      34.356  22.126  27.592  1.00  0.00     0.026 C 
ATOM      9  C   UNL A   1      34.748  22.160  26.113  1.00  0.00     0.082 C 
ATOM     10  N   UNL A   1      34.026  21.048  25.431  1.00  0.00    -0.190 NA
ATOM     11  C   UNL A   1      36.359  20.811  24.874  1.00  0.00     0.032 C 
ATOM     12  C   UNL A   1      35.033  20.068  24.942  1.00  0.00     0.104 C 
BRANCH  10  13
ATOM     13  S   UNL A   1      32.765  21.396  24.319  1.00  0.00     0.314 S 
ATOM     14  O   UNL A   1      32.627  20.194  23.513  1.00  0.00    -0.203 OA
ATOM     15  O   UNL A   1      31.640  21.797  25.148  1.00  0.00    -0.203 OA
BRANCH  13  16
ATOM     16  C   UNL A   1      33.336  22.832  23.235  1.00  0.00     0.511 C 
ATOM     17  F   UNL A   1      32.641  22.905  22.069  1.00  0.00    -0.155 F 
ATOM     18  F   UNL A   1      33.186  24.037  23.859  1.00  0.00    -0.155 F 
ATOM     19  F   UNL A   1      34.657  22.726  22.922  1.00  0.00    -0.155 F 
ENDBRANCH  13  16
ENDBRANCH  10  13
ENDBRANCH   4   7
ENDBRANCH   2   3
ENDBRANCH   1   2
BRANCH   1  20
ATOM     20  C   UNL A   1      41.485  22.873  27.399  1.00  0.00     0.118 C 
BRANCH  20  21
ATOM     21  N   UNL A   1      41.743  23.730  26.250  1.00  0.00    -0.352 N 
ATOM     22  C   UNL A   1      41.651  25.092  26.098  1.00  0.00     0.251 C 
ATOM     23  H   UNL A   1      42.035  23.250  25.441  1.00  0.00     0.163 HD
ATOM     24  O   UNL A   1      41.722  25.563  24.965  1.00  0.00    -0.269 OA
BRANCH  22  25
ATOM     25  C   UNL A   1      41.458  25.992  27.260  1.00  0.00     0.039 A 
ATOM     26  C   UNL A   1      42.458  26.925  27.557  1.00  0.00     0.014 A 
ATOM     27  C   UNL A   1      40.341  25.894  28.092  1.00  0.00     0.014 A 
ATOM     28  C   UNL A   1      42.308  27.786  28.648  1.00  0.00     0.010 A 
ATOM     29  C   UNL A   1      40.146  26.817  29.116  1.00  0.00     0.010 A 
ATOM     30  C   UNL A   1      41.134  27.763  29.418  1.00  0.00    -0.014 A 
BRANCH  30  31
ATOM     31  C   UNL A   1      40.933  28.707  30.549  1.00  0.00     0.031 A 
ATOM     32  C   UNL A   1      41.771  28.589  31.797  1.00  0.00     0.074 A 
ATOM     33  C   UNL A   1      39.957  29.633  30.477  1.00  0.00     0.049 A 
ATOM     34  N   UNL A   1      41.700  29.276  32.907  1.00  0.00    -0.248 NA
ATOM     35  C   UNL A   1      42.803  27.539  31.808  1.00  0.00     0.031 C 
ATOM     36  C   UNL A   1      39.037  29.808  29.350  1.00  0.00     0.029 A 
ATOM     37  N   UNL A   1      39.567  30.597  31.374  1.00  0.00    -0.354 N 
ATOM     38  C   UNL A   1      42.663  28.735  33.752  1.00  0.00     0.074 A 
ATOM     39  C   UNL A   1      43.262  27.622  33.049  1.00  0.00     0.031 C 
ATOM     40  C   UNL A   1      38.208  30.832  29.612  1.00  0.00     0.029 A 
ATOM     41  C   UNL A   1      38.512  31.363  30.936  1.00  0.00     0.049 A 
ATOM     42  H   UNL A   1      40.002  30.727  32.247  1.00  0.00     0.167 HD
ATOM     43  C   UNL A   1      43.035  29.143  34.990  1.00  0.00     0.037 A 
ATOM     44  C   UNL A   1      37.858  32.377  31.536  1.00  0.00     0.037 A 
ATOM     45  C   UNL A   1      42.455  30.270  35.673  1.00  0.00     0.049 A 
ATOM     46  C   UNL A   1      38.305  32.829  32.899  1.00  0.00     0.074 A 
ATOM     47  C   UNL A   1      42.797  30.799  36.905  1.00  0.00     0.029 A 
ATOM     48  N   UNL A   1      41.413  31.044  35.182  1.00  0.00    -0.354 N 
ATOM     49  N   UNL A   1      39.257  32.341  33.659  1.00  0.00    -0.248 NA
ATOM     50  C   UNL A   1      37.598  33.977  33.481  1.00  0.00     0.031 C 
ATOM     51  C   UNL A   1      41.938  31.871  37.174  1.00  0.00     0.029 A 
ATOM     52  C   UNL A   1      41.090  32.038  36.091  1.00  0.00     0.049 A 
ATOM     53  H   UNL A   1      40.968  30.906  34.314  1.00  0.00     0.167 HD
ATOM     54  C   UNL A   1      39.275  33.134  34.800  1.00  0.00     0.074 A 
ATOM     55  C   UNL A   1      38.252  34.144  34.621  1.00  0.00     0.031 C 
ATOM     56  C   UNL A   1      40.065  33.034  35.898  1.00  0.00     0.037 A 
BRANCH  43  57
ATOM     57  C   UNL A   1      44.131  28.371  35.675  1.00  0.00     0.058 A 
ATOM     58  C   UNL A   1      45.487  28.683  35.477  1.00  0.00     0.135 A 
ATOM     59  C   UNL A   1      43.826  27.322  36.557  1.00  0.00     0.135 A 
ATOM     60  F   UNL A   1      45.836  29.667  34.633  1.00  0.00    -0.206 F 
ATOM     61  C   UNL A   1      46.500  27.960  36.097  1.00  0.00     0.059 A 
ATOM     62  C   UNL A   1      44.823  26.604  37.213  1.00  0.00     0.059 A 
ATOM     63  F   UNL A   1      42.548  26.981  36.786  1.00  0.00    -0.206 F 
ATOM     64  C   UNL A   1      46.158  26.920  36.962  1.00  0.00     0.060 A 
BRANCH  64  65
ATOM     65  S   UNL A   1      47.484  25.988  37.755  1.00  0.00     0.124 S 
ATOM     66  O   UNL A   1      48.590  26.209  36.828  1.00  0.00    -0.237 OA
ATOM     67  O   UNL A   1      47.602  26.651  39.050  1.00  0.00    -0.237 OA
ATOM     68  O   UNL A   1      46.965  24.625  37.798  1.00  0.00    -0.744 OA
ENDBRANCH  64  65
ENDBRANCH  43  57
BRANCH  44  69
ATOM     69  C   UNL A   1      36.730  33.045  30.836  1.00  0.00     0.058 A 
ATOM     70  C   UNL A   1      35.401  32.796  31.206  1.00  0.00     0.135 A 
ATOM     71  C   UNL A   1      36.959  33.966  29.802  1.00  0.00     0.135 A 
ATOM     72  F   UNL A   1      35.130  31.920  32.186  1.00  0.00    -0.206 F 
ATOM     73  C   UNL A   1      34.336  33.426  30.569  1.00  0.00     0.059 A 
ATOM     74  C   UNL A   1      35.913  34.627  29.167  1.00  0.00     0.059 A 
ATOM     75  F   UNL A   1      38.214  34.254  29.423  1.00  0.00    -0.206 F 
ATOM     76  C   UNL A   1      34.603  34.343  29.552  1.00  0.00     0.060 A 
BRANCH  76  77
ATOM     77  S   UNL A   1      33.218  35.198  28.770  1.00  0.00     0.124 S 
ATOM     78  O   UNL A   1      32.617  34.127  27.983  1.00  0.00    -0.237 OA
ATOM     79  O   UNL A   1      32.447  35.653  29.923  1.00  0.00    -0.237 OA
ATOM     80  O   UNL A   1      33.868  36.257  28.003  1.00  0.00    -0.744 OA
ENDBRANCH  76  77
ENDBRANCH  44  69
BRANCH  56  81
ATOM     81  C   UNL A   1      39.867  34.056  36.982  1.00  0.00     0.058 A 
ATOM     82  C   UNL A   1      40.417  35.345  36.889  1.00  0.00     0.135 A 
ATOM     83  C   UNL A   1      39.095  33.753  38.115  1.00  0.00     0.135 A 
ATOM     84  F   UNL A   1      41.168  35.683  35.828  1.00  0.00    -0.206 F 
ATOM     85  C   UNL A   1      40.235  36.287  37.895  1.00  0.00     0.059 A 
ATOM     86  C   UNL A   1      38.877  34.690  39.121  1.00  0.00     0.059 A 
ATOM     87  F   UNL A   1      38.537  32.540  38.248  1.00  0.00    -0.206 F 
ATOM     88  C   UNL A   1      39.465  35.948  39.009  1.00  0.00     0.060 A 
BRANCH  88  89
ATOM     89  S   UNL A   1      39.224  37.184  40.304  1.00  0.00     0.124 S 
ATOM     90  O   UNL A   1      38.397  36.452  41.258  1.00  0.00    -0.237 OA
ATOM     91  O   UNL A   1      40.592  37.460  40.732  1.00  0.00    -0.237 OA
ATOM     92  O   UNL A   1      38.559  38.281  39.607  1.00  0.00    -0.744 OA
ENDBRANCH  88  89
ENDBRANCH  56  81
ENDBRANCH  30  31
ENDBRANCH  22  25
ENDBRANCH  20  21
ENDBRANCH   1  20
TORSDOF 15
ENDMDL
MODEL 2
REMARK VINA RESULT:     -11.3      1.647      2.136
REMARK SMILES C[C@H]1[C@H](C(=O)NCCCNC(=O)c2ccc(-c3c4nc(c(-c5c(F)cc(S(=O)(=O)[O-])cc5F)c5ccc([nH]5)c(-c5c(F)cc(S(=O)(=O)[O-])cc5F)c5nc(c(-c6c(F)cc(S(=O)(=O)[O-])cc6F)c6ccc3[nH]6)C=C5)C=C4)cc2)CCN1S(=O)(=O)C(F)(F)F
REMARK SMILES IDX 8 1 7 2 6 3 4 4 5 5 3 7 1 8 2 9 81 10 79 11 80 12 82 13
REMARK SMILES IDX 83 14 84 15 85 16 86 17 87 18 88 19 9 20 10 21 11 22 12 24
REMARK SMILES IDX 13 25 14 26 78 27 15 28 77 29 16 30 17 31 18 32 71 33 19 34
REMARK SMILES IDX 76 35 70 36 72 37 20 38 75 39 69 40 68 41 21 43 55 44 34 45
REMARK SMILES IDX 54 46 35 47 38 48 53 49 73 50 36 51 37 52 52 54 74 55 39 56
REMARK SMILES IDX 22 57 23 58 32 59 24 60 25 61 31 62 33 63 26 64 27 65 28 66
REMARK SMILES IDX 29 67 30 68 56 69 57 70 66 71 58 72 59 73 65 74 67 75 60 76
REMARK SMILES IDX 61 77 62 78 63 79 64 80 40 81 41 82 50 83 42 84 43 85 49 86
REMARK SMILES IDX 51 87 44 88 45 89 46 90 47 91 48 92
REMARK H PARENT 6 6 10 23 72 42 38 53
REMARK Flexibility Score: inf
ROOT
ATOM      1  C   UNL A   1      38.140  23.794  26.300  1.00  0.00     0.042 C 
ENDROOT
BRANCH   1   2
ATOM      2  C   UNL A   1      37.300  22.638  25.771  1.00  0.00     0.117 C 
BRANCH   2   3
ATOM      3  N   UNL A   1      37.193  22.628  24.322  1.00  0.00    -0.356 N 
ATOM      4  C   UNL A   1      36.145  22.903  23.499  1.00  0.00     0.224 C 
ATOM      5  O   UNL A   1      36.361  22.868  22.284  1.00  0.00    -0.275 OA
ATOM      6  H   UNL A   1      38.024  22.381  23.855  1.00  0.00     0.163 HD
BRANCH   4   7
ATOM      7  C   UNL A   1      34.743  23.226  24.002  1.00  0.00     0.098 C 
ATOM      8  C   UNL A   1      34.591  25.202  25.561  1.00  0.00     0.026 C 
ATOM      9  C   UNL A   1      34.479  24.732  24.109  1.00  0.00     0.082 C 
ATOM     10  N   UNL A   1      33.072  24.955  23.671  1.00  0.00    -0.190 NA
ATOM     11  C   UNL A   1      33.597  22.653  23.185  1.00  0.00     0.032 C 
ATOM     12  C   UNL A   1      32.451  23.630  23.400  1.00  0.00     0.104 C 
BRANCH  10  13
ATOM     13  S   UNL A   1      32.715  26.165  22.506  1.00  0.00     0.314 S 
ATOM     14  O   UNL A   1      33.623  25.906  21.400  1.00  0.00    -0.203 OA
ATOM     15  O   UNL A   1      31.287  26.039  22.264  1.00  0.00    -0.203 OA
BRANCH  13  16
ATOM     16  C   UNL A   1      33.112  27.841  23.280  1.00  0.00     0.511 C 
ATOM     17  F   UNL A   1      34.448  28.020  23.462  1.00  0.00    -0.155 F 
ATOM     18  F   UNL A   1      32.678  28.878  22.508  1.00  0.00    -0.155 F 
ATOM     19  F   UNL A   1      32.507  27.986  24.491  1.00  0.00    -0.155 F 
ENDBRANCH  13  16
ENDBRANCH  10  13
ENDBRANCH   4   7
ENDBRANCH   2   3
ENDBRANCH   1   2
BRANCH   1  20
ATOM     20  C   UNL A   1      39.405  23.358  27.023  1.00  0.00     0.118 C 
BRANCH  20  21
ATOM     21  N   UNL A   1      40.611  23.728  26.294  1.00  0.00    -0.352 N 
ATOM     22  C   UNL A   1      41.398  24.851  26.358  1.00  0.00     0.251 C 
ATOM     23  H   UNL A   1      40.915  23.055  25.642  1.00  0.00     0.163 HD
ATOM     24  O   UNL A   1      42.250  25.022  25.490  1.00  0.00    -0.269 OA
BRANCH  22  25
ATOM     25  C   UNL A   1      41.234  25.855  27.437  1.00  0.00     0.039 A 
ATOM     26  C   UNL A   1      40.097  25.784  28.250  1.00  0.00     0.014 A 
ATOM     27  C   UNL A   1      42.148  26.894  27.623  1.00  0.00     0.014 A 
ATOM     28  C   UNL A   1      39.912  26.717  29.274  1.00  0.00     0.010 A 
ATOM     29  C   UNL A   1      42.013  27.761  28.705  1.00  0.00     0.010 A 
ATOM     30  C   UNL A   1      40.886  27.694  29.533  1.00  0.00    -0.014 A 
BRANCH  30  31
ATOM     31  C   UNL A   1      40.732  28.662  30.651  1.00  0.00     0.031 A 
ATOM     32  C   UNL A   1      41.601  28.554  31.877  1.00  0.00     0.074 A 
ATOM     33  C   UNL A   1      39.769  29.603  30.587  1.00  0.00     0.049 A 
ATOM     34  N   UNL A   1      41.572  29.263  32.976  1.00  0.00    -0.248 NA
ATOM     35  C   UNL A   1      42.615  27.487  31.881  1.00  0.00     0.031 C 
ATOM     36  C   UNL A   1      38.822  29.772  29.482  1.00  0.00     0.029 A 
ATOM     37  N   UNL A   1      39.419  30.591  31.475  1.00  0.00    -0.354 N 
ATOM     38  C   UNL A   1      42.548  28.721  33.805  1.00  0.00     0.074 A 
ATOM     39  C   UNL A   1      43.110  27.585  33.107  1.00  0.00     0.031 C 
ATOM     40  C   UNL A   1      38.017  30.815  29.747  1.00  0.00     0.029 A 
ATOM     41  C   UNL A   1      38.366  31.366  31.051  1.00  0.00     0.049 A 
ATOM     42  H   UNL A   1      39.881  30.730  32.334  1.00  0.00     0.167 HD
ATOM     43  C   UNL A   1      42.961  29.146  35.024  1.00  0.00     0.037 A 
ATOM     44  C   UNL A   1      37.746  32.402  31.649  1.00  0.00     0.037 A 
ATOM     45  C   UNL A   1      42.419  30.296  35.701  1.00  0.00     0.049 A 
ATOM     46  C   UNL A   1      38.237  32.873  32.990  1.00  0.00     0.074 A 
ATOM     47  C   UNL A   1      42.803  30.843  36.912  1.00  0.00     0.029 A 
ATOM     48  N   UNL A   1      41.377  31.078  35.223  1.00  0.00    -0.354 N 
ATOM     49  N   UNL A   1      39.202  32.383  33.734  1.00  0.00    -0.248 NA
ATOM     50  C   UNL A   1      37.565  34.043  33.569  1.00  0.00     0.031 C 
ATOM     51  C   UNL A   1      41.970  31.934  37.184  1.00  0.00     0.029 A 
ATOM     52  C   UNL A   1      41.095  32.095  36.121  1.00  0.00     0.049 A 
ATOM     53  H   UNL A   1      40.906  30.931  34.370  1.00  0.00     0.167 HD
ATOM     54  C   UNL A   1      39.264  33.197  34.858  1.00  0.00     0.074 A 
ATOM     55  C   UNL A   1      38.254  34.221  34.688  1.00  0.00     0.031 C 
ATOM     56  C   UNL A   1      40.082  33.104  35.937  1.00  0.00     0.037 A 
BRANCH  43  57
ATOM     57  C   UNL A   1      44.062  28.369  35.694  1.00  0.00     0.058 A 
ATOM     58  C   UNL A   1      45.417  28.672  35.474  1.00  0.00     0.135 A 
ATOM     59  C   UNL A   1      43.764  27.324  36.584  1.00  0.00     0.135 A 
ATOM     60  F   UNL A   1      45.760  29.651  34.622  1.00  0.00    -0.206 F 
ATOM     61  C   UNL A   1      46.435  27.944  36.080  1.00  0.00     0.059 A 
ATOM     62  C   UNL A   1      44.767  26.601  37.225  1.00  0.00     0.059 A 
ATOM     63  F   UNL A   1      42.488  26.992  36.833  1.00  0.00    -0.206 F 
ATOM     64  C   UNL A   1      46.099  26.908  36.953  1.00  0.00     0.060 A 
BRANCH  64  65
ATOM     65  S   UNL A   1      47.432  25.969  37.728  1.00  0.00     0.124 S 
ATOM     66  O   UNL A   1      46.760  25.428  38.905  1.00  0.00    -0.237 OA
ATOM     67  O   UNL A   1      47.774  24.998  36.694  1.00  0.00    -0.237 OA
ATOM     68  O   UNL A   1      48.450  26.979  37.996  1.00  0.00    -0.744 OA
ENDBRANCH  64  65
ENDBRANCH  43  57
BRANCH  44  69
ATOM     69  C   UNL A   1      36.610  33.076  30.967  1.00  0.00     0.058 A 
ATOM     70  C   UNL A   1      35.289  32.874  31.392  1.00  0.00     0.135 A 
ATOM     71  C   UNL A   1      36.825  33.957  29.895  1.00  0.00     0.135 A 
ATOM     72  F   UNL A   1      35.032  32.037  32.409  1.00  0.00    -0.206 F 
ATOM     73  C   UNL A   1      34.218  33.510  30.772  1.00  0.00     0.059 A 
ATOM     74  C   UNL A   1      35.773  34.624  29.276  1.00  0.00     0.059 A 
ATOM     75  F   UNL A   1      38.072  34.200  29.464  1.00  0.00    -0.206 F 
ATOM     76  C   UNL A   1      34.471  34.386  29.715  1.00  0.00     0.060 A 
BRANCH  76  77
ATOM     77  S   UNL A   1      33.080  35.251  28.954  1.00  0.00     0.124 S 
ATOM     78  O   UNL A   1      32.567  34.236  28.041  1.00  0.00    -0.237 OA
ATOM     79  O   UNL A   1      32.240  35.556  30.108  1.00  0.00    -0.237 OA
ATOM     80  O   UNL A   1      33.710  36.408  28.324  1.00  0.00    -0.744 OA
ENDBRANCH  76  77
ENDBRANCH  44  69
BRANCH  56  81
ATOM     81  C   UNL A   1      39.931  34.150  37.005  1.00  0.00     0.058 A 
ATOM     82  C   UNL A   1      40.581  35.392  36.918  1.00  0.00     0.135 A 
ATOM     83  C   UNL A   1      39.103  33.919  38.116  1.00  0.00     0.135 A 
ATOM     84  F   UNL A   1      41.388  35.660  35.879  1.00  0.00    -0.206 F 
ATOM     85  C   UNL A   1      40.441  36.355  37.911  1.00  0.00     0.059 A 
ATOM     86  C   UNL A   1      38.927  34.881  39.107  1.00  0.00     0.059 A 
ATOM     87  F   UNL A   1      38.450  32.754  38.242  1.00  0.00    -0.206 F 
ATOM     88  C   UNL A   1      39.614  36.089  39.003  1.00  0.00     0.060 A 
BRANCH  88  89
ATOM     89  S   UNL A   1      39.430  37.353  40.279  1.00  0.00     0.124 S 
ATOM     90  O   UNL A   1      38.659  38.372  39.575  1.00  0.00    -0.237 OA
ATOM     91  O   UNL A   1      38.719  36.634  41.333  1.00  0.00    -0.237 OA
ATOM     92  O   UNL A   1      40.808  37.715  40.598  1.00  0.00    -0.744 OA
ENDBRANCH  88  89
ENDBRANCH  56  81
ENDBRANCH  30  31
ENDBRANCH  22  25
ENDBRANCH  20  21
ENDBRANCH   1  20
TORSDOF 15
ENDMDL
MODEL 3
REMARK VINA RESULT:     -11.3      6.632     12.094
REMARK SMILES C[C@H]1[C@H](C(=O)NCCCNC(=O)c2ccc(-c3c4nc(c(-c5c(F)cc(S(=O)(=O)[O-])cc5F)c5ccc([nH]5)c(-c5c(F)cc(S(=O)(=O)[O-])cc5F)c5nc(c(-c6c(F)cc(S(=O)(=O)[O-])cc6F)c6ccc3[nH]6)C=C5)C=C4)cc2)CCN1S(=O)(=O)C(F)(F)F
REMARK SMILES IDX 8 1 7 2 6 3 4 4 5 5 3 7 1 8 2 9 81 10 79 11 80 12 82 13
REMARK SMILES IDX 83 14 84 15 85 16 86 17 87 18 88 19 9 20 10 21 11 22 12 24
REMARK SMILES IDX 13 25 14 26 78 27 15 28 77 29 16 30 17 31 18 32 71 33 19 34
REMARK SMILES IDX 76 35 70 36 72 37 20 38 75 39 69 40 68 41 21 43 55 44 34 45
REMARK SMILES IDX 54 46 35 47 38 48 53 49 73 50 36 51 37 52 52 54 74 55 39 56
REMARK SMILES IDX 22 57 23 58 32 59 24 60 25 61 31 62 33 63 26 64 27 65 28 66
REMARK SMILES IDX 29 67 30 68 56 69 57 70 66 71 58 72 59 73 65 74 67 75 60 76
REMARK SMILES IDX 61 77 62 78 63 79 64 80 40 81 41 82 50 83 42 84 43 85 49 86
REMARK SMILES IDX 51 87 44 88 45 89 46 90 47 91 48 92
REMARK H PARENT 6 6 10 23 72 42 38 53
REMARK Flexibility Score: inf
ROOT
ATOM      1  C   UNL A   1      34.680  29.490  27.525  1.00  0.00     0.042 C 
ENDROOT
BRANCH   1   2
ATOM      2  C   UNL A   1      33.521  29.729  26.564  1.00  0.00     0.117 C 
BRANCH   2   3
ATOM      3  N   UNL A   1      33.777  29.224  25.226  1.00  0.00    -0.356 N 
ATOM      4  C   UNL A   1      33.633  27.980  24.696  1.00  0.00     0.224 C 
ATOM      5  O   UNL A   1      33.878  27.850  23.492  1.00  0.00    -0.275 OA
ATOM      6  H   UNL A   1      34.111  29.901  24.593  1.00  0.00     0.163 HD
BRANCH   4   7
ATOM      7  C   UNL A   1      33.209  26.762  25.510  1.00  0.00     0.098 C 
ATOM      8  C   UNL A   1      30.719  26.429  25.726  1.00  0.00     0.026 C 
ATOM      9  C   UNL A   1      31.975  26.059  24.934  1.00  0.00     0.082 C 
ATOM     10  N   UNL A   1      32.196  24.594  25.101  1.00  0.00    -0.190 NA
ATOM     11  C   UNL A   1      34.265  25.684  25.688  1.00  0.00     0.032 C 
ATOM     12  C   UNL A   1      33.470  24.396  25.844  1.00  0.00     0.104 C 
BRANCH  10  13
ATOM     13  S   UNL A   1      31.969  23.533  23.770  1.00  0.00     0.314 S 
ATOM     14  O   UNL A   1      31.946  22.199  24.349  1.00  0.00    -0.203 OA
ATOM     15  O   UNL A   1      30.767  24.015  23.111  1.00  0.00    -0.203 OA
BRANCH  13  16
ATOM     16  C   UNL A   1      33.466  23.711  22.634  1.00  0.00     0.511 C 
ATOM     17  F   UNL A   1      33.186  23.347  21.354  1.00  0.00    -0.155 F 
ATOM     18  F   UNL A   1      33.924  24.996  22.586  1.00  0.00    -0.155 F 
ATOM     19  F   UNL A   1      34.510  22.950  23.061  1.00  0.00    -0.155 F 
ENDBRANCH  13  16
ENDBRANCH  10  13
ENDBRANCH   4   7
ENDBRANCH   2   3
ENDBRANCH   1   2
BRANCH   1  20
ATOM     20  C   UNL A   1      35.379  30.762  27.977  1.00  0.00     0.118 C 
BRANCH  20  21
ATOM     21  N   UNL A   1      35.418  30.884  29.428  1.00  0.00    -0.352 N 
ATOM     22  C   UNL A   1      36.392  30.555  30.338  1.00  0.00     0.251 C 
ATOM     23  H   UNL A   1      34.603  31.269  29.826  1.00  0.00     0.163 HD
ATOM     24  O   UNL A   1      36.106  30.561  31.533  1.00  0.00    -0.269 OA
BRANCH  22  25
ATOM     25  C   UNL A   1      37.763  30.189  29.910  1.00  0.00     0.039 A 
ATOM     26  C   UNL A   1      38.711  29.878  30.892  1.00  0.00     0.014 A 
ATOM     27  C   UNL A   1      38.145  30.202  28.567  1.00  0.00     0.014 A 
ATOM     28  C   UNL A   1      40.013  29.531  30.521  1.00  0.00     0.010 A 
ATOM     29  C   UNL A   1      39.412  29.759  28.194  1.00  0.00     0.010 A 
ATOM     30  C   UNL A   1      40.366  29.435  29.166  1.00  0.00    -0.014 A 
BRANCH  30  31
ATOM     31  C   UNL A   1      41.731  29.017  28.750  1.00  0.00     0.031 A 
ATOM     32  C   UNL A   1      42.851  30.024  28.688  1.00  0.00     0.074 A 
ATOM     33  C   UNL A   1      41.950  27.741  28.373  1.00  0.00     0.049 A 
ATOM     34  N   UNL A   1      44.086  29.863  28.291  1.00  0.00    -0.248 NA
ATOM     35  C   UNL A   1      42.529  31.402  29.095  1.00  0.00     0.031 C 
ATOM     36  C   UNL A   1      40.935  26.686  28.329  1.00  0.00     0.029 A 
ATOM     37  N   UNL A   1      43.095  27.116  27.945  1.00  0.00    -0.354 N 
ATOM     38  C   UNL A   1      44.683  31.115  28.386  1.00  0.00     0.074 A 
ATOM     39  C   UNL A   1      43.658  32.039  28.818  1.00  0.00     0.031 C 
ATOM     40  C   UNL A   1      41.507  25.541  27.923  1.00  0.00     0.029 A 
ATOM     41  C   UNL A   1      42.918  25.786  27.644  1.00  0.00     0.049 A 
ATOM     42  H   UNL A   1      43.961  27.577  27.862  1.00  0.00     0.167 HD
ATOM     43  C   UNL A   1      45.974  31.461  28.161  1.00  0.00     0.037 A 
ATOM     44  C   UNL A   1      43.792  24.868  27.189  1.00  0.00     0.037 A 
ATOM     45  C   UNL A   1      46.998  30.532  27.759  1.00  0.00     0.049 A 
ATOM     46  C   UNL A   1      45.225  25.268  26.971  1.00  0.00     0.074 A 
ATOM     47  C   UNL A   1      48.346  30.769  27.558  1.00  0.00     0.029 A 
ATOM     48  N   UNL A   1      46.787  29.185  27.499  1.00  0.00    -0.354 N 
ATOM     49  N   UNL A   1      45.784  26.446  27.122  1.00  0.00    -0.248 NA
ATOM     50  C   UNL A   1      46.148  24.214  26.533  1.00  0.00     0.031 C 
ATOM     51  C   UNL A   1      48.944  29.574  27.142  1.00  0.00     0.029 A 
ATOM     52  C   UNL A   1      47.977  28.581  27.127  1.00  0.00     0.049 A 
ATOM     53  H   UNL A   1      45.919  28.726  27.569  1.00  0.00     0.167 HD
ATOM     54  C   UNL A   1      47.128  26.269  26.815  1.00  0.00     0.074 A 
ATOM     55  C   UNL A   1      47.300  24.868  26.490  1.00  0.00     0.031 C 
ATOM     56  C   UNL A   1      48.129  27.184  26.802  1.00  0.00     0.037 A 
BRANCH  43  57
ATOM     57  C   UNL A   1      46.351  32.906  28.359  1.00  0.00     0.058 A 
ATOM     58  C   UNL A   1      46.272  33.839  27.312  1.00  0.00     0.135 A 
ATOM     59  C   UNL A   1      46.775  33.370  29.615  1.00  0.00     0.135 A 
ATOM     60  F   UNL A   1      45.887  33.447  26.087  1.00  0.00    -0.206 F 
ATOM     61  C   UNL A   1      46.635  35.169  27.491  1.00  0.00     0.059 A 
ATOM     62  C   UNL A   1      47.115  34.704  29.825  1.00  0.00     0.059 A 
ATOM     63  F   UNL A   1      46.868  32.524  30.653  1.00  0.00    -0.206 F 
ATOM     64  C   UNL A   1      47.058  35.592  28.752  1.00  0.00     0.060 A 
BRANCH  64  65
ATOM     65  S   UNL A   1      47.531  37.320  28.967  1.00  0.00     0.124 S 
ATOM     66  O   UNL A   1      48.748  37.391  28.164  1.00  0.00    -0.237 OA
ATOM     67  O   UNL A   1      46.376  38.031  28.427  1.00  0.00    -0.237 OA
ATOM     68  O   UNL A   1      47.722  37.445  30.408  1.00  0.00    -0.744 OA
ENDBRANCH  64  65
ENDBRANCH  43  57
BRANCH  44  69
ATOM     69  C   UNL A   1      43.335  23.476  26.937  1.00  0.00     0.058 A 
ATOM     70  C   UNL A   1      43.090  23.021  25.633  1.00  0.00     0.135 A 
ATOM     71  C   UNL A   1      43.163  22.564  27.990  1.00  0.00     0.135 A 
ATOM     72  F   UNL A   1      43.236  23.856  24.593  1.00  0.00    -0.206 F 
ATOM     73  C   UNL A   1      42.677  21.716  25.381  1.00  0.00     0.059 A 
ATOM     74  C   UNL A   1      42.776  21.248  27.762  1.00  0.00     0.059 A 
ATOM     75  F   UNL A   1      43.404  22.944  29.254  1.00  0.00    -0.206 F 
ATOM     76  C   UNL A   1      42.526  20.836  26.454  1.00  0.00     0.060 A 
BRANCH  76  77
ATOM     77  S   UNL A   1      42.045  19.129  26.112  1.00  0.00     0.124 S 
ATOM     78  O   UNL A   1      42.848  18.828  24.932  1.00  0.00    -0.237 OA
ATOM     79  O   UNL A   1      42.436  18.447  27.342  1.00  0.00    -0.237 OA
ATOM     80  O   UNL A   1      40.605  19.225  25.888  1.00  0.00    -0.744 OA
ENDBRANCH  76  77
ENDBRANCH  44  69
BRANCH  56  81
ATOM     81  C   UNL A   1      49.504  26.693  26.443  1.00  0.00     0.058 A 
ATOM     82  C   UNL A   1      50.336  26.075  27.389  1.00  0.00     0.135 A 
ATOM     83  C   UNL A   1      49.984  26.817  25.129  1.00  0.00     0.135 A 
ATOM     84  F   UNL A   1      49.926  25.937  28.661  1.00  0.00    -0.206 F 
ATOM     85  C   UNL A   1      51.608  25.625  27.054  1.00  0.00     0.059 A 
ATOM     86  C   UNL A   1      51.243  26.348  24.765  1.00  0.00     0.059 A 
ATOM     87  F   UNL A   1      49.224  27.389  24.182  1.00  0.00    -0.206 F 
ATOM     88  C   UNL A   1      52.054  25.769  25.739  1.00  0.00     0.060 A 
BRANCH  88  89
ATOM     89  S   UNL A   1      53.702  25.170  25.312  1.00  0.00     0.124 S 
ATOM     90  O   UNL A   1      54.516  25.780  26.358  1.00  0.00    -0.237 OA
ATOM     91  O   UNL A   1      53.542  23.721  25.398  1.00  0.00    -0.237 OA
ATOM     92  O   UNL A   1      53.915  25.691  23.965  1.00  0.00    -0.744 OA
ENDBRANCH  88  89
ENDBRANCH  56  81
ENDBRANCH  30  31
ENDBRANCH  22  25
ENDBRANCH  20  21
ENDBRANCH   1  20
TORSDOF 15
ENDMDL
