MODEL 1
REMARK VINA RESULT:     -12.4      0.000      0.000
REMARK SMILES Cc1cc(C)n(CC(=O)N[C@H]2C=C[C@@H](C(=O)NCCCNC(=O)c3ccc(-c4c5nc(c(-c6c(F)cc(S(=O)(=O)[O-])cc6F)c6ccc([nH]6)c(-c6c(F)cc(S(=O)(=O)[O-])cc6F)c6nc(c(-c7c(F)cc(S(=O)(=O)[O-])cc7F)c7ccc4[nH]7)C=C6)C=C5)cc3)C2)n1
REMARK SMILES IDX 19 1 18 2 17 3 15 4 16 5 14 7 11 8 12 9 90 10 13 11 10 12
REMARK SMILES IDX 8 13 9 14 7 16 6 17 1 18 2 19 3 20 91 21 4 22 5 23 20 24
REMARK SMILES IDX 21 25 22 26 23 28 24 29 25 30 89 31 26 32 88 33 27 34 28 35
REMARK SMILES IDX 29 36 82 37 30 38 87 39 81 40 83 41 31 42 86 43 80 44 79 45
REMARK SMILES IDX 32 47 66 48 45 49 65 50 46 51 49 52 64 53 84 54 47 55 48 56
REMARK SMILES IDX 63 58 85 59 50 60 33 61 34 62 43 63 35 64 36 65 42 66 44 67
REMARK SMILES IDX 37 68 38 69 39 70 40 71 41 72 67 73 68 74 77 75 69 76 70 77
REMARK SMILES IDX 76 78 78 79 71 80 72 81 73 82 74 83 75 84 51 85 52 86 61 87
REMARK SMILES IDX 53 88 54 89 60 90 62 91 55 92 56 93 57 94 58 95 59 96
REMARK H PARENT 17 6 10 15 21 27 83 46 49 57
REMARK Flexibility Score: inf
ROOT
ATOM      1  C   UNL A   1      41.407  19.556  26.893  1.00  0.00     0.042 C 
ENDROOT
BRANCH   1   2
ATOM      2  C   UNL A   1      40.141  19.953  26.140  1.00  0.00     0.117 C 
BRANCH   2   3
ATOM      3  N   UNL A   1      39.782  21.350  26.245  1.00  0.00    -0.356 N 
ATOM      4  C   UNL A   1      38.680  22.014  25.813  1.00  0.00     0.227 C 
ATOM      5  O   UNL A   1      38.458  23.101  26.366  1.00  0.00    -0.274 OA
ATOM      6  H   UNL A   1      40.447  21.912  26.707  1.00  0.00     0.163 HD
BRANCH   4   7
ATOM      7  C   UNL A   1      37.693  21.522  24.740  1.00  0.00     0.103 C 
ATOM      8  C   UNL A   1      35.216  21.410  24.760  1.00  0.00     0.106 C 
ATOM      9  C   UNL A   1      35.723  22.558  23.978  1.00  0.00    -0.006 C 
ATOM     10  C   UNL A   1      36.507  20.602  25.049  1.00  0.00     0.047 C 
ATOM     11  C   UNL A   1      37.056  22.638  23.980  1.00  0.00    -0.016 C 
BRANCH   8  12
ATOM     12  N   UNL A   1      34.506  21.752  25.987  1.00  0.00    -0.348 N 
ATOM     13  C   UNL A   1      33.221  21.755  26.426  1.00  0.00     0.242 C 
ATOM     14  O   UNL A   1      33.073  21.991  27.633  1.00  0.00    -0.273 OA
ATOM     15  H   UNL A   1      35.125  22.065  26.686  1.00  0.00     0.164 HD
BRANCH  13  16
ATOM     16  C   UNL A   1      32.010  21.510  25.556  1.00  0.00     0.244 C 
BRANCH  16  17
ATOM     17  N   UNL A   1      32.158  20.317  24.741  1.00  0.00    -0.260 N 
ATOM     18  C   UNL A   1      33.031  16.889  24.689  1.00  0.00     0.069 C 
ATOM     19  C   UNL A   1      32.610  18.276  24.370  1.00  0.00     0.060 A 
ATOM     20  C   UNL A   1      32.519  18.901  23.107  1.00  0.00     0.048 A 
ATOM     21  N   UNL A   1      32.273  19.121  25.348  1.00  0.00    -0.178 NA
ATOM     22  C   UNL A   1      32.204  20.222  23.371  1.00  0.00     0.036 A 
ATOM     23  C   UNL A   1      32.026  21.378  22.454  1.00  0.00     0.066 C 
ENDBRANCH  16  17
ENDBRANCH  13  16
ENDBRANCH   8  12
ENDBRANCH   4   7
ENDBRANCH   2   3
ENDBRANCH   1   2
BRANCH   1  24
ATOM     24  C   UNL A   1      42.638  20.365  26.513  1.00  0.00     0.118 C 
BRANCH  24  25
ATOM     25  N   UNL A   1      43.532  19.662  25.591  1.00  0.00    -0.352 N 
ATOM     26  C   UNL A   1      44.466  20.191  24.708  1.00  0.00     0.251 C 
ATOM     27  H   UNL A   1      43.462  18.679  25.598  1.00  0.00     0.163 HD
ATOM     28  O   UNL A   1      45.016  19.523  23.866  1.00  0.00    -0.269 OA
BRANCH  26  29
ATOM     29  C   UNL A   1      44.759  21.628  24.865  1.00  0.00     0.039 A 
ATOM     30  C   UNL A   1      43.943  22.595  24.282  1.00  0.00     0.014 A 
ATOM     31  C   UNL A   1      45.705  21.953  25.828  1.00  0.00     0.014 A 
ATOM     32  C   UNL A   1      43.972  23.885  24.812  1.00  0.00     0.010 A 
ATOM     33  C   UNL A   1      45.603  23.171  26.452  1.00  0.00     0.010 A 
ATOM     34  C   UNL A   1      44.743  24.153  25.957  1.00  0.00    -0.014 A 
BRANCH  34  35
ATOM     35  C   UNL A   1      44.496  25.372  26.741  1.00  0.00     0.031 A 
ATOM     36  C   UNL A   1      45.436  26.510  26.500  1.00  0.00     0.074 A 
ATOM     37  C   UNL A   1      43.378  25.616  27.460  1.00  0.00     0.049 A 
ATOM     38  N   UNL A   1      46.296  27.006  27.328  1.00  0.00    -0.248 NA
ATOM     39  C   UNL A   1      45.496  27.108  25.157  1.00  0.00     0.031 C 
ATOM     40  C   UNL A   1      42.179  24.782  27.604  1.00  0.00     0.029 A 
ATOM     41  N   UNL A   1      43.028  26.755  28.124  1.00  0.00    -0.354 N 
ATOM     42  C   UNL A   1      46.840  28.125  26.701  1.00  0.00     0.074 A 
ATOM     43  C   UNL A   1      46.447  28.032  25.317  1.00  0.00     0.031 C 
ATOM     44  C   UNL A   1      41.161  25.531  28.072  1.00  0.00     0.029 A 
ATOM     45  C   UNL A   1      41.684  26.827  28.457  1.00  0.00     0.049 A 
ATOM     46  H   UNL A   1      43.674  27.464  28.348  1.00  0.00     0.167 HD
ATOM     47  C   UNL A   1      47.372  29.156  27.418  1.00  0.00     0.037 A 
ATOM     48  C   UNL A   1      41.027  27.866  29.022  1.00  0.00     0.037 A 
ATOM     49  C   UNL A   1      47.614  28.777  28.789  1.00  0.00     0.049 A 
ATOM     50  C   UNL A   1      42.041  28.672  29.747  1.00  0.00     0.074 A 
ATOM     51  C   UNL A   1      48.307  27.754  29.411  1.00  0.00     0.029 A 
ATOM     52  N   UNL A   1      46.784  29.293  29.757  1.00  0.00    -0.354 N 
ATOM     53  N   UNL A   1      42.699  28.244  30.790  1.00  0.00    -0.248 NA
ATOM     54  C   UNL A   1      42.623  29.824  29.076  1.00  0.00     0.031 C 
ATOM     55  C   UNL A   1      47.494  27.383  30.524  1.00  0.00     0.029 A 
ATOM     56  C   UNL A   1      46.395  28.244  30.551  1.00  0.00     0.049 A 
ATOM     57  H   UNL A   1      46.520  30.235  29.859  1.00  0.00     0.167 HD
ATOM     58  C   UNL A   1      43.973  28.769  30.642  1.00  0.00     0.074 A 
ATOM     59  C   UNL A   1      43.827  29.833  29.653  1.00  0.00     0.031 C 
ATOM     60  C   UNL A   1      45.072  28.112  31.122  1.00  0.00     0.037 A 
BRANCH  47  61
ATOM     61  C   UNL A   1      47.329  30.610  26.991  1.00  0.00     0.058 A 
ATOM     62  C   UNL A   1      48.487  31.408  27.126  1.00  0.00     0.135 A 
ATOM     63  C   UNL A   1      46.132  31.316  26.741  1.00  0.00     0.135 A 
ATOM     64  F   UNL A   1      49.680  30.844  27.374  1.00  0.00    -0.206 F 
ATOM     65  C   UNL A   1      48.442  32.803  27.104  1.00  0.00     0.059 A 
ATOM     66  C   UNL A   1      46.075  32.704  26.657  1.00  0.00     0.059 A 
ATOM     67  F   UNL A   1      44.944  30.706  26.670  1.00  0.00    -0.206 F 
ATOM     68  C   UNL A   1      47.224  33.441  26.891  1.00  0.00     0.060 A 
BRANCH  68  69
ATOM     69  S   UNL A   1      47.129  35.237  26.996  1.00  0.00     0.124 S 
ATOM     70  O   UNL A   1      48.504  35.575  27.346  1.00  0.00    -0.237 OA
ATOM     71  O   UNL A   1      46.703  35.601  25.648  1.00  0.00    -0.237 OA
ATOM     72  O   UNL A   1      46.134  35.456  28.042  1.00  0.00    -0.744 OA
ENDBRANCH  68  69
ENDBRANCH  47  61
BRANCH  48  73
ATOM     73  C   UNL A   1      39.633  28.310  28.786  1.00  0.00     0.058 A 
ATOM     74  C   UNL A   1      38.683  28.285  29.819  1.00  0.00     0.135 A 
ATOM     75  C   UNL A   1      39.274  29.025  27.624  1.00  0.00     0.135 A 
ATOM     76  F   UNL A   1      38.945  27.636  30.963  1.00  0.00    -0.206 F 
ATOM     77  C   UNL A   1      37.476  28.986  29.736  1.00  0.00     0.059 A 
ATOM     78  C   UNL A   1      38.069  29.716  27.511  1.00  0.00     0.059 A 
ATOM     79  F   UNL A   1      40.125  29.154  26.595  1.00  0.00    -0.206 F 
ATOM     80  C   UNL A   1      37.190  29.721  28.587  1.00  0.00     0.060 A 
BRANCH  80  81
ATOM     81  S   UNL A   1      35.740  30.800  28.565  1.00  0.00     0.124 S 
ATOM     82  O   UNL A   1      36.230  31.948  27.811  1.00  0.00    -0.237 OA
ATOM     83  O   UNL A   1      34.749  29.969  27.891  1.00  0.00    -0.237 OA
ATOM     84  O   UNL A   1      35.481  31.046  29.982  1.00  0.00    -0.744 OA
ENDBRANCH  80  81
ENDBRANCH  48  73
BRANCH  60  85
ATOM     85  C   UNL A   1      44.871  27.011  32.134  1.00  0.00     0.058 A 
ATOM     86  C   UNL A   1      44.716  27.205  33.518  1.00  0.00     0.135 A 
ATOM     87  C   UNL A   1      44.705  25.701  31.655  1.00  0.00     0.135 A 
ATOM     88  F   UNL A   1      44.741  28.433  34.053  1.00  0.00    -0.206 F 
ATOM     89  C   UNL A   1      44.469  26.141  34.389  1.00  0.00     0.059 A 
ATOM     90  C   UNL A   1      44.425  24.630  32.501  1.00  0.00     0.059 A 
ATOM     91  F   UNL A   1      44.775  25.452  30.337  1.00  0.00    -0.206 F 
ATOM     92  C   UNL A   1      44.329  24.855  33.871  1.00  0.00     0.060 A 
BRANCH  92  93
ATOM     93  S   UNL A   1      43.957  23.489  34.992  1.00  0.00     0.124 S 
ATOM     94  O   UNL A   1      44.524  22.348  34.283  1.00  0.00    -0.237 OA
ATOM     95  O   UNL A   1      44.649  23.882  36.217  1.00  0.00    -0.237 OA
ATOM     96  O   UNL A   1      42.499  23.507  35.080  1.00  0.00    -0.744 OA
ENDBRANCH  92  93
ENDBRANCH  60  85
ENDBRANCH  34  35
ENDBRANCH  26  29
ENDBRANCH  24  25
ENDBRANCH   1  24
TORSDOF 16
ENDMDL
MODEL 2
REMARK VINA RESULT:     -12.4      3.304      5.400
REMARK SMILES Cc1cc(C)n(CC(=O)N[C@H]2C=C[C@@H](C(=O)NCCCNC(=O)c3ccc(-c4c5nc(c(-c6c(F)cc(S(=O)(=O)[O-])cc6F)c6ccc([nH]6)c(-c6c(F)cc(S(=O)(=O)[O-])cc6F)c6nc(c(-c7c(F)cc(S(=O)(=O)[O-])cc7F)c7ccc4[nH]7)C=C6)C=C5)cc3)C2)n1
REMARK SMILES IDX 19 1 18 2 17 3 15 4 16 5 14 7 11 8 12 9 90 10 13 11 10 12
REMARK SMILES IDX 8 13 9 14 7 16 6 17 1 18 2 19 3 20 91 21 4 22 5 23 20 24
REMARK SMILES IDX 21 25 22 26 23 28 24 29 25 30 89 31 26 32 88 33 27 34 28 35
REMARK SMILES IDX 29 36 82 37 30 38 87 39 81 40 83 41 31 42 86 43 80 44 79 45
REMARK SMILES IDX 32 47 66 48 45 49 65 50 46 51 49 52 64 53 84 54 47 55 48 56
REMARK SMILES IDX 63 58 85 59 50 60 33 61 34 62 43 63 35 64 36 65 42 66 44 67
REMARK SMILES IDX 37 68 38 69 39 70 40 71 41 72 67 73 68 74 77 75 69 76 70 77
REMARK SMILES IDX 76 78 78 79 71 80 72 81 73 82 74 83 75 84 51 85 52 86 61 87
REMARK SMILES IDX 53 88 54 89 60 90 62 91 55 92 56 93 57 94 58 95 59 96
REMARK H PARENT 17 6 10 15 21 27 83 46 49 57
REMARK Flexibility Score: inf
ROOT
ATOM      1  C   UNL A   1      37.302  21.594  24.682  1.00  0.00     0.042 C 
ENDROOT
BRANCH   1   2
ATOM      2  C   UNL A   1      36.120  20.974  25.420  1.00  0.00     0.117 C 
BRANCH   2   3
ATOM      3  N   UNL A   1      35.570  21.787  26.483  1.00  0.00    -0.356 N 
ATOM      4  C   UNL A   1      34.566  22.700  26.466  1.00  0.00     0.227 C 
ATOM      5  O   UNL A   1      34.056  22.955  27.567  1.00  0.00    -0.274 OA
ATOM      6  H   UNL A   1      35.994  21.655  27.363  1.00  0.00     0.163 HD
BRANCH   4   7
ATOM      7  C   UNL A   1      34.007  23.404  25.218  1.00  0.00     0.103 C 
ATOM      8  C   UNL A   1      32.605  25.440  25.009  1.00  0.00     0.106 C 
ATOM      9  C   UNL A   1      34.027  25.699  24.698  1.00  0.00    -0.006 C 
ATOM     10  C   UNL A   1      32.558  23.893  25.108  1.00  0.00     0.047 C 
ATOM     11  C   UNL A   1      34.793  24.613  24.830  1.00  0.00    -0.016 C 
BRANCH   8  12
ATOM     12  N   UNL A   1      32.102  26.075  26.221  1.00  0.00    -0.348 N 
ATOM     13  C   UNL A   1      31.751  27.325  26.618  1.00  0.00     0.242 C 
ATOM     14  O   UNL A   1      31.216  27.397  27.733  1.00  0.00    -0.273 OA
ATOM     15  H   UNL A   1      31.984  25.421  26.948  1.00  0.00     0.164 HD
BRANCH  13  16
ATOM     16  C   UNL A   1      31.982  28.583  25.814  1.00  0.00     0.244 C 
BRANCH  16  17
ATOM     17  N   UNL A   1      32.936  29.471  26.454  1.00  0.00    -0.260 N 
ATOM     18  C   UNL A   1      36.046  29.724  28.121  1.00  0.00     0.069 C 
ATOM     19  C   UNL A   1      34.734  29.963  27.471  1.00  0.00     0.060 A 
ATOM     20  C   UNL A   1      33.900  31.099  27.560  1.00  0.00     0.048 A 
ATOM     21  N   UNL A   1      34.183  29.024  26.697  1.00  0.00    -0.178 NA
ATOM     22  C   UNL A   1      32.745  30.765  26.874  1.00  0.00     0.036 A 
ATOM     23  C   UNL A   1      31.488  31.529  26.662  1.00  0.00     0.066 C 
ENDBRANCH  16  17
ENDBRANCH  13  16
ENDBRANCH   8  12
ENDBRANCH   4   7
ENDBRANCH   2   3
ENDBRANCH   1   2
BRANCH   1  24
ATOM     24  C   UNL A   1      38.137  22.543  25.528  1.00  0.00     0.118 C 
BRANCH  24  25
ATOM     25  N   UNL A   1      38.930  21.861  26.552  1.00  0.00    -0.352 N 
ATOM     26  C   UNL A   1      39.992  22.352  27.304  1.00  0.00     0.251 C 
ATOM     27  H   UNL A   1      38.675  20.928  26.735  1.00  0.00     0.163 HD
ATOM     28  O   UNL A   1      40.686  21.641  27.989  1.00  0.00    -0.269 OA
BRANCH  26  29
ATOM     29  C   UNL A   1      40.219  23.807  27.225  1.00  0.00     0.039 A 
ATOM     30  C   UNL A   1      39.153  24.704  27.272  1.00  0.00     0.014 A 
ATOM     31  C   UNL A   1      41.533  24.226  27.376  1.00  0.00     0.014 A 
ATOM     32  C   UNL A   1      39.417  26.019  27.650  1.00  0.00     0.010 A 
ATOM     33  C   UNL A   1      41.760  25.470  27.911  1.00  0.00     0.010 A 
ATOM     34  C   UNL A   1      40.714  26.383  28.054  1.00  0.00    -0.014 A 
BRANCH  34  35
ATOM     35  C   UNL A   1      40.928  27.629  28.804  1.00  0.00     0.031 A 
ATOM     36  C   UNL A   1      42.034  28.509  28.315  1.00  0.00     0.074 A 
ATOM     37  C   UNL A   1      40.075  28.136  29.721  1.00  0.00     0.049 A 
ATOM     38  N   UNL A   1      43.140  28.790  28.922  1.00  0.00    -0.248 NA
ATOM     39  C   UNL A   1      41.946  29.069  26.957  1.00  0.00     0.031 C 
ATOM     40  C   UNL A   1      38.774  27.613  30.152  1.00  0.00     0.029 A 
ATOM     41  N   UNL A   1      40.148  29.329  30.379  1.00  0.00    -0.354 N 
ATOM     42  C   UNL A   1      43.785  29.743  28.136  1.00  0.00     0.074 A 
ATOM     43  C   UNL A   1      43.098  29.741  26.870  1.00  0.00     0.031 C 
ATOM     44  C   UNL A   1      38.079  28.586  30.777  1.00  0.00     0.029 A 
ATOM     45  C   UNL A   1      38.958  29.721  30.975  1.00  0.00     0.049 A 
ATOM     46  H   UNL A   1      40.972  29.865  30.428  1.00  0.00     0.167 HD
ATOM     47  C   UNL A   1      44.681  30.621  28.673  1.00  0.00     0.037 A 
ATOM     48  C   UNL A   1      38.696  30.889  31.605  1.00  0.00     0.037 A 
ATOM     49  C   UNL A   1      45.112  30.201  29.985  1.00  0.00     0.049 A 
ATOM     50  C   UNL A   1      39.998  31.433  32.063  1.00  0.00     0.074 A 
ATOM     51  C   UNL A   1      45.664  29.045  30.507  1.00  0.00     0.029 A 
ATOM     52  N   UNL A   1      44.648  30.904  31.071  1.00  0.00    -0.354 N 
ATOM     53  N   UNL A   1      40.744  30.865  32.971  1.00  0.00    -0.248 NA
ATOM     54  C   UNL A   1      40.677  32.410  31.226  1.00  0.00     0.031 C 
ATOM     55  C   UNL A   1      45.040  28.883  31.781  1.00  0.00     0.029 A 
ATOM     56  C   UNL A   1      44.203  29.982  31.985  1.00  0.00     0.049 A 
ATOM     57  H   UNL A   1      44.638  31.883  31.174  1.00  0.00     0.167 HD
ATOM     58  C   UNL A   1      42.044  31.070  32.538  1.00  0.00     0.074 A 
ATOM     59  C   UNL A   1      41.944  32.134  31.544  1.00  0.00     0.031 C 
ATOM     60  C   UNL A   1      43.036  30.172  32.820  1.00  0.00     0.037 A 
BRANCH  47  61
ATOM     61  C   UNL A   1      44.888  32.041  28.185  1.00  0.00     0.058 A 
ATOM     62  C   UNL A   1      46.187  32.475  27.841  1.00  0.00     0.135 A 
ATOM     63  C   UNL A   1      43.925  33.065  28.327  1.00  0.00     0.135 A 
ATOM     64  F   UNL A   1      47.185  31.589  27.688  1.00  0.00    -0.206 F 
ATOM     65  C   UNL A   1      46.522  33.826  27.735  1.00  0.00     0.059 A 
ATOM     66  C   UNL A   1      44.225  34.414  28.169  1.00  0.00     0.059 A 
ATOM     67  F   UNL A   1      42.674  32.818  28.728  1.00  0.00    -0.206 F 
ATOM     68  C   UNL A   1      45.536  34.789  27.924  1.00  0.00     0.060 A 
BRANCH  68  69
ATOM     69  S   UNL A   1      45.983  36.533  27.925  1.00  0.00     0.124 S 
ATOM     70  O   UNL A   1      46.440  36.712  26.552  1.00  0.00    -0.237 OA
ATOM     71  O   UNL A   1      44.718  37.175  28.269  1.00  0.00    -0.237 OA
ATOM     72  O   UNL A   1      47.017  36.610  28.954  1.00  0.00    -0.744 OA
ENDBRANCH  68  69
ENDBRANCH  47  61
BRANCH  48  73
ATOM     73  C   UNL A   1      37.425  31.652  31.634  1.00  0.00     0.058 A 
ATOM     74  C   UNL A   1      36.712  31.820  32.832  1.00  0.00     0.135 A 
ATOM     75  C   UNL A   1      37.026  32.462  30.550  1.00  0.00     0.135 A 
ATOM     76  F   UNL A   1      37.030  31.098  33.916  1.00  0.00    -0.206 F 
ATOM     77  C   UNL A   1      35.710  32.785  32.970  1.00  0.00     0.059 A 
ATOM     78  C   UNL A   1      36.018  33.418  30.660  1.00  0.00     0.059 A 
ATOM     79  F   UNL A   1      37.670  32.417  29.374  1.00  0.00    -0.206 F 
ATOM     80  C   UNL A   1      35.388  33.598  31.884  1.00  0.00     0.060 A 
BRANCH  80  81
ATOM     81  S   UNL A   1      34.254  34.985  32.123  1.00  0.00     0.124 S 
ATOM     82  O   UNL A   1      33.163  34.360  32.861  1.00  0.00    -0.237 OA
ATOM     83  O   UNL A   1      35.076  35.928  32.875  1.00  0.00    -0.237 OA
ATOM     84  O   UNL A   1      33.932  35.397  30.758  1.00  0.00    -0.744 OA
ENDBRANCH  80  81
ENDBRANCH  48  73
BRANCH  60  85
ATOM     85  C   UNL A   1      42.803  29.155  33.910  1.00  0.00     0.058 A 
ATOM     86  C   UNL A   1      42.198  27.899  33.725  1.00  0.00     0.135 A 
ATOM     87  C   UNL A   1      43.332  29.424  35.183  1.00  0.00     0.135 A 
ATOM     88  F   UNL A   1      41.768  27.507  32.519  1.00  0.00    -0.206 F 
ATOM     89  C   UNL A   1      42.072  26.981  34.771  1.00  0.00     0.059 A 
ATOM     90  C   UNL A   1      43.248  28.509  36.231  1.00  0.00     0.059 A 
ATOM     91  F   UNL A   1      43.981  30.577  35.413  1.00  0.00    -0.206 F 
ATOM     92  C   UNL A   1      42.597  27.297  36.023  1.00  0.00     0.060 A 
BRANCH  92  93
ATOM     93  S   UNL A   1      42.481  26.088  37.358  1.00  0.00     0.124 S 
ATOM     94  O   UNL A   1      43.462  26.590  38.313  1.00  0.00    -0.237 OA
ATOM     95  O   UNL A   1      41.083  26.197  37.769  1.00  0.00    -0.237 OA
ATOM     96  O   UNL A   1      42.831  24.827  36.708  1.00  0.00    -0.744 OA
ENDBRANCH  92  93
ENDBRANCH  60  85
ENDBRANCH  34  35
ENDBRANCH  26  29
ENDBRANCH  24  25
ENDBRANCH   1  24
TORSDOF 16
ENDMDL
MODEL 3
REMARK VINA RESULT:     -12.3      1.363      2.036
REMARK SMILES Cc1cc(C)n(CC(=O)N[C@H]2C=C[C@@H](C(=O)NCCCNC(=O)c3ccc(-c4c5nc(c(-c6c(F)cc(S(=O)(=O)[O-])cc6F)c6ccc([nH]6)c(-c6c(F)cc(S(=O)(=O)[O-])cc6F)c6nc(c(-c7c(F)cc(S(=O)(=O)[O-])cc7F)c7ccc4[nH]7)C=C6)C=C5)cc3)C2)n1
REMARK SMILES IDX 19 1 18 2 17 3 15 4 16 5 14 7 11 8 12 9 90 10 13 11 10 12
REMARK SMILES IDX 8 13 9 14 7 16 6 17 1 18 2 19 3 20 91 21 4 22 5 23 20 24
REMARK SMILES IDX 21 25 22 26 23 28 24 29 25 30 89 31 26 32 88 33 27 34 28 35
REMARK SMILES IDX 29 36 82 37 30 38 87 39 81 40 83 41 31 42 86 43 80 44 79 45
REMARK SMILES IDX 32 47 66 48 45 49 65 50 46 51 49 52 64 53 84 54 47 55 48 56
REMARK SMILES IDX 63 58 85 59 50 60 33 61 34 62 43 63 35 64 36 65 42 66 44 67
REMARK SMILES IDX 37 68 38 69 39 70 40 71 41 72 67 73 68 74 77 75 69 76 70 77
REMARK SMILES IDX 76 78 78 79 71 80 72 81 73 82 74 83 75 84 51 85 52 86 61 87
REMARK SMILES IDX 53 88 54 89 60 90 62 91 55 92 56 93 57 94 58 95 59 96
REMARK H PARENT 17 6 10 15 21 27 83 46 49 57
REMARK Flexibility Score: inf
ROOT
ATOM      1  C   UNL A   1      40.747  20.245  27.133  1.00  0.00     0.042 C 
ENDROOT
BRANCH   1   2
ATOM      2  C   UNL A   1      40.139  20.962  25.933  1.00  0.00     0.117 C 
BRANCH   2   3
ATOM      3  N   UNL A   1      39.625  22.286  26.210  1.00  0.00    -0.356 N 
ATOM      4  C   UNL A   1      38.399  22.822  25.984  1.00  0.00     0.227 C 
ATOM      5  O   UNL A   1      38.121  23.826  26.657  1.00  0.00    -0.274 OA
ATOM      6  H   UNL A   1      40.271  22.898  26.633  1.00  0.00     0.163 HD
BRANCH   4   7
ATOM      7  C   UNL A   1      37.344  22.281  25.004  1.00  0.00     0.103 C 
ATOM      8  C   UNL A   1      34.901  21.957  25.285  1.00  0.00     0.106 C 
ATOM      9  C   UNL A   1      35.223  23.167  24.499  1.00  0.00    -0.006 C 
ATOM     10  C   UNL A   1      36.278  21.253  25.401  1.00  0.00     0.047 C 
ATOM     11  C   UNL A   1      36.538  23.361  24.361  1.00  0.00    -0.016 C 
BRANCH   8  12
ATOM     12  N   UNL A   1      34.305  22.199  26.593  1.00  0.00    -0.348 N 
ATOM     13  C   UNL A   1      33.066  22.441  27.094  1.00  0.00     0.242 C 
ATOM     14  O   UNL A   1      32.984  22.443  28.329  1.00  0.00    -0.273 OA
ATOM     15  H   UNL A   1      34.983  22.182  27.307  1.00  0.00     0.164 HD
BRANCH  13  16
ATOM     16  C   UNL A   1      31.836  22.714  26.260  1.00  0.00     0.244 C 
BRANCH  16  17
ATOM     17  N   UNL A   1      31.782  24.091  25.803  1.00  0.00    -0.260 N 
ATOM     18  C   UNL A   1      31.307  27.473  26.728  1.00  0.00     0.069 C 
ATOM     19  C   UNL A   1      31.549  26.190  26.021  1.00  0.00     0.060 A 
ATOM     20  C   UNL A   1      31.499  25.924  24.635  1.00  0.00     0.048 A 
ATOM     21  N   UNL A   1      31.838  25.084  26.711  1.00  0.00    -0.178 NA
ATOM     22  C   UNL A   1      31.674  24.557  24.514  1.00  0.00     0.036 A 
ATOM     23  C   UNL A   1      31.669  23.681  23.314  1.00  0.00     0.066 C 
ENDBRANCH  16  17
ENDBRANCH  13  16
ENDBRANCH   8  12
ENDBRANCH   4   7
ENDBRANCH   2   3
ENDBRANCH   1   2
BRANCH   1  24
ATOM     24  C   UNL A   1      42.255  20.408  27.259  1.00  0.00     0.118 C 
BRANCH  24  25
ATOM     25  N   UNL A   1      43.004  19.678  26.236  1.00  0.00    -0.352 N 
ATOM     26  C   UNL A   1      43.792  20.181  25.206  1.00  0.00     0.251 C 
ATOM     27  H   UNL A   1      42.943  18.696  26.283  1.00  0.00     0.163 HD
ATOM     28  O   UNL A   1      44.214  19.488  24.313  1.00  0.00    -0.269 OA
BRANCH  26  29
ATOM     29  C   UNL A   1      44.096  21.623  25.273  1.00  0.00     0.039 A 
ATOM     30  C   UNL A   1      43.254  22.562  24.681  1.00  0.00     0.014 A 
ATOM     31  C   UNL A   1      45.089  21.993  26.170  1.00  0.00     0.014 A 
ATOM     32  C   UNL A   1      43.312  23.878  25.139  1.00  0.00     0.010 A 
ATOM     33  C   UNL A   1      45.020  23.243  26.733  1.00  0.00     0.010 A 
ATOM     34  C   UNL A   1      44.139  24.202  26.230  1.00  0.00    -0.014 A 
BRANCH  34  35
ATOM     35  C   UNL A   1      43.934  25.461  26.960  1.00  0.00     0.031 A 
ATOM     36  C   UNL A   1      44.903  26.560  26.660  1.00  0.00     0.074 A 
ATOM     37  C   UNL A   1      42.829  25.770  27.675  1.00  0.00     0.049 A 
ATOM     38  N   UNL A   1      45.784  27.068  27.459  1.00  0.00    -0.248 NA
ATOM     39  C   UNL A   1      44.968  27.094  25.292  1.00  0.00     0.031 C 
ATOM     40  C   UNL A   1      41.609  24.978  27.866  1.00  0.00     0.029 A 
ATOM     41  N   UNL A   1      42.518  26.947  28.289  1.00  0.00    -0.354 N 
ATOM     42  C   UNL A   1      46.355  28.141  26.777  1.00  0.00     0.074 A 
ATOM     43  C   UNL A   1      45.947  27.997  25.403  1.00  0.00     0.031 C 
ATOM     44  C   UNL A   1      40.616  25.776  28.308  1.00  0.00     0.029 A 
ATOM     45  C   UNL A   1      41.179  27.072  28.629  1.00  0.00     0.049 A 
ATOM     46  H   UNL A   1      43.185  27.647  28.476  1.00  0.00     0.167 HD
ATOM     47  C   UNL A   1      46.922  29.188  27.443  1.00  0.00     0.037 A 
ATOM     48  C   UNL A   1      40.558  28.154  29.152  1.00  0.00     0.037 A 
ATOM     49  C   UNL A   1      47.165  28.864  28.828  1.00  0.00     0.049 A 
ATOM     50  C   UNL A   1      41.600  28.962  29.832  1.00  0.00     0.074 A 
ATOM     51  C   UNL A   1      47.834  27.851  29.491  1.00  0.00     0.029 A 
ATOM     52  N   UNL A   1      46.359  29.446  29.778  1.00  0.00    -0.354 N 
ATOM     53  N   UNL A   1      42.255  28.563  30.888  1.00  0.00    -0.248 NA
ATOM     54  C   UNL A   1      42.209  30.066  29.105  1.00  0.00     0.031 C 
ATOM     55  C   UNL A   1      47.021  27.553  30.626  1.00  0.00     0.029 A 
ATOM     56  C   UNL A   1      45.948  28.446  30.622  1.00  0.00     0.049 A 
ATOM     57  H   UNL A   1      46.123  30.400  29.840  1.00  0.00     0.167 HD
ATOM     58  C   UNL A   1      43.542  29.044  30.707  1.00  0.00     0.074 A 
ATOM     59  C   UNL A   1      43.418  30.066  29.672  1.00  0.00     0.031 C 
ATOM     60  C   UNL A   1      44.626  28.378  31.208  1.00  0.00     0.037 A 
BRANCH  47  61
ATOM     61  C   UNL A   1      46.917  30.621  26.951  1.00  0.00     0.058 A 
ATOM     62  C   UNL A   1      48.100  31.388  27.033  1.00  0.00     0.135 A 
ATOM     63  C   UNL A   1      45.738  31.353  26.687  1.00  0.00     0.135 A 
ATOM     64  F   UNL A   1      49.280  30.798  27.288  1.00  0.00    -0.206 F 
ATOM     65  C   UNL A   1      48.098  32.781  26.947  1.00  0.00     0.059 A 
ATOM     66  C   UNL A   1      45.722  32.736  26.541  1.00  0.00     0.059 A 
ATOM     67  F   UNL A   1      44.531  30.778  26.662  1.00  0.00    -0.206 F 
ATOM     68  C   UNL A   1      46.897  33.447  26.724  1.00  0.00     0.060 A 
BRANCH  68  69
ATOM     69  S   UNL A   1      46.859  35.248  26.749  1.00  0.00     0.124 S 
ATOM     70  O   UNL A   1      47.854  35.568  25.732  1.00  0.00    -0.237 OA
ATOM     71  O   UNL A   1      45.470  35.531  26.398  1.00  0.00    -0.237 OA
ATOM     72  O   UNL A   1      47.229  35.569  28.125  1.00  0.00    -0.744 OA
ENDBRANCH  68  69
ENDBRANCH  47  61
BRANCH  48  73
ATOM     73  C   UNL A   1      39.175  28.627  28.906  1.00  0.00     0.058 A 
ATOM     74  C   UNL A   1      38.235  28.682  29.948  1.00  0.00     0.135 A 
ATOM     75  C   UNL A   1      38.824  29.293  27.713  1.00  0.00     0.135 A 
ATOM     76  F   UNL A   1      38.490  28.083  31.121  1.00  0.00    -0.206 F 
ATOM     77  C   UNL A   1      37.049  29.413  29.841  1.00  0.00     0.059 A 
ATOM     78  C   UNL A   1      37.639  30.014  27.577  1.00  0.00     0.059 A 
ATOM     79  F   UNL A   1      39.668  29.346  26.671  1.00  0.00    -0.206 F 
ATOM     80  C   UNL A   1      36.772  30.098  28.659  1.00  0.00     0.060 A 
BRANCH  80  81
ATOM     81  S   UNL A   1      35.354  31.218  28.596  1.00  0.00     0.124 S 
ATOM     82  O   UNL A   1      35.843  32.275  27.719  1.00  0.00    -0.237 OA
ATOM     83  O   UNL A   1      34.310  30.361  28.042  1.00  0.00    -0.237 OA
ATOM     84  O   UNL A   1      35.164  31.601  29.993  1.00  0.00    -0.744 OA
ENDBRANCH  80  81
ENDBRANCH  48  73
BRANCH  60  85
ATOM     85  C   UNL A   1      44.402  27.330  32.270  1.00  0.00     0.058 A 
ATOM     86  C   UNL A   1      44.189  27.596  33.634  1.00  0.00     0.135 A 
ATOM     87  C   UNL A   1      44.277  25.993  31.858  1.00  0.00     0.135 A 
ATOM     88  F   UNL A   1      44.173  28.851  34.101  1.00  0.00    -0.206 F 
ATOM     89  C   UNL A   1      43.925  26.576  34.552  1.00  0.00     0.059 A 
ATOM     90  C   UNL A   1      43.981  24.964  32.749  1.00  0.00     0.059 A 
ATOM     91  F   UNL A   1      44.404  25.674  30.559  1.00  0.00    -0.206 F 
ATOM     92  C   UNL A   1      43.827  25.261  34.101  1.00  0.00     0.060 A 
BRANCH  92  93
ATOM     93  S   UNL A   1      43.433  23.952  35.279  1.00  0.00     0.124 S 
ATOM     94  O   UNL A   1      44.311  24.272  36.399  1.00  0.00    -0.237 OA
ATOM     95  O   UNL A   1      42.005  24.152  35.516  1.00  0.00    -0.237 OA
ATOM     96  O   UNL A   1      43.767  22.728  34.554  1.00  0.00    -0.744 OA
ENDBRANCH  92  93
ENDBRANCH  60  85
ENDBRANCH  34  35
ENDBRANCH  26  29
ENDBRANCH  24  25
ENDBRANCH   1  24
TORSDOF 16
ENDMDL
