MODEL 1
REMARK VINA RESULT:     -11.8      0.000      0.000
REMARK SMILES CCOc1cccc(C(=O)Nc2ccc(Cl)c(C(=O)NCCCNC(=O)c3ccc(-c4c5nc(c(-c6c(F)cc(S(=O)(=O)[O-])cc6F)c6ccc([nH]6)c(-c6c(F)cc(S(=O)(=O)[O-])cc6F)c6nc(c(-c7c(F)cc(S(=O)(=O)[O-])cc7F)c7ccc4[nH]7)C=C6)C=C5)cc3)c2)c1
REMARK SMILES IDX 21 1 20 2 18 3 19 4 17 6 12 7 13 8 93 9 14 10 15 11 16 12
REMARK SMILES IDX 11 13 9 14 10 15 8 17 4 18 5 19 94 20 6 21 7 22 3 23 2 24
REMARK SMILES IDX 1 25 22 26 23 27 24 28 25 29 26 31 27 32 28 33 92 34 29 35
REMARK SMILES IDX 91 36 30 37 31 38 32 39 85 40 33 41 90 42 84 43 86 44 34 45
REMARK SMILES IDX 89 46 83 47 82 48 35 50 69 51 48 52 68 53 49 54 52 55 67 56
REMARK SMILES IDX 87 57 50 58 51 59 66 61 88 62 53 63 36 64 37 65 46 66 38 67
REMARK SMILES IDX 39 68 45 69 47 70 40 71 41 72 42 73 43 74 44 75 70 76 71 77
REMARK SMILES IDX 80 78 72 79 73 80 79 81 81 82 74 83 75 84 76 85 77 86 78 87
REMARK SMILES IDX 54 88 55 89 64 90 56 91 57 92 63 93 65 94 58 95 59 96 60 97
REMARK SMILES IDX 61 98 62 99
REMARK H PARENT 20 5 11 16 24 30 86 49 52 60
REMARK Flexibility Score: inf
ROOT
ATOM      1  C   UNL A   1      35.185  22.301  26.095  1.00  0.00     0.118 C 
ENDROOT
BRANCH   1   2
ATOM      2  N   UNL A   1      34.248  21.235  25.799  1.00  0.00    -0.352 N 
ATOM      3  C   UNL A   1      32.914  21.190  25.481  1.00  0.00     0.252 C 
ATOM      4  O   UNL A   1      32.425  20.061  25.458  1.00  0.00    -0.269 OA
ATOM      5  H   UNL A   1      34.663  20.344  25.832  1.00  0.00     0.163 HD
BRANCH   3   6
ATOM      6  C   UNL A   1      32.084  22.391  25.127  1.00  0.00     0.060 A 
ATOM      7  C   UNL A   1      31.109  24.554  25.726  1.00  0.00     0.042 A 
ATOM      8  C   UNL A   1      30.694  24.755  24.416  1.00  0.00     0.028 A 
ATOM      9  C   UNL A   1      31.688  23.334  26.091  1.00  0.00     0.041 A 
ATOM     10  C   UNL A   1      30.999  23.801  23.450  1.00  0.00     0.023 A 
ATOM     11  C   UNL A   1      31.719  22.643  23.787  1.00  0.00     0.053 A 
ATOM     12  Cl  UNL A   1      32.162  21.653  22.435  1.00  0.00    -0.083 Cl
BRANCH   7  13
ATOM     13  N   UNL A   1      30.968  25.620  26.624  1.00  0.00    -0.322 N 
ATOM     14  C   UNL A   1      31.431  26.924  26.578  1.00  0.00     0.255 C 
ATOM     15  O   UNL A   1      31.362  27.600  27.604  1.00  0.00    -0.269 OA
ATOM     16  H   UNL A   1      30.447  25.404  27.430  1.00  0.00     0.170 HD
BRANCH  14  17
ATOM     17  C   UNL A   1      31.899  27.597  25.323  1.00  0.00     0.043 A 
ATOM     18  C   UNL A   1      31.546  28.899  23.301  1.00  0.00     0.120 A 
ATOM     19  C   UNL A   1      32.868  28.672  22.918  1.00  0.00     0.046 A 
ATOM     20  C   UNL A   1      31.086  28.423  24.531  1.00  0.00     0.060 A 
ATOM     21  C   UNL A   1      33.725  27.961  23.755  1.00  0.00     0.005 A 
ATOM     22  C   UNL A   1      33.236  27.407  24.942  1.00  0.00     0.014 A 
BRANCH  18  23
ATOM     23  O   UNL A   1      30.717  29.361  22.315  1.00  0.00    -0.494 OA
BRANCH  23  24
ATOM     24  C   UNL A   1      29.565  30.102  22.708  1.00  0.00     0.226 C 
ATOM     25  C   UNL A   1      28.261  29.431  22.313  1.00  0.00     0.049 C 
ENDBRANCH  23  24
ENDBRANCH  18  23
ENDBRANCH  14  17
ENDBRANCH   7  13
ENDBRANCH   3   6
ENDBRANCH   1   2
BRANCH   1  26
ATOM     26  C   UNL A   1      35.717  22.931  24.815  1.00  0.00     0.042 C 
BRANCH  26  27
ATOM     27  C   UNL A   1      37.027  23.664  25.060  1.00  0.00     0.118 C 
BRANCH  27  28
ATOM     28  N   UNL A   1      38.093  22.742  25.443  1.00  0.00    -0.352 N 
ATOM     29  C   UNL A   1      39.260  22.991  26.119  1.00  0.00     0.251 C 
ATOM     30  H   UNL A   1      37.952  21.805  25.177  1.00  0.00     0.163 HD
ATOM     31  O   UNL A   1      40.151  22.142  26.134  1.00  0.00    -0.269 OA
BRANCH  29  32
ATOM     32  C   UNL A   1      39.449  24.286  26.801  1.00  0.00     0.039 A 
ATOM     33  C   UNL A   1      38.912  24.470  28.076  1.00  0.00     0.014 A 
ATOM     34  C   UNL A   1      40.182  25.307  26.190  1.00  0.00     0.014 A 
ATOM     35  C   UNL A   1      39.191  25.645  28.777  1.00  0.00     0.010 A 
ATOM     36  C   UNL A   1      40.531  26.435  26.921  1.00  0.00     0.010 A 
ATOM     37  C   UNL A   1      40.049  26.611  28.226  1.00  0.00    -0.014 A 
BRANCH  37  38
ATOM     38  C   UNL A   1      40.499  27.790  29.009  1.00  0.00     0.031 A 
ATOM     39  C   UNL A   1      41.805  27.749  29.751  1.00  0.00     0.074 A 
ATOM     40  C   UNL A   1      39.680  28.854  29.126  1.00  0.00     0.049 A 
ATOM     41  N   UNL A   1      42.309  28.625  30.581  1.00  0.00    -0.248 NA
ATOM     42  C   UNL A   1      42.644  26.555  29.554  1.00  0.00     0.031 C 
ATOM     43  C   UNL A   1      38.368  28.987  28.487  1.00  0.00     0.029 A 
ATOM     44  N   UNL A   1      39.818  30.018  29.839  1.00  0.00    -0.354 N 
ATOM     45  C   UNL A   1      43.515  28.086  31.013  1.00  0.00     0.074 A 
ATOM     46  C   UNL A   1      43.644  26.785  30.394  1.00  0.00     0.031 C 
ATOM     47  C   UNL A   1      37.830  30.169  28.824  1.00  0.00     0.029 A 
ATOM     48  C   UNL A   1      38.729  30.855  29.744  1.00  0.00     0.049 A 
ATOM     49  H   UNL A   1      40.618  30.234  30.368  1.00  0.00     0.167 HD
ATOM     50  C   UNL A   1      44.437  28.637  31.838  1.00  0.00     0.037 A 
ATOM     51  C   UNL A   1      38.474  32.032  30.348  1.00  0.00     0.037 A 
ATOM     52  C   UNL A   1      44.302  29.939  32.438  1.00  0.00     0.049 A 
ATOM     53  C   UNL A   1      39.498  32.604  31.290  1.00  0.00     0.074 A 
ATOM     54  C   UNL A   1      45.207  30.615  33.236  1.00  0.00     0.029 A 
ATOM     55  N   UNL A   1      43.188  30.758  32.316  1.00  0.00    -0.354 N 
ATOM     56  N   UNL A   1      40.668  32.117  31.629  1.00  0.00    -0.248 NA
ATOM     57  C   UNL A   1      39.168  33.882  31.936  1.00  0.00     0.031 C 
ATOM     58  C   UNL A   1      44.618  31.815  33.645  1.00  0.00     0.029 A 
ATOM     59  C   UNL A   1      43.367  31.915  33.056  1.00  0.00     0.049 A 
ATOM     60  H   UNL A   1      42.388  30.547  31.782  1.00  0.00     0.167 HD
ATOM     61  C   UNL A   1      41.219  33.034  32.516  1.00  0.00     0.074 A 
ATOM     62  C   UNL A   1      40.265  34.118  32.642  1.00  0.00     0.031 C 
ATOM     63  C   UNL A   1      42.404  32.983  33.172  1.00  0.00     0.037 A 
BRANCH  50  64
ATOM     64  C   UNL A   1      45.676  27.838  32.140  1.00  0.00     0.058 A 
ATOM     65  C   UNL A   1      45.680  26.822  33.110  1.00  0.00     0.135 A 
ATOM     66  C   UNL A   1      46.860  28.054  31.416  1.00  0.00     0.135 A 
ATOM     67  F   UNL A   1      44.581  26.581  33.842  1.00  0.00    -0.206 F 
ATOM     68  C   UNL A   1      46.818  26.066  33.367  1.00  0.00     0.059 A 
ATOM     69  C   UNL A   1      48.002  27.290  31.636  1.00  0.00     0.059 A 
ATOM     70  F   UNL A   1      46.914  29.014  30.479  1.00  0.00    -0.206 F 
ATOM     71  C   UNL A   1      47.975  26.305  32.623  1.00  0.00     0.060 A 
BRANCH  71  72
ATOM     72  S   UNL A   1      49.437  25.300  32.960  1.00  0.00     0.124 S 
ATOM     73  O   UNL A   1      48.891  24.283  33.854  1.00  0.00    -0.237 OA
ATOM     74  O   UNL A   1      49.811  24.839  31.628  1.00  0.00    -0.237 OA
ATOM     75  O   UNL A   1      50.364  26.244  33.578  1.00  0.00    -0.744 OA
ENDBRANCH  71  72
ENDBRANCH  50  64
BRANCH  51  76
ATOM     76  C   UNL A   1      37.192  32.742  30.088  1.00  0.00     0.058 A 
ATOM     77  C   UNL A   1      37.076  33.657  29.031  1.00  0.00     0.135 A 
ATOM     78  C   UNL A   1      36.056  32.516  30.882  1.00  0.00     0.135 A 
ATOM     79  F   UNL A   1      38.134  33.915  28.247  1.00  0.00    -0.206 F 
ATOM     80  C   UNL A   1      35.887  34.337  28.781  1.00  0.00     0.059 A 
ATOM     81  C   UNL A   1      34.849  33.162  30.635  1.00  0.00     0.059 A 
ATOM     82  F   UNL A   1      36.108  31.639  31.897  1.00  0.00    -0.206 F 
ATOM     83  C   UNL A   1      34.778  34.079  29.588  1.00  0.00     0.060 A 
BRANCH  83  84
ATOM     84  S   UNL A   1      33.230  34.937  29.229  1.00  0.00     0.124 S 
ATOM     85  O   UNL A   1      32.643  34.071  28.213  1.00  0.00    -0.237 OA
ATOM     86  O   UNL A   1      32.570  34.934  30.531  1.00  0.00    -0.237 OA
ATOM     87  O   UNL A   1      33.673  36.248  28.762  1.00  0.00    -0.744 OA
ENDBRANCH  83  84
ENDBRANCH  51  76
BRANCH  63  88
ATOM     88  C   UNL A   1      42.744  34.131  34.083  1.00  0.00     0.058 A 
ATOM     89  C   UNL A   1      42.485  34.073  35.461  1.00  0.00     0.135 A 
ATOM     90  C   UNL A   1      43.394  35.271  33.585  1.00  0.00     0.135 A 
ATOM     91  F   UNL A   1      41.855  33.011  35.987  1.00  0.00    -0.206 F 
ATOM     92  C   UNL A   1      42.847  35.113  36.312  1.00  0.00     0.059 A 
ATOM     93  C   UNL A   1      43.792  36.309  34.421  1.00  0.00     0.059 A 
ATOM     94  F   UNL A   1      43.672  35.374  32.275  1.00  0.00    -0.206 F 
ATOM     95  C   UNL A   1      43.508  36.223  35.784  1.00  0.00     0.060 A 
BRANCH  95  96
ATOM     96  S   UNL A   1      44.020  37.537  36.910  1.00  0.00     0.124 S 
ATOM     97  O   UNL A   1      42.909  37.565  37.855  1.00  0.00    -0.237 OA
ATOM     98  O   UNL A   1      45.283  37.024  37.432  1.00  0.00    -0.237 OA
ATOM     99  O   UNL A   1      44.135  38.705  36.042  1.00  0.00    -0.744 OA
ENDBRANCH  95  96
ENDBRANCH  63  88
ENDBRANCH  37  38
ENDBRANCH  29  32
ENDBRANCH  27  28
ENDBRANCH  26  27
ENDBRANCH   1  26
TORSDOF 17
ENDMDL
MODEL 2
REMARK VINA RESULT:     -11.7      2.560      3.335
REMARK SMILES CCOc1cccc(C(=O)Nc2ccc(Cl)c(C(=O)NCCCNC(=O)c3ccc(-c4c5nc(c(-c6c(F)cc(S(=O)(=O)[O-])cc6F)c6ccc([nH]6)c(-c6c(F)cc(S(=O)(=O)[O-])cc6F)c6nc(c(-c7c(F)cc(S(=O)(=O)[O-])cc7F)c7ccc4[nH]7)C=C6)C=C5)cc3)c2)c1
REMARK SMILES IDX 21 1 20 2 18 3 19 4 17 6 12 7 13 8 93 9 14 10 15 11 16 12
REMARK SMILES IDX 11 13 9 14 10 15 8 17 4 18 5 19 94 20 6 21 7 22 3 23 2 24
REMARK SMILES IDX 1 25 22 26 23 27 24 28 25 29 26 31 27 32 28 33 92 34 29 35
REMARK SMILES IDX 91 36 30 37 31 38 32 39 85 40 33 41 90 42 84 43 86 44 34 45
REMARK SMILES IDX 89 46 83 47 82 48 35 50 69 51 48 52 68 53 49 54 52 55 67 56
REMARK SMILES IDX 87 57 50 58 51 59 66 61 88 62 53 63 36 64 37 65 46 66 38 67
REMARK SMILES IDX 39 68 45 69 47 70 40 71 41 72 42 73 43 74 44 75 70 76 71 77
REMARK SMILES IDX 80 78 72 79 73 80 79 81 81 82 74 83 75 84 76 85 77 86 78 87
REMARK SMILES IDX 54 88 55 89 64 90 56 91 57 92 63 93 65 94 58 95 59 96 60 97
REMARK SMILES IDX 61 98 62 99
REMARK H PARENT 20 5 11 16 24 30 86 49 52 60
REMARK Flexibility Score: inf
ROOT
ATOM      1  C   UNL A   1      35.938  23.592  25.443  1.00  0.00     0.118 C 
ENDROOT
BRANCH   1   2
ATOM      2  N   UNL A   1      35.308  22.289  25.371  1.00  0.00    -0.352 N 
ATOM      3  C   UNL A   1      34.007  21.851  25.338  1.00  0.00     0.252 C 
ATOM      4  O   UNL A   1      33.868  20.633  25.441  1.00  0.00    -0.269 OA
ATOM      5  H   UNL A   1      35.959  21.553  25.338  1.00  0.00     0.163 HD
BRANCH   3   6
ATOM      6  C   UNL A   1      32.815  22.743  25.136  1.00  0.00     0.060 A 
ATOM      7  C   UNL A   1      31.415  24.616  25.858  1.00  0.00     0.042 A 
ATOM      8  C   UNL A   1      30.695  24.563  24.671  1.00  0.00     0.028 A 
ATOM      9  C   UNL A   1      32.380  23.639  26.127  1.00  0.00     0.041 A 
ATOM     10  C   UNL A   1      31.049  23.632  23.699  1.00  0.00     0.023 A 
ATOM     11  C   UNL A   1      32.122  22.751  23.907  1.00  0.00     0.053 A 
ATOM     12  Cl  UNL A   1      32.535  21.782  22.529  1.00  0.00    -0.083 Cl
BRANCH   7  13
ATOM     13  N   UNL A   1      31.168  25.691  26.720  1.00  0.00    -0.322 N 
ATOM     14  C   UNL A   1      31.421  27.046  26.592  1.00  0.00     0.255 C 
ATOM     15  O   UNL A   1      31.314  27.753  27.594  1.00  0.00    -0.269 OA
ATOM     16  H   UNL A   1      30.739  25.439  27.569  1.00  0.00     0.170 HD
BRANCH  14  17
ATOM     17  C   UNL A   1      31.700  27.719  25.282  1.00  0.00     0.043 A 
ATOM     18  C   UNL A   1      31.034  28.645  23.136  1.00  0.00     0.120 A 
ATOM     19  C   UNL A   1      32.374  28.833  22.796  1.00  0.00     0.046 A 
ATOM     20  C   UNL A   1      30.700  28.157  24.401  1.00  0.00     0.060 A 
ATOM     21  C   UNL A   1      33.377  28.523  23.711  1.00  0.00     0.005 A 
ATOM     22  C   UNL A   1      33.042  27.948  24.940  1.00  0.00     0.014 A 
BRANCH  18  23
ATOM     23  O   UNL A   1      30.146  28.717  22.098  1.00  0.00    -0.494 OA
BRANCH  23  24
ATOM     24  C   UNL A   1      28.965  29.492  22.286  1.00  0.00     0.226 C 
ATOM     25  C   UNL A   1      28.847  30.645  21.303  1.00  0.00     0.049 C 
ENDBRANCH  23  24
ENDBRANCH  18  23
ENDBRANCH  14  17
ENDBRANCH   7  13
ENDBRANCH   3   6
ENDBRANCH   1   2
BRANCH   1  26
ATOM     26  C   UNL A   1      37.442  23.482  25.240  1.00  0.00     0.042 C 
BRANCH  26  27
ATOM     27  C   UNL A   1      38.206  24.133  26.384  1.00  0.00     0.118 C 
BRANCH  27  28
ATOM     28  N   UNL A   1      39.629  23.805  26.331  1.00  0.00    -0.352 N 
ATOM     29  C   UNL A   1      40.706  24.524  26.786  1.00  0.00     0.251 C 
ATOM     30  H   UNL A   1      39.846  22.944  25.908  1.00  0.00     0.163 HD
ATOM     31  O   UNL A   1      41.842  24.210  26.434  1.00  0.00    -0.269 OA
BRANCH  29  32
ATOM     32  C   UNL A   1      40.491  25.684  27.672  1.00  0.00     0.039 A 
ATOM     33  C   UNL A   1      39.481  25.628  28.636  1.00  0.00     0.014 A 
ATOM     34  C   UNL A   1      41.306  26.814  27.570  1.00  0.00     0.014 A 
ATOM     35  C   UNL A   1      39.352  26.669  29.558  1.00  0.00     0.010 A 
ATOM     36  C   UNL A   1      41.234  27.805  28.540  1.00  0.00     0.010 A 
ATOM     37  C   UNL A   1      40.265  27.737  29.551  1.00  0.00    -0.014 A 
BRANCH  37  38
ATOM     38  C   UNL A   1      40.260  28.771  30.616  1.00  0.00     0.031 A 
ATOM     39  C   UNL A   1      41.146  28.619  31.820  1.00  0.00     0.074 A 
ATOM     40  C   UNL A   1      39.383  29.793  30.539  1.00  0.00     0.049 A 
ATOM     41  N   UNL A   1      41.194  29.347  32.905  1.00  0.00    -0.248 NA
ATOM     42  C   UNL A   1      42.083  27.483  31.816  1.00  0.00     0.031 C 
ATOM     43  C   UNL A   1      38.442  30.019  29.438  1.00  0.00     0.029 A 
ATOM     44  N   UNL A   1      39.125  30.821  31.409  1.00  0.00    -0.354 N 
ATOM     45  C   UNL A   1      42.155  28.754  33.716  1.00  0.00     0.074 A 
ATOM     46  C   UNL A   1      42.629  27.578  33.020  1.00  0.00     0.031 C 
ATOM     47  C   UNL A   1      37.722  31.122  29.692  1.00  0.00     0.029 A 
ATOM     48  C   UNL A   1      38.108  31.652  30.994  1.00  0.00     0.049 A 
ATOM     49  H   UNL A   1      39.618  30.953  32.250  1.00  0.00     0.167 HD
ATOM     50  C   UNL A   1      42.612  29.167  34.922  1.00  0.00     0.037 A 
ATOM     51  C   UNL A   1      37.536  32.708  31.605  1.00  0.00     0.037 A 
ATOM     52  C   UNL A   1      42.141  30.348  35.598  1.00  0.00     0.049 A 
ATOM     53  C   UNL A   1      38.036  33.123  32.962  1.00  0.00     0.074 A 
ATOM     54  C   UNL A   1      42.583  30.889  36.792  1.00  0.00     0.029 A 
ATOM     55  N   UNL A   1      41.114  31.165  35.146  1.00  0.00    -0.354 N 
ATOM     56  N   UNL A   1      38.998  32.597  33.681  1.00  0.00    -0.248 NA
ATOM     57  C   UNL A   1      37.370  34.270  33.595  1.00  0.00     0.031 C 
ATOM     58  C   UNL A   1      41.786  31.997  37.092  1.00  0.00     0.029 A 
ATOM     59  C   UNL A   1      40.882  32.183  36.057  1.00  0.00     0.049 A 
ATOM     60  H   UNL A   1      40.623  31.040  34.302  1.00  0.00     0.167 HD
ATOM     61  C   UNL A   1      39.063  33.356  34.844  1.00  0.00     0.074 A 
ATOM     62  C   UNL A   1      38.059  34.394  34.720  1.00  0.00     0.031 C 
ATOM     63  C   UNL A   1      39.875  33.206  35.919  1.00  0.00     0.037 A 
BRANCH  50  64
ATOM     64  C   UNL A   1      43.677  28.340  35.591  1.00  0.00     0.058 A 
ATOM     65  C   UNL A   1      45.042  28.553  35.340  1.00  0.00     0.135 A 
ATOM     66  C   UNL A   1      43.332  27.357  36.533  1.00  0.00     0.135 A 
ATOM     67  F   UNL A   1      45.430  29.468  34.438  1.00  0.00    -0.206 F 
ATOM     68  C   UNL A   1      46.025  27.805  35.980  1.00  0.00     0.059 A 
ATOM     69  C   UNL A   1      44.299  26.618  37.207  1.00  0.00     0.059 A 
ATOM     70  F   UNL A   1      42.042  27.110  36.810  1.00  0.00    -0.206 F 
ATOM     71  C   UNL A   1      45.644  26.842  36.915  1.00  0.00     0.060 A 
BRANCH  71  72
ATOM     72  S   UNL A   1      46.935  25.895  37.749  1.00  0.00     0.124 S 
ATOM     73  O   UNL A   1      46.727  24.563  37.189  1.00  0.00    -0.237 OA
ATOM     74  O   UNL A   1      48.149  26.580  37.319  1.00  0.00    -0.237 OA
ATOM     75  O   UNL A   1      46.605  26.039  39.164  1.00  0.00    -0.744 OA
ENDBRANCH  71  72
ENDBRANCH  50  64
BRANCH  51  76
ATOM     76  C   UNL A   1      36.421  33.440  30.943  1.00  0.00     0.058 A 
ATOM     77  C   UNL A   1      35.102  33.312  31.402  1.00  0.00     0.135 A 
ATOM     78  C   UNL A   1      36.652  34.285  29.846  1.00  0.00     0.135 A 
ATOM     79  F   UNL A   1      34.827  32.510  32.441  1.00  0.00    -0.206 F 
ATOM     80  C   UNL A   1      34.048  33.982  30.787  1.00  0.00     0.059 A 
ATOM     81  C   UNL A   1      35.620  34.988  29.233  1.00  0.00     0.059 A 
ATOM     82  F   UNL A   1      37.898  34.455  29.377  1.00  0.00    -0.206 F 
ATOM     83  C   UNL A   1      34.318  34.821  29.704  1.00  0.00     0.060 A 
BRANCH  83  84
ATOM     84  S   UNL A   1      32.948  35.715  28.940  1.00  0.00     0.124 S 
ATOM     85  O   UNL A   1      32.154  36.087  30.105  1.00  0.00    -0.237 OA
ATOM     86  O   UNL A   1      33.638  36.808  28.261  1.00  0.00    -0.237 OA
ATOM     87  O   UNL A   1      32.347  34.719  28.058  1.00  0.00    -0.744 OA
ENDBRANCH  83  84
ENDBRANCH  51  76
BRANCH  63  88
ATOM     88  C   UNL A   1      39.720  34.188  37.048  1.00  0.00     0.058 A 
ATOM     89  C   UNL A   1      38.985  33.867  38.200  1.00  0.00     0.135 A 
ATOM     90  C   UNL A   1      40.367  35.433  37.008  1.00  0.00     0.135 A 
ATOM     91  F   UNL A   1      38.337  32.694  38.285  1.00  0.00    -0.206 F 
ATOM     92  C   UNL A   1      38.886  34.754  39.267  1.00  0.00     0.059 A 
ATOM     93  C   UNL A   1      40.306  36.323  38.076  1.00  0.00     0.059 A 
ATOM     94  F   UNL A   1      41.089  35.786  35.933  1.00  0.00    -0.206 F 
ATOM     95  C   UNL A   1      39.556  35.976  39.199  1.00  0.00     0.060 A 
BRANCH  95  96
ATOM     96  S   UNL A   1      39.462  37.091  40.615  1.00  0.00     0.124 S 
ATOM     97  O   UNL A   1      38.874  38.283  40.014  1.00  0.00    -0.237 OA
ATOM     98  O   UNL A   1      38.599  36.354  41.534  1.00  0.00    -0.237 OA
ATOM     99  O   UNL A   1      40.852  37.222  41.040  1.00  0.00    -0.744 OA
ENDBRANCH  95  96
ENDBRANCH  63  88
ENDBRANCH  37  38
ENDBRANCH  29  32
ENDBRANCH  27  28
ENDBRANCH  26  27
ENDBRANCH   1  26
TORSDOF 17
ENDMDL
MODEL 3
REMARK VINA RESULT:     -11.6      4.950     10.489
REMARK SMILES CCOc1cccc(C(=O)Nc2ccc(Cl)c(C(=O)NCCCNC(=O)c3ccc(-c4c5nc(c(-c6c(F)cc(S(=O)(=O)[O-])cc6F)c6ccc([nH]6)c(-c6c(F)cc(S(=O)(=O)[O-])cc6F)c6nc(c(-c7c(F)cc(S(=O)(=O)[O-])cc7F)c7ccc4[nH]7)C=C6)C=C5)cc3)c2)c1
REMARK SMILES IDX 21 1 20 2 18 3 19 4 17 6 12 7 13 8 93 9 14 10 15 11 16 12
REMARK SMILES IDX 11 13 9 14 10 15 8 17 4 18 5 19 94 20 6 21 7 22 3 23 2 24
REMARK SMILES IDX 1 25 22 26 23 27 24 28 25 29 26 31 27 32 28 33 92 34 29 35
REMARK SMILES IDX 91 36 30 37 31 38 32 39 85 40 33 41 90 42 84 43 86 44 34 45
REMARK SMILES IDX 89 46 83 47 82 48 35 50 69 51 48 52 68 53 49 54 52 55 67 56
REMARK SMILES IDX 87 57 50 58 51 59 66 61 88 62 53 63 36 64 37 65 46 66 38 67
REMARK SMILES IDX 39 68 45 69 47 70 40 71 41 72 42 73 43 74 44 75 70 76 71 77
REMARK SMILES IDX 80 78 72 79 73 80 79 81 81 82 74 83 75 84 76 85 77 86 78 87
REMARK SMILES IDX 54 88 55 89 64 90 56 91 57 92 63 93 65 94 58 95 59 96 60 97
REMARK SMILES IDX 61 98 62 99
REMARK H PARENT 20 5 11 16 24 30 86 49 52 60
REMARK Flexibility Score: inf
ROOT
ATOM      1  C   UNL A   1      33.650  29.373  26.571  1.00  0.00     0.118 C 
ENDROOT
BRANCH   1   2
ATOM      2  N   UNL A   1      33.918  29.236  25.153  1.00  0.00    -0.352 N 
ATOM      3  C   UNL A   1      33.390  28.467  24.145  1.00  0.00     0.252 C 
ATOM      4  O   UNL A   1      34.003  28.517  23.080  1.00  0.00    -0.269 OA
ATOM      5  H   UNL A   1      34.640  29.827  24.843  1.00  0.00     0.163 HD
BRANCH   3   6
ATOM      6  C   UNL A   1      32.132  27.655  24.267  1.00  0.00     0.060 A 
ATOM      7  C   UNL A   1      30.802  25.953  25.418  1.00  0.00     0.042 A 
ATOM      8  C   UNL A   1      29.694  26.259  24.637  1.00  0.00     0.028 A 
ATOM      9  C   UNL A   1      32.031  26.564  25.147  1.00  0.00     0.041 A 
ATOM     10  C   UNL A   1      29.784  27.282  23.698  1.00  0.00     0.023 A 
ATOM     11  C   UNL A   1      30.977  28.003  23.534  1.00  0.00     0.053 A 
ATOM     12  Cl  UNL A   1      30.859  29.352  22.450  1.00  0.00    -0.083 Cl
BRANCH   7  13
ATOM     13  N   UNL A   1      30.619  25.067  26.487  1.00  0.00    -0.322 N 
ATOM     14  C   UNL A   1      31.014  23.752  26.665  1.00  0.00     0.255 C 
ATOM     15  O   UNL A   1      30.529  23.124  27.606  1.00  0.00    -0.269 OA
ATOM     16  H   UNL A   1      30.121  25.446  27.246  1.00  0.00     0.170 HD
BRANCH  14  17
ATOM     17  C   UNL A   1      32.086  23.088  25.854  1.00  0.00     0.043 A 
ATOM     18  C   UNL A   1      32.877  21.500  24.193  1.00  0.00     0.120 A 
ATOM     19  C   UNL A   1      34.197  21.808  24.521  1.00  0.00     0.046 A 
ATOM     20  C   UNL A   1      31.829  22.190  24.807  1.00  0.00     0.060 A 
ATOM     21  C   UNL A   1      34.471  22.792  25.468  1.00  0.00     0.005 A 
ATOM     22  C   UNL A   1      33.420  23.413  26.148  1.00  0.00     0.014 A 
BRANCH  18  23
ATOM     23  O   UNL A   1      32.700  20.354  23.467  1.00  0.00    -0.494 OA
BRANCH  23  24
ATOM     24  C   UNL A   1      32.417  19.153  24.180  1.00  0.00     0.226 C 
ATOM     25  C   UNL A   1      33.567  18.162  24.157  1.00  0.00     0.049 C 
ENDBRANCH  23  24
ENDBRANCH  18  23
ENDBRANCH  14  17
ENDBRANCH   7  13
ENDBRANCH   3   6
ENDBRANCH   1   2
BRANCH   1  26
ATOM     26  C   UNL A   1      34.508  30.471  27.184  1.00  0.00     0.042 C 
BRANCH  26  27
ATOM     27  C   UNL A   1      35.654  29.891  27.998  1.00  0.00     0.118 C 
BRANCH  27  28
ATOM     28  N   UNL A   1      35.488  30.163  29.424  1.00  0.00    -0.352 N 
ATOM     29  C   UNL A   1      36.410  30.096  30.438  1.00  0.00     0.251 C 
ATOM     30  H   UNL A   1      34.582  30.434  29.697  1.00  0.00     0.163 HD
ATOM     31  O   UNL A   1      36.034  30.117  31.609  1.00  0.00    -0.269 OA
BRANCH  29  32
ATOM     32  C   UNL A   1      37.845  29.973  30.115  1.00  0.00     0.039 A 
ATOM     33  C   UNL A   1      38.729  29.525  31.098  1.00  0.00     0.014 A 
ATOM     34  C   UNL A   1      38.310  30.272  28.832  1.00  0.00     0.014 A 
ATOM     35  C   UNL A   1      40.065  29.288  30.766  1.00  0.00     0.010 A 
ATOM     36  C   UNL A   1      39.615  29.953  28.481  1.00  0.00     0.010 A 
ATOM     37  C   UNL A   1      40.503  29.447  29.441  1.00  0.00    -0.014 A 
BRANCH  37  38
ATOM     38  C   UNL A   1      41.869  29.045  29.020  1.00  0.00     0.031 A 
ATOM     39  C   UNL A   1      42.961  30.073  28.922  1.00  0.00     0.074 A 
ATOM     40  C   UNL A   1      42.093  27.773  28.634  1.00  0.00     0.049 A 
ATOM     41  N   UNL A   1      44.177  29.942  28.460  1.00  0.00    -0.248 NA
ATOM     42  C   UNL A   1      42.635  31.434  29.378  1.00  0.00     0.031 C 
ATOM     43  C   UNL A   1      41.096  26.698  28.643  1.00  0.00     0.029 A 
ATOM     44  N   UNL A   1      43.221  27.170  28.139  1.00  0.00    -0.354 N 
ATOM     45  C   UNL A   1      44.758  31.201  28.560  1.00  0.00     0.074 A 
ATOM     46  C   UNL A   1      43.746  32.094  29.078  1.00  0.00     0.031 C 
ATOM     47  C   UNL A   1      41.661  25.568  28.192  1.00  0.00     0.029 A 
ATOM     48  C   UNL A   1      43.040  25.846  27.809  1.00  0.00     0.049 A 
ATOM     49  H   UNL A   1      44.078  27.640  28.029  1.00  0.00     0.167 HD
ATOM     50  C   UNL A   1      46.027  31.570  28.263  1.00  0.00     0.037 A 
ATOM     51  C   UNL A   1      43.882  24.962  27.240  1.00  0.00     0.037 A 
ATOM     52  C   UNL A   1      47.029  30.667  27.760  1.00  0.00     0.049 A 
ATOM     53  C   UNL A   1      45.275  25.409  26.884  1.00  0.00     0.074 A 
ATOM     54  C   UNL A   1      48.361  30.927  27.488  1.00  0.00     0.029 A 
ATOM     55  N   UNL A   1      46.809  29.334  27.442  1.00  0.00    -0.354 N 
ATOM     56  N   UNL A   1      45.832  26.583  27.056  1.00  0.00    -0.248 NA
ATOM     57  C   UNL A   1      46.151  24.413  26.252  1.00  0.00     0.031 C 
ATOM     58  C   UNL A   1      48.931  29.769  26.951  1.00  0.00     0.029 A 
ATOM     59  C   UNL A   1      47.970  28.769  26.940  1.00  0.00     0.049 A 
ATOM     60  H   UNL A   1      45.954  28.860  27.557  1.00  0.00     0.167 HD
ATOM     61  C   UNL A   1      47.127  26.465  26.567  1.00  0.00     0.074 A 
ATOM     62  C   UNL A   1      47.279  25.096  26.116  1.00  0.00     0.031 C 
ATOM     63  C   UNL A   1      48.102  27.404  26.492  1.00  0.00     0.037 A 
BRANCH  50  64
ATOM     64  C   UNL A   1      46.407  33.011  28.475  1.00  0.00     0.058 A 
ATOM     65  C   UNL A   1      46.267  33.968  27.457  1.00  0.00     0.135 A 
ATOM     66  C   UNL A   1      46.867  33.451  29.727  1.00  0.00     0.135 A 
ATOM     67  F   UNL A   1      45.846  33.601  26.237  1.00  0.00    -0.206 F 
ATOM     68  C   UNL A   1      46.593  35.304  27.665  1.00  0.00     0.059 A 
ATOM     69  C   UNL A   1      47.171  34.788  29.966  1.00  0.00     0.059 A 
ATOM     70  F   UNL A   1      47.022  32.579  30.736  1.00  0.00    -0.206 F 
ATOM     71  C   UNL A   1      47.041  35.706  28.924  1.00  0.00     0.060 A 
BRANCH  71  72
ATOM     72  S   UNL A   1      47.441  37.448  29.178  1.00  0.00     0.124 S 
ATOM     73  O   UNL A   1      48.751  37.356  29.815  1.00  0.00    -0.237 OA
ATOM     74  O   UNL A   1      47.434  37.970  27.816  1.00  0.00    -0.237 OA
ATOM     75  O   UNL A   1      46.359  37.925  30.035  1.00  0.00    -0.744 OA
ENDBRANCH  71  72
ENDBRANCH  50  64
BRANCH  51  76
ATOM     76  C   UNL A   1      43.430  23.571  26.965  1.00  0.00     0.058 A 
ATOM     77  C   UNL A   1      43.297  22.637  28.004  1.00  0.00     0.135 A 
ATOM     78  C   UNL A   1      43.115  23.148  25.664  1.00  0.00     0.135 A 
ATOM     79  F   UNL A   1      43.594  22.988  29.264  1.00  0.00    -0.206 F 
ATOM     80  C   UNL A   1      42.886  21.330  27.761  1.00  0.00     0.059 A 
ATOM     81  C   UNL A   1      42.674  21.856  25.400  1.00  0.00     0.059 A 
ATOM     82  F   UNL A   1      43.210  24.006  24.636  1.00  0.00    -0.206 F 
ATOM     83  C   UNL A   1      42.574  20.950  26.455  1.00  0.00     0.060 A 
BRANCH  83  84
ATOM     84  S   UNL A   1      42.003  19.263  26.159  1.00  0.00     0.124 S 
ATOM     85  O   UNL A   1      42.786  18.888  24.987  1.00  0.00    -0.237 OA
ATOM     86  O   UNL A   1      42.361  18.595  27.407  1.00  0.00    -0.237 OA
ATOM     87  O   UNL A   1      40.569  19.428  25.933  1.00  0.00    -0.744 OA
ENDBRANCH  83  84
ENDBRANCH  51  76
BRANCH  63  88
ATOM     88  C   UNL A   1      49.424  26.988  25.906  1.00  0.00     0.058 A 
ATOM     89  C   UNL A   1      49.708  27.165  24.543  1.00  0.00     0.135 A 
ATOM     90  C   UNL A   1      50.439  26.469  26.726  1.00  0.00     0.135 A 
ATOM     91  F   UNL A   1      48.769  27.645  23.713  1.00  0.00    -0.206 F 
ATOM     92  C   UNL A   1      50.949  26.829  24.012  1.00  0.00     0.059 A 
ATOM     93  C   UNL A   1      51.696  26.156  26.222  1.00  0.00     0.059 A 
ATOM     94  F   UNL A   1      50.221  26.287  28.039  1.00  0.00    -0.206 F 
ATOM     95  C   UNL A   1      51.940  26.332  24.861  1.00  0.00     0.060 A 
BRANCH  95  96
ATOM     96  S   UNL A   1      53.561  25.955  24.164  1.00  0.00     0.124 S 
ATOM     97  O   UNL A   1      54.378  27.029  24.719  1.00  0.00    -0.237 OA
ATOM     98  O   UNL A   1      53.824  24.620  24.696  1.00  0.00    -0.237 OA
ATOM     99  O   UNL A   1      53.336  26.016  22.723  1.00  0.00    -0.744 OA
ENDBRANCH  95  96
ENDBRANCH  63  88
ENDBRANCH  37  38
ENDBRANCH  29  32
ENDBRANCH  27  28
ENDBRANCH  26  27
ENDBRANCH   1  26
TORSDOF 17
ENDMDL
