MODEL 1
REMARK VINA RESULT:     -11.6      0.000      0.000
REMARK SMILES CCCC[C@H]1C(=S)c2cc(C(=O)NCCCNC(=O)c3ccc(-c4c5nc(c(-c6c(F)cc(S(=O)(=O)[O-])cc6F)c6ccc([nH]6)c(-c6c(F)cc(S(=O)(=O)[O-])cc6F)c6nc(c(-c7c(F)cc(S(=O)(=O)[O-])cc7F)c7ccc4[nH]7)C=C6)C=C5)cc3)ccc2N=C1C
REMARK SMILES IDX 15 1 14 2 13 3 11 4 12 5 10 7 5 8 6 9 90 10 7 11 8 12 89 13
REMARK SMILES IDX 91 14 9 15 88 16 87 17 86 18 4 19 3 20 2 21 1 22 16 23 17 24
REMARK SMILES IDX 18 25 19 27 20 28 21 29 85 30 22 31 84 32 23 33 24 34 25 35
REMARK SMILES IDX 78 36 26 37 83 38 77 39 79 40 27 41 82 42 76 43 75 44 28 46
REMARK SMILES IDX 62 47 41 48 61 49 42 50 45 51 60 52 80 53 43 54 44 55 59 57
REMARK SMILES IDX 81 58 46 59 29 60 30 61 39 62 31 63 32 64 38 65 40 66 33 67
REMARK SMILES IDX 34 68 35 69 36 70 37 71 63 72 64 73 73 74 65 75 66 76 72 77
REMARK SMILES IDX 74 78 67 79 68 80 69 81 70 82 71 83 47 84 48 85 57 86 49 87
REMARK SMILES IDX 50 88 56 89 58 90 51 91 52 92 53 93 54 94 55 95
REMARK H PARENT 13 6 17 26 79 45 45 56
REMARK Flexibility Score: inf
ROOT
ATOM      1  C   UNL A   1      38.194  19.845  25.074  1.00  0.00     0.042 C 
ENDROOT
BRANCH   1   2
ATOM      2  C   UNL A   1      37.344  21.024  24.610  1.00  0.00     0.118 C 
BRANCH   2   3
ATOM      3  N   UNL A   1      37.845  22.277  25.141  1.00  0.00    -0.352 N 
ATOM      4  C   UNL A   1      37.250  23.397  25.654  1.00  0.00     0.251 C 
ATOM      5  O   UNL A   1      38.012  24.284  26.045  1.00  0.00    -0.269 OA
ATOM      6  H   UNL A   1      38.827  22.333  25.130  1.00  0.00     0.163 HD
BRANCH   4   7
ATOM      7  C   UNL A   1      35.775  23.599  25.813  1.00  0.00     0.040 A 
ATOM      8  C   UNL A   1      31.917  26.438  24.608  1.00  0.00     0.075 C 
ATOM      9  C   UNL A   1      33.104  25.665  24.053  1.00  0.00     0.033 C 
ATOM     10  C   UNL A   1      31.122  25.525  25.542  1.00  0.00     0.024 C 
ATOM     11  S   UNL A   1      33.394  25.606  22.392  1.00  0.00    -0.083 S 
ATOM     12  C   UNL A   1      33.810  24.811  25.027  1.00  0.00     0.016 A 
ATOM     13  N   UNL A   1      31.650  24.533  26.192  1.00  0.00    -0.257 NA
ATOM     14  C   UNL A   1      29.668  25.834  25.790  1.00  0.00     0.062 C 
ATOM     15  C   UNL A   1      35.179  24.528  24.942  1.00  0.00     0.025 A 
ATOM     16  C   UNL A   1      33.012  24.237  26.017  1.00  0.00     0.071 A 
ATOM     17  C   UNL A   1      33.589  23.275  26.841  1.00  0.00     0.030 A 
ATOM     18  C   UNL A   1      34.945  22.934  26.718  1.00  0.00     0.016 A 
BRANCH   8  19
ATOM     19  C   UNL A   1      32.218  27.755  25.359  1.00  0.00     0.015 C 
BRANCH  19  20
ATOM     20  C   UNL A   1      31.749  29.104  24.804  1.00  0.00     0.001 C 
BRANCH  20  21
ATOM     21  C   UNL A   1      31.598  30.285  25.764  1.00  0.00    -0.003 C 
ATOM     22  C   UNL A   1      32.318  30.135  27.092  1.00  0.00     0.004 C 
ENDBRANCH  20  21
ENDBRANCH  19  20
ENDBRANCH   8  19
ENDBRANCH   4   7
ENDBRANCH   2   3
ENDBRANCH   1   2
BRANCH   1  23
ATOM     23  C   UNL A   1      39.381  20.274  25.933  1.00  0.00     0.118 C 
BRANCH  23  24
ATOM     24  N   UNL A   1      40.384  19.218  26.051  1.00  0.00    -0.352 N 
ATOM     25  C   UNL A   1      41.750  19.305  26.178  1.00  0.00     0.251 C 
ATOM     26  H   UNL A   1      40.026  18.302  26.037  1.00  0.00     0.163 HD
ATOM     27  O   UNL A   1      42.435  18.295  26.034  1.00  0.00    -0.269 OA
BRANCH  25  28
ATOM     28  C   UNL A   1      42.389  20.603  26.472  1.00  0.00     0.039 A 
ATOM     29  C   UNL A   1      42.452  21.081  27.781  1.00  0.00     0.014 A 
ATOM     30  C   UNL A   1      42.946  21.349  25.429  1.00  0.00     0.014 A 
ATOM     31  C   UNL A   1      42.906  22.371  28.023  1.00  0.00     0.010 A 
ATOM     32  C   UNL A   1      43.495  22.608  25.689  1.00  0.00     0.010 A 
ATOM     33  C   UNL A   1      43.436  23.150  26.982  1.00  0.00    -0.014 A 
BRANCH  33  34
ATOM     34  C   UNL A   1      43.919  24.524  27.284  1.00  0.00     0.031 A 
ATOM     35  C   UNL A   1      45.353  24.907  27.045  1.00  0.00     0.074 A 
ATOM     36  C   UNL A   1      43.032  25.446  27.709  1.00  0.00     0.049 A 
ATOM     37  N   UNL A   1      45.928  26.075  27.190  1.00  0.00    -0.248 NA
ATOM     38  C   UNL A   1      46.265  23.846  26.591  1.00  0.00     0.031 C 
ATOM     39  C   UNL A   1      41.615  25.188  27.975  1.00  0.00     0.029 A 
ATOM     40  N   UNL A   1      43.177  26.787  27.957  1.00  0.00    -0.354 N 
ATOM     41  C   UNL A   1      47.265  25.887  26.863  1.00  0.00     0.074 A 
ATOM     42  C   UNL A   1      47.427  24.483  26.547  1.00  0.00     0.031 C 
ATOM     43  C   UNL A   1      41.007  26.342  28.280  1.00  0.00     0.029 A 
ATOM     44  C   UNL A   1      42.000  27.411  28.301  1.00  0.00     0.049 A 
ATOM     45  H   UNL A   1      44.039  27.257  27.896  1.00  0.00     0.167 HD
ATOM     46  C   UNL A   1      48.263  26.802  26.815  1.00  0.00     0.037 A 
ATOM     47  C   UNL A   1      41.746  28.698  28.606  1.00  0.00     0.037 A 
ATOM     48  C   UNL A   1      48.086  28.200  27.114  1.00  0.00     0.049 A 
ATOM     49  C   UNL A   1      42.873  29.688  28.580  1.00  0.00     0.074 A 
ATOM     50  C   UNL A   1      49.025  29.215  27.066  1.00  0.00     0.029 A 
ATOM     51  N   UNL A   1      46.891  28.781  27.519  1.00  0.00    -0.354 N 
ATOM     52  N   UNL A   1      44.128  29.496  28.249  1.00  0.00    -0.248 NA
ATOM     53  C   UNL A   1      42.558  31.066  28.980  1.00  0.00     0.031 C 
ATOM     54  C   UNL A   1      48.413  30.398  27.491  1.00  0.00     0.029 A 
ATOM     55  C   UNL A   1      47.078  30.134  27.754  1.00  0.00     0.049 A 
ATOM     56  H   UNL A   1      46.038  28.302  27.624  1.00  0.00     0.167 HD
ATOM     57  C   UNL A   1      44.752  30.728  28.394  1.00  0.00     0.074 A 
ATOM     58  C   UNL A   1      43.733  31.664  28.825  1.00  0.00     0.031 C 
ATOM     59  C   UNL A   1      46.054  31.052  28.192  1.00  0.00     0.037 A 
BRANCH  46  60
ATOM     60  C   UNL A   1      49.640  26.319  26.444  1.00  0.00     0.058 A 
ATOM     61  C   UNL A   1      50.121  26.391  25.128  1.00  0.00     0.135 A 
ATOM     62  C   UNL A   1      50.501  25.802  27.427  1.00  0.00     0.135 A 
ATOM     63  F   UNL A   1      49.337  26.863  24.145  1.00  0.00    -0.206 F 
ATOM     64  C   UNL A   1      51.393  25.936  24.790  1.00  0.00     0.059 A 
ATOM     65  C   UNL A   1      51.788  25.367  27.118  1.00  0.00     0.059 A 
ATOM     66  F   UNL A   1      50.095  25.712  28.703  1.00  0.00    -0.206 F 
ATOM     67  C   UNL A   1      52.218  25.422  25.794  1.00  0.00     0.060 A 
BRANCH  67  68
ATOM     68  S   UNL A   1      53.856  24.819  25.334  1.00  0.00     0.124 S 
ATOM     69  O   UNL A   1      54.140  25.624  24.150  1.00  0.00    -0.237 OA
ATOM     70  O   UNL A   1      54.648  25.135  26.519  1.00  0.00    -0.237 OA
ATOM     71  O   UNL A   1      53.641  23.397  25.087  1.00  0.00    -0.744 OA
ENDBRANCH  67  68
ENDBRANCH  46  60
BRANCH  47  72
ATOM     72  C   UNL A   1      40.356  29.100  28.948  1.00  0.00     0.058 A 
ATOM     73  C   UNL A   1      39.951  29.235  30.283  1.00  0.00     0.135 A 
ATOM     74  C   UNL A   1      39.434  29.442  27.945  1.00  0.00     0.135 A 
ATOM     75  F   UNL A   1      40.794  28.913  31.275  1.00  0.00    -0.206 F 
ATOM     76  C   UNL A   1      38.686  29.710  30.614  1.00  0.00     0.059 A 
ATOM     77  C   UNL A   1      38.173  29.943  28.250  1.00  0.00     0.059 A 
ATOM     78  F   UNL A   1      39.779  29.343  26.652  1.00  0.00    -0.206 F 
ATOM     79  C   UNL A   1      37.809  30.076  29.590  1.00  0.00     0.060 A 
BRANCH  79  80
ATOM     80  S   UNL A   1      36.211  30.788  30.034  1.00  0.00     0.124 S 
ATOM     81  O   UNL A   1      36.526  32.211  30.090  1.00  0.00    -0.237 OA
ATOM     82  O   UNL A   1      35.370  30.365  28.918  1.00  0.00    -0.237 OA
ATOM     83  O   UNL A   1      35.904  30.158  31.314  1.00  0.00    -0.744 OA
ENDBRANCH  79  80
ENDBRANCH  47  72
BRANCH  59  84
ATOM     84  C   UNL A   1      46.460  32.478  28.434  1.00  0.00     0.058 A 
ATOM     85  C   UNL A   1      46.986  32.890  29.668  1.00  0.00     0.135 A 
ATOM     86  C   UNL A   1      46.406  33.421  27.395  1.00  0.00     0.135 A 
ATOM     87  F   UNL A   1      47.051  32.030  30.696  1.00  0.00    -0.206 F 
ATOM     88  C   UNL A   1      47.439  34.190  29.866  1.00  0.00     0.059 A 
ATOM     89  C   UNL A   1      46.876  34.719  27.562  1.00  0.00     0.059 A 
ATOM     90  F   UNL A   1      45.918  33.075  26.192  1.00  0.00    -0.206 F 
ATOM     91  C   UNL A   1      47.389  35.095  28.803  1.00  0.00     0.060 A 
BRANCH  91  92
ATOM     92  S   UNL A   1      48.039  36.760  29.059  1.00  0.00     0.124 S 
ATOM     93  O   UNL A   1      47.345  37.509  28.016  1.00  0.00    -0.237 OA
ATOM     94  O   UNL A   1      47.625  37.048  30.429  1.00  0.00    -0.237 OA
ATOM     95  O   UNL A   1      49.476  36.599  28.864  1.00  0.00    -0.744 OA
ENDBRANCH  91  92
ENDBRANCH  59  84
ENDBRANCH  33  34
ENDBRANCH  25  28
ENDBRANCH  23  24
ENDBRANCH   1  23
TORSDOF 16
ENDMDL
MODEL 2
REMARK VINA RESULT:     -11.5      6.405     12.071
REMARK SMILES CCCC[C@H]1C(=S)c2cc(C(=O)NCCCNC(=O)c3ccc(-c4c5nc(c(-c6c(F)cc(S(=O)(=O)[O-])cc6F)c6ccc([nH]6)c(-c6c(F)cc(S(=O)(=O)[O-])cc6F)c6nc(c(-c7c(F)cc(S(=O)(=O)[O-])cc7F)c7ccc4[nH]7)C=C6)C=C5)cc3)ccc2N=C1C
REMARK SMILES IDX 15 1 14 2 13 3 11 4 12 5 10 7 5 8 6 9 90 10 7 11 8 12 89 13
REMARK SMILES IDX 91 14 9 15 88 16 87 17 86 18 4 19 3 20 2 21 1 22 16 23 17 24
REMARK SMILES IDX 18 25 19 27 20 28 21 29 85 30 22 31 84 32 23 33 24 34 25 35
REMARK SMILES IDX 78 36 26 37 83 38 77 39 79 40 27 41 82 42 76 43 75 44 28 46
REMARK SMILES IDX 62 47 41 48 61 49 42 50 45 51 60 52 80 53 43 54 44 55 59 57
REMARK SMILES IDX 81 58 46 59 29 60 30 61 39 62 31 63 32 64 38 65 40 66 33 67
REMARK SMILES IDX 34 68 35 69 36 70 37 71 63 72 64 73 73 74 65 75 66 76 72 77
REMARK SMILES IDX 74 78 67 79 68 80 69 81 70 82 71 83 47 84 48 85 57 86 49 87
REMARK SMILES IDX 50 88 56 89 58 90 51 91 52 92 53 93 54 94 55 95
REMARK H PARENT 13 6 17 26 79 45 45 56
REMARK Flexibility Score: inf
ROOT
ATOM      1  C   UNL A   1      31.628  32.163  26.747  1.00  0.00     0.042 C 
ENDROOT
BRANCH   1   2
ATOM      2  C   UNL A   1      31.787  30.656  26.570  1.00  0.00     0.118 C 
BRANCH   2   3
ATOM      3  N   UNL A   1      33.062  30.196  27.087  1.00  0.00    -0.352 N 
ATOM      4  C   UNL A   1      33.918  29.185  26.742  1.00  0.00     0.251 C 
ATOM      5  O   UNL A   1      34.953  29.102  27.406  1.00  0.00    -0.269 OA
ATOM      6  H   UNL A   1      33.380  30.725  27.852  1.00  0.00     0.163 HD
BRANCH   4   7
ATOM      7  C   UNL A   1      33.712  28.224  25.613  1.00  0.00     0.040 A 
ATOM      8  C   UNL A   1      33.499  23.457  24.333  1.00  0.00     0.075 C 
ATOM      9  C   UNL A   1      32.973  24.500  25.307  1.00  0.00     0.033 C 
ATOM     10  C   UNL A   1      33.339  23.984  22.906  1.00  0.00     0.024 C 
ATOM     11  S   UNL A   1      31.845  24.083  26.491  1.00  0.00    -0.083 S 
ATOM     12  C   UNL A   1      33.333  25.895  24.992  1.00  0.00     0.016 A 
ATOM     13  N   UNL A   1      33.328  25.248  22.608  1.00  0.00    -0.257 NA
ATOM     14  C   UNL A   1      33.272  22.993  21.773  1.00  0.00     0.062 C 
ATOM     15  C   UNL A   1      33.507  26.879  25.973  1.00  0.00     0.025 A 
ATOM     16  C   UNL A   1      33.427  26.202  23.633  1.00  0.00     0.071 A 
ATOM     17  C   UNL A   1      33.573  27.540  23.277  1.00  0.00     0.030 A 
ATOM     18  C   UNL A   1      33.679  28.543  24.253  1.00  0.00     0.016 A 
BRANCH   8  19
ATOM     19  C   UNL A   1      34.962  22.992  24.515  1.00  0.00     0.015 C 
BRANCH  19  20
ATOM     20  C   UNL A   1      35.283  21.613  25.103  1.00  0.00     0.001 C 
BRANCH  20  21
ATOM     21  C   UNL A   1      34.129  20.698  25.511  1.00  0.00    -0.003 C 
ATOM     22  C   UNL A   1      33.967  19.446  24.668  1.00  0.00     0.004 C 
ENDBRANCH  20  21
ENDBRANCH  19  20
ENDBRANCH   8  19
ENDBRANCH   4   7
ENDBRANCH   2   3
ENDBRANCH   1   2
BRANCH   1  23
ATOM     23  C   UNL A   1      32.839  32.810  27.416  1.00  0.00     0.118 C 
BRANCH  23  24
ATOM     24  N   UNL A   1      32.594  34.209  27.760  1.00  0.00    -0.352 N 
ATOM     25  C   UNL A   1      33.131  34.981  28.762  1.00  0.00     0.251 C 
ATOM     26  H   UNL A   1      31.944  34.670  27.183  1.00  0.00     0.163 HD
ATOM     27  O   UNL A   1      32.623  36.069  29.023  1.00  0.00    -0.269 OA
BRANCH  25  28
ATOM     28  C   UNL A   1      34.298  34.500  29.528  1.00  0.00     0.039 A 
ATOM     29  C   UNL A   1      35.580  34.570  28.982  1.00  0.00     0.014 A 
ATOM     30  C   UNL A   1      34.114  33.984  30.815  1.00  0.00     0.014 A 
ATOM     31  C   UNL A   1      36.644  33.967  29.642  1.00  0.00     0.010 A 
ATOM     32  C   UNL A   1      35.204  33.467  31.520  1.00  0.00     0.010 A 
ATOM     33  C   UNL A   1      36.471  33.411  30.919  1.00  0.00    -0.014 A 
BRANCH  33  34
ATOM     34  C   UNL A   1      37.637  32.781  31.595  1.00  0.00     0.031 A 
ATOM     35  C   UNL A   1      38.113  33.277  32.933  1.00  0.00     0.074 A 
ATOM     36  C   UNL A   1      38.218  31.708  31.024  1.00  0.00     0.049 A 
ATOM     37  N   UNL A   1      39.069  32.805  33.692  1.00  0.00    -0.248 NA
ATOM     38  C   UNL A   1      37.438  34.459  33.491  1.00  0.00     0.031 C 
ATOM     39  C   UNL A   1      37.839  31.138  29.728  1.00  0.00     0.029 A 
ATOM     40  N   UNL A   1      39.221  30.884  31.467  1.00  0.00    -0.354 N 
ATOM     41  C   UNL A   1      39.121  33.636  34.805  1.00  0.00     0.074 A 
ATOM     42  C   UNL A   1      38.125  34.667  34.605  1.00  0.00     0.031 C 
ATOM     43  C   UNL A   1      38.548  30.022  29.514  1.00  0.00     0.029 A 
ATOM     44  C   UNL A   1      39.481  29.831  30.620  1.00  0.00     0.049 A 
ATOM     45  H   UNL A   1      39.707  31.031  32.309  1.00  0.00     0.167 HD
ATOM     46  C   UNL A   1      39.915  33.540  35.898  1.00  0.00     0.037 A 
ATOM     47  C   UNL A   1      40.373  28.828  30.716  1.00  0.00     0.037 A 
ATOM     48  C   UNL A   1      40.891  32.499  36.094  1.00  0.00     0.049 A 
ATOM     49  C   UNL A   1      41.267  28.761  31.919  1.00  0.00     0.074 A 
ATOM     50  C   UNL A   1      41.724  32.294  37.180  1.00  0.00     0.029 A 
ATOM     51  N   UNL A   1      41.167  31.487  35.184  1.00  0.00    -0.354 N 
ATOM     52  N   UNL A   1      41.288  29.545  32.971  1.00  0.00    -0.248 NA
ATOM     53  C   UNL A   1      42.265  27.685  31.948  1.00  0.00     0.031 C 
ATOM     54  C   UNL A   1      42.539  31.193  36.904  1.00  0.00     0.029 A 
ATOM     55  C   UNL A   1      42.180  30.675  35.669  1.00  0.00     0.049 A 
ATOM     56  H   UNL A   1      40.711  31.365  34.320  1.00  0.00     0.167 HD
ATOM     57  C   UNL A   1      42.296  29.055  33.790  1.00  0.00     0.074 A 
ATOM     58  C   UNL A   1      42.849  27.894  33.121  1.00  0.00     0.031 C 
ATOM     59  C   UNL A   1      42.726  29.528  34.986  1.00  0.00     0.037 A 
BRANCH  46  60
ATOM     60  C   UNL A   1      39.777  34.599  36.959  1.00  0.00     0.058 A 
ATOM     61  C   UNL A   1      38.950  34.422  38.080  1.00  0.00     0.135 A 
ATOM     62  C   UNL A   1      40.503  35.798  36.867  1.00  0.00     0.135 A 
ATOM     63  F   UNL A   1      38.221  33.302  38.214  1.00  0.00    -0.206 F 
ATOM     64  C   UNL A   1      38.822  35.408  39.054  1.00  0.00     0.059 A 
ATOM     65  C   UNL A   1      40.412  36.786  37.844  1.00  0.00     0.059 A 
ATOM     66  F   UNL A   1      41.311  36.021  35.819  1.00  0.00    -0.206 F 
ATOM     67  C   UNL A   1      39.555  36.590  38.925  1.00  0.00     0.060 A 
BRANCH  67  68
ATOM     68  S   UNL A   1      39.361  37.864  40.188  1.00  0.00     0.124 S 
ATOM     69  O   UNL A   1      40.648  38.548  40.113  1.00  0.00    -0.237 OA
ATOM     70  O   UNL A   1      38.213  38.619  39.695  1.00  0.00    -0.237 OA
ATOM     71  O   UNL A   1      39.127  37.102  41.411  1.00  0.00    -0.744 OA
ENDBRANCH  67  68
ENDBRANCH  46  60
BRANCH  47  72
ATOM     72  C   UNL A   1      40.439  27.812  29.632  1.00  0.00     0.058 A 
ATOM     73  C   UNL A   1      41.449  27.857  28.660  1.00  0.00     0.135 A 
ATOM     74  C   UNL A   1      39.547  26.728  29.601  1.00  0.00     0.135 A 
ATOM     75  F   UNL A   1      42.319  28.877  28.644  1.00  0.00    -0.206 F 
ATOM     76  C   UNL A   1      41.582  26.855  27.705  1.00  0.00     0.059 A 
ATOM     77  C   UNL A   1      39.675  25.701  28.672  1.00  0.00     0.059 A 
ATOM     78  F   UNL A   1      38.572  26.633  30.519  1.00  0.00    -0.206 F 
ATOM     79  C   UNL A   1      40.700  25.773  27.728  1.00  0.00     0.060 A 
BRANCH  79  80
ATOM     80  S   UNL A   1      40.947  24.429  26.549  1.00  0.00     0.124 S 
ATOM     81  O   UNL A   1      41.875  25.035  25.601  1.00  0.00    -0.237 OA
ATOM     82  O   UNL A   1      41.500  23.378  27.397  1.00  0.00    -0.237 OA
ATOM     83  O   UNL A   1      39.603  24.173  26.041  1.00  0.00    -0.744 OA
ENDBRANCH  79  80
ENDBRANCH  47  72
BRANCH  59  84
ATOM     84  C   UNL A   1      43.853  28.794  35.659  1.00  0.00     0.058 A 
ATOM     85  C   UNL A   1      45.190  29.178  35.472  1.00  0.00     0.135 A 
ATOM     86  C   UNL A   1      43.588  27.756  36.566  1.00  0.00     0.135 A 
ATOM     87  F   UNL A   1      45.497  30.160  34.609  1.00  0.00    -0.206 F 
ATOM     88  C   UNL A   1      46.226  28.554  36.157  1.00  0.00     0.059 A 
ATOM     89  C   UNL A   1      44.606  27.134  37.281  1.00  0.00     0.059 A 
ATOM     90  F   UNL A   1      42.325  27.356  36.785  1.00  0.00    -0.206 F 
ATOM     91  C   UNL A   1      45.923  27.538  37.067  1.00  0.00     0.060 A 
BRANCH  91  92
ATOM     92  S   UNL A   1      47.274  26.781  37.995  1.00  0.00     0.124 S 
ATOM     93  O   UNL A   1      46.600  26.387  39.228  1.00  0.00    -0.237 OA
ATOM     94  O   UNL A   1      47.680  25.688  37.117  1.00  0.00    -0.237 OA
ATOM     95  O   UNL A   1      48.244  27.863  38.130  1.00  0.00    -0.744 OA
ENDBRANCH  91  92
ENDBRANCH  59  84
ENDBRANCH  33  34
ENDBRANCH  25  28
ENDBRANCH  23  24
ENDBRANCH   1  23
TORSDOF 16
ENDMDL
MODEL 3
REMARK VINA RESULT:     -11.4      4.598      7.675
REMARK SMILES CCCC[C@H]1C(=S)c2cc(C(=O)NCCCNC(=O)c3ccc(-c4c5nc(c(-c6c(F)cc(S(=O)(=O)[O-])cc6F)c6ccc([nH]6)c(-c6c(F)cc(S(=O)(=O)[O-])cc6F)c6nc(c(-c7c(F)cc(S(=O)(=O)[O-])cc7F)c7ccc4[nH]7)C=C6)C=C5)cc3)ccc2N=C1C
REMARK SMILES IDX 15 1 14 2 13 3 11 4 12 5 10 7 5 8 6 9 90 10 7 11 8 12 89 13
REMARK SMILES IDX 91 14 9 15 88 16 87 17 86 18 4 19 3 20 2 21 1 22 16 23 17 24
REMARK SMILES IDX 18 25 19 27 20 28 21 29 85 30 22 31 84 32 23 33 24 34 25 35
REMARK SMILES IDX 78 36 26 37 83 38 77 39 79 40 27 41 82 42 76 43 75 44 28 46
REMARK SMILES IDX 62 47 41 48 61 49 42 50 45 51 60 52 80 53 43 54 44 55 59 57
REMARK SMILES IDX 81 58 46 59 29 60 30 61 39 62 31 63 32 64 38 65 40 66 33 67
REMARK SMILES IDX 34 68 35 69 36 70 37 71 63 72 64 73 73 74 65 75 66 76 72 77
REMARK SMILES IDX 74 78 67 79 68 80 69 81 70 82 71 83 47 84 48 85 57 86 49 87
REMARK SMILES IDX 50 88 56 89 58 90 51 91 52 92 53 93 54 94 55 95
REMARK H PARENT 13 6 17 26 79 45 45 56
REMARK Flexibility Score: inf
ROOT
ATOM      1  C   UNL A   1      40.650  20.374  26.457  1.00  0.00     0.042 C 
ENDROOT
BRANCH   1   2
ATOM      2  C   UNL A   1      41.978  19.894  27.035  1.00  0.00     0.118 C 
BRANCH   2   3
ATOM      3  N   UNL A   1      42.684  19.042  26.097  1.00  0.00    -0.352 N 
ATOM      4  C   UNL A   1      43.756  19.227  25.267  1.00  0.00     0.251 C 
ATOM      5  O   UNL A   1      44.108  18.244  24.611  1.00  0.00    -0.269 OA
ATOM      6  H   UNL A   1      42.310  18.133  26.047  1.00  0.00     0.163 HD
BRANCH   4   7
ATOM      7  C   UNL A   1      44.541  20.494  25.136  1.00  0.00     0.040 A 
ATOM      8  C   UNL A   1      44.586  25.349  26.047  1.00  0.00     0.075 C 
ATOM      9  C   UNL A   1      44.364  23.978  26.666  1.00  0.00     0.033 C 
ATOM     10  C   UNL A   1      45.915  25.345  25.291  1.00  0.00     0.024 C 
ATOM     11  S   UNL A   1      43.996  23.820  28.306  1.00  0.00    -0.083 S 
ATOM     12  C   UNL A   1      44.719  22.833  25.805  1.00  0.00     0.016 A 
ATOM     13  N   UNL A   1      46.441  24.275  24.777  1.00  0.00    -0.257 NA
ATOM     14  C   UNL A   1      46.617  26.658  25.055  1.00  0.00     0.062 C 
ATOM     15  C   UNL A   1      44.074  21.593  25.880  1.00  0.00     0.025 A 
ATOM     16  C   UNL A   1      45.798  23.038  24.943  1.00  0.00     0.071 A 
ATOM     17  C   UNL A   1      46.296  21.937  24.251  1.00  0.00     0.030 A 
ATOM     18  C   UNL A   1      45.697  20.673  24.372  1.00  0.00     0.016 A 
BRANCH   8  19
ATOM     19  C   UNL A   1      43.490  25.882  25.096  1.00  0.00     0.015 C 
BRANCH  19  20
ATOM     20  C   UNL A   1      42.990  27.327  25.201  1.00  0.00     0.001 C 
BRANCH  20  21
ATOM     21  C   UNL A   1      43.599  28.244  26.262  1.00  0.00    -0.003 C 
ATOM     22  C   UNL A   1      42.774  29.470  26.609  1.00  0.00     0.004 C 
ENDBRANCH  20  21
ENDBRANCH  19  20
ENDBRANCH   8  19
ENDBRANCH   4   7
ENDBRANCH   2   3
ENDBRANCH   1   2
BRANCH   1  23
ATOM     23  C   UNL A   1      40.536  21.897  26.424  1.00  0.00     0.118 C 
BRANCH  23  24
ATOM     24  N   UNL A   1      39.255  22.340  25.880  1.00  0.00    -0.352 N 
ATOM     25  C   UNL A   1      38.510  23.457  26.169  1.00  0.00     0.251 C 
ATOM     26  H   UNL A   1      38.866  21.746  25.198  1.00  0.00     0.163 HD
ATOM     27  O   UNL A   1      37.351  23.531  25.766  1.00  0.00    -0.269 OA
BRANCH  25  28
ATOM     28  C   UNL A   1      39.091  24.554  26.970  1.00  0.00     0.039 A 
ATOM     29  C   UNL A   1      38.876  24.615  28.347  1.00  0.00     0.014 A 
ATOM     30  C   UNL A   1      39.874  25.527  26.341  1.00  0.00     0.014 A 
ATOM     31  C   UNL A   1      39.288  25.734  29.060  1.00  0.00     0.010 A 
ATOM     32  C   UNL A   1      40.373  26.603  27.080  1.00  0.00     0.010 A 
ATOM     33  C   UNL A   1      40.043  26.740  28.437  1.00  0.00    -0.014 A 
BRANCH  33  34
ATOM     34  C   UNL A   1      40.472  27.919  29.238  1.00  0.00     0.031 A 
ATOM     35  C   UNL A   1      41.876  28.023  29.766  1.00  0.00     0.074 A 
ATOM     36  C   UNL A   1      39.601  28.931  29.422  1.00  0.00     0.049 A 
ATOM     37  N   UNL A   1      42.436  29.007  30.424  1.00  0.00    -0.248 NA
ATOM     38  C   UNL A   1      42.767  26.876  29.536  1.00  0.00     0.031 C 
ATOM     39  C   UNL A   1      38.213  28.939  28.953  1.00  0.00     0.029 A 
ATOM     40  N   UNL A   1      39.758  30.157  30.016  1.00  0.00    -0.354 N 
ATOM     41  C   UNL A   1      43.734  28.593  30.699  1.00  0.00     0.074 A 
ATOM     42  C   UNL A   1      43.869  27.253  30.170  1.00  0.00     0.031 C 
ATOM     43  C   UNL A   1      37.668  30.135  29.214  1.00  0.00     0.029 A 
ATOM     44  C   UNL A   1      38.641  30.955  29.930  1.00  0.00     0.049 A 
ATOM     45  H   UNL A   1      40.589  30.439  30.461  1.00  0.00     0.167 HD
ATOM     46  C   UNL A   1      44.726  29.274  31.321  1.00  0.00     0.037 A 
ATOM     47  C   UNL A   1      38.418  32.204  30.380  1.00  0.00     0.037 A 
ATOM     48  C   UNL A   1      44.586  30.615  31.828  1.00  0.00     0.049 A 
ATOM     49  C   UNL A   1      39.520  32.926  31.098  1.00  0.00     0.074 A 
ATOM     50  C   UNL A   1      45.539  31.405  32.447  1.00  0.00     0.029 A 
ATOM     51  N   UNL A   1      43.419  31.366  31.776  1.00  0.00    -0.354 N 
ATOM     52  N   UNL A   1      40.748  32.527  31.331  1.00  0.00    -0.248 NA
ATOM     53  C   UNL A   1      39.209  34.261  31.624  1.00  0.00     0.031 C 
ATOM     54  C   UNL A   1      44.936  32.610  32.816  1.00  0.00     0.029 A 
ATOM     55  C   UNL A   1      43.619  32.597  32.381  1.00  0.00     0.049 A 
ATOM     56  H   UNL A   1      42.573  31.067  31.370  1.00  0.00     0.167 HD
ATOM     57  C   UNL A   1      41.359  33.562  32.026  1.00  0.00     0.074 A 
ATOM     58  C   UNL A   1      40.371  34.615  32.159  1.00  0.00     0.031 C 
ATOM     59  C   UNL A   1      42.622  33.631  32.513  1.00  0.00     0.037 A 
BRANCH  46  60
ATOM     60  C   UNL A   1      46.047  28.574  31.507  1.00  0.00     0.058 A 
ATOM     61  C   UNL A   1      46.326  27.810  32.651  1.00  0.00     0.135 A 
ATOM     62  C   UNL A   1      47.037  28.646  30.513  1.00  0.00     0.135 A 
ATOM     63  F   UNL A   1      45.423  27.718  33.641  1.00  0.00    -0.206 F 
ATOM     64  C   UNL A   1      47.551  27.171  32.820  1.00  0.00     0.059 A 
ATOM     65  C   UNL A   1      48.258  27.991  30.647  1.00  0.00     0.059 A 
ATOM     66  F   UNL A   1      46.824  29.360  29.396  1.00  0.00    -0.206 F 
ATOM     67  C   UNL A   1      48.513  27.271  31.812  1.00  0.00     0.060 A 
BRANCH  67  68
ATOM     68  S   UNL A   1      50.103  26.451  32.057  1.00  0.00     0.124 S 
ATOM     69  O   UNL A   1      50.467  26.916  33.391  1.00  0.00    -0.237 OA
ATOM     70  O   UNL A   1      49.744  25.040  31.955  1.00  0.00    -0.237 OA
ATOM     71  O   UNL A   1      50.925  26.966  30.967  1.00  0.00    -0.744 OA
ENDBRANCH  67  68
ENDBRANCH  46  60
BRANCH  47  72
ATOM     72  C   UNL A   1      37.091  32.833  30.145  1.00  0.00     0.058 A 
ATOM     73  C   UNL A   1      36.088  32.792  31.124  1.00  0.00     0.135 A 
ATOM     74  C   UNL A   1      36.834  33.562  28.972  1.00  0.00     0.135 A 
ATOM     75  F   UNL A   1      36.284  32.101  32.256  1.00  0.00    -0.206 F 
ATOM     76  C   UNL A   1      34.882  33.464  30.956  1.00  0.00     0.059 A 
ATOM     77  C   UNL A   1      35.647  34.264  28.793  1.00  0.00     0.059 A 
ATOM     78  F   UNL A   1      37.768  33.643  28.012  1.00  0.00    -0.206 F 
ATOM     79  C   UNL A   1      34.677  34.211  29.794  1.00  0.00     0.060 A 
BRANCH  79  80
ATOM     80  S   UNL A   1      33.151  35.162  29.635  1.00  0.00     0.124 S 
ATOM     81  O   UNL A   1      32.470  34.451  28.558  1.00  0.00    -0.237 OA
ATOM     82  O   UNL A   1      32.564  35.019  30.964  1.00  0.00    -0.237 OA
ATOM     83  O   UNL A   1      33.621  36.504  29.307  1.00  0.00    -0.744 OA
ENDBRANCH  79  80
ENDBRANCH  47  72
BRANCH  59  84
ATOM     84  C   UNL A   1      43.020  34.886  33.239  1.00  0.00     0.058 A 
ATOM     85  C   UNL A   1      42.822  35.024  34.622  1.00  0.00     0.135 A 
ATOM     86  C   UNL A   1      43.683  35.923  32.563  1.00  0.00     0.135 A 
ATOM     87  F   UNL A   1      42.186  34.066  35.313  1.00  0.00    -0.206 F 
ATOM     88  C   UNL A   1      43.265  36.150  35.308  1.00  0.00     0.059 A 
ATOM     89  C   UNL A   1      44.155  37.045  33.232  1.00  0.00     0.059 A 
ATOM     90  F   UNL A   1      43.902  35.835  31.241  1.00  0.00    -0.206 F 
ATOM     91  C   UNL A   1      43.939  37.152  34.606  1.00  0.00     0.060 A 
BRANCH  91  92
ATOM     92  S   UNL A   1      44.561  38.577  35.523  1.00  0.00     0.124 S 
ATOM     93  O   UNL A   1      43.821  39.672  34.902  1.00  0.00    -0.237 OA
ATOM     94  O   UNL A   1      44.181  38.253  36.895  1.00  0.00    -0.237 OA
ATOM     95  O   UNL A   1      45.995  38.557  35.253  1.00  0.00    -0.744 OA
ENDBRANCH  91  92
ENDBRANCH  59  84
ENDBRANCH  33  34
ENDBRANCH  25  28
ENDBRANCH  23  24
ENDBRANCH   1  23
TORSDOF 16
ENDMDL
