MODEL 1
REMARK VINA RESULT:     -14.1      0.000      0.000
REMARK SMILES COC(=O)c1ccc(NC(=O)[C@@H]2CC=CC[C@@H]2C(=O)NCCCNC(=O)c2ccc(-c3c4nc(c(-c5c(F)cc(S(=O)(=O)[O-])cc5F)c5ccc([nH]5)c(-c5c(F)cc(S(=O)(=O)[O-])cc5F)c5nc(c(-c6c(F)cc(S(=O)(=O)[O-])cc6F)c6ccc3[nH]6)C=C5)C=C4)cc2)c(C)c1
REMARK SMILES IDX 21 1 20 2 18 3 19 4 17 6 12 7 13 8 14 9 16 10 15 11 10 12
REMARK SMILES IDX 9 13 11 15 8 16 5 17 6 18 95 19 7 20 93 21 94 22 3 23 4 24
REMARK SMILES IDX 2 25 1 26 22 27 23 28 24 29 25 30 26 32 27 33 28 34 92 35
REMARK SMILES IDX 29 36 91 37 30 38 31 39 32 40 85 41 33 42 90 43 84 44 86 45
REMARK SMILES IDX 34 46 89 47 83 48 82 49 35 51 69 52 48 53 68 54 49 55 52 56
REMARK SMILES IDX 67 57 87 58 50 59 51 60 66 62 88 63 53 64 36 65 37 66 46 67
REMARK SMILES IDX 38 68 39 69 45 70 47 71 40 72 41 73 42 74 43 75 44 76 70 77
REMARK SMILES IDX 71 78 80 79 72 80 73 81 79 82 81 83 74 84 75 85 76 86 77 87
REMARK SMILES IDX 78 88 54 89 55 90 64 91 56 92 57 93 63 94 65 95 58 96 59 97
REMARK SMILES IDX 60 98 61 99 62 100
REMARK H PARENT 20 5 9 14 24 31 86 50 52 61
REMARK Flexibility Score: inf
ROOT
ATOM      1  C   UNL A   1      36.183  21.429  25.481  1.00  0.00     0.117 C 
ENDROOT
BRANCH   1   2
ATOM      2  N   UNL A   1      35.451  22.128  26.531  1.00  0.00    -0.356 N 
ATOM      3  C   UNL A   1      34.343  22.905  26.557  1.00  0.00     0.224 C 
ATOM      4  O   UNL A   1      33.954  23.238  27.685  1.00  0.00    -0.275 OA
ATOM      5  H   UNL A   1      35.853  22.007  27.421  1.00  0.00     0.163 HD
BRANCH   3   6
ATOM      6  C   UNL A   1      33.579  23.461  25.342  1.00  0.00     0.095 C 
ATOM      7  C   UNL A   1      32.061  23.158  25.444  1.00  0.00     0.095 C 
ATOM      8  C   UNL A   1      31.860  21.632  25.319  1.00  0.00     0.041 C 
ATOM      9  C   UNL A   1      32.558  21.091  24.099  1.00  0.00    -0.030 C 
ATOM     10  C   UNL A   1      33.987  23.127  23.903  1.00  0.00     0.041 C 
ATOM     11  C   UNL A   1      33.489  21.789  23.430  1.00  0.00    -0.030 C 
BRANCH   7  12
ATOM     12  C   UNL A   1      31.304  23.731  26.632  1.00  0.00     0.228 C 
ATOM     13  N   UNL A   1      30.704  24.956  26.621  1.00  0.00    -0.326 N 
ATOM     14  H   UNL A   1      30.272  25.167  27.480  1.00  0.00     0.169 HD
ATOM     15  O   UNL A   1      31.142  23.059  27.658  1.00  0.00    -0.274 OA
BRANCH  13  16
ATOM     16  C   UNL A   1      30.550  25.993  25.679  1.00  0.00     0.044 A 
ATOM     17  C   UNL A   1      30.723  27.956  23.665  1.00  0.00     0.060 A 
ATOM     18  C   UNL A   1      29.929  26.829  23.474  1.00  0.00     0.018 A 
ATOM     19  C   UNL A   1      31.304  28.172  24.919  1.00  0.00     0.021 A 
ATOM     20  C   UNL A   1      29.819  25.873  24.492  1.00  0.00     0.027 A 
ATOM     21  C   UNL A   1      31.215  27.209  25.936  1.00  0.00    -0.027 A 
ATOM     22  C   UNL A   1      31.938  27.493  27.227  1.00  0.00     0.046 C 
BRANCH  17  23
ATOM     23  C   UNL A   1      31.070  28.811  22.498  1.00  0.00     0.337 C 
ATOM     24  O   UNL A   1      32.163  29.321  22.317  1.00  0.00    -0.246 OA
BRANCH  23  25
ATOM     25  O   UNL A   1      29.940  29.057  21.792  1.00  0.00    -0.465 OA
ATOM     26  C   UNL A   1      29.383  30.358  21.966  1.00  0.00     0.282 C 
ENDBRANCH  23  25
ENDBRANCH  17  23
ENDBRANCH  13  16
ENDBRANCH   7  12
ENDBRANCH   3   6
ENDBRANCH   1   2
BRANCH   1  27
ATOM     27  C   UNL A   1      37.463  22.152  25.069  1.00  0.00     0.042 C 
BRANCH  27  28
ATOM     28  C   UNL A   1      37.919  23.187  26.081  1.00  0.00     0.118 C 
BRANCH  28  29
ATOM     29  N   UNL A   1      39.143  22.826  26.787  1.00  0.00    -0.352 N 
ATOM     30  C   UNL A   1      40.013  23.687  27.441  1.00  0.00     0.251 C 
ATOM     31  H   UNL A   1      39.377  21.870  26.802  1.00  0.00     0.163 HD
ATOM     32  O   UNL A   1      41.089  23.323  27.873  1.00  0.00    -0.269 OA
BRANCH  30  33
ATOM     33  C   UNL A   1      39.524  25.067  27.654  1.00  0.00     0.039 A 
ATOM     34  C   UNL A   1      40.048  26.066  26.827  1.00  0.00     0.014 A 
ATOM     35  C   UNL A   1      38.875  25.378  28.845  1.00  0.00     0.014 A 
ATOM     36  C   UNL A   1      40.090  27.379  27.289  1.00  0.00     0.010 A 
ATOM     37  C   UNL A   1      39.010  26.659  29.340  1.00  0.00     0.010 A 
ATOM     38  C   UNL A   1      39.655  27.653  28.583  1.00  0.00    -0.014 A 
BRANCH  38  39
ATOM     39  C   UNL A   1      39.890  28.921  29.271  1.00  0.00     0.031 A 
ATOM     40  C   UNL A   1      38.891  30.014  29.161  1.00  0.00     0.074 A 
ATOM     41  C   UNL A   1      40.950  29.079  30.093  1.00  0.00     0.049 A 
ATOM     42  N   UNL A   1      39.093  31.242  29.507  1.00  0.00    -0.248 NA
ATOM     43  C   UNL A   1      37.576  29.806  28.568  1.00  0.00     0.031 C 
ATOM     44  C   UNL A   1      41.098  30.084  31.142  1.00  0.00     0.029 A 
ATOM     45  N   UNL A   1      42.204  28.480  30.015  1.00  0.00    -0.354 N 
ATOM     46  C   UNL A   1      37.882  31.901  29.475  1.00  0.00     0.074 A 
ATOM     47  C   UNL A   1      36.995  30.984  28.800  1.00  0.00     0.031 C 
ATOM     48  C   UNL A   1      42.394  30.201  31.460  1.00  0.00     0.029 A 
ATOM     49  C   UNL A   1      43.148  29.394  30.519  1.00  0.00     0.049 A 
ATOM     50  H   UNL A   1      42.397  27.578  29.669  1.00  0.00     0.167 HD
ATOM     51  C   UNL A   1      37.752  33.081  30.150  1.00  0.00     0.037 A 
ATOM     52  C   UNL A   1      44.170  29.870  29.746  1.00  0.00     0.037 A 
ATOM     53  C   UNL A   1      39.058  33.566  30.610  1.00  0.00     0.049 A 
ATOM     54  C   UNL A   1      44.144  31.364  29.522  1.00  0.00     0.074 A 
ATOM     55  C   UNL A   1      39.702  33.542  31.837  1.00  0.00     0.029 A 
ATOM     56  N   UNL A   1      40.021  33.932  29.672  1.00  0.00    -0.354 N 
ATOM     57  N   UNL A   1      43.124  32.128  29.800  1.00  0.00    -0.248 NA
ATOM     58  C   UNL A   1      45.253  32.117  28.939  1.00  0.00     0.031 C 
ATOM     59  C   UNL A   1      41.072  33.837  31.623  1.00  0.00     0.029 A 
ATOM     60  C   UNL A   1      41.261  34.057  30.269  1.00  0.00     0.049 A 
ATOM     61  H   UNL A   1      39.842  34.081  28.716  1.00  0.00     0.167 HD
ATOM     62  C   UNL A   1      43.382  33.412  29.395  1.00  0.00     0.074 A 
ATOM     63  C   UNL A   1      44.745  33.362  28.903  1.00  0.00     0.031 C 
ATOM     64  C   UNL A   1      42.438  34.398  29.479  1.00  0.00     0.037 A 
BRANCH  51  65
ATOM     65  C   UNL A   1      36.424  33.638  30.658  1.00  0.00     0.058 A 
ATOM     66  C   UNL A   1      35.472  34.169  29.755  1.00  0.00     0.135 A 
ATOM     67  C   UNL A   1      36.057  33.777  32.012  1.00  0.00     0.135 A 
ATOM     68  F   UNL A   1      35.602  34.020  28.430  1.00  0.00    -0.206 F 
ATOM     69  C   UNL A   1      34.341  34.886  30.161  1.00  0.00     0.059 A 
ATOM     70  C   UNL A   1      34.960  34.528  32.446  1.00  0.00     0.059 A 
ATOM     71  F   UNL A   1      36.704  33.135  32.988  1.00  0.00    -0.206 F 
ATOM     72  C   UNL A   1      34.114  35.099  31.511  1.00  0.00     0.060 A 
BRANCH  72  73
ATOM     73  S   UNL A   1      32.705  36.097  32.028  1.00  0.00     0.124 S 
ATOM     74  O   UNL A   1      31.775  35.085  32.516  1.00  0.00    -0.237 OA
ATOM     75  O   UNL A   1      33.299  36.960  33.043  1.00  0.00    -0.237 OA
ATOM     76  O   UNL A   1      32.296  36.771  30.798  1.00  0.00    -0.744 OA
ENDBRANCH  72  73
ENDBRANCH  51  65
BRANCH  52  77
ATOM     77  C   UNL A   1      44.690  28.858  28.787  1.00  0.00     0.058 A 
ATOM     78  C   UNL A   1      44.199  28.913  27.470  1.00  0.00     0.135 A 
ATOM     79  C   UNL A   1      45.925  28.231  29.000  1.00  0.00     0.135 A 
ATOM     80  F   UNL A   1      43.008  29.482  27.221  1.00  0.00    -0.206 F 
ATOM     81  C   UNL A   1      44.986  28.546  26.386  1.00  0.00     0.059 A 
ATOM     82  C   UNL A   1      46.729  27.846  27.926  1.00  0.00     0.059 A 
ATOM     83  F   UNL A   1      46.435  28.142  30.237  1.00  0.00    -0.206 F 
ATOM     84  C   UNL A   1      46.280  28.090  26.626  1.00  0.00     0.060 A 
BRANCH  84  85
ATOM     85  S   UNL A   1      47.422  28.045  25.224  1.00  0.00     0.124 S 
ATOM     86  O   UNL A   1      47.563  26.612  24.989  1.00  0.00    -0.237 OA
ATOM     87  O   UNL A   1      46.664  28.781  24.214  1.00  0.00    -0.237 OA
ATOM     88  O   UNL A   1      48.608  28.721  25.737  1.00  0.00    -0.744 OA
ENDBRANCH  84  85
ENDBRANCH  52  77
BRANCH  64  89
ATOM     89  C   UNL A   1      42.551  35.791  28.900  1.00  0.00     0.058 A 
ATOM     90  C   UNL A   1      41.954  36.197  27.694  1.00  0.00     0.135 A 
ATOM     91  C   UNL A   1      43.176  36.821  29.645  1.00  0.00     0.135 A 
ATOM     92  F   UNL A   1      41.235  35.345  26.950  1.00  0.00    -0.206 F 
ATOM     93  C   UNL A   1      42.031  37.511  27.224  1.00  0.00     0.059 A 
ATOM     94  C   UNL A   1      43.217  38.149  29.221  1.00  0.00     0.059 A 
ATOM     95  F   UNL A   1      43.765  36.573  30.824  1.00  0.00    -0.206 F 
ATOM     96  C   UNL A   1      42.663  38.481  27.994  1.00  0.00     0.060 A 
BRANCH  96  97
ATOM     97  S   UNL A   1      42.713  40.194  27.434  1.00  0.00     0.124 S 
ATOM     98  O   UNL A   1      41.308  40.574  27.528  1.00  0.00    -0.237 OA
ATOM     99  O   UNL A   1      43.602  40.831  28.402  1.00  0.00    -0.237 OA
ATOM    100  O   UNL A   1      43.252  40.083  26.081  1.00  0.00    -0.744 OA
ENDBRANCH  96  97
ENDBRANCH  64  89
ENDBRANCH  38  39
ENDBRANCH  30  33
ENDBRANCH  28  29
ENDBRANCH  27  28
ENDBRANCH   1  27
TORSDOF 17
ENDMDL
MODEL 2
REMARK VINA RESULT:     -14.1      1.325      2.122
REMARK SMILES COC(=O)c1ccc(NC(=O)[C@@H]2CC=CC[C@@H]2C(=O)NCCCNC(=O)c2ccc(-c3c4nc(c(-c5c(F)cc(S(=O)(=O)[O-])cc5F)c5ccc([nH]5)c(-c5c(F)cc(S(=O)(=O)[O-])cc5F)c5nc(c(-c6c(F)cc(S(=O)(=O)[O-])cc6F)c6ccc3[nH]6)C=C5)C=C4)cc2)c(C)c1
REMARK SMILES IDX 21 1 20 2 18 3 19 4 17 6 12 7 13 8 14 9 16 10 15 11 10 12
REMARK SMILES IDX 9 13 11 15 8 16 5 17 6 18 95 19 7 20 93 21 94 22 3 23 4 24
REMARK SMILES IDX 2 25 1 26 22 27 23 28 24 29 25 30 26 32 27 33 28 34 92 35
REMARK SMILES IDX 29 36 91 37 30 38 31 39 32 40 85 41 33 42 90 43 84 44 86 45
REMARK SMILES IDX 34 46 89 47 83 48 82 49 35 51 69 52 48 53 68 54 49 55 52 56
REMARK SMILES IDX 67 57 87 58 50 59 51 60 66 62 88 63 53 64 36 65 37 66 46 67
REMARK SMILES IDX 38 68 39 69 45 70 47 71 40 72 41 73 42 74 43 75 44 76 70 77
REMARK SMILES IDX 71 78 80 79 72 80 73 81 79 82 81 83 74 84 75 85 76 86 77 87
REMARK SMILES IDX 78 88 54 89 55 90 64 91 56 92 57 93 63 94 65 95 58 96 59 97
REMARK SMILES IDX 60 98 61 99 62 100
REMARK H PARENT 20 5 9 14 24 31 86 50 52 61
REMARK Flexibility Score: inf
ROOT
ATOM      1  C   UNL A   1      36.445  21.394  25.598  1.00  0.00     0.117 C 
ENDROOT
BRANCH   1   2
ATOM      2  N   UNL A   1      35.592  22.008  26.610  1.00  0.00    -0.356 N 
ATOM      3  C   UNL A   1      34.308  22.433  26.635  1.00  0.00     0.224 C 
ATOM      4  O   UNL A   1      33.894  22.810  27.740  1.00  0.00    -0.275 OA
ATOM      5  H   UNL A   1      36.055  22.143  27.467  1.00  0.00     0.163 HD
BRANCH   3   6
ATOM      6  C   UNL A   1      33.355  22.558  25.433  1.00  0.00     0.095 C 
ATOM      7  C   UNL A   1      32.886  24.024  25.236  1.00  0.00     0.095 C 
ATOM      8  C   UNL A   1      31.995  24.414  26.435  1.00  0.00     0.041 C 
ATOM      9  C   UNL A   1      30.904  23.398  26.654  1.00  0.00    -0.030 C 
ATOM     10  C   UNL A   1      32.103  21.685  25.293  1.00  0.00     0.041 C 
ATOM     11  C   UNL A   1      30.932  22.177  26.097  1.00  0.00    -0.030 C 
BRANCH   7  12
ATOM     12  C   UNL A   1      33.949  25.075  24.958  1.00  0.00     0.228 C 
ATOM     13  N   UNL A   1      33.668  26.314  24.460  1.00  0.00    -0.326 N 
ATOM     14  H   UNL A   1      34.479  26.856  24.332  1.00  0.00     0.169 HD
ATOM     15  O   UNL A   1      35.133  24.864  25.244  1.00  0.00    -0.274 OA
BRANCH  13  16
ATOM     16  C   UNL A   1      32.500  27.007  24.086  1.00  0.00     0.044 A 
ATOM     17  C   UNL A   1      30.485  28.763  23.191  1.00  0.00     0.060 A 
ATOM     18  C   UNL A   1      30.767  27.602  22.476  1.00  0.00     0.018 A 
ATOM     19  C   UNL A   1      31.102  28.963  24.430  1.00  0.00     0.021 A 
ATOM     20  C   UNL A   1      31.746  26.716  22.944  1.00  0.00     0.027 A 
ATOM     21  C   UNL A   1      32.098  28.090  24.895  1.00  0.00    -0.027 A 
ATOM     22  C   UNL A   1      32.764  28.429  26.203  1.00  0.00     0.046 C 
BRANCH  17  23
ATOM     23  C   UNL A   1      29.670  29.832  22.555  1.00  0.00     0.337 C 
ATOM     24  O   UNL A   1      29.542  29.978  21.350  1.00  0.00    -0.246 OA
BRANCH  23  25
ATOM     25  O   UNL A   1      29.259  30.691  23.517  1.00  0.00    -0.465 OA
ATOM     26  C   UNL A   1      28.344  31.698  23.088  1.00  0.00     0.282 C 
ENDBRANCH  23  25
ENDBRANCH  17  23
ENDBRANCH  13  16
ENDBRANCH   7  12
ENDBRANCH   3   6
ENDBRANCH   1   2
BRANCH   1  27
ATOM     27  C   UNL A   1      37.544  22.331  25.103  1.00  0.00     0.042 C 
BRANCH  27  28
ATOM     28  C   UNL A   1      37.979  23.348  26.141  1.00  0.00     0.118 C 
BRANCH  28  29
ATOM     29  N   UNL A   1      39.224  23.006  26.820  1.00  0.00    -0.352 N 
ATOM     30  C   UNL A   1      40.121  23.887  27.409  1.00  0.00     0.251 C 
ATOM     31  H   UNL A   1      39.454  22.050  26.864  1.00  0.00     0.163 HD
ATOM     32  O   UNL A   1      41.209  23.532  27.818  1.00  0.00    -0.269 OA
BRANCH  30  33
ATOM     33  C   UNL A   1      39.648  25.277  27.584  1.00  0.00     0.039 A 
ATOM     34  C   UNL A   1      40.236  26.258  26.780  1.00  0.00     0.014 A 
ATOM     35  C   UNL A   1      38.939  25.610  28.734  1.00  0.00     0.014 A 
ATOM     36  C   UNL A   1      40.277  27.574  27.234  1.00  0.00     0.010 A 
ATOM     37  C   UNL A   1      39.070  26.893  29.226  1.00  0.00     0.010 A 
ATOM     38  C   UNL A   1      39.776  27.868  28.500  1.00  0.00    -0.014 A 
BRANCH  38  39
ATOM     39  C   UNL A   1      39.996  29.137  29.189  1.00  0.00     0.031 A 
ATOM     40  C   UNL A   1      38.966  30.204  29.115  1.00  0.00     0.074 A 
ATOM     41  C   UNL A   1      41.074  29.318  29.983  1.00  0.00     0.049 A 
ATOM     42  N   UNL A   1      39.145  31.434  29.464  1.00  0.00    -0.248 NA
ATOM     43  C   UNL A   1      37.641  29.965  28.558  1.00  0.00     0.031 C 
ATOM     44  C   UNL A   1      41.224  30.319  31.036  1.00  0.00     0.029 A 
ATOM     45  N   UNL A   1      42.341  28.753  29.867  1.00  0.00    -0.354 N 
ATOM     46  C   UNL A   1      37.917  32.061  29.471  1.00  0.00     0.074 A 
ATOM     47  C   UNL A   1      37.036  31.126  28.814  1.00  0.00     0.031 C 
ATOM     48  C   UNL A   1      42.525  30.469  31.318  1.00  0.00     0.029 A 
ATOM     49  C   UNL A   1      43.274  29.689  30.351  1.00  0.00     0.049 A 
ATOM     50  H   UNL A   1      42.547  27.859  29.509  1.00  0.00     0.167 HD
ATOM     51  C   UNL A   1      37.774  33.233  30.158  1.00  0.00     0.037 A 
ATOM     52  C   UNL A   1      44.260  30.196  29.554  1.00  0.00     0.037 A 
ATOM     53  C   UNL A   1      39.079  33.749  30.585  1.00  0.00     0.049 A 
ATOM     54  C   UNL A   1      44.189  31.691  29.341  1.00  0.00     0.074 A 
ATOM     55  C   UNL A   1      39.757  33.734  31.793  1.00  0.00     0.029 A 
ATOM     56  N   UNL A   1      40.005  34.147  29.624  1.00  0.00    -0.354 N 
ATOM     57  N   UNL A   1      43.157  32.425  29.653  1.00  0.00    -0.248 NA
ATOM     58  C   UNL A   1      45.261  32.477  28.733  1.00  0.00     0.031 C 
ATOM     59  C   UNL A   1      41.113  34.068  31.544  1.00  0.00     0.029 A 
ATOM     60  C   UNL A   1      41.258  34.301  30.187  1.00  0.00     0.049 A 
ATOM     61  H   UNL A   1      39.797  34.298  28.674  1.00  0.00     0.167 HD
ATOM     62  C   UNL A   1      43.370  33.719  29.251  1.00  0.00     0.074 A 
ATOM     63  C   UNL A   1      44.720  33.708  28.720  1.00  0.00     0.031 C 
ATOM     64  C   UNL A   1      42.403  34.678  29.368  1.00  0.00     0.037 A 
BRANCH  51  65
ATOM     65  C   UNL A   1      36.446  33.751  30.706  1.00  0.00     0.058 A 
ATOM     66  C   UNL A   1      35.424  34.188  29.829  1.00  0.00     0.135 A 
ATOM     67  C   UNL A   1      36.141  33.943  32.069  1.00  0.00     0.135 A 
ATOM     68  F   UNL A   1      35.496  33.975  28.508  1.00  0.00    -0.206 F 
ATOM     69  C   UNL A   1      34.280  34.869  30.257  1.00  0.00     0.059 A 
ATOM     70  C   UNL A   1      35.030  34.662  32.522  1.00  0.00     0.059 A 
ATOM     71  F   UNL A   1      36.868  33.386  33.041  1.00  0.00    -0.206 F 
ATOM     72  C   UNL A   1      34.110  35.142  31.605  1.00  0.00     0.060 A 
BRANCH  72  73
ATOM     73  S   UNL A   1      32.680  36.096  32.144  1.00  0.00     0.124 S 
ATOM     74  O   UNL A   1      32.336  36.841  30.937  1.00  0.00    -0.237 OA
ATOM     75  O   UNL A   1      31.744  35.049  32.536  1.00  0.00    -0.237 OA
ATOM     76  O   UNL A   1      33.205  36.906  33.241  1.00  0.00    -0.744 OA
ENDBRANCH  72  73
ENDBRANCH  51  65
BRANCH  52  77
ATOM     77  C   UNL A   1      44.781  29.205  28.574  1.00  0.00     0.058 A 
ATOM     78  C   UNL A   1      45.723  28.273  29.046  1.00  0.00     0.135 A 
ATOM     79  C   UNL A   1      44.048  28.871  27.427  1.00  0.00     0.135 A 
ATOM     80  F   UNL A   1      46.466  28.559  30.128  1.00  0.00    -0.206 F 
ATOM     81  C   UNL A   1      45.794  26.986  28.529  1.00  0.00     0.059 A 
ATOM     82  C   UNL A   1      44.110  27.587  26.884  1.00  0.00     0.059 A 
ATOM     83  F   UNL A   1      43.145  29.727  26.928  1.00  0.00    -0.206 F 
ATOM     84  C   UNL A   1      44.924  26.633  27.499  1.00  0.00     0.060 A 
BRANCH  84  85
ATOM     85  S   UNL A   1      44.718  24.871  27.149  1.00  0.00     0.124 S 
ATOM     86  O   UNL A   1      43.768  24.887  26.042  1.00  0.00    -0.237 OA
ATOM     87  O   UNL A   1      46.086  24.486  26.804  1.00  0.00    -0.237 OA
ATOM     88  O   UNL A   1      44.212  24.335  28.407  1.00  0.00    -0.744 OA
ENDBRANCH  84  85
ENDBRANCH  52  77
BRANCH  64  89
ATOM     89  C   UNL A   1      42.463  36.078  28.796  1.00  0.00     0.058 A 
ATOM     90  C   UNL A   1      43.014  37.184  29.465  1.00  0.00     0.135 A 
ATOM     91  C   UNL A   1      42.073  36.314  27.454  1.00  0.00     0.135 A 
ATOM     92  F   UNL A   1      43.525  37.068  30.699  1.00  0.00    -0.206 F 
ATOM     93  C   UNL A   1      43.107  38.449  28.877  1.00  0.00     0.059 A 
ATOM     94  C   UNL A   1      42.207  37.553  26.830  1.00  0.00     0.059 A 
ATOM     95  F   UNL A   1      41.552  35.337  26.696  1.00  0.00    -0.206 F 
ATOM     96  C   UNL A   1      42.701  38.624  27.558  1.00  0.00     0.060 A 
BRANCH  96  97
ATOM     97  S   UNL A   1      42.875  40.233  26.762  1.00  0.00     0.124 S 
ATOM     98  O   UNL A   1      41.533  40.443  26.232  1.00  0.00    -0.237 OA
ATOM     99  O   UNL A   1      43.259  41.107  27.867  1.00  0.00    -0.237 OA
ATOM    100  O   UNL A   1      43.920  39.997  25.770  1.00  0.00    -0.744 OA
ENDBRANCH  96  97
ENDBRANCH  64  89
ENDBRANCH  38  39
ENDBRANCH  30  33
ENDBRANCH  28  29
ENDBRANCH  27  28
ENDBRANCH   1  27
TORSDOF 17
ENDMDL
MODEL 3
REMARK VINA RESULT:     -13.5      2.260      3.058
REMARK SMILES COC(=O)c1ccc(NC(=O)[C@@H]2CC=CC[C@@H]2C(=O)NCCCNC(=O)c2ccc(-c3c4nc(c(-c5c(F)cc(S(=O)(=O)[O-])cc5F)c5ccc([nH]5)c(-c5c(F)cc(S(=O)(=O)[O-])cc5F)c5nc(c(-c6c(F)cc(S(=O)(=O)[O-])cc6F)c6ccc3[nH]6)C=C5)C=C4)cc2)c(C)c1
REMARK SMILES IDX 21 1 20 2 18 3 19 4 17 6 12 7 13 8 14 9 16 10 15 11 10 12
REMARK SMILES IDX 9 13 11 15 8 16 5 17 6 18 95 19 7 20 93 21 94 22 3 23 4 24
REMARK SMILES IDX 2 25 1 26 22 27 23 28 24 29 25 30 26 32 27 33 28 34 92 35
REMARK SMILES IDX 29 36 91 37 30 38 31 39 32 40 85 41 33 42 90 43 84 44 86 45
REMARK SMILES IDX 34 46 89 47 83 48 82 49 35 51 69 52 48 53 68 54 49 55 52 56
REMARK SMILES IDX 67 57 87 58 50 59 51 60 66 62 88 63 53 64 36 65 37 66 46 67
REMARK SMILES IDX 38 68 39 69 45 70 47 71 40 72 41 73 42 74 43 75 44 76 70 77
REMARK SMILES IDX 71 78 80 79 72 80 73 81 79 82 81 83 74 84 75 85 76 86 77 87
REMARK SMILES IDX 78 88 54 89 55 90 64 91 56 92 57 93 63 94 65 95 58 96 59 97
REMARK SMILES IDX 60 98 61 99 62 100
REMARK H PARENT 20 5 9 14 24 31 86 50 52 61
REMARK Flexibility Score: inf
ROOT
ATOM      1  C   UNL A   1      35.497  23.080  23.772  1.00  0.00     0.117 C 
ENDROOT
BRANCH   1   2
ATOM      2  N   UNL A   1      34.904  23.859  24.853  1.00  0.00    -0.356 N 
ATOM      3  C   UNL A   1      33.638  24.182  25.204  1.00  0.00     0.224 C 
ATOM      4  O   UNL A   1      33.522  24.788  26.278  1.00  0.00    -0.275 OA
ATOM      5  H   UNL A   1      35.577  24.234  25.465  1.00  0.00     0.163 HD
BRANCH   3   6
ATOM      6  C   UNL A   1      32.363  23.938  24.378  1.00  0.00     0.095 C 
ATOM      7  C   UNL A   1      31.301  23.158  25.197  1.00  0.00     0.095 C 
ATOM      8  C   UNL A   1      31.835  21.732  25.452  1.00  0.00     0.041 C 
ATOM      9  C   UNL A   1      32.283  21.082  24.168  1.00  0.00    -0.030 C 
ATOM     10  C   UNL A   1      32.403  23.280  22.994  1.00  0.00     0.041 C 
ATOM     11  C   UNL A   1      32.495  21.780  23.041  1.00  0.00    -0.030 C 
BRANCH   7  12
ATOM     12  C   UNL A   1      30.780  23.801  26.473  1.00  0.00     0.228 C 
ATOM     13  N   UNL A   1      30.372  25.101  26.547  1.00  0.00    -0.326 N 
ATOM     14  H   UNL A   1      30.079  25.348  27.453  1.00  0.00     0.169 HD
ATOM     15  O   UNL A   1      30.639  23.131  27.503  1.00  0.00    -0.274 OA
BRANCH  13  16
ATOM     16  C   UNL A   1      30.267  26.176  25.642  1.00  0.00     0.044 A 
ATOM     17  C   UNL A   1      30.523  28.182  23.680  1.00  0.00     0.060 A 
ATOM     18  C   UNL A   1      29.633  27.128  23.488  1.00  0.00     0.018 A 
ATOM     19  C   UNL A   1      31.165  28.312  24.915  1.00  0.00     0.021 A 
ATOM     20  C   UNL A   1      29.485  26.152  24.482  1.00  0.00     0.027 A 
ATOM     21  C   UNL A   1      31.037  27.327  25.907  1.00  0.00    -0.027 A 
ATOM     22  C   UNL A   1      31.828  27.511  27.176  1.00  0.00     0.046 C 
BRANCH  17  23
ATOM     23  C   UNL A   1      30.893  29.043  22.525  1.00  0.00     0.337 C 
ATOM     24  O   UNL A   1      30.130  29.360  21.627  1.00  0.00    -0.246 OA
BRANCH  23  25
ATOM     25  O   UNL A   1      32.231  29.255  22.557  1.00  0.00    -0.465 OA
ATOM     26  C   UNL A   1      33.038  28.105  22.309  1.00  0.00     0.282 C 
ENDBRANCH  23  25
ENDBRANCH  17  23
ENDBRANCH  13  16
ENDBRANCH   7  12
ENDBRANCH   3   6
ENDBRANCH   1   2
BRANCH   1  27
ATOM     27  C   UNL A   1      36.813  22.418  24.172  1.00  0.00     0.042 C 
BRANCH  27  28
ATOM     28  C   UNL A   1      37.216  22.701  25.607  1.00  0.00     0.118 C 
BRANCH  28  29
ATOM     29  N   UNL A   1      38.446  22.034  26.020  1.00  0.00    -0.352 N 
ATOM     30  C   UNL A   1      39.607  22.639  26.479  1.00  0.00     0.251 C 
ATOM     31  H   UNL A   1      38.453  21.052  25.967  1.00  0.00     0.163 HD
ATOM     32  O   UNL A   1      40.638  22.019  26.656  1.00  0.00    -0.269 OA
BRANCH  30  33
ATOM     33  C   UNL A   1      39.504  24.075  26.817  1.00  0.00     0.039 A 
ATOM     34  C   UNL A   1      40.198  24.975  26.002  1.00  0.00     0.014 A 
ATOM     35  C   UNL A   1      39.049  24.441  28.080  1.00  0.00     0.014 A 
ATOM     36  C   UNL A   1      40.608  26.196  26.533  1.00  0.00     0.010 A 
ATOM     37  C   UNL A   1      39.543  25.606  28.633  1.00  0.00     0.010 A 
ATOM     38  C   UNL A   1      40.360  26.465  27.877  1.00  0.00    -0.014 A 
BRANCH  38  39
ATOM     39  C   UNL A   1      40.962  27.576  28.610  1.00  0.00     0.031 A 
ATOM     40  C   UNL A   1      40.187  28.825  28.821  1.00  0.00     0.074 A 
ATOM     41  C   UNL A   1      42.173  27.447  29.194  1.00  0.00     0.049 A 
ATOM     42  N   UNL A   1      40.683  29.947  29.226  1.00  0.00    -0.248 NA
ATOM     43  C   UNL A   1      38.767  28.918  28.511  1.00  0.00     0.031 C 
ATOM     44  C   UNL A   1      42.713  28.268  30.274  1.00  0.00     0.029 A 
ATOM     45  N   UNL A   1      43.250  26.662  28.791  1.00  0.00    -0.354 N 
ATOM     46  C   UNL A   1      39.638  30.797  29.518  1.00  0.00     0.074 A 
ATOM     47  C   UNL A   1      38.478  30.137  28.971  1.00  0.00     0.031 C 
ATOM     48  C   UNL A   1      44.044  28.126  30.313  1.00  0.00     0.029 A 
ATOM     49  C   UNL A   1      44.431  27.333  29.161  1.00  0.00     0.049 A 
ATOM     50  H   UNL A   1      43.196  25.794  28.331  1.00  0.00     0.167 HD
ATOM     51  C   UNL A   1      39.869  31.885  30.311  1.00  0.00     0.037 A 
ATOM     52  C   UNL A   1      45.352  27.728  28.232  1.00  0.00     0.037 A 
ATOM     53  C   UNL A   1      41.308  32.081  30.519  1.00  0.00     0.049 A 
ATOM     54  C   UNL A   1      45.567  29.222  28.157  1.00  0.00     0.074 A 
ATOM     55  C   UNL A   1      42.164  31.791  31.570  1.00  0.00     0.029 A 
ATOM     56  N   UNL A   1      42.120  32.400  29.433  1.00  0.00    -0.354 N 
ATOM     57  N   UNL A   1      44.786  30.102  28.718  1.00  0.00    -0.248 NA
ATOM     58  C   UNL A   1      46.663  29.849  27.419  1.00  0.00     0.031 C 
ATOM     59  C   UNL A   1      43.496  31.879  31.092  1.00  0.00     0.029 A 
ATOM     60  C   UNL A   1      43.454  32.237  29.756  1.00  0.00     0.049 A 
ATOM     61  H   UNL A   1      41.789  32.700  28.556  1.00  0.00     0.167 HD
ATOM     62  C   UNL A   1      45.199  31.367  28.387  1.00  0.00     0.074 A 
ATOM     63  C   UNL A   1      46.404  31.154  27.609  1.00  0.00     0.031 C 
ATOM     64  C   UNL A   1      44.495  32.477  28.764  1.00  0.00     0.037 A 
BRANCH  51  65
ATOM     65  C   UNL A   1      38.798  32.585  31.144  1.00  0.00     0.058 A 
ATOM     66  C   UNL A   1      38.493  32.136  32.452  1.00  0.00     0.135 A 
ATOM     67  C   UNL A   1      37.963  33.629  30.696  1.00  0.00     0.135 A 
ATOM     68  F   UNL A   1      39.258  31.233  33.079  1.00  0.00    -0.206 F 
ATOM     69  C   UNL A   1      37.388  32.585  33.182  1.00  0.00     0.059 A 
ATOM     70  C   UNL A   1      36.825  34.063  31.384  1.00  0.00     0.059 A 
ATOM     71  F   UNL A   1      38.243  34.334  29.597  1.00  0.00    -0.206 F 
ATOM     72  C   UNL A   1      36.531  33.520  32.623  1.00  0.00     0.060 A 
BRANCH  72  73
ATOM     73  S   UNL A   1      35.060  34.030  33.529  1.00  0.00     0.124 S 
ATOM     74  O   UNL A   1      35.287  33.435  34.843  1.00  0.00    -0.237 OA
ATOM     75  O   UNL A   1      35.149  35.484  33.464  1.00  0.00    -0.237 OA
ATOM     76  O   UNL A   1      33.966  33.437  32.764  1.00  0.00    -0.744 OA
ENDBRANCH  72  73
ENDBRANCH  51  65
BRANCH  52  77
ATOM     77  C   UNL A   1      45.472  26.776  27.094  1.00  0.00     0.058 A 
ATOM     78  C   UNL A   1      46.257  25.627  27.302  1.00  0.00     0.135 A 
ATOM     79  C   UNL A   1      44.501  26.732  26.085  1.00  0.00     0.135 A 
ATOM     80  F   UNL A   1      47.217  25.630  28.242  1.00  0.00    -0.206 F 
ATOM     81  C   UNL A   1      45.959  24.423  26.679  1.00  0.00     0.059 A 
ATOM     82  C   UNL A   1      44.191  25.535  25.439  1.00  0.00     0.059 A 
ATOM     83  F   UNL A   1      43.732  27.803  25.838  1.00  0.00    -0.206 F 
ATOM     84  C   UNL A   1      44.871  24.372  25.809  1.00  0.00     0.060 A 
BRANCH  84  85
ATOM     85  S   UNL A   1      44.234  22.740  25.364  1.00  0.00     0.124 S 
ATOM     86  O   UNL A   1      45.366  22.149  24.660  1.00  0.00    -0.237 OA
ATOM     87  O   UNL A   1      43.943  22.177  26.682  1.00  0.00    -0.237 OA
ATOM     88  O   UNL A   1      43.069  23.048  24.542  1.00  0.00    -0.744 OA
ENDBRANCH  84  85
ENDBRANCH  52  77
BRANCH  64  89
ATOM     89  C   UNL A   1      44.755  33.895  28.305  1.00  0.00     0.058 A 
ATOM     90  C   UNL A   1      44.261  34.442  27.108  1.00  0.00     0.135 A 
ATOM     91  C   UNL A   1      45.422  34.808  29.159  1.00  0.00     0.135 A 
ATOM     92  F   UNL A   1      43.516  33.714  26.264  1.00  0.00    -0.206 F 
ATOM     93  C   UNL A   1      44.472  35.777  26.749  1.00  0.00     0.059 A 
ATOM     94  C   UNL A   1      45.595  36.155  28.846  1.00  0.00     0.059 A 
ATOM     95  F   UNL A   1      45.922  34.420  30.342  1.00  0.00    -0.206 F 
ATOM     96  C   UNL A   1      45.140  36.627  27.624  1.00  0.00     0.060 A 
BRANCH  96  97
ATOM     97  S   UNL A   1      45.362  38.366  27.207  1.00  0.00     0.124 S 
ATOM     98  O   UNL A   1      45.644  38.947  28.515  1.00  0.00    -0.237 OA
ATOM     99  O   UNL A   1      46.486  38.340  26.275  1.00  0.00    -0.237 OA
ATOM    100  O   UNL A   1      44.078  38.730  26.615  1.00  0.00    -0.744 OA
ENDBRANCH  96  97
ENDBRANCH  64  89
ENDBRANCH  38  39
ENDBRANCH  30  33
ENDBRANCH  28  29
ENDBRANCH  27  28
ENDBRANCH   1  27
TORSDOF 17
ENDMDL
