MODEL 1
REMARK VINA RESULT:     -12.5      0.000      0.000
REMARK SMILES O=C(COc1ccccc1NC(=O)c1ccc([N+](=O)[O-])cc1)NCCCNC(=O)c1ccc(-c2c3nc(c(-c4c(F)cc(S(=O)(=O)[O-])cc4F)c4ccc([nH]4)c(-c4c(F)cc(S(=O)(=O)[O-])cc4F)c4nc(c(-c5c(F)cc(S(=O)(=O)[O-])cc5F)c5ccc2[nH]5)C=C4)C=C3)cc1
REMARK SMILES IDX 24 1 23 2 1 3 2 4 3 6 4 7 5 8 6 9 10 10 7 11 9 12 8 13 11 14
REMARK SMILES IDX 12 15 13 17 14 18 15 19 22 20 16 21 21 22 17 23 18 24 19 25
REMARK SMILES IDX 20 26 25 27 26 28 27 29 28 30 29 32 30 33 31 34 95 35 32 36
REMARK SMILES IDX 94 37 33 38 34 39 35 40 88 41 36 42 93 43 87 44 89 45 37 46
REMARK SMILES IDX 92 47 86 48 85 49 38 51 72 52 51 53 71 54 52 55 55 56 70 57
REMARK SMILES IDX 90 58 53 59 54 60 69 62 91 63 56 64 39 65 40 66 49 67 41 68
REMARK SMILES IDX 42 69 48 70 50 71 43 72 44 73 45 74 46 75 47 76 73 77 74 78
REMARK SMILES IDX 83 79 75 80 76 81 82 82 84 83 77 84 78 85 79 86 80 87 81 88
REMARK SMILES IDX 57 89 58 90 67 91 59 92 60 93 66 94 68 95 61 96 62 97 63 98
REMARK SMILES IDX 64 99 65 100
REMARK H PARENT 23 5 11 16 27 31 89 50 55 61
REMARK Flexibility Score: inf
ROOT
ATOM      1  C   UNL A   1      39.735  21.565  26.170  1.00  0.00     0.117 C 
ENDROOT
BRANCH   1   2
ATOM      2  N   UNL A   1      38.295  21.657  26.026  1.00  0.00    -0.353 N 
ATOM      3  O   UNL A   1      38.118  23.944  25.769  1.00  0.00    -0.271 OA
ATOM      4  C   UNL A   1      37.632  22.824  25.683  1.00  0.00     0.257 C 
ATOM      5  H   UNL A   1      37.758  20.845  26.181  1.00  0.00     0.163 HD
BRANCH   4   6
ATOM      6  C   UNL A   1      36.243  22.571  25.083  1.00  0.00     0.329 C 
BRANCH   6   7
ATOM      7  O   UNL A   1      35.354  22.104  26.105  1.00  0.00    -0.482 OA
BRANCH   7   8
ATOM      8  C   UNL A   1      34.595  21.013  25.756  1.00  0.00     0.143 A 
ATOM      9  C   UNL A   1      35.264  19.991  25.074  1.00  0.00     0.049 A 
ATOM     10  C   UNL A   1      33.187  21.008  25.873  1.00  0.00     0.084 A 
ATOM     11  C   UNL A   1      34.541  18.960  24.482  1.00  0.00     0.004 A 
ATOM     12  C   UNL A   1      32.482  20.013  25.195  1.00  0.00     0.030 A 
ATOM     13  C   UNL A   1      33.151  18.987  24.520  1.00  0.00     0.002 A 
BRANCH  10  14
ATOM     14  N   UNL A   1      32.579  22.012  26.653  1.00  0.00    -0.319 N 
ATOM     15  C   UNL A   1      32.204  23.319  26.470  1.00  0.00     0.255 C 
ATOM     16  H   UNL A   1      32.372  21.695  27.561  1.00  0.00     0.170 HD
ATOM     17  O   UNL A   1      31.698  23.950  27.395  1.00  0.00    -0.269 OA
BRANCH  15  18
ATOM     18  C   UNL A   1      32.398  24.048  25.215  1.00  0.00     0.040 A 
ATOM     19  C   UNL A   1      33.422  25.005  25.186  1.00  0.00     0.021 A 
ATOM     20  C   UNL A   1      31.569  23.846  24.109  1.00  0.00     0.021 A 
ATOM     21  C   UNL A   1      33.687  25.700  24.009  1.00  0.00     0.086 A 
ATOM     22  C   UNL A   1      31.844  24.523  22.919  1.00  0.00     0.086 A 
ATOM     23  C   UNL A   1      32.915  25.432  22.870  1.00  0.00     0.269 A 
BRANCH  23  24
ATOM     24  N   UNL A   1      33.252  26.088  21.603  1.00  0.00     0.062 N 
ATOM     25  O   UNL A   1      33.123  25.432  20.560  1.00  0.00    -0.258 OA
ATOM     26  O   UNL A   1      33.626  27.268  21.652  1.00  0.00    -0.258 OA
ENDBRANCH  23  24
ENDBRANCH  15  18
ENDBRANCH  10  14
ENDBRANCH   7   8
ENDBRANCH   6   7
ENDBRANCH   4   6
ENDBRANCH   1   2
BRANCH   1  27
ATOM     27  C   UNL A   1      40.296  22.184  27.433  1.00  0.00     0.042 C 
BRANCH  27  28
ATOM     28  C   UNL A   1      41.503  23.092  27.231  1.00  0.00     0.118 C 
BRANCH  28  29
ATOM     29  N   UNL A   1      41.381  24.041  26.130  1.00  0.00    -0.352 N 
ATOM     30  C   UNL A   1      41.231  25.411  26.146  1.00  0.00     0.251 C 
ATOM     31  H   UNL A   1      41.411  23.638  25.233  1.00  0.00     0.163 HD
ATOM     32  O   UNL A   1      41.118  26.010  25.078  1.00  0.00    -0.269 OA
BRANCH  30  33
ATOM     33  C   UNL A   1      41.154  26.158  27.424  1.00  0.00     0.039 A 
ATOM     34  C   UNL A   1      42.137  27.114  27.701  1.00  0.00     0.014 A 
ATOM     35  C   UNL A   1      40.123  25.948  28.341  1.00  0.00     0.014 A 
ATOM     36  C   UNL A   1      42.026  27.919  28.840  1.00  0.00     0.010 A 
ATOM     37  C   UNL A   1      39.958  26.817  29.418  1.00  0.00     0.010 A 
ATOM     38  C   UNL A   1      40.905  27.816  29.680  1.00  0.00    -0.014 A 
BRANCH  38  39
ATOM     39  C   UNL A   1      40.706  28.756  30.817  1.00  0.00     0.031 A 
ATOM     40  C   UNL A   1      41.544  28.643  32.064  1.00  0.00     0.074 A 
ATOM     41  C   UNL A   1      39.723  29.677  30.752  1.00  0.00     0.049 A 
ATOM     42  N   UNL A   1      41.494  29.357  33.160  1.00  0.00    -0.248 NA
ATOM     43  C   UNL A   1      42.545  27.565  32.101  1.00  0.00     0.031 C 
ATOM     44  C   UNL A   1      38.782  29.837  29.640  1.00  0.00     0.029 A 
ATOM     45  N   UNL A   1      39.348  30.653  31.643  1.00  0.00    -0.354 N 
ATOM     46  C   UNL A   1      42.438  28.806  34.019  1.00  0.00     0.074 A 
ATOM     47  C   UNL A   1      43.005  27.661  33.339  1.00  0.00     0.031 C 
ATOM     48  C   UNL A   1      37.967  30.873  29.897  1.00  0.00     0.029 A 
ATOM     49  C   UNL A   1      38.307  31.435  31.199  1.00  0.00     0.049 A 
ATOM     50  H   UNL A   1      39.783  30.780  32.516  1.00  0.00     0.167 HD
ATOM     51  C   UNL A   1      42.820  29.229  35.248  1.00  0.00     0.037 A 
ATOM     52  C   UNL A   1      37.702  32.495  31.770  1.00  0.00     0.037 A 
ATOM     53  C   UNL A   1      42.284  30.392  35.907  1.00  0.00     0.049 A 
ATOM     54  C   UNL A   1      38.191  32.988  33.104  1.00  0.00     0.074 A 
ATOM     55  C   UNL A   1      42.652  30.939  37.124  1.00  0.00     0.029 A 
ATOM     56  N   UNL A   1      41.272  31.192  35.399  1.00  0.00    -0.354 N 
ATOM     57  N   UNL A   1      39.134  32.495  33.870  1.00  0.00    -0.248 NA
ATOM     58  C   UNL A   1      37.546  34.193  33.642  1.00  0.00     0.031 C 
ATOM     59  C   UNL A   1      41.844  32.058  37.363  1.00  0.00     0.029 A 
ATOM     60  C   UNL A   1      40.999  32.227  36.278  1.00  0.00     0.049 A 
ATOM     61  H   UNL A   1      40.814  31.045  34.540  1.00  0.00     0.167 HD
ATOM     62  C   UNL A   1      39.212  33.342  34.969  1.00  0.00     0.074 A 
ATOM     63  C   UNL A   1      38.232  34.389  34.759  1.00  0.00     0.031 C 
ATOM     64  C   UNL A   1      40.021  33.262  36.054  1.00  0.00     0.037 A 
BRANCH  51  65
ATOM     65  C   UNL A   1      43.887  28.434  35.952  1.00  0.00     0.058 A 
ATOM     66  C   UNL A   1      43.563  27.374  36.815  1.00  0.00     0.135 A 
ATOM     67  C   UNL A   1      45.246  28.720  35.749  1.00  0.00     0.135 A 
ATOM     68  F   UNL A   1      42.278  27.068  37.058  1.00  0.00    -0.206 F 
ATOM     69  C   UNL A   1      44.546  26.648  37.478  1.00  0.00     0.059 A 
ATOM     70  C   UNL A   1      46.248  27.990  36.382  1.00  0.00     0.059 A 
ATOM     71  F   UNL A   1      45.612  29.723  34.935  1.00  0.00    -0.206 F 
ATOM     72  C   UNL A   1      45.888  26.967  37.258  1.00  0.00     0.060 A 
BRANCH  72  73
ATOM     73  S   UNL A   1      47.154  26.019  38.129  1.00  0.00     0.124 S 
ATOM     74  O   UNL A   1      47.197  26.708  39.416  1.00  0.00    -0.237 OA
ATOM     75  O   UNL A   1      46.583  24.676  38.150  1.00  0.00    -0.237 OA
ATOM     76  O   UNL A   1      48.336  26.182  37.289  1.00  0.00    -0.744 OA
ENDBRANCH  72  73
ENDBRANCH  51  65
BRANCH  52  77
ATOM     77  C   UNL A   1      36.605  33.198  31.055  1.00  0.00     0.058 A 
ATOM     78  C   UNL A   1      35.276  33.089  31.496  1.00  0.00     0.135 A 
ATOM     79  C   UNL A   1      36.858  34.000  29.933  1.00  0.00     0.135 A 
ATOM     80  F   UNL A   1      34.985  32.329  32.563  1.00  0.00    -0.206 F 
ATOM     81  C   UNL A   1      34.235  33.736  30.839  1.00  0.00     0.059 A 
ATOM     82  C   UNL A   1      35.836  34.675  29.273  1.00  0.00     0.059 A 
ATOM     83  F   UNL A   1      38.114  34.151  29.484  1.00  0.00    -0.206 F 
ATOM     84  C   UNL A   1      34.525  34.528  29.727  1.00  0.00     0.060 A 
BRANCH  84  85
ATOM     85  S   UNL A   1      33.174  35.405  28.911  1.00  0.00     0.124 S 
ATOM     86  O   UNL A   1      33.899  36.409  28.140  1.00  0.00    -0.237 OA
ATOM     87  O   UNL A   1      32.539  34.342  28.138  1.00  0.00    -0.237 OA
ATOM     88  O   UNL A   1      32.383  35.914  30.027  1.00  0.00    -0.744 OA
ENDBRANCH  84  85
ENDBRANCH  52  77
BRANCH  64  89
ATOM     89  C   UNL A   1      39.900  34.356  37.078  1.00  0.00     0.058 A 
ATOM     90  C   UNL A   1      38.977  34.277  38.133  1.00  0.00     0.135 A 
ATOM     91  C   UNL A   1      40.718  35.494  37.002  1.00  0.00     0.135 A 
ATOM     92  F   UNL A   1      38.169  33.211  38.247  1.00  0.00    -0.206 F 
ATOM     93  C   UNL A   1      38.839  35.310  39.055  1.00  0.00     0.059 A 
ATOM     94  C   UNL A   1      40.615  36.527  37.928  1.00  0.00     0.059 A 
ATOM     95  F   UNL A   1      41.625  35.611  36.020  1.00  0.00    -0.206 F 
ATOM     96  C   UNL A   1      39.657  36.436  38.938  1.00  0.00     0.060 A 
BRANCH  96  97
ATOM     97  S   UNL A   1      39.469  37.778  40.131  1.00  0.00     0.124 S 
ATOM     98  O   UNL A   1      40.701  38.531  39.919  1.00  0.00    -0.237 OA
ATOM     99  O   UNL A   1      38.242  38.429  39.683  1.00  0.00    -0.237 OA
ATOM    100  O   UNL A   1      39.369  37.081  41.410  1.00  0.00    -0.744 OA
ENDBRANCH  96  97
ENDBRANCH  64  89
ENDBRANCH  38  39
ENDBRANCH  30  33
ENDBRANCH  28  29
ENDBRANCH  27  28
ENDBRANCH   1  27
TORSDOF 18
ENDMDL
MODEL 2
REMARK VINA RESULT:     -12.4      1.671      3.280
REMARK SMILES O=C(COc1ccccc1NC(=O)c1ccc([N+](=O)[O-])cc1)NCCCNC(=O)c1ccc(-c2c3nc(c(-c4c(F)cc(S(=O)(=O)[O-])cc4F)c4ccc([nH]4)c(-c4c(F)cc(S(=O)(=O)[O-])cc4F)c4nc(c(-c5c(F)cc(S(=O)(=O)[O-])cc5F)c5ccc2[nH]5)C=C4)C=C3)cc1
REMARK SMILES IDX 24 1 23 2 1 3 2 4 3 6 4 7 5 8 6 9 10 10 7 11 9 12 8 13 11 14
REMARK SMILES IDX 12 15 13 17 14 18 15 19 22 20 16 21 21 22 17 23 18 24 19 25
REMARK SMILES IDX 20 26 25 27 26 28 27 29 28 30 29 32 30 33 31 34 95 35 32 36
REMARK SMILES IDX 94 37 33 38 34 39 35 40 88 41 36 42 93 43 87 44 89 45 37 46
REMARK SMILES IDX 92 47 86 48 85 49 38 51 72 52 51 53 71 54 52 55 55 56 70 57
REMARK SMILES IDX 90 58 53 59 54 60 69 62 91 63 56 64 39 65 40 66 49 67 41 68
REMARK SMILES IDX 42 69 48 70 50 71 43 72 44 73 45 74 46 75 47 76 73 77 74 78
REMARK SMILES IDX 83 79 75 80 76 81 82 82 84 83 77 84 78 85 79 86 80 87 81 88
REMARK SMILES IDX 57 89 58 90 67 91 59 92 60 93 66 94 68 95 61 96 62 97 63 98
REMARK SMILES IDX 64 99 65 100
REMARK H PARENT 23 5 11 16 27 31 89 50 55 61
REMARK Flexibility Score: inf
ROOT
ATOM      1  C   UNL A   1      39.687  21.148  26.365  1.00  0.00     0.117 C 
ENDROOT
BRANCH   1   2
ATOM      2  N   UNL A   1      38.796  21.837  25.451  1.00  0.00    -0.353 N 
ATOM      3  O   UNL A   1      37.464  20.048  24.855  1.00  0.00    -0.271 OA
ATOM      4  C   UNL A   1      37.667  21.255  24.898  1.00  0.00     0.257 C 
ATOM      5  H   UNL A   1      39.004  22.769  25.210  1.00  0.00     0.163 HD
BRANCH   4   6
ATOM      6  C   UNL A   1      36.632  22.284  24.425  1.00  0.00     0.329 C 
BRANCH   6   7
ATOM      7  O   UNL A   1      35.337  21.674  24.371  1.00  0.00    -0.482 OA
BRANCH   7   8
ATOM      8  C   UNL A   1      34.451  22.117  25.324  1.00  0.00     0.143 A 
ATOM      9  C   UNL A   1      35.013  22.579  26.518  1.00  0.00     0.049 A 
ATOM     10  C   UNL A   1      33.057  21.917  25.205  1.00  0.00     0.084 A 
ATOM     11  C   UNL A   1      34.199  22.830  27.619  1.00  0.00     0.004 A 
ATOM     12  C   UNL A   1      32.277  22.089  26.349  1.00  0.00     0.030 A 
ATOM     13  C   UNL A   1      32.837  22.559  27.541  1.00  0.00     0.002 A 
BRANCH  10  14
ATOM     14  N   UNL A   1      32.542  21.543  23.949  1.00  0.00    -0.319 N 
ATOM     15  C   UNL A   1      32.349  20.368  23.265  1.00  0.00     0.255 C 
ATOM     16  H   UNL A   1      32.246  22.323  23.427  1.00  0.00     0.170 HD
ATOM     17  O   UNL A   1      31.878  20.387  22.131  1.00  0.00    -0.269 OA
BRANCH  15  18
ATOM     18  C   UNL A   1      32.704  19.053  23.801  1.00  0.00     0.040 A 
ATOM     19  C   UNL A   1      33.139  18.087  22.884  1.00  0.00     0.021 A 
ATOM     20  C   UNL A   1      32.566  18.748  25.158  1.00  0.00     0.021 A 
ATOM     21  C   UNL A   1      33.536  16.832  23.336  1.00  0.00     0.086 A 
ATOM     22  C   UNL A   1      32.983  17.498  25.620  1.00  0.00     0.086 A 
ATOM     23  C   UNL A   1      33.485  16.553  24.709  1.00  0.00     0.269 A 
BRANCH  23  24
ATOM     24  N   UNL A   1      33.993  15.269  25.201  1.00  0.00     0.062 N 
ATOM     25  O   UNL A   1      35.220  15.125  25.283  1.00  0.00    -0.258 OA
ATOM     26  O   UNL A   1      33.159  14.411  25.525  1.00  0.00    -0.258 OA
ENDBRANCH  23  24
ENDBRANCH  15  18
ENDBRANCH  10  14
ENDBRANCH   7   8
ENDBRANCH   6   7
ENDBRANCH   4   6
ENDBRANCH   1   2
BRANCH   1  27
ATOM     27  C   UNL A   1      41.058  21.774  26.521  1.00  0.00     0.042 C 
BRANCH  27  28
ATOM     28  C   UNL A   1      41.061  23.225  26.983  1.00  0.00     0.118 C 
BRANCH  28  29
ATOM     29  N   UNL A   1      41.281  24.207  25.927  1.00  0.00    -0.352 N 
ATOM     30  C   UNL A   1      41.404  25.577  25.994  1.00  0.00     0.251 C 
ATOM     31  H   UNL A   1      41.355  23.828  25.021  1.00  0.00     0.163 HD
ATOM     32  O   UNL A   1      41.558  26.214  24.954  1.00  0.00    -0.269 OA
BRANCH  30  33
ATOM     33  C   UNL A   1      41.299  26.292  27.289  1.00  0.00     0.039 A 
ATOM     34  C   UNL A   1      42.324  27.174  27.651  1.00  0.00     0.014 A 
ATOM     35  C   UNL A   1      40.204  26.126  28.138  1.00  0.00     0.014 A 
ATOM     36  C   UNL A   1      42.198  27.952  28.806  1.00  0.00     0.010 A 
ATOM     37  C   UNL A   1      40.032  26.975  29.230  1.00  0.00     0.010 A 
ATOM     38  C   UNL A   1      41.025  27.901  29.577  1.00  0.00    -0.014 A 
BRANCH  38  39
ATOM     39  C   UNL A   1      40.820  28.821  30.729  1.00  0.00     0.031 A 
ATOM     40  C   UNL A   1      41.673  28.707  31.966  1.00  0.00     0.074 A 
ATOM     41  C   UNL A   1      39.819  29.724  30.689  1.00  0.00     0.049 A 
ATOM     42  N   UNL A   1      41.622  29.404  33.073  1.00  0.00    -0.248 NA
ATOM     43  C   UNL A   1      42.696  27.648  31.977  1.00  0.00     0.031 C 
ATOM     44  C   UNL A   1      38.863  29.881  29.589  1.00  0.00     0.029 A 
ATOM     45  N   UNL A   1      39.435  30.679  31.597  1.00  0.00    -0.354 N 
ATOM     46  C   UNL A   1      42.585  28.859  33.913  1.00  0.00     0.074 A 
ATOM     47  C   UNL A   1      43.167  27.735  33.211  1.00  0.00     0.031 C 
ATOM     48  C   UNL A   1      38.031  30.897  29.869  1.00  0.00     0.029 A 
ATOM     49  C   UNL A   1      38.374  31.447  31.176  1.00  0.00     0.049 A 
ATOM     50  H   UNL A   1      39.877  30.802  32.467  1.00  0.00     0.167 HD
ATOM     51  C   UNL A   1      42.973  29.271  35.145  1.00  0.00     0.037 A 
ATOM     52  C   UNL A   1      37.755  32.487  31.769  1.00  0.00     0.037 A 
ATOM     53  C   UNL A   1      42.422  30.414  35.826  1.00  0.00     0.049 A 
ATOM     54  C   UNL A   1      38.249  32.970  33.104  1.00  0.00     0.074 A 
ATOM     55  C   UNL A   1      42.792  30.951  37.047  1.00  0.00     0.029 A 
ATOM     56  N   UNL A   1      41.389  31.201  35.340  1.00  0.00    -0.354 N 
ATOM     57  N   UNL A   1      39.210  32.484  33.853  1.00  0.00    -0.248 NA
ATOM     58  C   UNL A   1      37.587  34.154  33.666  1.00  0.00     0.031 C 
ATOM     59  C   UNL A   1      41.965  32.051  37.310  1.00  0.00     0.029 A 
ATOM     60  C   UNL A   1      41.106  32.219  36.237  1.00  0.00     0.049 A 
ATOM     61  H   UNL A   1      40.925  31.059  34.484  1.00  0.00     0.167 HD
ATOM     62  C   UNL A   1      39.283  33.318  34.963  1.00  0.00     0.074 A 
ATOM     63  C   UNL A   1      38.282  34.348  34.779  1.00  0.00     0.031 C 
ATOM     64  C   UNL A   1      40.106  33.237  36.039  1.00  0.00     0.037 A 
BRANCH  51  65
ATOM     65  C   UNL A   1      44.062  28.488  35.826  1.00  0.00     0.058 A 
ATOM     66  C   UNL A   1      43.768  27.428  36.698  1.00  0.00     0.135 A 
ATOM     67  C   UNL A   1      45.414  28.785  35.590  1.00  0.00     0.135 A 
ATOM     68  F   UNL A   1      42.491  27.112  36.972  1.00  0.00    -0.206 F 
ATOM     69  C   UNL A   1      44.772  26.711  37.341  1.00  0.00     0.059 A 
ATOM     70  C   UNL A   1      46.437  28.064  36.202  1.00  0.00     0.059 A 
ATOM     71  F   UNL A   1      45.753  29.788  34.765  1.00  0.00    -0.206 F 
ATOM     72  C   UNL A   1      46.105  27.041  37.089  1.00  0.00     0.060 A 
BRANCH  72  73
ATOM     73  S   UNL A   1      47.400  26.106  37.932  1.00  0.00     0.124 S 
ATOM     74  O   UNL A   1      46.884  26.066  39.298  1.00  0.00    -0.237 OA
ATOM     75  O   UNL A   1      47.388  24.835  37.215  1.00  0.00    -0.237 OA
ATOM     76  O   UNL A   1      48.591  26.924  37.734  1.00  0.00    -0.744 OA
ENDBRANCH  72  73
ENDBRANCH  51  65
BRANCH  52  77
ATOM     77  C   UNL A   1      36.637  33.178  31.075  1.00  0.00     0.058 A 
ATOM     78  C   UNL A   1      36.880  33.996  29.961  1.00  0.00     0.135 A 
ATOM     79  C   UNL A   1      35.309  33.026  31.499  1.00  0.00     0.135 A 
ATOM     80  F   UNL A   1      38.135  34.174  29.522  1.00  0.00    -0.206 F 
ATOM     81  C   UNL A   1      35.848  34.653  29.300  1.00  0.00     0.059 A 
ATOM     82  C   UNL A   1      34.257  33.657  30.841  1.00  0.00     0.059 A 
ATOM     83  F   UNL A   1      35.022  32.240  32.548  1.00  0.00    -0.206 F 
ATOM     84  C   UNL A   1      34.538  34.477  29.748  1.00  0.00     0.060 A 
BRANCH  84  85
ATOM     85  S   UNL A   1      33.198  35.295  28.854  1.00  0.00     0.124 S 
ATOM     86  O   UNL A   1      32.338  35.730  29.948  1.00  0.00    -0.237 OA
ATOM     87  O   UNL A   1      33.905  36.352  28.138  1.00  0.00    -0.237 OA
ATOM     88  O   UNL A   1      32.662  34.231  28.011  1.00  0.00    -0.744 OA
ENDBRANCH  84  85
ENDBRANCH  52  77
BRANCH  64  89
ATOM     89  C   UNL A   1      39.974  34.314  37.079  1.00  0.00     0.058 A 
ATOM     90  C   UNL A   1      39.090  34.187  38.163  1.00  0.00     0.135 A 
ATOM     91  C   UNL A   1      40.743  35.485  36.991  1.00  0.00     0.135 A 
ATOM     92  F   UNL A   1      38.330  33.087  38.289  1.00  0.00    -0.206 F 
ATOM     93  C   UNL A   1      38.942  35.203  39.101  1.00  0.00     0.059 A 
ATOM     94  C   UNL A   1      40.630  36.502  37.932  1.00  0.00     0.059 A 
ATOM     95  F   UNL A   1      41.612  35.649  35.982  1.00  0.00    -0.206 F 
ATOM     96  C   UNL A   1      39.710  36.362  38.972  1.00  0.00     0.060 A 
BRANCH  96  97
ATOM     97  S   UNL A   1      39.508  37.682  40.187  1.00  0.00     0.124 S 
ATOM     98  O   UNL A   1      40.844  38.269  40.205  1.00  0.00    -0.237 OA
ATOM     99  O   UNL A   1      38.461  38.505  39.588  1.00  0.00    -0.237 OA
ATOM    100  O   UNL A   1      39.118  36.968  41.399  1.00  0.00    -0.744 OA
ENDBRANCH  96  97
ENDBRANCH  64  89
ENDBRANCH  38  39
ENDBRANCH  30  33
ENDBRANCH  28  29
ENDBRANCH  27  28
ENDBRANCH   1  27
TORSDOF 18
ENDMDL
MODEL 3
REMARK VINA RESULT:     -12.1      4.811     10.482
REMARK SMILES O=C(COc1ccccc1NC(=O)c1ccc([N+](=O)[O-])cc1)NCCCNC(=O)c1ccc(-c2c3nc(c(-c4c(F)cc(S(=O)(=O)[O-])cc4F)c4ccc([nH]4)c(-c4c(F)cc(S(=O)(=O)[O-])cc4F)c4nc(c(-c5c(F)cc(S(=O)(=O)[O-])cc5F)c5ccc2[nH]5)C=C4)C=C3)cc1
REMARK SMILES IDX 24 1 23 2 1 3 2 4 3 6 4 7 5 8 6 9 10 10 7 11 9 12 8 13 11 14
REMARK SMILES IDX 12 15 13 17 14 18 15 19 22 20 16 21 21 22 17 23 18 24 19 25
REMARK SMILES IDX 20 26 25 27 26 28 27 29 28 30 29 32 30 33 31 34 95 35 32 36
REMARK SMILES IDX 94 37 33 38 34 39 35 40 88 41 36 42 93 43 87 44 89 45 37 46
REMARK SMILES IDX 92 47 86 48 85 49 38 51 72 52 51 53 71 54 52 55 55 56 70 57
REMARK SMILES IDX 90 58 53 59 54 60 69 62 91 63 56 64 39 65 40 66 49 67 41 68
REMARK SMILES IDX 42 69 48 70 50 71 43 72 44 73 45 74 46 75 47 76 73 77 74 78
REMARK SMILES IDX 83 79 75 80 76 81 82 82 84 83 77 84 78 85 79 86 80 87 81 88
REMARK SMILES IDX 57 89 58 90 67 91 59 92 60 93 66 94 68 95 61 96 62 97 63 98
REMARK SMILES IDX 64 99 65 100
REMARK H PARENT 23 5 11 16 27 31 89 50 55 61
REMARK Flexibility Score: inf
ROOT
ATOM      1  C   UNL A   1      33.244  29.298  24.859  1.00  0.00     0.117 C 
ENDROOT
BRANCH   1   2
ATOM      2  N   UNL A   1      32.232  28.842  23.926  1.00  0.00    -0.353 N 
ATOM      3  O   UNL A   1      33.609  27.754  22.426  1.00  0.00    -0.271 OA
ATOM      4  C   UNL A   1      32.492  27.978  22.874  1.00  0.00     0.257 C 
ATOM      5  H   UNL A   1      31.309  29.165  24.045  1.00  0.00     0.163 HD
BRANCH   4   6
ATOM      6  C   UNL A   1      31.241  27.240  22.381  1.00  0.00     0.329 C 
BRANCH   6   7
ATOM      7  O   UNL A   1      31.429  25.827  22.521  1.00  0.00    -0.482 OA
BRANCH   7   8
ATOM      8  C   UNL A   1      31.397  25.367  23.817  1.00  0.00     0.143 A 
ATOM      9  C   UNL A   1      30.198  25.561  24.508  1.00  0.00     0.049 A 
ATOM     10  C   UNL A   1      32.562  24.928  24.487  1.00  0.00     0.084 A 
ATOM     11  C   UNL A   1      30.143  25.341  25.882  1.00  0.00     0.004 A 
ATOM     12  C   UNL A   1      32.502  24.802  25.875  1.00  0.00     0.030 A 
ATOM     13  C   UNL A   1      31.300  24.988  26.567  1.00  0.00     0.002 A 
BRANCH  10  14
ATOM     14  N   UNL A   1      33.712  24.659  23.719  1.00  0.00    -0.319 N 
ATOM     15  C   UNL A   1      34.440  23.547  23.379  1.00  0.00     0.255 C 
ATOM     16  H   UNL A   1      34.090  25.479  23.327  1.00  0.00     0.170 HD
ATOM     17  O   UNL A   1      35.446  23.659  22.684  1.00  0.00    -0.269 OA
BRANCH  15  18
ATOM     18  C   UNL A   1      34.107  22.194  23.829  1.00  0.00     0.040 A 
ATOM     19  C   UNL A   1      32.856  21.686  23.451  1.00  0.00     0.021 A 
ATOM     20  C   UNL A   1      34.967  21.456  24.647  1.00  0.00     0.021 A 
ATOM     21  C   UNL A   1      32.499  20.389  23.809  1.00  0.00     0.086 A 
ATOM     22  C   UNL A   1      34.624  20.146  24.990  1.00  0.00     0.086 A 
ATOM     23  C   UNL A   1      33.400  19.613  24.551  1.00  0.00     0.269 A 
BRANCH  23  24
ATOM     24  N   UNL A   1      33.070  18.215  24.847  1.00  0.00     0.062 N 
ATOM     25  O   UNL A   1      33.778  17.335  24.339  1.00  0.00    -0.258 OA
ATOM     26  O   UNL A   1      32.114  18.001  25.605  1.00  0.00    -0.258 OA
ENDBRANCH  23  24
ENDBRANCH  15  18
ENDBRANCH  10  14
ENDBRANCH   7   8
ENDBRANCH   6   7
ENDBRANCH   4   6
ENDBRANCH   1   2
BRANCH   1  27
ATOM     27  C   UNL A   1      33.739  28.249  25.833  1.00  0.00     0.042 C 
BRANCH  27  28
ATOM     28  C   UNL A   1      33.357  28.483  27.288  1.00  0.00     0.118 C 
BRANCH  28  29
ATOM     29  N   UNL A   1      33.381  29.878  27.715  1.00  0.00    -0.352 N 
ATOM     30  C   UNL A   1      34.416  30.643  28.206  1.00  0.00     0.251 C 
ATOM     31  H   UNL A   1      32.519  30.347  27.639  1.00  0.00     0.163 HD
ATOM     32  O   UNL A   1      34.193  31.807  28.534  1.00  0.00    -0.269 OA
BRANCH  30  33
ATOM     33  C   UNL A   1      35.770  30.069  28.393  1.00  0.00     0.039 A 
ATOM     34  C   UNL A   1      36.657  30.082  27.310  1.00  0.00     0.014 A 
ATOM     35  C   UNL A   1      36.187  29.541  29.615  1.00  0.00     0.014 A 
ATOM     36  C   UNL A   1      37.979  29.660  27.486  1.00  0.00     0.010 A 
ATOM     37  C   UNL A   1      37.528  29.218  29.816  1.00  0.00     0.010 A 
ATOM     38  C   UNL A   1      38.442  29.276  28.755  1.00  0.00    -0.014 A 
BRANCH  38  39
ATOM     39  C   UNL A   1      39.877  28.955  28.986  1.00  0.00     0.031 A 
ATOM     40  C   UNL A   1      40.812  29.984  29.567  1.00  0.00     0.074 A 
ATOM     41  C   UNL A   1      40.356  27.750  28.614  1.00  0.00     0.049 A 
ATOM     42  N   UNL A   1      42.094  29.889  29.814  1.00  0.00    -0.248 NA
ATOM     43  C   UNL A   1      40.242  31.305  29.877  1.00  0.00     0.031 C 
ATOM     44  C   UNL A   1      39.579  26.694  27.959  1.00  0.00     0.029 A 
ATOM     45  N   UNL A   1      41.614  27.210  28.728  1.00  0.00    -0.354 N 
ATOM     46  C   UNL A   1      42.485  31.136  30.289  1.00  0.00     0.074 A 
ATOM     47  C   UNL A   1      41.317  31.988  30.240  1.00  0.00     0.031 C 
ATOM     48  C   UNL A   1      40.365  25.622  27.768  1.00  0.00     0.029 A 
ATOM     49  C   UNL A   1      41.705  25.920  28.260  1.00  0.00     0.049 A 
ATOM     50  H   UNL A   1      42.377  27.700  29.109  1.00  0.00     0.167 HD
ATOM     51  C   UNL A   1      43.697  31.529  30.751  1.00  0.00     0.037 A 
ATOM     52  C   UNL A   1      42.748  25.067  28.241  1.00  0.00     0.037 A 
ATOM     53  C   UNL A   1      44.848  30.668  30.838  1.00  0.00     0.049 A 
ATOM     54  C   UNL A   1      44.063  25.504  28.824  1.00  0.00     0.074 A 
ATOM     55  C   UNL A   1      46.102  30.955  31.351  1.00  0.00     0.029 A 
ATOM     56  N   UNL A   1      44.884  29.351  30.408  1.00  0.00    -0.354 N 
ATOM     57  N   UNL A   1      44.395  26.665  29.333  1.00  0.00    -0.248 NA
ATOM     58  C   UNL A   1      45.141  24.506  28.845  1.00  0.00     0.031 C 
ATOM     59  C   UNL A   1      46.903  29.815  31.210  1.00  0.00     0.029 A 
ATOM     60  C   UNL A   1      46.138  28.809  30.641  1.00  0.00     0.049 A 
ATOM     61  H   UNL A   1      44.130  28.870  29.996  1.00  0.00     0.167 HD
ATOM     62  C   UNL A   1      45.712  26.532  29.758  1.00  0.00     0.074 A 
ATOM     63  C   UNL A   1      46.109  25.171  29.461  1.00  0.00     0.031 C 
ATOM     64  C   UNL A   1      46.519  27.453  30.341  1.00  0.00     0.037 A 
BRANCH  51  65
ATOM     65  C   UNL A   1      43.830  32.953  31.218  1.00  0.00     0.058 A 
ATOM     66  C   UNL A   1      43.573  33.316  32.550  1.00  0.00     0.135 A 
ATOM     67  C   UNL A   1      44.238  33.964  30.332  1.00  0.00     0.135 A 
ATOM     68  F   UNL A   1      43.164  32.393  33.435  1.00  0.00    -0.206 F 
ATOM     69  C   UNL A   1      43.681  34.634  32.980  1.00  0.00     0.059 A 
ATOM     70  C   UNL A   1      44.379  35.285  30.747  1.00  0.00     0.059 A 
ATOM     71  F   UNL A   1      44.498  33.673  29.048  1.00  0.00    -0.206 F 
ATOM     72  C   UNL A   1      44.081  35.614  32.069  1.00  0.00     0.060 A 
BRANCH  72  73
ATOM     73  S   UNL A   1      44.213  37.321  32.640  1.00  0.00     0.124 S 
ATOM     74  O   UNL A   1      43.094  37.402  33.574  1.00  0.00    -0.237 OA
ATOM     75  O   UNL A   1      45.542  37.349  33.243  1.00  0.00    -0.237 OA
ATOM     76  O   UNL A   1      44.067  38.100  31.415  1.00  0.00    -0.744 OA
ENDBRANCH  72  73
ENDBRANCH  51  65
BRANCH  52  77
ATOM     77  C   UNL A   1      42.573  23.693  27.702  1.00  0.00     0.058 A 
ATOM     78  C   UNL A   1      42.597  23.457  26.319  1.00  0.00     0.135 A 
ATOM     79  C   UNL A   1      42.394  22.591  28.551  1.00  0.00     0.135 A 
ATOM     80  F   UNL A   1      42.762  24.480  25.468  1.00  0.00    -0.206 F 
ATOM     81  C   UNL A   1      42.433  22.179  25.794  1.00  0.00     0.059 A 
ATOM     82  C   UNL A   1      42.249  21.301  28.051  1.00  0.00     0.059 A 
ATOM     83  F   UNL A   1      42.382  22.762  29.882  1.00  0.00    -0.206 F 
ATOM     84  C   UNL A   1      42.259  21.106  26.669  1.00  0.00     0.060 A 
BRANCH  84  85
ATOM     85  S   UNL A   1      42.097  19.444  25.982  1.00  0.00     0.124 S 
ATOM     86  O   UNL A   1      42.597  18.623  27.078  1.00  0.00    -0.237 OA
ATOM     87  O   UNL A   1      40.663  19.357  25.721  1.00  0.00    -0.237 OA
ATOM     88  O   UNL A   1      42.939  19.491  24.791  1.00  0.00    -0.744 OA
ENDBRANCH  84  85
ENDBRANCH  52  77
BRANCH  64  89
ATOM     89  C   UNL A   1      47.900  27.002  30.724  1.00  0.00     0.058 A 
ATOM     90  C   UNL A   1      48.170  26.447  31.986  1.00  0.00     0.135 A 
ATOM     91  C   UNL A   1      48.965  27.124  29.818  1.00  0.00     0.135 A 
ATOM     92  F   UNL A   1      47.187  26.312  32.889  1.00  0.00    -0.206 F 
ATOM     93  C   UNL A   1      49.458  26.068  32.351  1.00  0.00     0.059 A 
ATOM     94  C   UNL A   1      50.255  26.729  30.153  1.00  0.00     0.059 A 
ATOM     95  F   UNL A   1      48.757  27.637  28.595  1.00  0.00    -0.206 F 
ATOM     96  C   UNL A   1      50.496  26.221  31.430  1.00  0.00     0.060 A 
BRANCH  96  97
ATOM     97  S   UNL A   1      52.167  25.737  31.912  1.00  0.00     0.124 S 
ATOM     98  O   UNL A   1      52.929  26.092  30.719  1.00  0.00    -0.237 OA
ATOM     99  O   UNL A   1      52.410  26.565  33.089  1.00  0.00    -0.237 OA
ATOM    100  O   UNL A   1      52.041  24.307  32.176  1.00  0.00    -0.744 OA
ENDBRANCH  96  97
ENDBRANCH  64  89
ENDBRANCH  38  39
ENDBRANCH  30  33
ENDBRANCH  28  29
ENDBRANCH  27  28
ENDBRANCH   1  27
TORSDOF 18
ENDMDL
