MODEL 1
REMARK VINA RESULT:     -11.2      0.000      0.000
REMARK SMILES COC[C@H]1CCN(C(=O)N2CC[C@H](C(=O)NCCCNC(=O)c3ccc(-c4c5nc(c(-c6c(F)cc(S(=O)(=O)[O-])cc6F)c6ccc([nH]6)c(-c6c(F)cc(S(=O)(=O)[O-])cc6F)c6nc(c(-c7c(F)cc(S(=O)(=O)[O-])cc7F)c7ccc4[nH]7)C=C6)C=C5)cc3)[C@@H]2C)C1
REMARK SMILES IDX 17 1 16 2 14 3 15 4 13 6 10 7 11 8 89 9 12 10 90 11 8 12
REMARK SMILES IDX 9 13 7 14 4 15 5 16 91 17 6 18 3 19 2 20 1 21 18 22 19 23
REMARK SMILES IDX 20 24 21 25 22 27 23 28 24 29 88 30 25 31 87 32 26 33 27 34
REMARK SMILES IDX 28 35 81 36 29 37 86 38 80 39 82 40 30 41 85 42 79 43 78 44
REMARK SMILES IDX 31 46 65 47 44 48 64 49 45 50 48 51 63 52 83 53 46 54 47 55
REMARK SMILES IDX 62 57 84 58 49 59 32 60 33 61 42 62 34 63 35 64 41 65 43 66
REMARK SMILES IDX 36 67 37 68 38 69 39 70 40 71 66 72 67 73 76 74 68 75 69 76
REMARK SMILES IDX 75 77 77 78 70 79 71 80 72 81 73 82 74 83 50 84 51 85 60 86
REMARK SMILES IDX 52 87 53 88 59 89 61 90 54 91 55 92 56 93 57 94 58 95
REMARK H PARENT 16 5 20 26 82 45 48 56
REMARK Flexibility Score: inf
ROOT
ATOM      1  C   UNL A   1      32.839  27.692  24.983  1.00  0.00     0.117 C 
ENDROOT
BRANCH   1   2
ATOM      2  N   UNL A   1      31.916  26.619  24.663  1.00  0.00    -0.356 N 
ATOM      3  C   UNL A   1      31.878  25.322  25.065  1.00  0.00     0.225 C 
ATOM      4  O   UNL A   1      30.897  24.658  24.712  1.00  0.00    -0.275 OA
ATOM      5  H   UNL A   1      31.191  26.875  24.049  1.00  0.00     0.163 HD
BRANCH   3   6
ATOM      6  C   UNL A   1      32.974  24.660  25.888  1.00  0.00     0.102 C 
ATOM      7  N   UNL A   1      33.948  22.567  25.429  1.00  0.00    -0.321 N 
ATOM      8  C   UNL A   1      33.428  22.462  26.778  1.00  0.00     0.122 C 
ATOM      9  C   UNL A   1      34.132  23.982  25.125  1.00  0.00     0.096 C 
ATOM     10  C   UNL A   1      32.430  23.601  26.866  1.00  0.00     0.037 C 
ATOM     11  C   UNL A   1      34.281  24.335  23.648  1.00  0.00     0.032 C 
BRANCH   7  12
ATOM     12  C   UNL A   1      34.699  21.575  24.853  1.00  0.00     0.320 C 
ATOM     13  O   UNL A   1      35.864  21.770  24.510  1.00  0.00    -0.248 OA
BRANCH  12  14
ATOM     14  N   UNL A   1      34.066  20.375  24.625  1.00  0.00    -0.324 N 
ATOM     15  C   UNL A   1      33.903  18.037  24.210  1.00  0.00     0.036 C 
ATOM     16  C   UNL A   1      32.506  18.664  24.262  1.00  0.00     0.029 C 
ATOM     17  C   UNL A   1      34.812  19.136  24.765  1.00  0.00     0.127 C 
ATOM     18  C   UNL A   1      32.794  20.126  23.961  1.00  0.00     0.122 C 
BRANCH  15  19
ATOM     19  C   UNL A   1      34.001  16.713  24.963  1.00  0.00     0.165 C 
BRANCH  19  20
ATOM     20  O   UNL A   1      33.030  15.761  24.529  1.00  0.00    -0.384 OA
ATOM     21  C   UNL A   1      32.510  14.950  25.569  1.00  0.00     0.194 C 
ENDBRANCH  19  20
ENDBRANCH  15  19
ENDBRANCH  12  14
ENDBRANCH   7  12
ENDBRANCH   3   6
ENDBRANCH   1   2
BRANCH   1  22
ATOM     22  C   UNL A   1      32.396  28.533  26.169  1.00  0.00     0.042 C 
BRANCH  22  23
ATOM     23  C   UNL A   1      33.484  28.737  27.215  1.00  0.00     0.118 C 
BRANCH  23  24
ATOM     24  N   UNL A   1      33.540  30.106  27.718  1.00  0.00    -0.352 N 
ATOM     25  C   UNL A   1      34.540  30.772  28.386  1.00  0.00     0.251 C 
ATOM     26  H   UNL A   1      32.728  30.639  27.553  1.00  0.00     0.163 HD
ATOM     27  O   UNL A   1      34.310  31.871  28.885  1.00  0.00    -0.269 OA
BRANCH  25  28
ATOM     28  C   UNL A   1      35.875  30.155  28.536  1.00  0.00     0.039 A 
ATOM     29  C   UNL A   1      36.739  30.129  27.437  1.00  0.00     0.014 A 
ATOM     30  C   UNL A   1      36.283  29.621  29.758  1.00  0.00     0.014 A 
ATOM     31  C   UNL A   1      38.048  29.669  27.597  1.00  0.00     0.010 A 
ATOM     32  C   UNL A   1      37.610  29.246  29.939  1.00  0.00     0.010 A 
ATOM     33  C   UNL A   1      38.512  29.284  28.865  1.00  0.00    -0.014 A 
BRANCH  33  34
ATOM     34  C   UNL A   1      39.939  28.961  29.114  1.00  0.00     0.031 A 
ATOM     35  C   UNL A   1      40.883  30.028  29.596  1.00  0.00     0.074 A 
ATOM     36  C   UNL A   1      40.407  27.737  28.793  1.00  0.00     0.049 A 
ATOM     37  N   UNL A   1      42.183  29.983  29.719  1.00  0.00    -0.248 NA
ATOM     38  C   UNL A   1      40.288  31.325  29.957  1.00  0.00     0.031 C 
ATOM     39  C   UNL A   1      39.598  26.632  28.269  1.00  0.00     0.029 A 
ATOM     40  N   UNL A   1      41.678  27.222  28.835  1.00  0.00    -0.354 N 
ATOM     41  C   UNL A   1      42.566  31.248  30.149  1.00  0.00     0.074 A 
ATOM     42  C   UNL A   1      41.364  32.050  30.225  1.00  0.00     0.031 C 
ATOM     43  C   UNL A   1      40.390  25.571  28.051  1.00  0.00     0.029 A 
ATOM     44  C   UNL A   1      41.767  25.930  28.370  1.00  0.00     0.049 A 
ATOM     45  H   UNL A   1      42.454  27.730  29.167  1.00  0.00     0.167 HD
ATOM     46  C   UNL A   1      43.804  31.693  30.470  1.00  0.00     0.037 A 
ATOM     47  C   UNL A   1      42.839  25.132  28.196  1.00  0.00     0.037 A 
ATOM     48  C   UNL A   1      44.991  30.879  30.424  1.00  0.00     0.049 A 
ATOM     49  C   UNL A   1      44.205  25.653  28.547  1.00  0.00     0.074 A 
ATOM     50  C   UNL A   1      46.278  31.213  30.805  1.00  0.00     0.029 A 
ATOM     51  N   UNL A   1      45.035  29.571  29.965  1.00  0.00    -0.354 N 
ATOM     52  N   UNL A   1      44.539  26.831  29.014  1.00  0.00    -0.248 NA
ATOM     53  C   UNL A   1      45.340  24.742  28.340  1.00  0.00     0.031 C 
ATOM     54  C   UNL A   1      47.110  30.121  30.537  1.00  0.00     0.029 A 
ATOM     55  C   UNL A   1      46.333  29.092  30.026  1.00  0.00     0.049 A 
ATOM     56  H   UNL A   1      44.259  29.057  29.643  1.00  0.00     0.167 HD
ATOM     57  C   UNL A   1      45.920  26.799  29.173  1.00  0.00     0.074 A 
ATOM     58  C   UNL A   1      46.357  25.480  28.764  1.00  0.00     0.031 C 
ATOM     59  C   UNL A   1      46.750  27.775  29.614  1.00  0.00     0.037 A 
BRANCH  46  60
ATOM     60  C   UNL A   1      43.939  33.125  30.907  1.00  0.00     0.058 A 
ATOM     61  C   UNL A   1      44.246  34.146  29.994  1.00  0.00     0.135 A 
ATOM     62  C   UNL A   1      43.723  33.487  32.247  1.00  0.00     0.135 A 
ATOM     63  F   UNL A   1      44.476  33.853  28.704  1.00  0.00    -0.206 F 
ATOM     64  C   UNL A   1      44.364  35.472  30.397  1.00  0.00     0.059 A 
ATOM     65  C   UNL A   1      43.810  34.811  32.668  1.00  0.00     0.059 A 
ATOM     66  F   UNL A   1      43.428  32.551  33.161  1.00  0.00    -0.206 F 
ATOM     67  C   UNL A   1      44.145  35.794  31.738  1.00  0.00     0.060 A 
BRANCH  67  68
ATOM     68  S   UNL A   1      44.299  37.520  32.245  1.00  0.00     0.124 S 
ATOM     69  O   UNL A   1      43.795  38.215  31.064  1.00  0.00    -0.237 OA
ATOM     70  O   UNL A   1      43.443  37.576  33.426  1.00  0.00    -0.237 OA
ATOM     71  O   UNL A   1      45.727  37.672  32.502  1.00  0.00    -0.744 OA
ENDBRANCH  67  68
ENDBRANCH  46  60
BRANCH  47  72
ATOM     72  C   UNL A   1      42.659  23.757  27.664  1.00  0.00     0.058 A 
ATOM     73  C   UNL A   1      42.492  22.667  28.530  1.00  0.00     0.135 A 
ATOM     74  C   UNL A   1      42.623  23.507  26.283  1.00  0.00     0.135 A 
ATOM     75  F   UNL A   1      42.525  22.856  29.859  1.00  0.00    -0.206 F 
ATOM     76  C   UNL A   1      42.304  21.376  28.049  1.00  0.00     0.059 A 
ATOM     77  C   UNL A   1      42.413  22.228  25.777  1.00  0.00     0.059 A 
ATOM     78  F   UNL A   1      42.760  24.519  25.411  1.00  0.00    -0.206 F 
ATOM     79  C   UNL A   1      42.261  21.167  26.669  1.00  0.00     0.060 A 
BRANCH  79  80
ATOM     80  S   UNL A   1      41.948  19.498  26.054  1.00  0.00     0.124 S 
ATOM     81  O   UNL A   1      42.862  19.426  24.921  1.00  0.00    -0.237 OA
ATOM     82  O   UNL A   1      42.292  18.676  27.209  1.00  0.00    -0.237 OA
ATOM     83  O   UNL A   1      40.526  19.529  25.720  1.00  0.00    -0.744 OA
ENDBRANCH  79  80
ENDBRANCH  47  72
BRANCH  59  84
ATOM     84  C   UNL A   1      48.216  27.456  29.691  1.00  0.00     0.058 A 
ATOM     85  C   UNL A   1      49.062  27.644  28.588  1.00  0.00     0.135 A 
ATOM     86  C   UNL A   1      48.792  27.033  30.899  1.00  0.00     0.135 A 
ATOM     87  F   UNL A   1      48.558  28.037  27.408  1.00  0.00    -0.206 F 
ATOM     88  C   UNL A   1      50.432  27.419  28.680  1.00  0.00     0.059 A 
ATOM     89  C   UNL A   1      50.162  26.824  31.020  1.00  0.00     0.059 A 
ATOM     90  F   UNL A   1      48.024  26.844  31.985  1.00  0.00    -0.206 F 
ATOM     91  C   UNL A   1      50.973  27.017  29.902  1.00  0.00     0.060 A 
BRANCH  91  92
ATOM     92  S   UNL A   1      52.761  26.789  30.023  1.00  0.00     0.124 S 
ATOM     93  O   UNL A   1      53.105  26.436  28.650  1.00  0.00    -0.237 OA
ATOM     94  O   UNL A   1      53.212  28.103  30.473  1.00  0.00    -0.237 OA
ATOM     95  O   UNL A   1      52.900  25.716  31.002  1.00  0.00    -0.744 OA
ENDBRANCH  91  92
ENDBRANCH  59  84
ENDBRANCH  33  34
ENDBRANCH  25  28
ENDBRANCH  23  24
ENDBRANCH  22  23
ENDBRANCH   1  22
TORSDOF 17
ENDMDL
MODEL 2
REMARK VINA RESULT:     -11.0      5.280     10.884
REMARK SMILES COC[C@H]1CCN(C(=O)N2CC[C@H](C(=O)NCCCNC(=O)c3ccc(-c4c5nc(c(-c6c(F)cc(S(=O)(=O)[O-])cc6F)c6ccc([nH]6)c(-c6c(F)cc(S(=O)(=O)[O-])cc6F)c6nc(c(-c7c(F)cc(S(=O)(=O)[O-])cc7F)c7ccc4[nH]7)C=C6)C=C5)cc3)[C@@H]2C)C1
REMARK SMILES IDX 17 1 16 2 14 3 15 4 13 6 10 7 11 8 89 9 12 10 90 11 8 12
REMARK SMILES IDX 9 13 7 14 4 15 5 16 91 17 6 18 3 19 2 20 1 21 18 22 19 23
REMARK SMILES IDX 20 24 21 25 22 27 23 28 24 29 88 30 25 31 87 32 26 33 27 34
REMARK SMILES IDX 28 35 81 36 29 37 86 38 80 39 82 40 30 41 85 42 79 43 78 44
REMARK SMILES IDX 31 46 65 47 44 48 64 49 45 50 48 51 63 52 83 53 46 54 47 55
REMARK SMILES IDX 62 57 84 58 49 59 32 60 33 61 42 62 34 63 35 64 41 65 43 66
REMARK SMILES IDX 36 67 37 68 38 69 39 70 40 71 66 72 67 73 76 74 68 75 69 76
REMARK SMILES IDX 75 77 77 78 70 79 71 80 72 81 73 82 74 83 50 84 51 85 60 86
REMARK SMILES IDX 52 87 53 88 59 89 61 90 54 91 55 92 56 93 57 94 58 95
REMARK H PARENT 16 5 20 26 82 45 48 56
REMARK Flexibility Score: inf
ROOT
ATOM      1  C   UNL A   1      36.989  21.860  25.799  1.00  0.00     0.117 C 
ENDROOT
BRANCH   1   2
ATOM      2  N   UNL A   1      35.666  22.102  26.343  1.00  0.00    -0.356 N 
ATOM      3  C   UNL A   1      34.445  22.132  25.747  1.00  0.00     0.225 C 
ATOM      4  O   UNL A   1      33.466  22.256  26.491  1.00  0.00    -0.275 OA
ATOM      5  H   UNL A   1      35.649  22.274  27.312  1.00  0.00     0.163 HD
BRANCH   3   6
ATOM      6  C   UNL A   1      34.238  22.047  24.242  1.00  0.00     0.102 C 
ATOM      7  N   UNL A   1      32.932  23.529  22.960  1.00  0.00    -0.321 N 
ATOM      8  C   UNL A   1      32.383  22.211  22.704  1.00  0.00     0.122 C 
ATOM      9  C   UNL A   1      34.302  23.362  23.435  1.00  0.00     0.096 C 
ATOM     10  C   UNL A   1      32.905  21.377  23.858  1.00  0.00     0.037 C 
ATOM     11  C   UNL A   1      34.918  24.569  24.137  1.00  0.00     0.032 C 
BRANCH   7  12
ATOM     12  C   UNL A   1      32.505  24.644  22.288  1.00  0.00     0.320 C 
ATOM     13  O   UNL A   1      32.902  24.900  21.152  1.00  0.00    -0.248 OA
BRANCH  12  14
ATOM     14  N   UNL A   1      31.661  25.490  22.970  1.00  0.00    -0.324 N 
ATOM     15  C   UNL A   1      31.039  27.439  24.186  1.00  0.00     0.036 C 
ATOM     16  C   UNL A   1      29.834  26.507  24.027  1.00  0.00     0.029 C 
ATOM     17  C   UNL A   1      32.070  26.863  23.213  1.00  0.00     0.127 C 
ATOM     18  C   UNL A   1      30.493  25.161  23.775  1.00  0.00     0.122 C 
BRANCH  15  19
ATOM     19  C   UNL A   1      30.706  28.908  23.937  1.00  0.00     0.165 C 
BRANCH  19  20
ATOM     20  O   UNL A   1      30.744  29.252  22.553  1.00  0.00    -0.384 OA
ATOM     21  C   UNL A   1      29.484  29.610  22.010  1.00  0.00     0.194 C 
ENDBRANCH  19  20
ENDBRANCH  15  19
ENDBRANCH  12  14
ENDBRANCH   7  12
ENDBRANCH   3   6
ENDBRANCH   1   2
BRANCH   1  22
ATOM     22  C   UNL A   1      37.708  23.131  25.379  1.00  0.00     0.042 C 
BRANCH  22  23
ATOM     23  C   UNL A   1      38.529  23.767  26.493  1.00  0.00     0.118 C 
BRANCH  23  24
ATOM     24  N   UNL A   1      39.967  23.685  26.258  1.00  0.00    -0.352 N 
ATOM     25  C   UNL A   1      40.979  24.548  26.606  1.00  0.00     0.251 C 
ATOM     26  H   UNL A   1      40.260  22.881  25.770  1.00  0.00     0.163 HD
ATOM     27  O   UNL A   1      42.107  24.378  26.147  1.00  0.00    -0.269 OA
BRANCH  25  28
ATOM     28  C   UNL A   1      40.708  25.695  27.498  1.00  0.00     0.039 A 
ATOM     29  C   UNL A   1      39.728  25.570  28.487  1.00  0.00     0.014 A 
ATOM     30  C   UNL A   1      41.427  26.884  27.373  1.00  0.00     0.014 A 
ATOM     31  C   UNL A   1      39.551  26.595  29.419  1.00  0.00     0.010 A 
ATOM     32  C   UNL A   1      41.312  27.865  28.351  1.00  0.00     0.010 A 
ATOM     33  C   UNL A   1      40.386  27.723  29.395  1.00  0.00    -0.014 A 
BRANCH  33  34
ATOM     34  C   UNL A   1      40.352  28.748  30.469  1.00  0.00     0.031 A 
ATOM     35  C   UNL A   1      41.222  28.596  31.686  1.00  0.00     0.074 A 
ATOM     36  C   UNL A   1      39.452  29.750  30.399  1.00  0.00     0.049 A 
ATOM     37  N   UNL A   1      41.220  29.293  32.793  1.00  0.00    -0.248 NA
ATOM     38  C   UNL A   1      42.200  27.497  31.669  1.00  0.00     0.031 C 
ATOM     39  C   UNL A   1      38.519  29.975  29.292  1.00  0.00     0.029 A 
ATOM     40  N   UNL A   1      39.155  30.753  31.287  1.00  0.00    -0.354 N 
ATOM     41  C   UNL A   1      42.177  28.706  33.611  1.00  0.00     0.074 A 
ATOM     42  C   UNL A   1      42.709  27.569  32.891  1.00  0.00     0.031 C 
ATOM     43  C   UNL A   1      37.764  31.051  29.561  1.00  0.00     0.029 A 
ATOM     44  C   UNL A   1      38.122  31.565  30.879  1.00  0.00     0.049 A 
ATOM     45  H   UNL A   1      39.636  30.880  32.137  1.00  0.00     0.167 HD
ATOM     46  C   UNL A   1      42.587  29.091  34.843  1.00  0.00     0.037 A 
ATOM     47  C   UNL A   1      37.515  32.593  31.503  1.00  0.00     0.037 A 
ATOM     48  C   UNL A   1      42.075  30.243  35.539  1.00  0.00     0.049 A 
ATOM     49  C   UNL A   1      37.979  32.994  32.876  1.00  0.00     0.074 A 
ATOM     50  C   UNL A   1      42.481  30.762  36.755  1.00  0.00     0.029 A 
ATOM     51  N   UNL A   1      41.043  31.049  35.084  1.00  0.00    -0.354 N 
ATOM     52  N   UNL A   1      38.930  32.467  33.608  1.00  0.00    -0.248 NA
ATOM     53  C   UNL A   1      37.283  34.122  33.512  1.00  0.00     0.031 C 
ATOM     54  C   UNL A   1      41.666  31.859  37.056  1.00  0.00     0.029 A 
ATOM     55  C   UNL A   1      40.778  32.046  36.007  1.00  0.00     0.049 A 
ATOM     56  H   UNL A   1      40.568  30.931  34.230  1.00  0.00     0.167 HD
ATOM     57  C   UNL A   1      38.960  33.209  34.783  1.00  0.00     0.074 A 
ATOM     58  C   UNL A   1      37.939  34.229  34.659  1.00  0.00     0.031 C 
ATOM     59  C   UNL A   1      39.758  33.055  35.868  1.00  0.00     0.037 A 
BRANCH  46  60
ATOM     60  C   UNL A   1      43.647  28.265  35.515  1.00  0.00     0.058 A 
ATOM     61  C   UNL A   1      45.013  28.506  35.300  1.00  0.00     0.135 A 
ATOM     62  C   UNL A   1      43.295  27.244  36.413  1.00  0.00     0.135 A 
ATOM     63  F   UNL A   1      45.405  29.460  34.441  1.00  0.00    -0.206 F 
ATOM     64  C   UNL A   1      45.994  27.746  35.928  1.00  0.00     0.059 A 
ATOM     65  C   UNL A   1      44.260  26.488  37.074  1.00  0.00     0.059 A 
ATOM     66  F   UNL A   1      42.004  26.971  36.655  1.00  0.00    -0.206 F 
ATOM     67  C   UNL A   1      45.607  26.737  36.813  1.00  0.00     0.060 A 
BRANCH  67  68
ATOM     68  S   UNL A   1      46.892  25.761  37.623  1.00  0.00     0.124 S 
ATOM     69  O   UNL A   1      48.038  26.017  36.756  1.00  0.00    -0.237 OA
ATOM     70  O   UNL A   1      46.954  26.365  38.949  1.00  0.00    -0.237 OA
ATOM     71  O   UNL A   1      46.363  24.402  37.580  1.00  0.00    -0.744 OA
ENDBRANCH  67  68
ENDBRANCH  46  60
BRANCH  47  72
ATOM     72  C   UNL A   1      36.401  33.313  30.833  1.00  0.00     0.058 A 
ATOM     73  C   UNL A   1      35.078  33.158  31.270  1.00  0.00     0.135 A 
ATOM     74  C   UNL A   1      36.638  34.190  29.762  1.00  0.00     0.135 A 
ATOM     75  F   UNL A   1      34.802  32.325  32.286  1.00  0.00    -0.206 F 
ATOM     76  C   UNL A   1      34.026  33.838  30.666  1.00  0.00     0.059 A 
ATOM     77  C   UNL A   1      35.606  34.899  29.157  1.00  0.00     0.059 A 
ATOM     78  F   UNL A   1      37.889  34.388  29.318  1.00  0.00    -0.206 F 
ATOM     79  C   UNL A   1      34.301  34.712  29.612  1.00  0.00     0.060 A 
BRANCH  79  80
ATOM     80  S   UNL A   1      32.938  35.642  28.880  1.00  0.00     0.124 S 
ATOM     81  O   UNL A   1      32.339  34.645  28.001  1.00  0.00    -0.237 OA
ATOM     82  O   UNL A   1      32.155  36.015  30.053  1.00  0.00    -0.237 OA
ATOM     83  O   UNL A   1      33.614  36.750  28.211  1.00  0.00    -0.744 OA
ENDBRANCH  79  80
ENDBRANCH  47  72
BRANCH  59  84
ATOM     84  C   UNL A   1      39.572  34.016  37.007  1.00  0.00     0.058 A 
ATOM     85  C   UNL A   1      38.841  33.659  38.151  1.00  0.00     0.135 A 
ATOM     86  C   UNL A   1      40.196  35.273  36.989  1.00  0.00     0.135 A 
ATOM     87  F   UNL A   1      38.218  32.473  38.212  1.00  0.00    -0.206 F 
ATOM     88  C   UNL A   1      38.731  34.522  39.237  1.00  0.00     0.059 A 
ATOM     89  C   UNL A   1      40.117  36.142  38.072  1.00  0.00     0.059 A 
ATOM     90  F   UNL A   1      40.911  35.657  35.918  1.00  0.00    -0.206 F 
ATOM     91  C   UNL A   1      39.379  35.757  39.191  1.00  0.00     0.060 A 
BRANCH  91  92
ATOM     92  S   UNL A   1      39.279  36.840  40.633  1.00  0.00     0.124 S 
ATOM     93  O   UNL A   1      38.387  36.085  41.506  1.00  0.00    -0.237 OA
ATOM     94  O   UNL A   1      40.672  36.915  41.062  1.00  0.00    -0.237 OA
ATOM     95  O   UNL A   1      38.728  38.077  40.090  1.00  0.00    -0.744 OA
ENDBRANCH  91  92
ENDBRANCH  59  84
ENDBRANCH  33  34
ENDBRANCH  25  28
ENDBRANCH  23  24
ENDBRANCH  22  23
ENDBRANCH   1  22
TORSDOF 17
ENDMDL
MODEL 3
REMARK VINA RESULT:     -11.0      3.743     10.086
REMARK SMILES COC[C@H]1CCN(C(=O)N2CC[C@H](C(=O)NCCCNC(=O)c3ccc(-c4c5nc(c(-c6c(F)cc(S(=O)(=O)[O-])cc6F)c6ccc([nH]6)c(-c6c(F)cc(S(=O)(=O)[O-])cc6F)c6nc(c(-c7c(F)cc(S(=O)(=O)[O-])cc7F)c7ccc4[nH]7)C=C6)C=C5)cc3)[C@@H]2C)C1
REMARK SMILES IDX 17 1 16 2 14 3 15 4 13 6 10 7 11 8 89 9 12 10 90 11 8 12
REMARK SMILES IDX 9 13 7 14 4 15 5 16 91 17 6 18 3 19 2 20 1 21 18 22 19 23
REMARK SMILES IDX 20 24 21 25 22 27 23 28 24 29 88 30 25 31 87 32 26 33 27 34
REMARK SMILES IDX 28 35 81 36 29 37 86 38 80 39 82 40 30 41 85 42 79 43 78 44
REMARK SMILES IDX 31 46 65 47 44 48 64 49 45 50 48 51 63 52 83 53 46 54 47 55
REMARK SMILES IDX 62 57 84 58 49 59 32 60 33 61 42 62 34 63 35 64 41 65 43 66
REMARK SMILES IDX 36 67 37 68 38 69 39 70 40 71 66 72 67 73 76 74 68 75 69 76
REMARK SMILES IDX 75 77 77 78 70 79 71 80 72 81 73 82 74 83 50 84 51 85 60 86
REMARK SMILES IDX 52 87 53 88 59 89 61 90 54 91 55 92 56 93 57 94 58 95
REMARK H PARENT 16 5 20 26 82 45 48 56
REMARK Flexibility Score: inf
ROOT
ATOM      1  C   UNL A   1      34.684  23.324  24.648  1.00  0.00     0.117 C 
ENDROOT
BRANCH   1   2
ATOM      2  N   UNL A   1      34.660  24.728  24.283  1.00  0.00    -0.356 N 
ATOM      3  C   UNL A   1      33.745  25.701  24.529  1.00  0.00     0.225 C 
ATOM      4  O   UNL A   1      34.046  26.849  24.185  1.00  0.00    -0.275 OA
ATOM      5  H   UNL A   1      35.443  25.028  23.767  1.00  0.00     0.163 HD
BRANCH   3   6
ATOM      6  C   UNL A   1      32.389  25.442  25.170  1.00  0.00     0.102 C 
ATOM      7  N   UNL A   1      30.375  26.507  24.577  1.00  0.00    -0.321 N 
ATOM      8  C   UNL A   1      30.545  26.766  25.994  1.00  0.00     0.122 C 
ATOM      9  C   UNL A   1      31.165  25.328  24.236  1.00  0.00     0.096 C 
ATOM     10  C   UNL A   1      32.018  26.496  26.232  1.00  0.00     0.037 C 
ATOM     11  C   UNL A   1      31.451  25.121  22.752  1.00  0.00     0.032 C 
BRANCH   7  12
ATOM     12  C   UNL A   1      29.242  26.870  23.897  1.00  0.00     0.320 C 
ATOM     13  O   UNL A   1      28.242  26.152  23.887  1.00  0.00    -0.248 OA
BRANCH  12  14
ATOM     14  N   UNL A   1      29.301  28.042  23.179  1.00  0.00    -0.324 N 
ATOM     15  C   UNL A   1      28.447  29.929  22.008  1.00  0.00     0.036 C 
ATOM     16  C   UNL A   1      29.979  29.949  21.999  1.00  0.00     0.029 C 
ATOM     17  C   UNL A   1      28.107  28.859  23.048  1.00  0.00     0.127 C 
ATOM     18  C   UNL A   1      30.325  28.490  22.246  1.00  0.00     0.122 C 
BRANCH  15  19
ATOM     19  C   UNL A   1      27.826  31.293  22.297  1.00  0.00     0.165 C 
BRANCH  19  20
ATOM     20  O   UNL A   1      28.686  32.375  21.943  1.00  0.00    -0.384 OA
ATOM     21  C   UNL A   1      28.883  33.321  22.980  1.00  0.00     0.194 C 
ENDBRANCH  19  20
ENDBRANCH  15  19
ENDBRANCH  12  14
ENDBRANCH   7  12
ENDBRANCH   3   6
ENDBRANCH   1   2
BRANCH   1  22
ATOM     22  C   UNL A   1      36.040  22.671  24.438  1.00  0.00     0.042 C 
BRANCH  22  23
ATOM     23  C   UNL A   1      37.199  23.465  25.025  1.00  0.00     0.118 C 
BRANCH  23  24
ATOM     24  N   UNL A   1      38.354  22.633  25.347  1.00  0.00    -0.352 N 
ATOM     25  C   UNL A   1      39.511  22.935  26.027  1.00  0.00     0.251 C 
ATOM     26  H   UNL A   1      38.296  21.704  25.024  1.00  0.00     0.163 HD
ATOM     27  O   UNL A   1      40.442  22.133  26.027  1.00  0.00    -0.269 OA
BRANCH  25  28
ATOM     28  C   UNL A   1      39.649  24.231  26.724  1.00  0.00     0.039 A 
ATOM     29  C   UNL A   1      39.026  24.407  27.962  1.00  0.00     0.014 A 
ATOM     30  C   UNL A   1      40.404  25.264  26.168  1.00  0.00     0.014 A 
ATOM     31  C   UNL A   1      39.255  25.576  28.692  1.00  0.00     0.010 A 
ATOM     32  C   UNL A   1      40.702  26.387  26.931  1.00  0.00     0.010 A 
ATOM     33  C   UNL A   1      40.146  26.547  28.208  1.00  0.00    -0.014 A 
BRANCH  33  34
ATOM     34  C   UNL A   1      40.554  27.715  29.029  1.00  0.00     0.031 A 
ATOM     35  C   UNL A   1      41.820  27.664  29.840  1.00  0.00     0.074 A 
ATOM     36  C   UNL A   1      39.724  28.774  29.134  1.00  0.00     0.049 A 
ATOM     37  N   UNL A   1      42.261  28.510  30.733  1.00  0.00    -0.248 NA
ATOM     38  C   UNL A   1      42.686  26.491  29.643  1.00  0.00     0.031 C 
ATOM     39  C   UNL A   1      38.444  28.918  28.435  1.00  0.00     0.029 A 
ATOM     40  N   UNL A   1      39.818  29.917  29.886  1.00  0.00    -0.354 N 
ATOM     41  C   UNL A   1      43.442  27.964  31.220  1.00  0.00     0.074 A 
ATOM     42  C   UNL A   1      43.626  26.693  30.555  1.00  0.00     0.031 C 
ATOM     43  C   UNL A   1      37.881  30.086  28.782  1.00  0.00     0.029 A 
ATOM     44  C   UNL A   1      38.731  30.751  29.763  1.00  0.00     0.049 A 
ATOM     45  H   UNL A   1      40.592  30.122  30.460  1.00  0.00     0.167 HD
ATOM     46  C   UNL A   1      44.304  28.486  32.126  1.00  0.00     0.037 A 
ATOM     47  C   UNL A   1      38.438  31.908  30.388  1.00  0.00     0.037 A 
ATOM     48  C   UNL A   1      44.129  29.767  32.760  1.00  0.00     0.049 A 
ATOM     49  C   UNL A   1      39.403  32.460  31.399  1.00  0.00     0.074 A 
ATOM     50  C   UNL A   1      44.985  30.418  33.630  1.00  0.00     0.029 A 
ATOM     51  N   UNL A   1      43.024  30.588  32.595  1.00  0.00    -0.354 N 
ATOM     52  N   UNL A   1      40.547  31.961  31.799  1.00  0.00    -0.248 NA
ATOM     53  C   UNL A   1      39.036  33.726  32.050  1.00  0.00     0.031 C 
ATOM     54  C   UNL A   1      44.378  31.615  34.025  1.00  0.00     0.029 A 
ATOM     55  C   UNL A   1      43.161  31.728  33.368  1.00  0.00     0.049 A 
ATOM     56  H   UNL A   1      42.255  30.391  32.013  1.00  0.00     0.167 HD
ATOM     57  C   UNL A   1      41.046  32.859  32.736  1.00  0.00     0.074 A 
ATOM     58  C   UNL A   1      40.084  33.938  32.834  1.00  0.00     0.031 C 
ATOM     59  C   UNL A   1      42.194  32.793  33.454  1.00  0.00     0.037 A 
BRANCH  46  60
ATOM     60  C   UNL A   1      45.517  27.674  32.482  1.00  0.00     0.058 A 
ATOM     61  C   UNL A   1      46.729  27.823  31.791  1.00  0.00     0.135 A 
ATOM     62  C   UNL A   1      45.479  26.762  33.550  1.00  0.00     0.135 A 
ATOM     63  F   UNL A   1      46.817  28.670  30.753  1.00  0.00    -0.206 F 
ATOM     64  C   UNL A   1      47.855  27.077  32.126  1.00  0.00     0.059 A 
ATOM     65  C   UNL A   1      46.600  26.024  33.920  1.00  0.00     0.059 A 
ATOM     66  F   UNL A   1      44.345  26.580  34.244  1.00  0.00    -0.206 F 
ATOM     67  C   UNL A   1      47.779  26.177  33.192  1.00  0.00     0.060 A 
BRANCH  67  68
ATOM     68  S   UNL A   1      49.249  25.218  33.615  1.00  0.00     0.124 S 
ATOM     69  O   UNL A   1      49.864  26.065  34.633  1.00  0.00    -0.237 OA
ATOM     70  O   UNL A   1      48.675  23.965  34.097  1.00  0.00    -0.237 OA
ATOM     71  O   UNL A   1      49.971  25.129  32.351  1.00  0.00    -0.744 OA
ENDBRANCH  67  68
ENDBRANCH  46  60
BRANCH  47  72
ATOM     72  C   UNL A   1      37.172  32.620  30.071  1.00  0.00     0.058 A 
ATOM     73  C   UNL A   1      35.993  32.339  30.777  1.00  0.00     0.135 A 
ATOM     74  C   UNL A   1      37.121  33.613  29.079  1.00  0.00     0.135 A 
ATOM     75  F   UNL A   1      35.992  31.394  31.730  1.00  0.00    -0.206 F 
ATOM     76  C   UNL A   1      34.805  33.010  30.506  1.00  0.00     0.059 A 
ATOM     77  C   UNL A   1      35.950  34.313  28.807  1.00  0.00     0.059 A 
ATOM     78  F   UNL A   1      38.227  33.932  28.388  1.00  0.00    -0.206 F 
ATOM     79  C   UNL A   1      34.795  33.999  29.522  1.00  0.00     0.060 A 
BRANCH  79  80
ATOM     80  S   UNL A   1      33.265  34.912  29.225  1.00  0.00     0.124 S 
ATOM     81  O   UNL A   1      32.613  34.075  28.225  1.00  0.00    -0.237 OA
ATOM     82  O   UNL A   1      32.652  34.922  30.550  1.00  0.00    -0.237 OA
ATOM     83  O   UNL A   1      33.739  36.210  28.754  1.00  0.00    -0.744 OA
ENDBRANCH  79  80
ENDBRANCH  47  72
BRANCH  59  84
ATOM     84  C   UNL A   1      42.486  33.921  34.400  1.00  0.00     0.058 A 
ATOM     85  C   UNL A   1      42.199  33.817  35.770  1.00  0.00     0.135 A 
ATOM     86  C   UNL A   1      43.129  35.085  33.949  1.00  0.00     0.135 A 
ATOM     87  F   UNL A   1      41.575  32.730  36.249  1.00  0.00    -0.206 F 
ATOM     88  C   UNL A   1      42.536  34.832  36.660  1.00  0.00     0.059 A 
ATOM     89  C   UNL A   1      43.495  36.102  34.824  1.00  0.00     0.059 A 
ATOM     90  F   UNL A   1      43.429  35.228  32.648  1.00  0.00    -0.206 F 
ATOM     91  C   UNL A   1      43.191  35.967  36.178  1.00  0.00     0.060 A 
BRANCH  91  92
ATOM     92  S   UNL A   1      43.678  37.248  37.353  1.00  0.00     0.124 S 
ATOM     93  O   UNL A   1      44.781  36.599  38.054  1.00  0.00    -0.237 OA
ATOM     94  O   UNL A   1      44.048  38.353  36.474  1.00  0.00    -0.237 OA
ATOM     95  O   UNL A   1      42.470  37.461  38.144  1.00  0.00    -0.744 OA
ENDBRANCH  91  92
ENDBRANCH  59  84
ENDBRANCH  33  34
ENDBRANCH  25  28
ENDBRANCH  23  24
ENDBRANCH  22  23
ENDBRANCH   1  22
TORSDOF 17
ENDMDL
