MODEL 1
REMARK VINA RESULT:     -11.6      0.000      0.000
REMARK SMILES O=C(NCCCNC(=O)c1ccc(C[NH2+][C@H]2CCCNC2=O)nc1)c1ccc(-c2c3nc(c(-c4c(F)cc(S(=O)(=O)[O-])cc4F)c4ccc([nH]4)c(-c4c(F)cc(S(=O)(=O)[O-])cc4F)c4nc(c(-c5c(F)cc(S(=O)(=O)[O-])cc5F)c5ccc2[nH]5)C=C4)C=C3)cc1
REMARK SMILES IDX 5 1 4 2 3 3 1 4 2 5 25 7 26 8 90 9 27 10 89 11 28 12 29 13
REMARK SMILES IDX 30 14 83 15 31 16 88 17 82 18 84 19 32 20 87 21 81 22 80 23
REMARK SMILES IDX 33 25 67 26 46 27 66 28 47 29 50 30 65 31 85 32 48 33 49 34
REMARK SMILES IDX 64 36 86 37 51 38 34 39 35 40 44 41 36 42 37 43 43 44 45 45
REMARK SMILES IDX 38 46 39 47 40 48 41 49 42 50 68 51 69 52 78 53 70 54 71 55
REMARK SMILES IDX 77 56 79 57 72 58 73 59 74 60 75 61 76 62 52 63 53 64 62 65
REMARK SMILES IDX 54 66 55 67 61 68 63 69 56 70 57 71 58 72 59 73 60 74 6 75
REMARK SMILES IDX 7 76 8 77 9 79 10 80 11 81 24 82 12 83 23 84 13 85 14 86
REMARK SMILES IDX 15 87 16 90 17 91 21 92 18 93 20 94 22 95 19 96
REMARK H PARENT 3 6 84 24 50 35 7 78 15 88 15 89 20 97
REMARK Flexibility Score: inf
ROOT
ATOM      1  C   UNL A   1      37.444  23.463  25.548  1.00  0.00     0.042 C 
ENDROOT
BRANCH   1   2
ATOM      2  C   UNL A   1      38.374  24.182  26.510  1.00  0.00     0.118 C 
BRANCH   2   3
ATOM      3  N   UNL A   1      39.777  24.069  26.130  1.00  0.00    -0.352 N 
ATOM      4  O   UNL A   1      41.931  24.693  25.936  1.00  0.00    -0.269 OA
ATOM      5  C   UNL A   1      40.857  24.829  26.513  1.00  0.00     0.251 C 
ATOM      6  H   UNL A   1      39.982  23.337  25.504  1.00  0.00     0.163 HD
BRANCH   5   7
ATOM      7  C   UNL A   1      40.708  25.822  27.598  1.00  0.00     0.039 A 
ATOM      8  C   UNL A   1      41.609  26.880  27.713  1.00  0.00     0.014 A 
ATOM      9  C   UNL A   1      39.658  25.694  28.511  1.00  0.00     0.014 A 
ATOM     10  C   UNL A   1      41.579  27.693  28.836  1.00  0.00     0.010 A 
ATOM     11  C   UNL A   1      39.554  26.593  29.576  1.00  0.00     0.010 A 
ATOM     12  C   UNL A   1      40.534  27.580  29.766  1.00  0.00    -0.014 A 
BRANCH  12  13
ATOM     13  C   UNL A   1      40.448  28.568  30.872  1.00  0.00     0.031 A 
ATOM     14  C   UNL A   1      41.341  28.476  32.077  1.00  0.00     0.074 A 
ATOM     15  C   UNL A   1      39.556  29.572  30.759  1.00  0.00     0.049 A 
ATOM     16  N   UNL A   1      41.388  29.259  33.124  1.00  0.00    -0.248 NA
ATOM     17  C   UNL A   1      42.297  27.359  32.121  1.00  0.00     0.031 C 
ATOM     18  C   UNL A   1      38.626  29.750  29.638  1.00  0.00     0.029 A 
ATOM     19  N   UNL A   1      39.287  30.635  31.580  1.00  0.00    -0.354 N 
ATOM     20  C   UNL A   1      42.360  28.723  33.961  1.00  0.00     0.074 A 
ATOM     21  C   UNL A   1      42.858  27.530  33.311  1.00  0.00     0.031 C 
ATOM     22  C   UNL A   1      37.923  30.875  29.821  1.00  0.00     0.029 A 
ATOM     23  C   UNL A   1      38.290  31.455  31.105  1.00  0.00     0.049 A 
ATOM     24  H   UNL A   1      39.761  30.797  32.427  1.00  0.00     0.167 HD
ATOM     25  C   UNL A   1      42.794  29.189  35.158  1.00  0.00     0.037 A 
ATOM     26  C   UNL A   1      37.706  32.536  31.655  1.00  0.00     0.037 A 
ATOM     27  C   UNL A   1      42.287  30.385  35.787  1.00  0.00     0.049 A 
ATOM     28  C   UNL A   1      38.185  33.014  32.993  1.00  0.00     0.074 A 
ATOM     29  C   UNL A   1      42.688  30.964  36.979  1.00  0.00     0.029 A 
ATOM     30  N   UNL A   1      41.261  31.176  35.287  1.00  0.00    -0.354 N 
ATOM     31  N   UNL A   1      39.136  32.518  33.751  1.00  0.00    -0.248 NA
ATOM     32  C   UNL A   1      37.517  34.193  33.554  1.00  0.00     0.031 C 
ATOM     33  C   UNL A   1      41.866  32.068  37.228  1.00  0.00     0.029 A 
ATOM     34  C   UNL A   1      40.995  32.219  36.161  1.00  0.00     0.049 A 
ATOM     35  H   UNL A   1      40.792  31.019  34.435  1.00  0.00     0.167 HD
ATOM     36  C   UNL A   1      39.191  33.337  34.872  1.00  0.00     0.074 A 
ATOM     37  C   UNL A   1      38.192  34.370  34.681  1.00  0.00     0.031 C 
ATOM     38  C   UNL A   1      39.996  33.240  35.959  1.00  0.00     0.037 A 
BRANCH  25  39
ATOM     39  C   UNL A   1      43.849  28.394  35.882  1.00  0.00     0.058 A 
ATOM     40  C   UNL A   1      43.523  27.346  36.757  1.00  0.00     0.135 A 
ATOM     41  C   UNL A   1      45.212  28.658  35.665  1.00  0.00     0.135 A 
ATOM     42  F   UNL A   1      42.237  27.053  37.013  1.00  0.00    -0.206 F 
ATOM     43  C   UNL A   1      44.506  26.612  37.416  1.00  0.00     0.059 A 
ATOM     44  C   UNL A   1      46.213  27.919  36.289  1.00  0.00     0.059 A 
ATOM     45  F   UNL A   1      45.585  29.647  34.836  1.00  0.00    -0.206 F 
ATOM     46  C   UNL A   1      45.849  26.908  37.176  1.00  0.00     0.060 A 
BRANCH  46  47
ATOM     47  S   UNL A   1      47.110  25.953  38.046  1.00  0.00     0.124 S 
ATOM     48  O   UNL A   1      48.120  25.788  37.005  1.00  0.00    -0.237 OA
ATOM     49  O   UNL A   1      47.473  26.842  39.145  1.00  0.00    -0.237 OA
ATOM     50  O   UNL A   1      46.408  24.733  38.436  1.00  0.00    -0.744 OA
ENDBRANCH  46  47
ENDBRANCH  25  39
BRANCH  26  51
ATOM     51  C   UNL A   1      36.593  33.212  30.937  1.00  0.00     0.058 A 
ATOM     52  C   UNL A   1      35.266  33.083  31.368  1.00  0.00     0.135 A 
ATOM     53  C   UNL A   1      36.846  34.037  29.830  1.00  0.00     0.135 A 
ATOM     54  F   UNL A   1      34.974  32.304  32.420  1.00  0.00    -0.206 F 
ATOM     55  C   UNL A   1      34.225  33.737  30.717  1.00  0.00     0.059 A 
ATOM     56  C   UNL A   1      35.828  34.727  29.183  1.00  0.00     0.059 A 
ATOM     57  F   UNL A   1      38.103  34.211  29.392  1.00  0.00    -0.206 F 
ATOM     58  C   UNL A   1      34.517  34.561  29.629  1.00  0.00     0.060 A 
BRANCH  58  59
ATOM     59  S   UNL A   1      33.165  35.447  28.825  1.00  0.00     0.124 S 
ATOM     60  O   UNL A   1      33.892  36.420  28.018  1.00  0.00    -0.237 OA
ATOM     61  O   UNL A   1      32.495  34.379  28.089  1.00  0.00    -0.237 OA
ATOM     62  O   UNL A   1      32.408  35.995  29.946  1.00  0.00    -0.744 OA
ENDBRANCH  58  59
ENDBRANCH  26  51
BRANCH  38  63
ATOM     63  C   UNL A   1      39.851  34.301  37.016  1.00  0.00     0.058 A 
ATOM     64  C   UNL A   1      40.444  35.566  36.883  1.00  0.00     0.135 A 
ATOM     65  C   UNL A   1      39.071  34.060  38.159  1.00  0.00     0.135 A 
ATOM     66  F   UNL A   1      41.209  35.845  35.815  1.00  0.00    -0.206 F 
ATOM     67  C   UNL A   1      40.291  36.546  37.857  1.00  0.00     0.059 A 
ATOM     68  C   UNL A   1      38.879  35.036  39.131  1.00  0.00     0.059 A 
ATOM     69  F   UNL A   1      38.476  32.869  38.334  1.00  0.00    -0.206 F 
ATOM     70  C   UNL A   1      39.503  36.273  38.976  1.00  0.00     0.060 A 
BRANCH  70  71
ATOM     71  S   UNL A   1      39.282  37.567  40.215  1.00  0.00     0.124 S 
ATOM     72  O   UNL A   1      40.622  38.143  40.281  1.00  0.00    -0.237 OA
ATOM     73  O   UNL A   1      38.257  38.409  39.607  1.00  0.00    -0.237 OA
ATOM     74  O   UNL A   1      38.857  36.832  41.403  1.00  0.00    -0.744 OA
ENDBRANCH  70  71
ENDBRANCH  38  63
ENDBRANCH  12  13
ENDBRANCH   5   7
ENDBRANCH   2   3
ENDBRANCH   1   2
BRANCH   1  75
ATOM     75  C   UNL A   1      36.009  23.379  26.038  1.00  0.00     0.118 C 
BRANCH  75  76
ATOM     76  N   UNL A   1      35.158  22.629  25.123  1.00  0.00    -0.352 N 
ATOM     77  C   UNL A   1      33.992  23.014  24.515  1.00  0.00     0.252 C 
ATOM     78  H   UNL A   1      35.465  21.717  24.912  1.00  0.00     0.163 HD
ATOM     79  O   UNL A   1      33.287  22.192  23.935  1.00  0.00    -0.269 OA
BRANCH  77  80
ATOM     80  C   UNL A   1      33.588  24.422  24.560  1.00  0.00     0.058 A 
ATOM     81  C   UNL A   1      32.742  24.910  25.555  1.00  0.00     0.017 A 
ATOM     82  C   UNL A   1      34.057  25.292  23.593  1.00  0.00     0.125 A 
ATOM     83  C   UNL A   1      32.330  26.234  25.498  1.00  0.00     0.030 A 
ATOM     84  N   UNL A   1      33.673  26.587  23.518  1.00  0.00    -0.255 NA
ATOM     85  C   UNL A   1      32.805  27.037  24.463  1.00  0.00     0.094 A 
BRANCH  85  86
ATOM     86  C   UNL A   1      32.360  28.482  24.370  1.00  0.00     0.318 C 
BRANCH  86  87
ATOM     87  N   UNL A   1      33.294  29.378  25.067  1.00  0.00    -0.331 N 
ATOM     88  H   UNL A   1      33.191  30.312  24.669  1.00  0.00     0.347 HD
ATOM     89  H   UNL A   1      34.223  28.979  24.933  1.00  0.00     0.347 HD
BRANCH  87  90
ATOM     90  C   UNL A   1      33.098  29.478  26.528  1.00  0.00     0.272 C 
ATOM     91  C   UNL A   1      34.265  28.899  27.335  1.00  0.00     0.077 C 
ATOM     92  C   UNL A   1      32.712  30.903  26.954  1.00  0.00     0.278 C 
ATOM     93  C   UNL A   1      35.415  29.877  27.514  1.00  0.00     0.028 C 
ATOM     94  N   UNL A   1      33.680  31.670  27.541  1.00  0.00    -0.351 N 
ATOM     95  O   UNL A   1      31.624  31.402  26.666  1.00  0.00    -0.268 OA
ATOM     96  C   UNL A   1      34.915  31.181  28.113  1.00  0.00     0.116 C 
ATOM     97  H   UNL A   1      33.521  32.641  27.579  1.00  0.00     0.163 HD
ENDBRANCH  87  90
ENDBRANCH  86  87
ENDBRANCH  85  86
ENDBRANCH  77  80
ENDBRANCH  75  76
ENDBRANCH   1  75
TORSDOF 16
ENDMDL
MODEL 2
REMARK VINA RESULT:     -11.2      1.259      2.211
REMARK SMILES O=C(NCCCNC(=O)c1ccc(C[NH2+][C@H]2CCCNC2=O)nc1)c1ccc(-c2c3nc(c(-c4c(F)cc(S(=O)(=O)[O-])cc4F)c4ccc([nH]4)c(-c4c(F)cc(S(=O)(=O)[O-])cc4F)c4nc(c(-c5c(F)cc(S(=O)(=O)[O-])cc5F)c5ccc2[nH]5)C=C4)C=C3)cc1
REMARK SMILES IDX 5 1 4 2 3 3 1 4 2 5 25 7 26 8 90 9 27 10 89 11 28 12 29 13
REMARK SMILES IDX 30 14 83 15 31 16 88 17 82 18 84 19 32 20 87 21 81 22 80 23
REMARK SMILES IDX 33 25 67 26 46 27 66 28 47 29 50 30 65 31 85 32 48 33 49 34
REMARK SMILES IDX 64 36 86 37 51 38 34 39 35 40 44 41 36 42 37 43 43 44 45 45
REMARK SMILES IDX 38 46 39 47 40 48 41 49 42 50 68 51 69 52 78 53 70 54 71 55
REMARK SMILES IDX 77 56 79 57 72 58 73 59 74 60 75 61 76 62 52 63 53 64 62 65
REMARK SMILES IDX 54 66 55 67 61 68 63 69 56 70 57 71 58 72 59 73 60 74 6 75
REMARK SMILES IDX 7 76 8 77 9 79 10 80 11 81 24 82 12 83 23 84 13 85 14 86
REMARK SMILES IDX 15 87 16 90 17 91 21 92 18 93 20 94 22 95 19 96
REMARK H PARENT 3 6 84 24 50 35 7 78 15 88 15 89 20 97
REMARK Flexibility Score: inf
ROOT
ATOM      1  C   UNL A   1      37.350  23.561  25.524  1.00  0.00     0.042 C 
ENDROOT
BRANCH   1   2
ATOM      2  C   UNL A   1      38.309  24.131  26.554  1.00  0.00     0.118 C 
BRANCH   2   3
ATOM      3  N   UNL A   1      39.701  24.069  26.125  1.00  0.00    -0.352 N 
ATOM      4  O   UNL A   1      41.822  24.772  25.853  1.00  0.00    -0.269 OA
ATOM      5  C   UNL A   1      40.765  24.869  26.468  1.00  0.00     0.251 C 
ATOM      6  H   UNL A   1      39.911  23.343  25.493  1.00  0.00     0.163 HD
BRANCH   5   7
ATOM      7  C   UNL A   1      40.618  25.859  27.556  1.00  0.00     0.039 A 
ATOM      8  C   UNL A   1      41.429  26.993  27.591  1.00  0.00     0.014 A 
ATOM      9  C   UNL A   1      39.662  25.650  28.554  1.00  0.00     0.014 A 
ATOM     10  C   UNL A   1      41.419  27.814  28.709  1.00  0.00     0.010 A 
ATOM     11  C   UNL A   1      39.566  26.550  29.619  1.00  0.00     0.010 A 
ATOM     12  C   UNL A   1      40.468  27.621  29.722  1.00  0.00    -0.014 A 
BRANCH  12  13
ATOM     13  C   UNL A   1      40.385  28.611  30.827  1.00  0.00     0.031 A 
ATOM     14  C   UNL A   1      41.284  28.524  32.027  1.00  0.00     0.074 A 
ATOM     15  C   UNL A   1      39.491  29.614  30.716  1.00  0.00     0.049 A 
ATOM     16  N   UNL A   1      41.335  29.309  33.073  1.00  0.00    -0.248 NA
ATOM     17  C   UNL A   1      42.242  27.409  32.069  1.00  0.00     0.031 C 
ATOM     18  C   UNL A   1      38.556  29.788  29.599  1.00  0.00     0.029 A 
ATOM     19  N   UNL A   1      39.224  30.679  31.536  1.00  0.00    -0.354 N 
ATOM     20  C   UNL A   1      42.312  28.777  33.906  1.00  0.00     0.074 A 
ATOM     21  C   UNL A   1      42.810  27.583  33.255  1.00  0.00     0.031 C 
ATOM     22  C   UNL A   1      37.852  30.913  29.783  1.00  0.00     0.029 A 
ATOM     23  C   UNL A   1      38.223  31.495  31.064  1.00  0.00     0.049 A 
ATOM     24  H   UNL A   1      39.703  30.843  32.380  1.00  0.00     0.167 HD
ATOM     25  C   UNL A   1      42.752  29.247  35.099  1.00  0.00     0.037 A 
ATOM     26  C   UNL A   1      37.641  32.577  31.615  1.00  0.00     0.037 A 
ATOM     27  C   UNL A   1      42.246  30.442  35.729  1.00  0.00     0.049 A 
ATOM     28  C   UNL A   1      38.126  33.059  32.950  1.00  0.00     0.074 A 
ATOM     29  C   UNL A   1      42.652  31.025  36.917  1.00  0.00     0.029 A 
ATOM     30  N   UNL A   1      41.216  31.231  35.231  1.00  0.00    -0.354 N 
ATOM     31  N   UNL A   1      39.081  32.566  33.703  1.00  0.00    -0.248 NA
ATOM     32  C   UNL A   1      37.459  34.238  33.511  1.00  0.00     0.031 C 
ATOM     33  C   UNL A   1      41.829  32.128  37.168  1.00  0.00     0.029 A 
ATOM     34  C   UNL A   1      40.953  32.275  36.104  1.00  0.00     0.049 A 
ATOM     35  H   UNL A   1      40.743  31.071  34.383  1.00  0.00     0.167 HD
ATOM     36  C   UNL A   1      39.141  33.387  34.822  1.00  0.00     0.074 A 
ATOM     37  C   UNL A   1      38.139  34.418  34.634  1.00  0.00     0.031 C 
ATOM     38  C   UNL A   1      39.951  33.294  35.905  1.00  0.00     0.037 A 
BRANCH  25  39
ATOM     39  C   UNL A   1      43.812  28.455  35.820  1.00  0.00     0.058 A 
ATOM     40  C   UNL A   1      45.181  28.712  35.647  1.00  0.00     0.135 A 
ATOM     41  C   UNL A   1      43.450  27.448  36.731  1.00  0.00     0.135 A 
ATOM     42  F   UNL A   1      45.589  29.655  34.781  1.00  0.00    -0.206 F 
ATOM     43  C   UNL A   1      46.153  27.979  36.323  1.00  0.00     0.059 A 
ATOM     44  C   UNL A   1      44.402  26.722  37.442  1.00  0.00     0.059 A 
ATOM     45  F   UNL A   1      42.156  27.159  36.941  1.00  0.00    -0.206 F 
ATOM     46  C   UNL A   1      45.753  26.985  37.217  1.00  0.00     0.060 A 
BRANCH  46  47
ATOM     47  S   UNL A   1      47.027  26.038  38.079  1.00  0.00     0.124 S 
ATOM     48  O   UNL A   1      48.175  26.226  37.197  1.00  0.00    -0.237 OA
ATOM     49  O   UNL A   1      47.101  26.715  39.368  1.00  0.00    -0.237 OA
ATOM     50  O   UNL A   1      46.481  24.684  38.115  1.00  0.00    -0.744 OA
ENDBRANCH  46  47
ENDBRANCH  25  39
BRANCH  26  51
ATOM     51  C   UNL A   1      36.523  33.250  30.901  1.00  0.00     0.058 A 
ATOM     52  C   UNL A   1      35.200  33.132  31.347  1.00  0.00     0.135 A 
ATOM     53  C   UNL A   1      36.768  34.060  29.781  1.00  0.00     0.135 A 
ATOM     54  F   UNL A   1      34.916  32.368  32.413  1.00  0.00    -0.206 F 
ATOM     55  C   UNL A   1      34.155  33.783  30.700  1.00  0.00     0.059 A 
ATOM     56  C   UNL A   1      35.745  34.747  29.137  1.00  0.00     0.059 A 
ATOM     57  F   UNL A   1      38.020  34.223  29.327  1.00  0.00    -0.206 F 
ATOM     58  C   UNL A   1      34.439  34.593  29.599  1.00  0.00     0.060 A 
BRANCH  58  59
ATOM     59  S   UNL A   1      33.082  35.476  28.799  1.00  0.00     0.124 S 
ATOM     60  O   UNL A   1      32.475  34.417  28.001  1.00  0.00    -0.237 OA
ATOM     61  O   UNL A   1      32.304  35.940  29.944  1.00  0.00    -0.237 OA
ATOM     62  O   UNL A   1      33.761  36.526  28.046  1.00  0.00    -0.744 OA
ENDBRANCH  58  59
ENDBRANCH  26  51
BRANCH  38  63
ATOM     63  C   UNL A   1      39.810  34.357  36.961  1.00  0.00     0.058 A 
ATOM     64  C   UNL A   1      38.995  34.177  38.090  1.00  0.00     0.135 A 
ATOM     65  C   UNL A   1      40.536  35.556  36.861  1.00  0.00     0.135 A 
ATOM     66  F   UNL A   1      38.271  33.055  38.229  1.00  0.00    -0.206 F 
ATOM     67  C   UNL A   1      38.884  35.158  39.069  1.00  0.00     0.059 A 
ATOM     68  C   UNL A   1      40.464  36.537  37.844  1.00  0.00     0.059 A 
ATOM     69  F   UNL A   1      41.335  35.776  35.805  1.00  0.00    -0.206 F 
ATOM     70  C   UNL A   1      39.626  36.333  38.939  1.00  0.00     0.060 A 
BRANCH  70  71
ATOM     71  S   UNL A   1      39.502  37.582  40.237  1.00  0.00     0.124 S 
ATOM     72  O   UNL A   1      38.991  36.794  41.355  1.00  0.00    -0.237 OA
ATOM     73  O   UNL A   1      40.881  38.041  40.360  1.00  0.00    -0.237 OA
ATOM     74  O   UNL A   1      38.570  38.558  39.681  1.00  0.00    -0.744 OA
ENDBRANCH  70  71
ENDBRANCH  38  63
ENDBRANCH  12  13
ENDBRANCH   5   7
ENDBRANCH   2   3
ENDBRANCH   1   2
BRANCH   1  75
ATOM     75  C   UNL A   1      35.988  23.204  26.094  1.00  0.00     0.118 C 
BRANCH  75  76
ATOM     76  N   UNL A   1      35.537  21.887  25.658  1.00  0.00    -0.352 N 
ATOM     77  C   UNL A   1      34.442  21.556  24.906  1.00  0.00     0.252 C 
ATOM     78  H   UNL A   1      36.100  21.132  25.944  1.00  0.00     0.163 HD
ATOM     79  O   UNL A   1      34.087  20.384  24.800  1.00  0.00    -0.269 OA
BRANCH  77  80
ATOM     80  C   UNL A   1      33.689  22.612  24.224  1.00  0.00     0.058 A 
ATOM     81  C   UNL A   1      34.063  23.086  22.968  1.00  0.00     0.017 A 
ATOM     82  C   UNL A   1      32.576  23.155  24.840  1.00  0.00     0.125 A 
ATOM     83  C   UNL A   1      33.359  24.143  22.410  1.00  0.00     0.030 A 
ATOM     84  N   UNL A   1      31.871  24.183  24.316  1.00  0.00    -0.255 NA
ATOM     85  C   UNL A   1      32.280  24.672  23.115  1.00  0.00     0.094 A 
BRANCH  85  86
ATOM     86  C   UNL A   1      31.502  25.835  22.533  1.00  0.00     0.318 C 
BRANCH  86  87
ATOM     87  N   UNL A   1      30.534  26.372  23.500  1.00  0.00    -0.331 N 
ATOM     88  H   UNL A   1      30.584  25.802  24.346  1.00  0.00     0.347 HD
ATOM     89  H   UNL A   1      29.626  26.339  23.040  1.00  0.00     0.347 HD
BRANCH  87  90
ATOM     90  C   UNL A   1      30.748  27.782  23.887  1.00  0.00     0.272 C 
ATOM     91  C   UNL A   1      31.850  27.959  24.936  1.00  0.00     0.077 C 
ATOM     92  C   UNL A   1      30.927  28.688  22.659  1.00  0.00     0.278 C 
ATOM     93  C   UNL A   1      33.247  28.007  24.339  1.00  0.00     0.028 C 
ATOM     94  N   UNL A   1      32.194  29.105  22.361  1.00  0.00    -0.351 N 
ATOM     95  O   UNL A   1      30.003  28.930  21.882  1.00  0.00    -0.268 OA
ATOM     96  C   UNL A   1      33.328  29.073  23.259  1.00  0.00     0.116 C 
ATOM     97  H   UNL A   1      32.349  29.461  21.456  1.00  0.00     0.163 HD
ENDBRANCH  87  90
ENDBRANCH  86  87
ENDBRANCH  85  86
ENDBRANCH  77  80
ENDBRANCH  75  76
ENDBRANCH   1  75
TORSDOF 16
ENDMDL
MODEL 3
REMARK VINA RESULT:     -11.1      3.929      6.563
REMARK SMILES O=C(NCCCNC(=O)c1ccc(C[NH2+][C@H]2CCCNC2=O)nc1)c1ccc(-c2c3nc(c(-c4c(F)cc(S(=O)(=O)[O-])cc4F)c4ccc([nH]4)c(-c4c(F)cc(S(=O)(=O)[O-])cc4F)c4nc(c(-c5c(F)cc(S(=O)(=O)[O-])cc5F)c5ccc2[nH]5)C=C4)C=C3)cc1
REMARK SMILES IDX 5 1 4 2 3 3 1 4 2 5 25 7 26 8 90 9 27 10 89 11 28 12 29 13
REMARK SMILES IDX 30 14 83 15 31 16 88 17 82 18 84 19 32 20 87 21 81 22 80 23
REMARK SMILES IDX 33 25 67 26 46 27 66 28 47 29 50 30 65 31 85 32 48 33 49 34
REMARK SMILES IDX 64 36 86 37 51 38 34 39 35 40 44 41 36 42 37 43 43 44 45 45
REMARK SMILES IDX 38 46 39 47 40 48 41 49 42 50 68 51 69 52 78 53 70 54 71 55
REMARK SMILES IDX 77 56 79 57 72 58 73 59 74 60 75 61 76 62 52 63 53 64 62 65
REMARK SMILES IDX 54 66 55 67 61 68 63 69 56 70 57 71 58 72 59 73 60 74 6 75
REMARK SMILES IDX 7 76 8 77 9 79 10 80 11 81 24 82 12 83 23 84 13 85 14 86
REMARK SMILES IDX 15 87 16 90 17 91 21 92 18 93 20 94 22 95 19 96
REMARK H PARENT 3 6 84 24 50 35 7 78 15 88 15 89 20 97
REMARK Flexibility Score: inf
ROOT
ATOM      1  C   UNL A   1      40.863  20.129  26.143  1.00  0.00     0.042 C 
ENDROOT
BRANCH   1   2
ATOM      2  C   UNL A   1      40.409  21.516  26.563  1.00  0.00     0.118 C 
BRANCH   2   3
ATOM      3  N   UNL A   1      39.254  21.986  25.807  1.00  0.00    -0.352 N 
ATOM      4  O   UNL A   1      37.516  23.320  25.289  1.00  0.00    -0.269 OA
ATOM      5  C   UNL A   1      38.584  23.184  25.878  1.00  0.00     0.251 C 
ATOM      6  H   UNL A   1      38.900  21.347  25.146  1.00  0.00     0.163 HD
BRANCH   5   7
ATOM      7  C   UNL A   1      39.142  24.291  26.684  1.00  0.00     0.039 A 
ATOM      8  C   UNL A   1      38.820  24.411  28.035  1.00  0.00     0.014 A 
ATOM      9  C   UNL A   1      39.995  25.220  26.082  1.00  0.00     0.014 A 
ATOM     10  C   UNL A   1      39.189  25.550  28.734  1.00  0.00     0.010 A 
ATOM     11  C   UNL A   1      40.471  26.304  26.825  1.00  0.00     0.010 A 
ATOM     12  C   UNL A   1      40.044  26.496  28.149  1.00  0.00    -0.014 A 
BRANCH  12  13
ATOM     13  C   UNL A   1      40.544  27.622  28.978  1.00  0.00     0.031 A 
ATOM     14  C   UNL A   1      41.913  27.595  29.596  1.00  0.00     0.074 A 
ATOM     15  C   UNL A   1      39.741  28.692  29.147  1.00  0.00     0.049 A 
ATOM     16  N   UNL A   1      42.493  28.498  30.344  1.00  0.00    -0.248 NA
ATOM     17  C   UNL A   1      42.735  26.399  29.356  1.00  0.00     0.031 C 
ATOM     18  C   UNL A   1      38.384  28.820  28.605  1.00  0.00     0.029 A 
ATOM     19  N   UNL A   1      39.943  29.875  29.808  1.00  0.00    -0.354 N 
ATOM     20  C   UNL A   1      43.737  27.976  30.681  1.00  0.00     0.074 A 
ATOM     21  C   UNL A   1      43.815  26.662  30.078  1.00  0.00     0.031 C 
ATOM     22  C   UNL A   1      37.894  30.027  28.917  1.00  0.00     0.029 A 
ATOM     23  C   UNL A   1      38.864  30.726  29.748  1.00  0.00     0.049 A 
ATOM     24  H   UNL A   1      40.778  30.095  30.279  1.00  0.00     0.167 HD
ATOM     25  C   UNL A   1      44.719  28.545  31.422  1.00  0.00     0.037 A 
ATOM     26  C   UNL A   1      38.659  31.925  30.324  1.00  0.00     0.037 A 
ATOM     27  C   UNL A   1      44.623  29.859  32.012  1.00  0.00     0.049 A 
ATOM     28  C   UNL A   1      39.750  32.520  31.163  1.00  0.00     0.074 A 
ATOM     29  C   UNL A   1      45.577  30.542  32.746  1.00  0.00     0.029 A 
ATOM     30  N   UNL A   1      43.506  30.682  31.947  1.00  0.00    -0.354 N 
ATOM     31  N   UNL A   1      40.937  32.030  31.436  1.00  0.00    -0.248 NA
ATOM     32  C   UNL A   1      39.480  33.825  31.774  1.00  0.00     0.031 C 
ATOM     33  C   UNL A   1      45.016  31.750  33.176  1.00  0.00     0.029 A 
ATOM     34  C   UNL A   1      43.736  31.852  32.655  1.00  0.00     0.049 A 
ATOM     35  H   UNL A   1      42.673  30.466  31.469  1.00  0.00     0.167 HD
ATOM     36  C   UNL A   1      41.562  32.976  32.237  1.00  0.00     0.074 A 
ATOM     37  C   UNL A   1      40.629  34.075  32.386  1.00  0.00     0.031 C 
ATOM     38  C   UNL A   1      42.796  32.938  32.797  1.00  0.00     0.037 A 
BRANCH  25  39
ATOM     39  C   UNL A   1      45.972  27.744  31.665  1.00  0.00     0.058 A 
ATOM     40  C   UNL A   1      46.096  26.866  32.753  1.00  0.00     0.135 A 
ATOM     41  C   UNL A   1      47.052  27.826  30.770  1.00  0.00     0.135 A 
ATOM     42  F   UNL A   1      45.102  26.753  33.649  1.00  0.00    -0.206 F 
ATOM     43  C   UNL A   1      47.255  26.125  32.964  1.00  0.00     0.059 A 
ATOM     44  C   UNL A   1      48.210  27.072  30.943  1.00  0.00     0.059 A 
ATOM     45  F   UNL A   1      46.990  28.646  29.708  1.00  0.00    -0.206 F 
ATOM     46  C   UNL A   1      48.308  26.236  32.054  1.00  0.00     0.060 A 
BRANCH  46  47
ATOM     47  S   UNL A   1      49.808  25.275  32.349  1.00  0.00     0.124 S 
ATOM     48  O   UNL A   1      50.153  24.853  30.994  1.00  0.00    -0.237 OA
ATOM     49  O   UNL A   1      50.698  26.261  32.951  1.00  0.00    -0.237 OA
ATOM     50  O   UNL A   1      49.361  24.209  33.241  1.00  0.00    -0.744 OA
ENDBRANCH  46  47
ENDBRANCH  25  39
BRANCH  26  51
ATOM     51  C   UNL A   1      37.356  32.615  30.134  1.00  0.00     0.058 A 
ATOM     52  C   UNL A   1      36.286  32.402  31.013  1.00  0.00     0.135 A 
ATOM     53  C   UNL A   1      37.174  33.537  29.091  1.00  0.00     0.135 A 
ATOM     54  F   UNL A   1      36.411  31.530  32.025  1.00  0.00    -0.206 F 
ATOM     55  C   UNL A   1      35.074  33.068  30.857  1.00  0.00     0.059 A 
ATOM     56  C   UNL A   1      35.985  34.239  28.934  1.00  0.00     0.059 A 
ATOM     57  F   UNL A   1      38.175  33.793  28.236  1.00  0.00    -0.206 F 
ATOM     58  C   UNL A   1      34.935  33.989  29.817  1.00  0.00     0.060 A 
BRANCH  58  59
ATOM     59  S   UNL A   1      33.378  34.886  29.656  1.00  0.00     0.124 S 
ATOM     60  O   UNL A   1      33.834  36.176  29.153  1.00  0.00    -0.237 OA
ATOM     61  O   UNL A   1      32.642  34.054  28.708  1.00  0.00    -0.237 OA
ATOM     62  O   UNL A   1      32.848  34.889  31.016  1.00  0.00    -0.744 OA
ENDBRANCH  58  59
ENDBRANCH  26  51
BRANCH  38  63
ATOM     63  C   UNL A   1      43.223  34.136  33.601  1.00  0.00     0.058 A 
ATOM     64  C   UNL A   1      43.819  35.256  33.001  1.00  0.00     0.135 A 
ATOM     65  C   UNL A   1      42.992  34.179  34.986  1.00  0.00     0.135 A 
ATOM     66  F   UNL A   1      44.073  35.263  31.682  1.00  0.00    -0.206 F 
ATOM     67  C   UNL A   1      44.195  36.366  33.750  1.00  0.00     0.059 A 
ATOM     68  C   UNL A   1      43.330  35.292  35.748  1.00  0.00     0.059 A 
ATOM     69  F   UNL A   1      42.418  33.137  35.609  1.00  0.00    -0.206 F 
ATOM     70  C   UNL A   1      43.942  36.377  35.122  1.00  0.00     0.060 A 
BRANCH  70  71
ATOM     71  S   UNL A   1      44.401  37.840  36.075  1.00  0.00     0.124 S 
ATOM     72  O   UNL A   1      43.624  37.651  37.296  1.00  0.00    -0.237 OA
ATOM     73  O   UNL A   1      45.845  37.683  36.210  1.00  0.00    -0.237 OA
ATOM     74  O   UNL A   1      43.973  38.947  35.225  1.00  0.00    -0.744 OA
ENDBRANCH  70  71
ENDBRANCH  38  63
ENDBRANCH  12  13
ENDBRANCH   5   7
ENDBRANCH   2   3
ENDBRANCH   1   2
BRANCH   1  75
ATOM     75  C   UNL A   1      42.276  19.792  26.584  1.00  0.00     0.118 C 
BRANCH  75  76
ATOM     76  N   UNL A   1      43.148  19.489  25.455  1.00  0.00    -0.352 N 
ATOM     77  C   UNL A   1      44.000  20.319  24.775  1.00  0.00     0.252 C 
ATOM     78  H   UNL A   1      43.120  18.558  25.138  1.00  0.00     0.163 HD
ATOM     79  O   UNL A   1      44.509  19.962  23.716  1.00  0.00    -0.269 OA
BRANCH  77  80
ATOM     80  C   UNL A   1      44.303  21.645  25.321  1.00  0.00     0.058 A 
ATOM     81  C   UNL A   1      43.465  22.738  25.102  1.00  0.00     0.017 A 
ATOM     82  C   UNL A   1      45.448  21.820  26.076  1.00  0.00     0.125 A 
ATOM     83  C   UNL A   1      43.847  23.984  25.576  1.00  0.00     0.030 A 
ATOM     84  N   UNL A   1      45.840  23.023  26.552  1.00  0.00    -0.255 NA
ATOM     85  C   UNL A   1      45.042  24.091  26.285  1.00  0.00     0.094 A 
BRANCH  85  86
ATOM     86  C   UNL A   1      45.488  25.443  26.803  1.00  0.00     0.318 C 
BRANCH  86  87
ATOM     87  N   UNL A   1      46.172  26.220  25.760  1.00  0.00    -0.331 N 
ATOM     88  H   UNL A   1      46.391  25.588  24.988  1.00  0.00     0.347 HD
ATOM     89  H   UNL A   1      46.998  26.622  26.202  1.00  0.00     0.347 HD
BRANCH  87  90
ATOM     90  C   UNL A   1      45.402  27.358  25.215  1.00  0.00     0.272 C 
ATOM     91  C   UNL A   1      44.275  27.822  26.144  1.00  0.00     0.077 C 
ATOM     92  C   UNL A   1      46.321  28.499  24.755  1.00  0.00     0.278 C 
ATOM     93  C   UNL A   1      44.746  28.778  27.227  1.00  0.00     0.028 C 
ATOM     94  N   UNL A   1      46.410  29.600  25.561  1.00  0.00    -0.351 N 
ATOM     95  O   UNL A   1      47.059  28.394  23.776  1.00  0.00    -0.268 OA
ATOM     96  C   UNL A   1      45.485  29.955  26.614  1.00  0.00     0.116 C 
ATOM     97  H   UNL A   1      47.172  30.206  25.410  1.00  0.00     0.163 HD
ENDBRANCH  87  90
ENDBRANCH  86  87
ENDBRANCH  85  86
ENDBRANCH  77  80
ENDBRANCH  75  76
ENDBRANCH   1  75
TORSDOF 16
ENDMDL
