MODEL 1
REMARK VINA RESULT:     -13.4      0.000      0.000
REMARK SMILES C[C@@H](Oc1ccc(/C=C2\C(=O)[NH+]=C(NCCCNC(=O)c3ccc(-c4c5nc(c(-c6c(F)cc(S(=O)(=O)[O-])cc6F)c6ccc([nH]6)c(-c6c(F)cc(S(=O)(=O)[O-])cc6F)c6nc(c(-c7c(F)cc(S(=O)(=O)[O-])cc7F)c7ccc4[nH]7)C=C6)C=C5)cc3)N(c3ccc4c(c3)OCO4)C2=O)cc1)C(=O)[O-]
REMARK SMILES IDX 16 1 15 2 14 3 8 4 9 5 10 6 97 7 11 8 12 9 87 10 98 11 13 12
REMARK SMILES IDX 7 15 4 16 5 17 100 18 6 19 99 20 3 21 2 22 1 23 101 24
REMARK SMILES IDX 102 25 103 26 88 27 89 28 93 29 90 30 92 31 91 32 94 33
REMARK SMILES IDX 96 34 95 35 17 36 18 37 19 38 20 40 21 41 22 42 86 43 23 44
REMARK SMILES IDX 85 45 24 46 25 47 26 48 79 49 27 50 84 51 78 52 80 53 28 54
REMARK SMILES IDX 83 55 77 56 76 57 29 59 63 60 42 61 62 62 43 63 46 64 61 65
REMARK SMILES IDX 81 66 44 67 45 68 60 70 82 71 47 72 30 73 31 74 40 75 32 76
REMARK SMILES IDX 33 77 39 78 41 79 34 80 35 81 36 82 37 83 38 84 64 85 65 86
REMARK SMILES IDX 74 87 66 88 67 89 73 90 75 91 68 92 69 93 70 94 71 95 72 96
REMARK SMILES IDX 48 97 49 98 58 99 50 100 51 101 57 102 59 103 52 104 53 105
REMARK SMILES IDX 54 106 55 107 56 108
REMARK H PARENT 12 13 14 14 18 39 80 58 46 69
REMARK Flexibility Score: inf
ROOT
ATOM      1  C   UNL A   1      37.578  23.368  25.498  1.00  0.00     0.059 C 
ENDROOT
BRANCH   1   2
ATOM      2  C   UNL A   1      36.334  24.235  25.376  1.00  0.00     0.199 C 
BRANCH   2   3
ATOM      3  N   UNL A   1      35.142  23.415  25.261  1.00  0.00    -0.277 N 
ATOM      4  C   UNL A   1      30.552  25.448  23.615  1.00  0.00     0.031 C 
ATOM      5  C   UNL A   1      31.468  24.946  24.463  1.00  0.00     0.138 C 
ATOM      6  C   UNL A   1      32.412  25.714  25.291  1.00  0.00     0.321 C 
ATOM      7  C   UNL A   1      31.562  23.477  24.564  1.00  0.00     0.328 C 
ATOM      8  O   UNL A   1      32.094  26.750  25.851  1.00  0.00    -0.250 OA
ATOM      9  N   UNL A   1      33.669  25.182  25.343  1.00  0.00    -0.210 N 
ATOM     10  N   UNL A   1      32.811  23.026  24.977  1.00  0.00    -0.162 N 
ATOM     11  O   UNL A   1      30.610  22.757  24.259  1.00  0.00    -0.249 OA
ATOM     12  C   UNL A   1      33.862  23.907  25.215  1.00  0.00     0.366 C 
ATOM     13  H   UNL A   1      34.441  25.777  25.481  1.00  0.00     0.270 HD
ATOM     14  H   UNL A   1      35.261  22.439  25.212  1.00  0.00     0.260 HD
BRANCH   4  15
ATOM     15  C   UNL A   1      30.290  26.845  23.238  1.00  0.00    -0.024 A 
ATOM     16  C   UNL A   1      29.969  29.560  22.576  1.00  0.00     0.120 A 
ATOM     17  C   UNL A   1      28.925  28.858  23.170  1.00  0.00     0.047 A 
ATOM     18  C   UNL A   1      31.190  28.929  22.362  1.00  0.00     0.047 A 
ATOM     19  C   UNL A   1      29.091  27.512  23.513  1.00  0.00     0.012 A 
ATOM     20  C   UNL A   1      31.345  27.577  22.677  1.00  0.00     0.012 A 
BRANCH  16  21
ATOM     21  O   UNL A   1      29.800  30.898  22.364  1.00  0.00    -0.485 OA
BRANCH  21  22
ATOM     22  C   UNL A   1      28.449  31.291  22.084  1.00  0.00     0.216 C 
ATOM     23  C   UNL A   1      28.019  30.883  20.678  1.00  0.00     0.059 C 
BRANCH  22  24
ATOM     24  C   UNL A   1      28.368  32.811  22.158  1.00  0.00     0.082 C 
ATOM     25  O   UNL A   1      28.815  33.509  23.057  1.00  0.00    -0.546 OA
ATOM     26  O   UNL A   1      27.646  33.377  21.167  1.00  0.00    -0.546 OA
ENDBRANCH  22  24
ENDBRANCH  21  22
ENDBRANCH  16  21
ENDBRANCH   4  15
BRANCH  10  27
ATOM     27  C   UNL A   1      33.002  21.620  24.996  1.00  0.00     0.115 A 
ATOM     28  C   UNL A   1      33.234  20.955  26.218  1.00  0.00     0.048 A 
ATOM     29  C   UNL A   1      32.842  20.902  23.805  1.00  0.00     0.094 A 
ATOM     30  C   UNL A   1      33.246  19.555  26.264  1.00  0.00     0.054 A 
ATOM     31  C   UNL A   1      32.848  19.530  23.888  1.00  0.00     0.169 A 
ATOM     32  C   UNL A   1      33.026  18.875  25.084  1.00  0.00     0.166 A 
ATOM     33  O   UNL A   1      32.625  18.677  22.853  1.00  0.00    -0.453 OA
ATOM     34  O   UNL A   1      32.911  17.526  24.945  1.00  0.00    -0.454 OA
ATOM     35  C   UNL A   1      32.454  17.443  23.578  1.00  0.00     0.468 C 
ENDBRANCH  10  27
ENDBRANCH   2   3
ENDBRANCH   1   2
BRANCH   1  36
ATOM     36  C   UNL A   1      38.521  23.801  26.617  1.00  0.00     0.119 C 
BRANCH  36  37
ATOM     37  N   UNL A   1      39.927  23.748  26.233  1.00  0.00    -0.352 N 
ATOM     38  C   UNL A   1      40.953  24.623  26.500  1.00  0.00     0.251 C 
ATOM     39  H   UNL A   1      40.182  22.962  25.697  1.00  0.00     0.163 HD
ATOM     40  O   UNL A   1      42.032  24.479  25.931  1.00  0.00    -0.269 OA
BRANCH  38  41
ATOM     41  C   UNL A   1      40.752  25.744  27.441  1.00  0.00     0.039 A 
ATOM     42  C   UNL A   1      39.789  25.618  28.446  1.00  0.00     0.014 A 
ATOM     43  C   UNL A   1      41.506  26.916  27.336  1.00  0.00     0.014 A 
ATOM     44  C   UNL A   1      39.649  26.628  29.400  1.00  0.00     0.010 A 
ATOM     45  C   UNL A   1      41.418  27.886  28.331  1.00  0.00     0.010 A 
ATOM     46  C   UNL A   1      40.497  27.747  29.382  1.00  0.00    -0.014 A 
BRANCH  46  47
ATOM     47  C   UNL A   1      40.469  28.757  30.472  1.00  0.00     0.031 A 
ATOM     48  C   UNL A   1      41.380  28.623  31.661  1.00  0.00     0.074 A 
ATOM     49  C   UNL A   1      39.563  29.754  30.424  1.00  0.00     0.049 A 
ATOM     50  N   UNL A   1      41.433  29.353  32.745  1.00  0.00    -0.248 NA
ATOM     51  C   UNL A   1      42.342  27.510  31.638  1.00  0.00     0.031 C 
ATOM     52  C   UNL A   1      38.596  29.968  29.343  1.00  0.00     0.029 A 
ATOM     53  N   UNL A   1      39.292  30.767  31.311  1.00  0.00    -0.354 N 
ATOM     54  C   UNL A   1      42.423  28.786  33.538  1.00  0.00     0.074 A 
ATOM     55  C   UNL A   1      42.911  27.621  32.830  1.00  0.00     0.031 C 
ATOM     56  C   UNL A   1      37.854  31.051  29.622  1.00  0.00     0.029 A 
ATOM     57  C   UNL A   1      38.253  31.581  30.921  1.00  0.00     0.049 A 
ATOM     58  H   UNL A   1      39.795  30.898  32.147  1.00  0.00     0.167 HD
ATOM     59  C   UNL A   1      42.895  29.209  34.735  1.00  0.00     0.037 A 
ATOM     60  C   UNL A   1      37.671  32.623  31.546  1.00  0.00     0.037 A 
ATOM     61  C   UNL A   1      42.410  30.376  35.427  1.00  0.00     0.049 A 
ATOM     62  C   UNL A   1      38.190  33.051  32.894  1.00  0.00     0.074 A 
ATOM     63  C   UNL A   1      42.863  30.919  36.617  1.00  0.00     0.029 A 
ATOM     64  N   UNL A   1      41.359  31.175  35.000  1.00  0.00    -0.354 N 
ATOM     65  N   UNL A   1      39.176  32.545  33.595  1.00  0.00    -0.248 NA
ATOM     66  C   UNL A   1      37.519  34.191  33.534  1.00  0.00     0.031 C 
ATOM     67  C   UNL A   1      42.046  32.008  36.940  1.00  0.00     0.029 A 
ATOM     68  C   UNL A   1      41.124  32.183  35.922  1.00  0.00     0.049 A 
ATOM     69  H   UNL A   1      40.853  31.044  34.165  1.00  0.00     0.167 HD
ATOM     70  C   UNL A   1      39.257  33.318  34.749  1.00  0.00     0.074 A 
ATOM     71  C   UNL A   1      38.233  34.337  34.640  1.00  0.00     0.031 C 
ATOM     72  C   UNL A   1      40.102  33.194  35.803  1.00  0.00     0.037 A 
BRANCH  59  73
ATOM     73  C   UNL A   1      43.991  28.403  35.381  1.00  0.00     0.058 A 
ATOM     74  C   UNL A   1      45.346  28.620  35.079  1.00  0.00     0.135 A 
ATOM     75  C   UNL A   1      43.687  27.432  36.350  1.00  0.00     0.135 A 
ATOM     76  F   UNL A   1      45.696  29.527  34.152  1.00  0.00    -0.206 F 
ATOM     77  C   UNL A   1      46.355  27.885  35.691  1.00  0.00     0.059 A 
ATOM     78  C   UNL A   1      44.683  26.706  36.998  1.00  0.00     0.059 A 
ATOM     79  F   UNL A   1      42.410  27.182  36.678  1.00  0.00    -0.206 F 
ATOM     80  C   UNL A   1      46.014  26.930  36.651  1.00  0.00     0.060 A 
BRANCH  80  81
ATOM     81  S   UNL A   1      47.339  25.990  37.437  1.00  0.00     0.124 S 
ATOM     82  O   UNL A   1      46.903  24.618  37.201  1.00  0.00    -0.237 OA
ATOM     83  O   UNL A   1      48.513  26.420  36.685  1.00  0.00    -0.237 OA
ATOM     84  O   UNL A   1      47.292  26.433  38.828  1.00  0.00    -0.744 OA
ENDBRANCH  80  81
ENDBRANCH  59  73
BRANCH  60  85
ATOM     85  C   UNL A   1      36.533  33.335  30.906  1.00  0.00     0.058 A 
ATOM     86  C   UNL A   1      36.731  34.148  29.780  1.00  0.00     0.135 A 
ATOM     87  C   UNL A   1      35.224  33.212  31.400  1.00  0.00     0.135 A 
ATOM     88  F   UNL A   1      37.964  34.306  29.275  1.00  0.00    -0.206 F 
ATOM     89  C   UNL A   1      35.677  34.827  29.176  1.00  0.00     0.059 A 
ATOM     90  C   UNL A   1      34.149  33.856  30.795  1.00  0.00     0.059 A 
ATOM     91  F   UNL A   1      34.977  32.435  32.466  1.00  0.00    -0.206 F 
ATOM     92  C   UNL A   1      34.389  34.672  29.689  1.00  0.00     0.060 A 
BRANCH  92  93
ATOM     93  S   UNL A   1      33.024  35.522  28.867  1.00  0.00     0.124 S 
ATOM     94  O   UNL A   1      32.248  36.000  30.006  1.00  0.00    -0.237 OA
ATOM     95  O   UNL A   1      33.722  36.543  28.095  1.00  0.00    -0.237 OA
ATOM     96  O   UNL A   1      32.398  34.466  28.076  1.00  0.00    -0.744 OA
ENDBRANCH  92  93
ENDBRANCH  60  85
BRANCH  72  97
ATOM     97  C   UNL A   1      39.974  34.196  36.919  1.00  0.00     0.058 A 
ATOM     98  C   UNL A   1      40.564  35.468  36.840  1.00  0.00     0.135 A 
ATOM     99  C   UNL A   1      39.199  33.904  38.054  1.00  0.00     0.135 A 
ATOM    100  F   UNL A   1      41.321  35.797  35.782  1.00  0.00    -0.206 F 
ATOM    101  C   UNL A   1      40.406  36.406  37.855  1.00  0.00     0.059 A 
ATOM    102  C   UNL A   1      39.003  34.838  39.066  1.00  0.00     0.059 A 
ATOM    103  F   UNL A   1      38.605  32.706  38.177  1.00  0.00    -0.206 F 
ATOM    104  C   UNL A   1      39.618  36.084  38.962  1.00  0.00     0.060 A 
BRANCH 104 105
ATOM    105  S   UNL A   1      39.385  37.330  40.247  1.00  0.00     0.124 S 
ATOM    106  O   UNL A   1      38.665  36.573  41.266  1.00  0.00    -0.237 OA
ATOM    107  O   UNL A   1      40.759  37.694  40.580  1.00  0.00    -0.237 OA
ATOM    108  O   UNL A   1      38.612  38.370  39.576  1.00  0.00    -0.744 OA
ENDBRANCH 104 105
ENDBRANCH  72  97
ENDBRANCH  46  47
ENDBRANCH  38  41
ENDBRANCH  36  37
ENDBRANCH   1  36
TORSDOF 17
ENDMDL
MODEL 2
REMARK VINA RESULT:     -13.2      0.661      7.818
REMARK SMILES C[C@@H](Oc1ccc(/C=C2\C(=O)[NH+]=C(NCCCNC(=O)c3ccc(-c4c5nc(c(-c6c(F)cc(S(=O)(=O)[O-])cc6F)c6ccc([nH]6)c(-c6c(F)cc(S(=O)(=O)[O-])cc6F)c6nc(c(-c7c(F)cc(S(=O)(=O)[O-])cc7F)c7ccc4[nH]7)C=C6)C=C5)cc3)N(c3ccc4c(c3)OCO4)C2=O)cc1)C(=O)[O-]
REMARK SMILES IDX 16 1 15 2 14 3 8 4 9 5 10 6 97 7 11 8 12 9 87 10 98 11 13 12
REMARK SMILES IDX 7 15 4 16 5 17 100 18 6 19 99 20 3 21 2 22 1 23 101 24
REMARK SMILES IDX 102 25 103 26 88 27 89 28 93 29 90 30 92 31 91 32 94 33
REMARK SMILES IDX 96 34 95 35 17 36 18 37 19 38 20 40 21 41 22 42 86 43 23 44
REMARK SMILES IDX 85 45 24 46 25 47 26 48 79 49 27 50 84 51 78 52 80 53 28 54
REMARK SMILES IDX 83 55 77 56 76 57 29 59 63 60 42 61 62 62 43 63 46 64 61 65
REMARK SMILES IDX 81 66 44 67 45 68 60 70 82 71 47 72 30 73 31 74 40 75 32 76
REMARK SMILES IDX 33 77 39 78 41 79 34 80 35 81 36 82 37 83 38 84 64 85 65 86
REMARK SMILES IDX 74 87 66 88 67 89 73 90 75 91 68 92 69 93 70 94 71 95 72 96
REMARK SMILES IDX 48 97 49 98 58 99 50 100 51 101 57 102 59 103 52 104 53 105
REMARK SMILES IDX 54 106 55 107 56 108
REMARK H PARENT 12 13 14 14 18 39 80 58 46 69
REMARK Flexibility Score: inf
ROOT
ATOM      1  C   UNL A   1      37.133  24.338  26.370  1.00  0.00     0.059 C 
ENDROOT
BRANCH   1   2
ATOM      2  C   UNL A   1      36.746  23.808  24.997  1.00  0.00     0.199 C 
BRANCH   2   3
ATOM      3  N   UNL A   1      35.509  23.053  25.064  1.00  0.00    -0.277 N 
ATOM      4  C   UNL A   1      30.866  25.269  23.862  1.00  0.00     0.031 C 
ATOM      5  C   UNL A   1      31.849  24.754  24.622  1.00  0.00     0.138 C 
ATOM      6  C   UNL A   1      32.923  25.503  25.293  1.00  0.00     0.321 C 
ATOM      7  C   UNL A   1      31.878  23.289  24.786  1.00  0.00     0.328 C 
ATOM      8  O   UNL A   1      32.728  26.580  25.833  1.00  0.00    -0.250 OA
ATOM      9  N   UNL A   1      34.148  24.904  25.226  1.00  0.00    -0.210 N 
ATOM     10  N   UNL A   1      33.143  22.785  25.074  1.00  0.00    -0.162 N 
ATOM     11  O   UNL A   1      30.862  22.611  24.632  1.00  0.00    -0.249 OA
ATOM     12  C   UNL A   1      34.259  23.615  25.142  1.00  0.00     0.366 C 
ATOM     13  H   UNL A   1      34.961  25.459  25.242  1.00  0.00     0.270 HD
ATOM     14  H   UNL A   1      35.570  22.071  25.052  1.00  0.00     0.260 HD
BRANCH   4  15
ATOM     15  C   UNL A   1      30.633  26.660  23.446  1.00  0.00    -0.024 A 
ATOM     16  C   UNL A   1      30.013  29.264  22.581  1.00  0.00     0.120 A 
ATOM     17  C   UNL A   1      31.297  28.758  22.406  1.00  0.00     0.047 A 
ATOM     18  C   UNL A   1      29.024  28.458  23.135  1.00  0.00     0.047 A 
ATOM     19  C   UNL A   1      31.600  27.456  22.821  1.00  0.00     0.012 A 
ATOM     20  C   UNL A   1      29.335  27.170  23.577  1.00  0.00     0.012 A 
BRANCH  16  21
ATOM     21  O   UNL A   1      29.736  30.494  22.057  1.00  0.00    -0.485 OA
BRANCH  21  22
ATOM     22  C   UNL A   1      28.338  30.769  21.891  1.00  0.00     0.216 C 
ATOM     23  C   UNL A   1      28.033  31.343  20.509  1.00  0.00     0.059 C 
BRANCH  22  24
ATOM     24  C   UNL A   1      27.933  31.822  22.916  1.00  0.00     0.082 C 
ATOM     25  O   UNL A   1      28.416  32.939  23.026  1.00  0.00    -0.546 OA
ATOM     26  O   UNL A   1      27.023  31.395  23.818  1.00  0.00    -0.546 OA
ENDBRANCH  22  24
ENDBRANCH  21  22
ENDBRANCH  16  21
ENDBRANCH   4  15
BRANCH  10  27
ATOM     27  C   UNL A   1      33.263  21.374  25.143  1.00  0.00     0.115 A 
ATOM     28  C   UNL A   1      33.320  20.729  26.397  1.00  0.00     0.048 A 
ATOM     29  C   UNL A   1      33.205  20.633  23.956  1.00  0.00     0.094 A 
ATOM     30  C   UNL A   1      33.258  19.332  26.472  1.00  0.00     0.054 A 
ATOM     31  C   UNL A   1      33.135  19.265  24.066  1.00  0.00     0.169 A 
ATOM     32  C   UNL A   1      33.143  18.633  25.288  1.00  0.00     0.166 A 
ATOM     33  O   UNL A   1      32.992  18.397  23.030  1.00  0.00    -0.453 OA
ATOM     34  O   UNL A   1      32.980  17.288  25.163  1.00  0.00    -0.454 OA
ATOM     35  C   UNL A   1      32.679  17.191  23.755  1.00  0.00     0.468 C 
ENDBRANCH  10  27
ENDBRANCH   2   3
ENDBRANCH   1   2
BRANCH   1  36
ATOM     36  C   UNL A   1      38.531  23.924  26.817  1.00  0.00     0.119 C 
BRANCH  36  37
ATOM     37  N   UNL A   1      39.585  24.445  25.954  1.00  0.00    -0.352 N 
ATOM     38  C   UNL A   1      40.422  25.521  26.127  1.00  0.00     0.251 C 
ATOM     39  H   UNL A   1      39.718  23.948  25.114  1.00  0.00     0.163 HD
ATOM     40  O   UNL A   1      41.127  25.894  25.192  1.00  0.00    -0.269 OA
BRANCH  38  41
ATOM     41  C   UNL A   1      40.455  26.242  27.417  1.00  0.00     0.039 A 
ATOM     42  C   UNL A   1      41.393  27.262  27.595  1.00  0.00     0.014 A 
ATOM     43  C   UNL A   1      39.569  25.916  28.447  1.00  0.00     0.014 A 
ATOM     44  C   UNL A   1      41.379  28.016  28.771  1.00  0.00     0.010 A 
ATOM     45  C   UNL A   1      39.506  26.717  29.584  1.00  0.00     0.010 A 
ATOM     46  C   UNL A   1      40.402  27.784  29.753  1.00  0.00    -0.014 A 
BRANCH  46  47
ATOM     47  C   UNL A   1      40.273  28.670  30.940  1.00  0.00     0.031 A 
ATOM     48  C   UNL A   1      39.277  29.796  30.947  1.00  0.00     0.074 A 
ATOM     49  C   UNL A   1      41.112  28.504  31.982  1.00  0.00     0.049 A 
ATOM     50  N   UNL A   1      39.085  30.723  31.851  1.00  0.00    -0.248 NA
ATOM     51  C   UNL A   1      38.396  29.911  29.774  1.00  0.00     0.031 C 
ATOM     52  C   UNL A   1      42.149  27.473  32.078  1.00  0.00     0.029 A 
ATOM     53  N   UNL A   1      41.240  29.207  33.155  1.00  0.00    -0.354 N 
ATOM     54  C   UNL A   1      38.073  31.534  31.355  1.00  0.00     0.074 A 
ATOM     55  C   UNL A   1      37.723  31.020  30.048  1.00  0.00     0.031 C 
ATOM     56  C   UNL A   1      42.792  27.600  33.249  1.00  0.00     0.029 A 
ATOM     57  C   UNL A   1      42.252  28.749  33.967  1.00  0.00     0.049 A 
ATOM     58  H   UNL A   1      40.661  29.968  33.391  1.00  0.00     0.167 HD
ATOM     59  C   UNL A   1      37.475  32.598  31.945  1.00  0.00     0.037 A 
ATOM     60  C   UNL A   1      42.709  29.213  35.146  1.00  0.00     0.037 A 
ATOM     61  C   UNL A   1      37.822  33.096  33.251  1.00  0.00     0.049 A 
ATOM     62  C   UNL A   1      42.053  30.419  35.764  1.00  0.00     0.074 A 
ATOM     63  C   UNL A   1      37.237  34.132  33.958  1.00  0.00     0.029 A 
ATOM     64  N   UNL A   1      38.850  32.605  34.043  1.00  0.00    -0.354 N 
ATOM     65  N   UNL A   1      41.047  31.131  35.313  1.00  0.00    -0.248 NA
ATOM     66  C   UNL A   1      42.591  30.886  37.049  1.00  0.00     0.031 C 
ATOM     67  C   UNL A   1      37.950  34.308  35.149  1.00  0.00     0.029 A 
ATOM     68  C   UNL A   1      38.940  33.341  35.214  1.00  0.00     0.049 A 
ATOM     69  H   UNL A   1      39.432  31.847  33.807  1.00  0.00     0.167 HD
ATOM     70  C   UNL A   1      40.820  32.115  36.270  1.00  0.00     0.074 A 
ATOM     71  C   UNL A   1      41.779  31.894  37.331  1.00  0.00     0.031 C 
ATOM     72  C   UNL A   1      39.900  33.112  36.267  1.00  0.00     0.037 A 
BRANCH  59  73
ATOM     73  C   UNL A   1      36.385  33.302  31.181  1.00  0.00     0.058 A 
ATOM     74  C   UNL A   1      35.033  33.193  31.550  1.00  0.00     0.135 A 
ATOM     75  C   UNL A   1      36.698  34.135  30.093  1.00  0.00     0.135 A 
ATOM     76  F   UNL A   1      34.673  32.402  32.573  1.00  0.00    -0.206 F 
ATOM     77  C   UNL A   1      34.032  33.860  30.852  1.00  0.00     0.059 A 
ATOM     78  C   UNL A   1      35.715  34.835  29.400  1.00  0.00     0.059 A 
ATOM     79  F   UNL A   1      37.972  34.276  29.697  1.00  0.00    -0.206 F 
ATOM     80  C   UNL A   1      34.383  34.680  29.778  1.00  0.00     0.060 A 
BRANCH  80  81
ATOM     81  S   UNL A   1      33.069  35.540  28.888  1.00  0.00     0.124 S 
ATOM     82  O   UNL A   1      32.454  34.444  28.146  1.00  0.00    -0.237 OA
ATOM     83  O   UNL A   1      32.270  36.095  29.975  1.00  0.00    -0.237 OA
ATOM     84  O   UNL A   1      33.789  36.518  28.079  1.00  0.00    -0.744 OA
ENDBRANCH  80  81
ENDBRANCH  59  73
BRANCH  60  85
ATOM     85  C   UNL A   1      43.848  28.534  35.823  1.00  0.00     0.058 A 
ATOM     86  C   UNL A   1      45.171  28.935  35.588  1.00  0.00     0.135 A 
ATOM     87  C   UNL A   1      43.636  27.476  36.723  1.00  0.00     0.135 A 
ATOM     88  F   UNL A   1      45.427  29.934  34.730  1.00  0.00    -0.206 F 
ATOM     89  C   UNL A   1      46.245  28.303  36.206  1.00  0.00     0.059 A 
ATOM     90  C   UNL A   1      44.692  26.849  37.377  1.00  0.00     0.059 A 
ATOM     91  F   UNL A   1      42.389  27.063  36.994  1.00  0.00    -0.206 F 
ATOM     92  C   UNL A   1      45.996  27.264  37.103  1.00  0.00     0.060 A 
BRANCH  92  93
ATOM     93  S   UNL A   1      47.396  26.484  37.934  1.00  0.00     0.124 S 
ATOM     94  O   UNL A   1      46.749  25.876  39.092  1.00  0.00    -0.237 OA
ATOM     95  O   UNL A   1      47.879  25.559  36.914  1.00  0.00    -0.237 OA
ATOM     96  O   UNL A   1      48.283  27.607  38.224  1.00  0.00    -0.744 OA
ENDBRANCH  92  93
ENDBRANCH  60  85
BRANCH  72  97
ATOM     97  C   UNL A   1      39.868  34.032  37.458  1.00  0.00     0.058 A 
ATOM     98  C   UNL A   1      40.570  35.247  37.471  1.00  0.00     0.135 A 
ATOM     99  C   UNL A   1      39.074  33.722  38.575  1.00  0.00     0.135 A 
ATOM    100  F   UNL A   1      41.350  35.588  36.434  1.00  0.00    -0.206 F 
ATOM    101  C   UNL A   1      40.502  36.114  38.557  1.00  0.00     0.059 A 
ATOM    102  C   UNL A   1      38.966  34.589  39.659  1.00  0.00     0.059 A 
ATOM    103  F   UNL A   1      38.374  32.577  38.612  1.00  0.00    -0.206 F 
ATOM    104  C   UNL A   1      39.692  35.778  39.645  1.00  0.00     0.060 A 
BRANCH 104 105
ATOM    105  S   UNL A   1      39.578  36.936  41.024  1.00  0.00     0.124 S 
ATOM    106  O   UNL A   1      38.784  36.175  41.984  1.00  0.00    -0.237 OA
ATOM    107  O   UNL A   1      40.980  37.137  41.379  1.00  0.00    -0.237 OA
ATOM    108  O   UNL A   1      38.912  38.097  40.441  1.00  0.00    -0.744 OA
ENDBRANCH 104 105
ENDBRANCH  72  97
ENDBRANCH  46  47
ENDBRANCH  38  41
ENDBRANCH  36  37
ENDBRANCH   1  36
TORSDOF 17
ENDMDL
MODEL 3
REMARK VINA RESULT:     -12.8      6.111     10.334
REMARK SMILES C[C@@H](Oc1ccc(/C=C2\C(=O)[NH+]=C(NCCCNC(=O)c3ccc(-c4c5nc(c(-c6c(F)cc(S(=O)(=O)[O-])cc6F)c6ccc([nH]6)c(-c6c(F)cc(S(=O)(=O)[O-])cc6F)c6nc(c(-c7c(F)cc(S(=O)(=O)[O-])cc7F)c7ccc4[nH]7)C=C6)C=C5)cc3)N(c3ccc4c(c3)OCO4)C2=O)cc1)C(=O)[O-]
REMARK SMILES IDX 16 1 15 2 14 3 8 4 9 5 10 6 97 7 11 8 12 9 87 10 98 11 13 12
REMARK SMILES IDX 7 15 4 16 5 17 100 18 6 19 99 20 3 21 2 22 1 23 101 24
REMARK SMILES IDX 102 25 103 26 88 27 89 28 93 29 90 30 92 31 91 32 94 33
REMARK SMILES IDX 96 34 95 35 17 36 18 37 19 38 20 40 21 41 22 42 86 43 23 44
REMARK SMILES IDX 85 45 24 46 25 47 26 48 79 49 27 50 84 51 78 52 80 53 28 54
REMARK SMILES IDX 83 55 77 56 76 57 29 59 63 60 42 61 62 62 43 63 46 64 61 65
REMARK SMILES IDX 81 66 44 67 45 68 60 70 82 71 47 72 30 73 31 74 40 75 32 76
REMARK SMILES IDX 33 77 39 78 41 79 34 80 35 81 36 82 37 83 38 84 64 85 65 86
REMARK SMILES IDX 74 87 66 88 67 89 73 90 75 91 68 92 69 93 70 94 71 95 72 96
REMARK SMILES IDX 48 97 49 98 58 99 50 100 51 101 57 102 59 103 52 104 53 105
REMARK SMILES IDX 54 106 55 107 56 108
REMARK H PARENT 12 13 14 14 18 39 80 58 46 69
REMARK Flexibility Score: inf
ROOT
ATOM      1  C   UNL A   1      37.822  20.562  25.745  1.00  0.00     0.059 C 
ENDROOT
BRANCH   1   2
ATOM      2  C   UNL A   1      36.943  21.385  24.814  1.00  0.00     0.199 C 
BRANCH   2   3
ATOM      3  N   UNL A   1      35.575  20.902  24.834  1.00  0.00    -0.277 N 
ATOM      4  C   UNL A   1      31.481  24.239  24.974  1.00  0.00     0.031 C 
ATOM      5  C   UNL A   1      32.375  23.333  25.410  1.00  0.00     0.138 C 
ATOM      6  C   UNL A   1      33.638  23.615  26.112  1.00  0.00     0.321 C 
ATOM      7  C   UNL A   1      32.083  21.913  25.143  1.00  0.00     0.328 C 
ATOM      8  O   UNL A   1      33.733  24.488  26.958  1.00  0.00    -0.250 OA
ATOM      9  N   UNL A   1      34.686  22.839  25.706  1.00  0.00    -0.210 N 
ATOM     10  N   UNL A   1      33.218  21.109  25.096  1.00  0.00    -0.162 N 
ATOM     11  O   UNL A   1      30.930  21.527  24.945  1.00  0.00    -0.249 OA
ATOM     12  C   UNL A   1      34.495  21.644  25.243  1.00  0.00     0.366 C 
ATOM     13  H   UNL A   1      35.603  23.193  25.767  1.00  0.00     0.270 HD
ATOM     14  H   UNL A   1      35.410  19.979  24.533  1.00  0.00     0.260 HD
BRANCH   4  15
ATOM     15  C   UNL A   1      31.541  25.708  25.009  1.00  0.00    -0.024 A 
ATOM     16  C   UNL A   1      31.835  28.505  25.005  1.00  0.00     0.120 A 
ATOM     17  C   UNL A   1      31.213  27.871  26.075  1.00  0.00     0.047 A 
ATOM     18  C   UNL A   1      32.359  27.746  23.964  1.00  0.00     0.047 A 
ATOM     19  C   UNL A   1      31.081  26.478  26.085  1.00  0.00     0.012 A 
ATOM     20  C   UNL A   1      32.200  26.359  23.959  1.00  0.00     0.012 A 
BRANCH  16  21
ATOM     21  O   UNL A   1      32.041  29.852  25.094  1.00  0.00    -0.485 OA
BRANCH  21  22
ATOM     22  C   UNL A   1      32.044  30.367  26.433  1.00  0.00     0.216 C 
ATOM     23  C   UNL A   1      31.397  31.747  26.512  1.00  0.00     0.059 C 
BRANCH  22  24
ATOM     24  C   UNL A   1      33.493  30.521  26.882  1.00  0.00     0.082 C 
ATOM     25  O   UNL A   1      34.393  29.718  26.684  1.00  0.00    -0.546 OA
ATOM     26  O   UNL A   1      33.724  31.612  27.644  1.00  0.00    -0.546 OA
ENDBRANCH  22  24
ENDBRANCH  21  22
ENDBRANCH  16  21
ENDBRANCH   4  15
BRANCH  10  27
ATOM     27  C   UNL A   1      33.018  19.751  24.741  1.00  0.00     0.115 A 
ATOM     28  C   UNL A   1      32.939  19.381  23.381  1.00  0.00     0.048 A 
ATOM     29  C   UNL A   1      33.019  18.781  25.751  1.00  0.00     0.094 A 
ATOM     30  C   UNL A   1      32.922  18.027  23.022  1.00  0.00     0.054 A 
ATOM     31  C   UNL A   1      33.013  17.463  25.363  1.00  0.00     0.169 A 
ATOM     32  C   UNL A   1      32.984  17.095  24.037  1.00  0.00     0.166 A 
ATOM     33  O   UNL A   1      33.094  16.395  26.199  1.00  0.00    -0.453 OA
ATOM     34  O   UNL A   1      33.068  15.746  23.884  1.00  0.00    -0.454 OA
ATOM     35  C   UNL A   1      33.347  15.346  25.243  1.00  0.00     0.468 C 
ENDBRANCH  10  27
ENDBRANCH   2   3
ENDBRANCH   1   2
BRANCH   1  36
ATOM     36  C   UNL A   1      39.299  20.938  25.687  1.00  0.00     0.119 C 
BRANCH  36  37
ATOM     37  N   UNL A   1      40.188  19.791  25.829  1.00  0.00    -0.352 N 
ATOM     38  C   UNL A   1      41.543  19.741  26.050  1.00  0.00     0.251 C 
ATOM     39  H   UNL A   1      39.748  18.913  25.754  1.00  0.00     0.163 HD
ATOM     40  O   UNL A   1      42.130  18.665  25.963  1.00  0.00    -0.269 OA
BRANCH  38  41
ATOM     41  C   UNL A   1      42.295  20.974  26.363  1.00  0.00     0.039 A 
ATOM     42  C   UNL A   1      42.781  21.753  25.310  1.00  0.00     0.014 A 
ATOM     43  C   UNL A   1      42.522  21.364  27.686  1.00  0.00     0.014 A 
ATOM     44  C   UNL A   1      43.413  22.969  25.582  1.00  0.00     0.010 A 
ATOM     45  C   UNL A   1      43.082  22.610  27.953  1.00  0.00     0.010 A 
ATOM     46  C   UNL A   1      43.523  23.432  26.903  1.00  0.00    -0.014 A 
BRANCH  46  47
ATOM     47  C   UNL A   1      44.052  24.788  27.206  1.00  0.00     0.031 A 
ATOM     48  C   UNL A   1      43.137  25.870  27.709  1.00  0.00     0.074 A 
ATOM     49  C   UNL A   1      45.348  25.063  26.951  1.00  0.00     0.049 A 
ATOM     50  N   UNL A   1      43.401  27.132  27.939  1.00  0.00    -0.248 NA
ATOM     51  C   UNL A   1      41.739  25.492  27.964  1.00  0.00     0.031 C 
ATOM     52  C   UNL A   1      46.327  24.108  26.424  1.00  0.00     0.029 A 
ATOM     53  N   UNL A   1      46.063  26.227  27.084  1.00  0.00    -0.354 N 
ATOM     54  C   UNL A   1      42.203  27.699  28.356  1.00  0.00     0.074 A 
ATOM     55  C   UNL A   1      41.201  26.656  28.300  1.00  0.00     0.031 C 
ATOM     56  C   UNL A   1      47.515  24.719  26.296  1.00  0.00     0.029 A 
ATOM     57  C   UNL A   1      47.375  26.119  26.682  1.00  0.00     0.049 A 
ATOM     58  H   UNL A   1      45.674  27.060  27.435  1.00  0.00     0.167 HD
ATOM     59  C   UNL A   1      41.966  28.969  28.768  1.00  0.00     0.037 A 
ATOM     60  C   UNL A   1      48.350  27.045  26.610  1.00  0.00     0.037 A 
ATOM     61  C   UNL A   1      42.973  29.997  28.830  1.00  0.00     0.049 A 
ATOM     62  C   UNL A   1      48.052  28.459  27.038  1.00  0.00     0.074 A 
ATOM     63  C   UNL A   1      42.844  31.298  29.287  1.00  0.00     0.029 A 
ATOM     64  N   UNL A   1      44.289  29.850  28.416  1.00  0.00    -0.354 N 
ATOM     65  N   UNL A   1      46.931  28.960  27.499  1.00  0.00    -0.248 NA
ATOM     66  C   UNL A   1      49.150  29.430  26.938  1.00  0.00     0.031 C 
ATOM     67  C   UNL A   1      44.064  31.954  29.091  1.00  0.00     0.029 A 
ATOM     68  C   UNL A   1      44.972  31.046  28.572  1.00  0.00     0.049 A 
ATOM     69  H   UNL A   1      44.680  29.018  28.063  1.00  0.00     0.167 HD
ATOM     70  C   UNL A   1      47.195  30.300  27.763  1.00  0.00     0.074 A 
ATOM     71  C   UNL A   1      48.586  30.524  27.429  1.00  0.00     0.031 C 
ATOM     72  C   UNL A   1      46.359  31.258  28.237  1.00  0.00     0.037 A 
BRANCH  59  73
ATOM     73  C   UNL A   1      40.561  29.321  29.179  1.00  0.00     0.058 A 
ATOM     74  C   UNL A   1      39.547  29.546  28.232  1.00  0.00     0.135 A 
ATOM     75  C   UNL A   1      40.210  29.390  30.538  1.00  0.00     0.135 A 
ATOM     76  F   UNL A   1      39.826  29.505  26.920  1.00  0.00    -0.206 F 
ATOM     77  C   UNL A   1      38.247  29.854  28.617  1.00  0.00     0.059 A 
ATOM     78  C   UNL A   1      38.908  29.666  30.945  1.00  0.00     0.059 A 
ATOM     79  F   UNL A   1      41.138  29.184  31.486  1.00  0.00    -0.206 F 
ATOM     80  C   UNL A   1      37.937  29.911  29.977  1.00  0.00     0.060 A 
BRANCH  80  81
ATOM     81  S   UNL A   1      36.242  30.307  30.456  1.00  0.00     0.124 S 
ATOM     82  O   UNL A   1      36.165  31.723  30.109  1.00  0.00    -0.237 OA
ATOM     83  O   UNL A   1      35.463  29.405  29.615  1.00  0.00    -0.237 OA
ATOM     84  O   UNL A   1      36.213  30.010  31.885  1.00  0.00    -0.744 OA
ENDBRANCH  80  81
ENDBRANCH  59  73
BRANCH  60  85
ATOM     85  C   UNL A   1      49.702  26.668  26.115  1.00  0.00     0.058 A 
ATOM     86  C   UNL A   1      50.112  26.994  24.814  1.00  0.00     0.135 A 
ATOM     87  C   UNL A   1      50.613  25.981  26.934  1.00  0.00     0.135 A 
ATOM     88  F   UNL A   1      49.275  27.642  23.990  1.00  0.00    -0.206 F 
ATOM     89  C   UNL A   1      51.369  26.639  24.335  1.00  0.00     0.059 A 
ATOM     90  C   UNL A   1      51.887  25.642  26.488  1.00  0.00     0.059 A 
ATOM     91  F   UNL A   1      50.276  25.657  28.192  1.00  0.00    -0.206 F 
ATOM     92  C   UNL A   1      52.252  25.966  25.181  1.00  0.00     0.060 A 
BRANCH  92  93
ATOM     93  S   UNL A   1      53.897  25.553  24.562  1.00  0.00     0.124 S 
ATOM     94  O   UNL A   1      53.744  25.804  23.134  1.00  0.00    -0.237 OA
ATOM     95  O   UNL A   1      54.741  26.496  25.289  1.00  0.00    -0.237 OA
ATOM     96  O   UNL A   1      54.058  24.154  24.944  1.00  0.00    -0.744 OA
ENDBRANCH  92  93
ENDBRANCH  60  85
BRANCH  72  97
ATOM     97  C   UNL A   1      46.929  32.636  28.447  1.00  0.00     0.058 A 
ATOM     98  C   UNL A   1      46.859  33.622  27.450  1.00  0.00     0.135 A 
ATOM     99  C   UNL A   1      47.494  32.992  29.683  1.00  0.00     0.135 A 
ATOM    100  F   UNL A   1      46.338  33.333  26.248  1.00  0.00    -0.206 F 
ATOM    101  C   UNL A   1      47.348  34.907  27.665  1.00  0.00     0.059 A 
ATOM    102  C   UNL A   1      47.960  34.280  29.930  1.00  0.00     0.059 A 
ATOM    103  F   UNL A   1      47.577  32.090  30.674  1.00  0.00    -0.206 F 
ATOM    104  C   UNL A   1      47.892  35.228  28.911  1.00  0.00     0.060 A 
BRANCH 104 105
ATOM    105  S   UNL A   1      48.477  36.912  29.188  1.00  0.00     0.124 S 
ATOM    106  O   UNL A   1      49.170  36.778  30.466  1.00  0.00    -0.237 OA
ATOM    107  O   UNL A   1      49.331  37.141  28.026  1.00  0.00    -0.237 OA
ATOM    108  O   UNL A   1      47.248  37.699  29.221  1.00  0.00    -0.744 OA
ENDBRANCH 104 105
ENDBRANCH  72  97
ENDBRANCH  46  47
ENDBRANCH  38  41
ENDBRANCH  36  37
ENDBRANCH   1  36
TORSDOF 17
ENDMDL
