MODEL 1
REMARK VINA RESULT:     -10.8      0.000      0.000
REMARK SMILES CC(C)[C@](C)(CC(=O)NC#N)C(=O)NCCCNC(=O)c1ccc(-c2c3nc(c(-c4c(F)cc(S(=O)(=O)[O-])cc4F)c4ccc([nH]4)c(-c4c(F)cc(S(=O)(=O)[O-])cc4F)c4nc(c(-c5c(F)cc(S(=O)(=O)[O-])cc5F)c5ccc2[nH]5)C=C4)C=C3)cc1
REMARK SMILES IDX 16 1 15 2 14 3 12 4 13 5 4 7 5 8 2 9 1 10 3 11 6 12 7 13
REMARK SMILES IDX 8 14 9 15 10 17 11 18 17 19 18 20 19 21 20 23 21 24 22 25
REMARK SMILES IDX 86 26 23 27 85 28 24 29 25 30 26 31 79 32 27 33 84 34 78 35
REMARK SMILES IDX 80 36 28 37 83 38 77 39 76 40 29 42 63 43 42 44 62 45 43 46
REMARK SMILES IDX 46 47 61 48 81 49 44 50 45 51 60 53 82 54 47 55 30 56 31 57
REMARK SMILES IDX 40 58 32 59 33 60 39 61 41 62 34 63 35 64 36 65 37 66 38 67
REMARK SMILES IDX 64 68 65 69 74 70 66 71 67 72 73 73 75 74 68 75 69 76 70 77
REMARK SMILES IDX 71 78 72 79 48 80 49 81 58 82 50 83 51 84 57 85 59 86 52 87
REMARK SMILES IDX 53 88 54 89 55 90 56 91
REMARK H PARENT 14 6 9 16 18 22 80 41 46 52
REMARK Flexibility Score: inf
ROOT
ATOM      1  C   UNL A   1      34.364  31.281  27.562  1.00  0.00     0.042 C 
ENDROOT
BRANCH   1   2
ATOM      2  C   UNL A   1      34.219  29.855  27.071  1.00  0.00     0.117 C 
BRANCH   2   3
ATOM      3  N   UNL A   1      33.000  29.204  27.513  1.00  0.00    -0.356 N 
ATOM      4  C   UNL A   1      32.174  28.326  26.888  1.00  0.00     0.226 C 
ATOM      5  O   UNL A   1      31.274  27.839  27.580  1.00  0.00    -0.274 OA
ATOM      6  H   UNL A   1      32.723  29.442  28.427  1.00  0.00     0.163 HD
BRANCH   4   7
ATOM      7  C   UNL A   1      32.318  27.973  25.388  1.00  0.00     0.057 C 
ATOM      8  C   UNL A   1      31.055  27.132  25.015  1.00  0.00     0.022 C 
BRANCH   7   9
ATOM      9  C   UNL A   1      33.541  27.008  25.043  1.00  0.00    -0.002 C 
ATOM     10  C   UNL A   1      33.661  25.802  25.983  1.00  0.00     0.008 C 
ATOM     11  C   UNL A   1      33.735  26.527  23.599  1.00  0.00     0.008 C 
ENDBRANCH   7   9
BRANCH   7  12
ATOM     12  C   UNL A   1      32.245  29.277  24.531  1.00  0.00     0.118 C 
BRANCH  12  13
ATOM     13  C   UNL A   1      31.078  30.208  24.853  1.00  0.00     0.234 C 
ATOM     14  O   UNL A   1      31.047  30.878  25.884  1.00  0.00    -0.274 OA
ATOM     15  N   UNL A   1      30.056  30.310  23.957  1.00  0.00    -0.263 N 
ATOM     16  H   UNL A   1      29.354  30.941  24.239  1.00  0.00     0.182 HD
BRANCH  15  17
ATOM     17  C   UNL A   1      29.808  29.735  22.773  1.00  0.00     0.183 C 
ATOM     18  N   UNL A   1      29.620  29.241  21.744  1.00  0.00    -0.172 NA
ENDBRANCH  15  17
ENDBRANCH  12  13
ENDBRANCH   7  12
ENDBRANCH   4   7
ENDBRANCH   2   3
ENDBRANCH   1   2
BRANCH   1  19
ATOM     19  C   UNL A   1      35.604  31.506  28.414  1.00  0.00     0.118 C 
BRANCH  19  20
ATOM     20  N   UNL A   1      35.590  30.735  29.656  1.00  0.00    -0.352 N 
ATOM     21  C   UNL A   1      36.559  29.939  30.220  1.00  0.00     0.251 C 
ATOM     22  H   UNL A   1      34.753  30.795  30.171  1.00  0.00     0.163 HD
ATOM     23  O   UNL A   1      36.281  29.221  31.176  1.00  0.00    -0.269 OA
BRANCH  21  24
ATOM     24  C   UNL A   1      37.922  29.926  29.649  1.00  0.00     0.039 A 
ATOM     25  C   UNL A   1      39.004  30.263  30.464  1.00  0.00     0.014 A 
ATOM     26  C   UNL A   1      38.134  29.535  28.326  1.00  0.00     0.014 A 
ATOM     27  C   UNL A   1      40.304  30.089  29.986  1.00  0.00     0.010 A 
ATOM     28  C   UNL A   1      39.425  29.263  27.888  1.00  0.00     0.010 A 
ATOM     29  C   UNL A   1      40.523  29.517  28.721  1.00  0.00    -0.014 A 
BRANCH  29  30
ATOM     30  C   UNL A   1      41.882  29.112  28.279  1.00  0.00     0.031 A 
ATOM     31  C   UNL A   1      42.160  27.686  27.889  1.00  0.00     0.074 A 
ATOM     32  C   UNL A   1      42.884  30.016  28.324  1.00  0.00     0.049 A 
ATOM     33  N   UNL A   1      43.300  27.129  27.573  1.00  0.00    -0.248 NA
ATOM     34  C   UNL A   1      41.015  26.759  27.869  1.00  0.00     0.031 C 
ATOM     35  C   UNL A   1      42.744  31.415  28.737  1.00  0.00     0.029 A 
ATOM     36  N   UNL A   1      44.223  29.893  28.040  1.00  0.00    -0.354 N 
ATOM     37  C   UNL A   1      43.016  25.790  27.337  1.00  0.00     0.074 A 
ATOM     38  C   UNL A   1      41.603  25.606  27.576  1.00  0.00     0.031 C 
ATOM     39  C   UNL A   1      43.939  32.022  28.662  1.00  0.00     0.029 A 
ATOM     40  C   UNL A   1      44.944  31.045  28.260  1.00  0.00     0.049 A 
ATOM     41  H   UNL A   1      44.629  29.059  27.711  1.00  0.00     0.167 HD
ATOM     42  C   UNL A   1      43.861  24.808  26.946  1.00  0.00     0.037 A 
ATOM     43  C   UNL A   1      46.269  31.282  28.181  1.00  0.00     0.037 A 
ATOM     44  C   UNL A   1      45.263  25.011  26.685  1.00  0.00     0.049 A 
ATOM     45  C   UNL A   1      47.185  30.158  27.771  1.00  0.00     0.074 A 
ATOM     46  C   UNL A   1      46.182  24.097  26.198  1.00  0.00     0.029 A 
ATOM     47  N   UNL A   1      45.953  26.192  26.907  1.00  0.00    -0.354 N 
ATOM     48  N   UNL A   1      46.878  28.926  27.440  1.00  0.00    -0.248 NA
ATOM     49  C   UNL A   1      48.625  30.450  27.726  1.00  0.00     0.031 C 
ATOM     50  C   UNL A   1      47.440  24.700  26.204  1.00  0.00     0.029 A 
ATOM     51  C   UNL A   1      47.296  26.013  26.620  1.00  0.00     0.049 A 
ATOM     52  H   UNL A   1      45.548  27.033  27.221  1.00  0.00     0.167 HD
ATOM     53  C   UNL A   1      48.083  28.306  27.129  1.00  0.00     0.074 A 
ATOM     54  C   UNL A   1      49.120  29.305  27.279  1.00  0.00     0.031 C 
ATOM     55  C   UNL A   1      48.315  27.022  26.764  1.00  0.00     0.037 A 
BRANCH  42  56
ATOM     56  C   UNL A   1      43.321  23.416  26.776  1.00  0.00     0.058 A 
ATOM     57  C   UNL A   1      43.114  22.849  25.510  1.00  0.00     0.135 A 
ATOM     58  C   UNL A   1      43.130  22.595  27.901  1.00  0.00     0.135 A 
ATOM     59  F   UNL A   1      43.263  23.591  24.402  1.00  0.00    -0.206 F 
ATOM     60  C   UNL A   1      42.745  21.515  25.364  1.00  0.00     0.059 A 
ATOM     61  C   UNL A   1      42.789  21.252  27.778  1.00  0.00     0.059 A 
ATOM     62  F   UNL A   1      43.308  23.091  29.136  1.00  0.00    -0.206 F 
ATOM     63  C   UNL A   1      42.601  20.721  26.504  1.00  0.00     0.060 A 
BRANCH  63  64
ATOM     64  S   UNL A   1      42.199  18.974  26.290  1.00  0.00     0.124 S 
ATOM     65  O   UNL A   1      42.413  18.458  27.639  1.00  0.00    -0.237 OA
ATOM     66  O   UNL A   1      40.808  19.031  25.848  1.00  0.00    -0.237 OA
ATOM     67  O   UNL A   1      43.156  18.522  25.287  1.00  0.00    -0.744 OA
ENDBRANCH  63  64
ENDBRANCH  42  56
BRANCH  43  68
ATOM     68  C   UNL A   1      46.826  32.620  28.535  1.00  0.00     0.058 A 
ATOM     69  C   UNL A   1      47.158  32.943  29.860  1.00  0.00     0.135 A 
ATOM     70  C   UNL A   1      46.987  33.622  27.564  1.00  0.00     0.135 A 
ATOM     71  F   UNL A   1      47.020  32.025  30.829  1.00  0.00    -0.206 F 
ATOM     72  C   UNL A   1      47.582  34.219  30.217  1.00  0.00     0.059 A 
ATOM     73  C   UNL A   1      47.447  34.893  27.889  1.00  0.00     0.059 A 
ATOM     74  F   UNL A   1      46.702  33.366  26.277  1.00  0.00    -0.206 F 
ATOM     75  C   UNL A   1      47.719  35.190  29.223  1.00  0.00     0.060 A 
BRANCH  75  76
ATOM     76  S   UNL A   1      48.261  36.845  29.696  1.00  0.00     0.124 S 
ATOM     77  O   UNL A   1      49.454  37.009  28.873  1.00  0.00    -0.237 OA
ATOM     78  O   UNL A   1      47.110  37.661  29.325  1.00  0.00    -0.237 OA
ATOM     79  O   UNL A   1      48.496  36.723  31.133  1.00  0.00    -0.744 OA
ENDBRANCH  75  76
ENDBRANCH  43  68
BRANCH  55  80
ATOM     80  C   UNL A   1      49.738  26.620  26.483  1.00  0.00     0.058 A 
ATOM     81  C   UNL A   1      50.545  26.036  27.471  1.00  0.00     0.135 A 
ATOM     82  C   UNL A   1      50.272  26.746  25.189  1.00  0.00     0.135 A 
ATOM     83  F   UNL A   1      50.087  25.901  28.726  1.00  0.00    -0.206 F 
ATOM     84  C   UNL A   1      51.836  25.601  27.190  1.00  0.00     0.059 A 
ATOM     85  C   UNL A   1      51.547  26.286  24.878  1.00  0.00     0.059 A 
ATOM     86  F   UNL A   1      49.540  27.293  24.205  1.00  0.00    -0.206 F 
ATOM     87  C   UNL A   1      52.324  25.719  25.888  1.00  0.00     0.060 A 
BRANCH  87  88
ATOM     88  S   UNL A   1      53.974  25.088  25.528  1.00  0.00     0.124 S 
ATOM     89  O   UNL A   1      54.504  24.862  26.868  1.00  0.00    -0.237 OA
ATOM     90  O   UNL A   1      53.682  23.887  24.750  1.00  0.00    -0.237 OA
ATOM     91  O   UNL A   1      54.601  26.174  24.782  1.00  0.00    -0.744 OA
ENDBRANCH  87  88
ENDBRANCH  55  80
ENDBRANCH  29  30
ENDBRANCH  21  24
ENDBRANCH  19  20
ENDBRANCH   1  19
TORSDOF 17
ENDMDL
MODEL 2
REMARK VINA RESULT:     -10.6      3.140      9.365
REMARK SMILES CC(C)[C@](C)(CC(=O)NC#N)C(=O)NCCCNC(=O)c1ccc(-c2c3nc(c(-c4c(F)cc(S(=O)(=O)[O-])cc4F)c4ccc([nH]4)c(-c4c(F)cc(S(=O)(=O)[O-])cc4F)c4nc(c(-c5c(F)cc(S(=O)(=O)[O-])cc5F)c5ccc2[nH]5)C=C4)C=C3)cc1
REMARK SMILES IDX 16 1 15 2 14 3 12 4 13 5 4 7 5 8 2 9 1 10 3 11 6 12 7 13
REMARK SMILES IDX 8 14 9 15 10 17 11 18 17 19 18 20 19 21 20 23 21 24 22 25
REMARK SMILES IDX 86 26 23 27 85 28 24 29 25 30 26 31 79 32 27 33 84 34 78 35
REMARK SMILES IDX 80 36 28 37 83 38 77 39 76 40 29 42 63 43 42 44 62 45 43 46
REMARK SMILES IDX 46 47 61 48 81 49 44 50 45 51 60 53 82 54 47 55 30 56 31 57
REMARK SMILES IDX 40 58 32 59 33 60 39 61 41 62 34 63 35 64 36 65 37 66 38 67
REMARK SMILES IDX 64 68 65 69 74 70 66 71 67 72 73 73 75 74 68 75 69 76 70 77
REMARK SMILES IDX 71 78 72 79 48 80 49 81 58 82 50 83 51 84 57 85 59 86 52 87
REMARK SMILES IDX 53 88 54 89 55 90 56 91
REMARK H PARENT 14 6 9 16 18 22 80 41 46 52
REMARK Flexibility Score: inf
ROOT
ATOM      1  C   UNL A   1      33.762  28.537  25.806  1.00  0.00     0.042 C 
ENDROOT
BRANCH   1   2
ATOM      2  C   UNL A   1      33.589  27.105  25.343  1.00  0.00     0.117 C 
BRANCH   2   3
ATOM      3  N   UNL A   1      33.846  26.911  23.929  1.00  0.00    -0.356 N 
ATOM      4  C   UNL A   1      33.625  25.848  23.113  1.00  0.00     0.226 C 
ATOM      5  O   UNL A   1      33.829  26.034  21.910  1.00  0.00    -0.274 OA
ATOM      6  H   UNL A   1      34.251  27.688  23.481  1.00  0.00     0.163 HD
BRANCH   4   7
ATOM      7  C   UNL A   1      33.178  24.467  23.651  1.00  0.00     0.057 C 
ATOM      8  C   UNL A   1      33.065  23.530  22.406  1.00  0.00     0.022 C 
BRANCH   7   9
ATOM      9  C   UNL A   1      31.716  24.440  24.289  1.00  0.00    -0.002 C 
ATOM     10  C   UNL A   1      30.611  24.886  23.322  1.00  0.00     0.008 C 
ATOM     11  C   UNL A   1      31.242  23.183  25.030  1.00  0.00     0.008 C 
ENDBRANCH   7   9
BRANCH   7  12
ATOM     12  C   UNL A   1      34.302  23.865  24.553  1.00  0.00     0.118 C 
BRANCH  12  13
ATOM     13  C   UNL A   1      35.266  22.911  23.849  1.00  0.00     0.234 C 
ATOM     14  O   UNL A   1      36.126  23.316  23.068  1.00  0.00    -0.274 OA
ATOM     15  N   UNL A   1      35.179  21.577  24.116  1.00  0.00    -0.263 N 
ATOM     16  H   UNL A   1      35.844  21.039  23.629  1.00  0.00     0.182 HD
BRANCH  15  17
ATOM     17  C   UNL A   1      34.378  20.846  24.902  1.00  0.00     0.183 C 
ATOM     18  N   UNL A   1      33.666  20.233  25.577  1.00  0.00    -0.172 NA
ENDBRANCH  15  17
ENDBRANCH  12  13
ENDBRANCH   7  12
ENDBRANCH   4   7
ENDBRANCH   2   3
ENDBRANCH   1   2
BRANCH   1  19
ATOM     19  C   UNL A   1      33.354  28.761  27.254  1.00  0.00     0.118 C 
BRANCH  19  20
ATOM     20  N   UNL A   1      33.494  30.153  27.677  1.00  0.00    -0.352 N 
ATOM     21  C   UNL A   1      34.542  30.794  28.294  1.00  0.00     0.251 C 
ATOM     22  H   UNL A   1      32.713  30.722  27.491  1.00  0.00     0.163 HD
ATOM     23  O   UNL A   1      34.388  31.927  28.742  1.00  0.00    -0.269 OA
BRANCH  21  24
ATOM     24  C   UNL A   1      35.838  30.102  28.447  1.00  0.00     0.039 A 
ATOM     25  C   UNL A   1      36.725  30.072  27.369  1.00  0.00     0.014 A 
ATOM     26  C   UNL A   1      36.197  29.526  29.667  1.00  0.00     0.014 A 
ATOM     27  C   UNL A   1      38.015  29.573  27.554  1.00  0.00     0.010 A 
ATOM     28  C   UNL A   1      37.511  29.127  29.879  1.00  0.00     0.010 A 
ATOM     29  C   UNL A   1      38.441  29.166  28.830  1.00  0.00    -0.014 A 
BRANCH  29  30
ATOM     30  C   UNL A   1      39.865  28.846  29.106  1.00  0.00     0.031 A 
ATOM     31  C   UNL A   1      40.796  29.909  29.620  1.00  0.00     0.074 A 
ATOM     32  C   UNL A   1      40.334  27.617  28.800  1.00  0.00     0.049 A 
ATOM     33  N   UNL A   1      42.085  29.842  29.825  1.00  0.00    -0.248 NA
ATOM     34  C   UNL A   1      40.210  31.226  29.927  1.00  0.00     0.031 C 
ATOM     35  C   UNL A   1      39.535  26.521  28.245  1.00  0.00     0.029 A 
ATOM     36  N   UNL A   1      41.598  27.086  28.889  1.00  0.00    -0.354 N 
ATOM     37  C   UNL A   1      42.467  31.104  30.262  1.00  0.00     0.074 A 
ATOM     38  C   UNL A   1      41.282  31.930  30.265  1.00  0.00     0.031 C 
ATOM     39  C   UNL A   1      40.320  25.448  28.063  1.00  0.00     0.029 A 
ATOM     40  C   UNL A   1      41.690  25.794  28.423  1.00  0.00     0.049 A 
ATOM     41  H   UNL A   1      42.365  27.583  29.252  1.00  0.00     0.167 HD
ATOM     42  C   UNL A   1      43.697  31.527  30.637  1.00  0.00     0.037 A 
ATOM     43  C   UNL A   1      42.760  24.988  28.270  1.00  0.00     0.037 A 
ATOM     44  C   UNL A   1      44.866  30.685  30.655  1.00  0.00     0.049 A 
ATOM     45  C   UNL A   1      44.119  25.502  28.670  1.00  0.00     0.074 A 
ATOM     46  C   UNL A   1      46.137  30.999  31.104  1.00  0.00     0.029 A 
ATOM     47  N   UNL A   1      44.916  29.381  30.188  1.00  0.00    -0.354 N 
ATOM     48  N   UNL A   1      44.439  26.663  29.191  1.00  0.00    -0.248 NA
ATOM     49  C   UNL A   1      45.263  24.603  28.459  1.00  0.00     0.031 C 
ATOM     50  C   UNL A   1      46.974  29.915  30.833  1.00  0.00     0.029 A 
ATOM     51  C   UNL A   1      46.211  28.897  30.287  1.00  0.00     0.049 A 
ATOM     52  H   UNL A   1      44.148  28.875  29.839  1.00  0.00     0.167 HD
ATOM     53  C   UNL A   1      45.815  26.623  29.388  1.00  0.00     0.074 A 
ATOM     54  C   UNL A   1      46.262  25.314  28.961  1.00  0.00     0.031 C 
ATOM     55  C   UNL A   1      46.638  27.586  29.868  1.00  0.00     0.037 A 
BRANCH  42  56
ATOM     56  C   UNL A   1      43.871  32.960  31.055  1.00  0.00     0.058 A 
ATOM     57  C   UNL A   1      43.799  33.356  32.399  1.00  0.00     0.135 A 
ATOM     58  C   UNL A   1      44.242  33.928  30.106  1.00  0.00     0.135 A 
ATOM     59  F   UNL A   1      43.431  32.477  33.346  1.00  0.00    -0.206 F 
ATOM     60  C   UNL A   1      44.097  34.658  32.789  1.00  0.00     0.059 A 
ATOM     61  C   UNL A   1      44.572  35.227  30.477  1.00  0.00     0.059 A 
ATOM     62  F   UNL A   1      44.319  33.603  28.806  1.00  0.00    -0.206 F 
ATOM     63  C   UNL A   1      44.498  35.581  31.822  1.00  0.00     0.060 A 
BRANCH  63  64
ATOM     64  S   UNL A   1      44.956  37.244  32.358  1.00  0.00     0.124 S 
ATOM     65  O   UNL A   1      44.489  37.243  33.742  1.00  0.00    -0.237 OA
ATOM     66  O   UNL A   1      46.404  37.237  32.179  1.00  0.00    -0.237 OA
ATOM     67  O   UNL A   1      44.216  38.112  31.449  1.00  0.00    -0.744 OA
ENDBRANCH  63  64
ENDBRANCH  42  56
BRANCH  43  68
ATOM     68  C   UNL A   1      42.611  23.629  27.675  1.00  0.00     0.058 A 
ATOM     69  C   UNL A   1      42.429  22.496  28.483  1.00  0.00     0.135 A 
ATOM     70  C   UNL A   1      42.701  23.427  26.288  1.00  0.00     0.135 A 
ATOM     71  F   UNL A   1      42.340  22.630  29.815  1.00  0.00    -0.206 F 
ATOM     72  C   UNL A   1      42.391  21.212  27.946  1.00  0.00     0.059 A 
ATOM     73  C   UNL A   1      42.626  22.159  25.724  1.00  0.00     0.059 A 
ATOM     74  F   UNL A   1      42.858  24.474  25.463  1.00  0.00    -0.206 F 
ATOM     75  C   UNL A   1      42.495  21.054  26.563  1.00  0.00     0.060 A 
BRANCH  75  76
ATOM     76  S   UNL A   1      42.454  19.386  25.876  1.00  0.00     0.124 S 
ATOM     77  O   UNL A   1      43.350  19.519  24.732  1.00  0.00    -0.237 OA
ATOM     78  O   UNL A   1      42.952  18.585  26.989  1.00  0.00    -0.237 OA
ATOM     79  O   UNL A   1      41.043  19.191  25.553  1.00  0.00    -0.744 OA
ENDBRANCH  75  76
ENDBRANCH  43  68
BRANCH  55  80
ATOM     80  C   UNL A   1      48.104  27.264  29.976  1.00  0.00     0.058 A 
ATOM     81  C   UNL A   1      49.004  27.585  28.948  1.00  0.00     0.135 A 
ATOM     82  C   UNL A   1      48.626  26.703  31.153  1.00  0.00     0.135 A 
ATOM     83  F   UNL A   1      48.557  28.113  27.798  1.00  0.00    -0.206 F 
ATOM     84  C   UNL A   1      50.369  27.350  29.079  1.00  0.00     0.059 A 
ATOM     85  C   UNL A   1      49.991  26.493  31.319  1.00  0.00     0.059 A 
ATOM     86  F   UNL A   1      47.810  26.383  32.170  1.00  0.00    -0.206 F 
ATOM     87  C   UNL A   1      50.854  26.815  30.274  1.00  0.00     0.060 A 
BRANCH  87  88
ATOM     88  S   UNL A   1      52.633  26.581  30.451  1.00  0.00     0.124 S 
ATOM     89  O   UNL A   1      52.694  25.481  31.407  1.00  0.00    -0.237 OA
ATOM     90  O   UNL A   1      53.039  26.258  29.086  1.00  0.00    -0.237 OA
ATOM     91  O   UNL A   1      53.100  27.871  30.949  1.00  0.00    -0.744 OA
ENDBRANCH  87  88
ENDBRANCH  55  80
ENDBRANCH  29  30
ENDBRANCH  21  24
ENDBRANCH  19  20
ENDBRANCH   1  19
TORSDOF 17
ENDMDL
MODEL 3
REMARK VINA RESULT:     -10.6      3.591      6.114
REMARK SMILES CC(C)[C@](C)(CC(=O)NC#N)C(=O)NCCCNC(=O)c1ccc(-c2c3nc(c(-c4c(F)cc(S(=O)(=O)[O-])cc4F)c4ccc([nH]4)c(-c4c(F)cc(S(=O)(=O)[O-])cc4F)c4nc(c(-c5c(F)cc(S(=O)(=O)[O-])cc5F)c5ccc2[nH]5)C=C4)C=C3)cc1
REMARK SMILES IDX 16 1 15 2 14 3 12 4 13 5 4 7 5 8 2 9 1 10 3 11 6 12 7 13
REMARK SMILES IDX 8 14 9 15 10 17 11 18 17 19 18 20 19 21 20 23 21 24 22 25
REMARK SMILES IDX 86 26 23 27 85 28 24 29 25 30 26 31 79 32 27 33 84 34 78 35
REMARK SMILES IDX 80 36 28 37 83 38 77 39 76 40 29 42 63 43 42 44 62 45 43 46
REMARK SMILES IDX 46 47 61 48 81 49 44 50 45 51 60 53 82 54 47 55 30 56 31 57
REMARK SMILES IDX 40 58 32 59 33 60 39 61 41 62 34 63 35 64 36 65 37 66 38 67
REMARK SMILES IDX 64 68 65 69 74 70 66 71 67 72 73 73 75 74 68 75 69 76 70 77
REMARK SMILES IDX 71 78 72 79 48 80 49 81 58 82 50 83 51 84 57 85 59 86 52 87
REMARK SMILES IDX 53 88 54 89 55 90 56 91
REMARK H PARENT 14 6 9 16 18 22 80 41 46 52
REMARK Flexibility Score: inf
ROOT
ATOM      1  C   UNL A   1      35.187  32.358  31.469  1.00  0.00     0.042 C 
ENDROOT
BRANCH   1   2
ATOM      2  C   UNL A   1      35.944  33.308  32.374  1.00  0.00     0.117 C 
BRANCH   2   3
ATOM      3  N   UNL A   1      36.065  32.843  33.742  1.00  0.00    -0.356 N 
ATOM      4  C   UNL A   1      37.154  32.622  34.523  1.00  0.00     0.226 C 
ATOM      5  O   UNL A   1      36.929  32.351  35.707  1.00  0.00    -0.274 OA
ATOM      6  H   UNL A   1      35.206  32.654  34.183  1.00  0.00     0.163 HD
BRANCH   4   7
ATOM      7  C   UNL A   1      38.598  32.671  33.968  1.00  0.00     0.057 C 
ATOM      8  C   UNL A   1      39.525  32.163  35.119  1.00  0.00     0.022 C 
BRANCH   7   9
ATOM      9  C   UNL A   1      39.143  34.137  33.651  1.00  0.00    -0.002 C 
ATOM     10  C   UNL A   1      39.371  34.996  34.902  1.00  0.00     0.008 C 
ATOM     11  C   UNL A   1      40.346  34.306  32.714  1.00  0.00     0.008 C 
ENDBRANCH   7   9
BRANCH   7  12
ATOM     12  C   UNL A   1      38.747  31.646  32.800  1.00  0.00     0.118 C 
BRANCH  12  13
ATOM     13  C   UNL A   1      38.220  30.242  33.088  1.00  0.00     0.234 C 
ATOM     14  O   UNL A   1      37.017  30.012  33.205  1.00  0.00    -0.274 OA
ATOM     15  N   UNL A   1      39.111  29.217  33.197  1.00  0.00    -0.263 N 
ATOM     16  H   UNL A   1      38.684  28.347  33.371  1.00  0.00     0.182 HD
BRANCH  15  17
ATOM     17  C   UNL A   1      40.446  29.145  33.114  1.00  0.00     0.183 C 
ATOM     18  N   UNL A   1      41.601  29.103  33.062  1.00  0.00    -0.172 NA
ENDBRANCH  15  17
ENDBRANCH  12  13
ENDBRANCH   7  12
ENDBRANCH   4   7
ENDBRANCH   2   3
ENDBRANCH   1   2
BRANCH   1  19
ATOM     19  C   UNL A   1      35.290  32.713  29.994  1.00  0.00     0.118 C 
BRANCH  19  20
ATOM     20  N   UNL A   1      34.387  31.928  29.154  1.00  0.00    -0.352 N 
ATOM     21  C   UNL A   1      34.638  30.840  28.352  1.00  0.00     0.251 C 
ATOM     22  H   UNL A   1      33.448  32.225  29.166  1.00  0.00     0.163 HD
ATOM     23  O   UNL A   1      33.776  30.440  27.574  1.00  0.00    -0.269 OA
BRANCH  21  24
ATOM     24  C   UNL A   1      35.960  30.181  28.402  1.00  0.00     0.039 A 
ATOM     25  C   UNL A   1      36.816  30.289  27.305  1.00  0.00     0.014 A 
ATOM     26  C   UNL A   1      36.371  29.499  29.549  1.00  0.00     0.014 A 
ATOM     27  C   UNL A   1      38.126  29.819  27.407  1.00  0.00     0.010 A 
ATOM     28  C   UNL A   1      37.703  29.126  29.687  1.00  0.00     0.010 A 
ATOM     29  C   UNL A   1      38.600  29.302  28.624  1.00  0.00    -0.014 A 
BRANCH  29  30
ATOM     30  C   UNL A   1      40.041  29.005  28.831  1.00  0.00     0.031 A 
ATOM     31  C   UNL A   1      40.599  27.657  28.465  1.00  0.00     0.074 A 
ATOM     32  C   UNL A   1      40.821  29.925  29.438  1.00  0.00     0.049 A 
ATOM     33  N   UNL A   1      41.802  27.186  28.662  1.00  0.00    -0.248 NA
ATOM     34  C   UNL A   1      39.684  26.706  27.810  1.00  0.00     0.031 C 
ATOM     35  C   UNL A   1      40.377  31.249  29.886  1.00  0.00     0.029 A 
ATOM     36  N   UNL A   1      42.145  29.885  29.804  1.00  0.00    -0.354 N 
ATOM     37  C   UNL A   1      41.785  25.884  28.177  1.00  0.00     0.074 A 
ATOM     38  C   UNL A   1      40.445  25.624  27.704  1.00  0.00     0.031 C 
ATOM     39  C   UNL A   1      41.409  31.897  30.447  1.00  0.00     0.029 A 
ATOM     40  C   UNL A   1      42.572  31.018  30.461  1.00  0.00     0.049 A 
ATOM     41  H   UNL A   1      42.732  29.119  29.616  1.00  0.00     0.167 HD
ATOM     42  C   UNL A   1      42.802  24.994  28.125  1.00  0.00     0.037 A 
ATOM     43  C   UNL A   1      43.756  31.305  31.038  1.00  0.00     0.037 A 
ATOM     44  C   UNL A   1      44.141  25.274  28.576  1.00  0.00     0.049 A 
ATOM     45  C   UNL A   1      44.858  30.279  30.987  1.00  0.00     0.074 A 
ATOM     46  C   UNL A   1      45.261  24.466  28.481  1.00  0.00     0.029 A 
ATOM     47  N   UNL A   1      44.537  26.435  29.222  1.00  0.00    -0.354 N 
ATOM     48  N   UNL A   1      44.854  29.095  30.420  1.00  0.00    -0.248 NA
ATOM     49  C   UNL A   1      46.122  30.619  31.655  1.00  0.00     0.031 C 
ATOM     50  C   UNL A   1      46.313  25.103  29.143  1.00  0.00     0.029 A 
ATOM     51  C   UNL A   1      45.872  26.340  29.582  1.00  0.00     0.049 A 
ATOM     52  H   UNL A   1      43.958  27.211  29.399  1.00  0.00     0.167 HD
ATOM     53  C   UNL A   1      46.119  28.563  30.646  1.00  0.00     0.074 A 
ATOM     54  C   UNL A   1      46.871  29.564  31.372  1.00  0.00     0.031 C 
ATOM     55  C   UNL A   1      46.611  27.351  30.295  1.00  0.00     0.037 A 
BRANCH  42  56
ATOM     56  C   UNL A   1      42.533  23.622  27.572  1.00  0.00     0.058 A 
ATOM     57  C   UNL A   1      42.553  23.360  26.194  1.00  0.00     0.135 A 
ATOM     58  C   UNL A   1      42.380  22.531  28.444  1.00  0.00     0.135 A 
ATOM     59  F   UNL A   1      42.677  24.366  25.314  1.00  0.00    -0.206 F 
ATOM     60  C   UNL A   1      42.438  22.064  25.700  1.00  0.00     0.059 A 
ATOM     61  C   UNL A   1      42.293  21.225  27.975  1.00  0.00     0.059 A 
ATOM     62  F   UNL A   1      42.347  22.728  29.772  1.00  0.00    -0.206 F 
ATOM     63  C   UNL A   1      42.326  21.002  26.600  1.00  0.00     0.060 A 
BRANCH  63  64
ATOM     64  S   UNL A   1      42.258  19.322  25.943  1.00  0.00     0.124 S 
ATOM     65  O   UNL A   1      42.758  18.545  27.074  1.00  0.00    -0.237 OA
ATOM     66  O   UNL A   1      40.837  19.165  25.646  1.00  0.00    -0.237 OA
ATOM     67  O   UNL A   1      43.138  19.372  24.781  1.00  0.00    -0.744 OA
ENDBRANCH  63  64
ENDBRANCH  42  56
BRANCH  43  68
ATOM     68  C   UNL A   1      43.960  32.597  31.755  1.00  0.00     0.058 A 
ATOM     69  C   UNL A   1      43.724  32.711  33.134  1.00  0.00     0.135 A 
ATOM     70  C   UNL A   1      44.343  33.760  31.066  1.00  0.00     0.135 A 
ATOM     71  F   UNL A   1      43.353  31.633  33.841  1.00  0.00    -0.206 F 
ATOM     72  C   UNL A   1      43.814  33.933  33.793  1.00  0.00     0.059 A 
ATOM     73  C   UNL A   1      44.477  34.985  31.709  1.00  0.00     0.059 A 
ATOM     74  F   UNL A   1      44.598  33.710  29.749  1.00  0.00    -0.206 F 
ATOM     75  C   UNL A   1      44.187  35.067  33.069  1.00  0.00     0.060 A 
BRANCH  75  76
ATOM     76  S   UNL A   1      44.291  36.650  33.930  1.00  0.00     0.124 S 
ATOM     77  O   UNL A   1      44.895  36.254  35.198  1.00  0.00    -0.237 OA
ATOM     78  O   UNL A   1      45.137  37.430  33.034  1.00  0.00    -0.237 OA
ATOM     79  O   UNL A   1      42.898  37.084  34.003  1.00  0.00    -0.744 OA
ENDBRANCH  75  76
ENDBRANCH  43  68
BRANCH  55  80
ATOM     80  C   UNL A   1      48.033  27.036  30.673  1.00  0.00     0.058 A 
ATOM     81  C   UNL A   1      48.357  26.482  31.921  1.00  0.00     0.135 A 
ATOM     82  C   UNL A   1      49.074  27.217  29.746  1.00  0.00     0.135 A 
ATOM     83  F   UNL A   1      47.402  26.299  32.847  1.00  0.00    -0.206 F 
ATOM     84  C   UNL A   1      49.663  26.128  32.241  1.00  0.00     0.059 A 
ATOM     85  C   UNL A   1      50.381  26.836  30.033  1.00  0.00     0.059 A 
ATOM     86  F   UNL A   1      48.819  27.738  28.535  1.00  0.00    -0.206 F 
ATOM     87  C   UNL A   1      50.666  26.298  31.286  1.00  0.00     0.060 A 
BRANCH  87  88
ATOM     88  S   UNL A   1      52.341  25.769  31.695  1.00  0.00     0.124 S 
ATOM     89  O   UNL A   1      52.668  26.655  32.808  1.00  0.00    -0.237 OA
ATOM     90  O   UNL A   1      52.146  24.364  32.040  1.00  0.00    -0.237 OA
ATOM     91  O   UNL A   1      53.086  26.010  30.464  1.00  0.00    -0.744 OA
ENDBRANCH  87  88
ENDBRANCH  55  80
ENDBRANCH  29  30
ENDBRANCH  21  24
ENDBRANCH  19  20
ENDBRANCH   1  19
TORSDOF 17
ENDMDL
