MODEL 1
REMARK VINA RESULT:     -12.5      0.000      0.000
REMARK SMILES O=C(NCCCNC(=O)[C@@H]1CC[C@@H](CNC(=O)c2cccc(O)c2)O1)c1ccc(-c2c3nc(c(-c4c(F)cc(S(=O)(=O)[O-])cc4F)c4ccc([nH]4)c(-c4c(F)cc(S(=O)(=O)[O-])cc4F)c4nc(c(-c5c(F)cc(S(=O)(=O)[O-])cc5F)c5ccc2[nH]5)C=C4)C=C3)cc1
REMARK SMILES IDX 5 1 4 2 3 3 1 4 2 5 26 7 27 8 91 9 28 10 90 11 29 12 30 13
REMARK SMILES IDX 31 14 84 15 32 16 89 17 83 18 85 19 33 20 88 21 82 22 81 23
REMARK SMILES IDX 34 25 68 26 47 27 67 28 48 29 51 30 66 31 86 32 49 33 50 34
REMARK SMILES IDX 65 36 87 37 52 38 35 39 36 40 45 41 37 42 38 43 44 44 46 45
REMARK SMILES IDX 39 46 40 47 41 48 42 49 43 50 69 51 70 52 79 53 71 54 72 55
REMARK SMILES IDX 78 56 80 57 73 58 74 59 75 60 76 61 77 62 53 63 54 64 63 65
REMARK SMILES IDX 55 66 56 67 62 68 64 69 57 70 58 71 59 72 60 73 61 74 6 75
REMARK SMILES IDX 7 76 8 77 9 79 10 80 11 81 25 82 12 83 13 84 14 85 15 86
REMARK SMILES IDX 16 87 17 89 18 90 19 91 24 92 20 93 22 94 21 95 23 96
REMARK H PARENT 3 6 85 24 51 35 7 78 15 88 23 97
REMARK Flexibility Score: inf
ROOT
ATOM      1  C   UNL A   1      38.953  22.712  26.504  1.00  0.00     0.042 C 
ENDROOT
BRANCH   1   2
ATOM      2  C   UNL A   1      40.254  23.337  27.003  1.00  0.00     0.118 C 
BRANCH   2   3
ATOM      3  N   UNL A   1      40.918  24.155  25.996  1.00  0.00    -0.352 N 
ATOM      4  O   UNL A   1      41.697  26.009  24.994  1.00  0.00    -0.269 OA
ATOM      5  C   UNL A   1      41.277  25.481  26.021  1.00  0.00     0.251 C 
ATOM      6  H   UNL A   1      41.145  23.681  25.163  1.00  0.00     0.163 HD
BRANCH   5   7
ATOM      7  C   UNL A   1      41.138  26.281  27.260  1.00  0.00     0.039 A 
ATOM      8  C   UNL A   1      40.109  26.037  28.171  1.00  0.00     0.014 A 
ATOM      9  C   UNL A   1      42.075  27.286  27.525  1.00  0.00     0.014 A 
ATOM     10  C   UNL A   1      39.923  26.890  29.255  1.00  0.00     0.010 A 
ATOM     11  C   UNL A   1      41.935  28.091  28.660  1.00  0.00     0.010 A 
ATOM     12  C   UNL A   1      40.833  27.930  29.511  1.00  0.00    -0.014 A 
BRANCH  12  13
ATOM     13  C   UNL A   1      40.616  28.821  30.683  1.00  0.00     0.031 A 
ATOM     14  C   UNL A   1      41.509  28.738  31.894  1.00  0.00     0.074 A 
ATOM     15  C   UNL A   1      39.628  29.736  30.638  1.00  0.00     0.049 A 
ATOM     16  N   UNL A   1      41.496  29.471  32.979  1.00  0.00    -0.248 NA
ATOM     17  C   UNL A   1      42.544  27.694  31.891  1.00  0.00     0.031 C 
ATOM     18  C   UNL A   1      38.687  29.905  29.527  1.00  0.00     0.029 A 
ATOM     19  N   UNL A   1      39.263  30.710  31.533  1.00  0.00    -0.354 N 
ATOM     20  C   UNL A   1      42.500  28.964  33.796  1.00  0.00     0.074 A 
ATOM     21  C   UNL A   1      43.087  27.844  33.092  1.00  0.00     0.031 C 
ATOM     22  C   UNL A   1      37.888  30.951  29.784  1.00  0.00     0.029 A 
ATOM     23  C   UNL A   1      38.225  31.496  31.095  1.00  0.00     0.049 A 
ATOM     24  H   UNL A   1      39.703  30.832  32.405  1.00  0.00     0.167 HD
ATOM     25  C   UNL A   1      42.902  29.398  35.017  1.00  0.00     0.037 A 
ATOM     26  C   UNL A   1      37.609  32.541  31.681  1.00  0.00     0.037 A 
ATOM     27  C   UNL A   1      42.330  30.528  35.705  1.00  0.00     0.049 A 
ATOM     28  C   UNL A   1      38.073  33.003  33.033  1.00  0.00     0.074 A 
ATOM     29  C   UNL A   1      42.699  31.071  36.923  1.00  0.00     0.029 A 
ATOM     30  N   UNL A   1      41.268  31.286  35.236  1.00  0.00    -0.354 N 
ATOM     31  N   UNL A   1      39.051  32.535  33.772  1.00  0.00    -0.248 NA
ATOM     32  C   UNL A   1      37.354  34.136  33.629  1.00  0.00     0.031 C 
ATOM     33  C   UNL A   1      41.833  32.133  37.211  1.00  0.00     0.029 A 
ATOM     34  C   UNL A   1      40.954  32.281  36.149  1.00  0.00     0.049 A 
ATOM     35  H   UNL A   1      40.803  31.139  34.381  1.00  0.00     0.167 HD
ATOM     36  C   UNL A   1      39.081  33.333  34.909  1.00  0.00     0.074 A 
ATOM     37  C   UNL A   1      38.030  34.318  34.756  1.00  0.00     0.031 C 
ATOM     38  C   UNL A   1      39.909  33.260  35.980  1.00  0.00     0.037 A 
BRANCH  25  39
ATOM     39  C   UNL A   1      44.002  28.629  35.700  1.00  0.00     0.058 A 
ATOM     40  C   UNL A   1      45.358  28.933  35.493  1.00  0.00     0.135 A 
ATOM     41  C   UNL A   1      43.695  27.588  36.590  1.00  0.00     0.135 A 
ATOM     42  F   UNL A   1      45.710  29.910  34.642  1.00  0.00    -0.206 F 
ATOM     43  C   UNL A   1      46.368  28.205  36.114  1.00  0.00     0.059 A 
ATOM     44  C   UNL A   1      44.689  26.864  37.243  1.00  0.00     0.059 A 
ATOM     45  F   UNL A   1      42.415  27.259  36.828  1.00  0.00    -0.206 F 
ATOM     46  C   UNL A   1      46.024  27.168  36.982  1.00  0.00     0.060 A 
BRANCH  46  47
ATOM     47  S   UNL A   1      47.346  26.216  37.762  1.00  0.00     0.124 S 
ATOM     48  O   UNL A   1      46.596  25.410  38.720  1.00  0.00    -0.237 OA
ATOM     49  O   UNL A   1      47.917  25.488  36.633  1.00  0.00    -0.237 OA
ATOM     50  O   UNL A   1      48.208  27.242  38.341  1.00  0.00    -0.744 OA
ENDBRANCH  46  47
ENDBRANCH  25  39
BRANCH  26  51
ATOM     51  C   UNL A   1      36.504  33.235  30.972  1.00  0.00     0.058 A 
ATOM     52  C   UNL A   1      35.186  33.160  31.445  1.00  0.00     0.135 A 
ATOM     53  C   UNL A   1      36.747  34.018  29.833  1.00  0.00     0.135 A 
ATOM     54  F   UNL A   1      34.904  32.420  32.529  1.00  0.00    -0.206 F 
ATOM     55  C   UNL A   1      34.145  33.829  30.811  1.00  0.00     0.059 A 
ATOM     56  C   UNL A   1      35.728  34.716  29.196  1.00  0.00     0.059 A 
ATOM     57  F   UNL A   1      37.994  34.135  29.351  1.00  0.00    -0.206 F 
ATOM     58  C   UNL A   1      34.427  34.610  29.689  1.00  0.00     0.060 A 
BRANCH  58  59
ATOM     59  S   UNL A   1      33.082  35.530  28.911  1.00  0.00     0.124 S 
ATOM     60  O   UNL A   1      32.489  34.511  28.052  1.00  0.00    -0.237 OA
ATOM     61  O   UNL A   1      32.283  35.938  30.063  1.00  0.00    -0.237 OA
ATOM     62  O   UNL A   1      33.773  36.615  28.222  1.00  0.00    -0.744 OA
ENDBRANCH  58  59
ENDBRANCH  26  51
BRANCH  38  63
ATOM     63  C   UNL A   1      39.739  34.300  37.053  1.00  0.00     0.058 A 
ATOM     64  C   UNL A   1      39.021  34.039  38.230  1.00  0.00     0.135 A 
ATOM     65  C   UNL A   1      40.326  35.567  36.908  1.00  0.00     0.135 A 
ATOM     66  F   UNL A   1      38.434  32.846  38.414  1.00  0.00    -0.206 F 
ATOM     67  C   UNL A   1      38.868  35.008  39.216  1.00  0.00     0.059 A 
ATOM     68  C   UNL A   1      40.207  36.543  37.892  1.00  0.00     0.059 A 
ATOM     69  F   UNL A   1      41.032  35.864  35.805  1.00  0.00    -0.206 F 
ATOM     70  C   UNL A   1      39.463  36.259  39.037  1.00  0.00     0.060 A 
BRANCH  70  71
ATOM     71  S   UNL A   1      39.274  37.505  40.330  1.00  0.00     0.124 S 
ATOM     72  O   UNL A   1      40.647  37.973  40.489  1.00  0.00    -0.237 OA
ATOM     73  O   UNL A   1      38.347  38.453  39.721  1.00  0.00    -0.237 OA
ATOM     74  O   UNL A   1      38.735  36.746  41.455  1.00  0.00    -0.744 OA
ENDBRANCH  70  71
ENDBRANCH  38  63
ENDBRANCH  12  13
ENDBRANCH   5   7
ENDBRANCH   2   3
ENDBRANCH   1   2
BRANCH   1  75
ATOM     75  C   UNL A   1      37.923  23.723  26.012  1.00  0.00     0.117 C 
BRANCH  75  76
ATOM     76  N   UNL A   1      37.642  23.568  24.595  1.00  0.00    -0.354 N 
ATOM     77  C   UNL A   1      36.545  23.007  23.997  1.00  0.00     0.249 C 
ATOM     78  H   UNL A   1      38.332  23.913  23.983  1.00  0.00     0.163 HD
ATOM     79  O   UNL A   1      36.530  22.926  22.768  1.00  0.00    -0.272 OA
BRANCH  77  80
ATOM     80  C   UNL A   1      35.395  22.508  24.886  1.00  0.00     0.207 C 
ATOM     81  C   UNL A   1      35.740  21.276  25.717  1.00  0.00     0.045 C 
ATOM     82  O   UNL A   1      34.272  22.148  24.057  1.00  0.00    -0.363 OA
ATOM     83  C   UNL A   1      34.465  20.467  25.673  1.00  0.00     0.037 C 
ATOM     84  C   UNL A   1      33.974  20.757  24.268  1.00  0.00     0.138 C 
BRANCH  84  85
ATOM     85  C   UNL A   1      32.475  20.537  24.063  1.00  0.00     0.148 C 
BRANCH  85  86
ATOM     86  N   UNL A   1      32.162  19.697  22.916  1.00  0.00    -0.349 N 
ATOM     87  C   UNL A   1      32.391  18.367  22.682  1.00  0.00     0.251 C 
ATOM     88  H   UNL A   1      31.707  20.167  22.181  1.00  0.00     0.163 HD
ATOM     89  O   UNL A   1      32.085  17.886  21.594  1.00  0.00    -0.269 OA
BRANCH  87  90
ATOM     90  C   UNL A   1      33.030  17.506  23.701  1.00  0.00     0.043 A 
ATOM     91  C   UNL A   1      34.411  17.283  23.730  1.00  0.00     0.014 A 
ATOM     92  C   UNL A   1      32.214  16.961  24.697  1.00  0.00     0.060 A 
ATOM     93  C   UNL A   1      34.961  16.444  24.701  1.00  0.00     0.005 A 
ATOM     94  C   UNL A   1      32.777  16.144  25.671  1.00  0.00     0.116 A 
ATOM     95  C   UNL A   1      34.141  15.867  25.672  1.00  0.00     0.046 A 
BRANCH  94  96
ATOM     96  O   UNL A   1      31.948  15.626  26.621  1.00  0.00    -0.508 OA
ATOM     97  H   UNL A   1      31.849  16.061  27.446  1.00  0.00     0.293 HD
ENDBRANCH  94  96
ENDBRANCH  87  90
ENDBRANCH  85  86
ENDBRANCH  84  85
ENDBRANCH  77  80
ENDBRANCH  75  76
ENDBRANCH   1  75
TORSDOF 17
ENDMDL
MODEL 2
REMARK VINA RESULT:     -12.3      3.529      9.525
REMARK SMILES O=C(NCCCNC(=O)[C@@H]1CC[C@@H](CNC(=O)c2cccc(O)c2)O1)c1ccc(-c2c3nc(c(-c4c(F)cc(S(=O)(=O)[O-])cc4F)c4ccc([nH]4)c(-c4c(F)cc(S(=O)(=O)[O-])cc4F)c4nc(c(-c5c(F)cc(S(=O)(=O)[O-])cc5F)c5ccc2[nH]5)C=C4)C=C3)cc1
REMARK SMILES IDX 5 1 4 2 3 3 1 4 2 5 26 7 27 8 91 9 28 10 90 11 29 12 30 13
REMARK SMILES IDX 31 14 84 15 32 16 89 17 83 18 85 19 33 20 88 21 82 22 81 23
REMARK SMILES IDX 34 25 68 26 47 27 67 28 48 29 51 30 66 31 86 32 49 33 50 34
REMARK SMILES IDX 65 36 87 37 52 38 35 39 36 40 45 41 37 42 38 43 44 44 46 45
REMARK SMILES IDX 39 46 40 47 41 48 42 49 43 50 69 51 70 52 79 53 71 54 72 55
REMARK SMILES IDX 78 56 80 57 73 58 74 59 75 60 76 61 77 62 53 63 54 64 63 65
REMARK SMILES IDX 55 66 56 67 62 68 64 69 57 70 58 71 59 72 60 73 61 74 6 75
REMARK SMILES IDX 7 76 8 77 9 79 10 80 11 81 25 82 12 83 13 84 14 85 15 86
REMARK SMILES IDX 16 87 17 89 18 90 19 91 24 92 20 93 22 94 21 95 23 96
REMARK H PARENT 3 6 85 24 51 35 7 78 15 88 23 97
REMARK Flexibility Score: inf
ROOT
ATOM      1  C   UNL A   1      33.442  27.442  26.541  1.00  0.00     0.042 C 
ENDROOT
BRANCH   1   2
ATOM      2  C   UNL A   1      34.111  28.596  25.799  1.00  0.00     0.118 C 
BRANCH   2   3
ATOM      3  N   UNL A   1      33.749  29.904  26.333  1.00  0.00    -0.352 N 
ATOM      4  O   UNL A   1      33.765  31.669  27.723  1.00  0.00    -0.269 OA
ATOM      5  C   UNL A   1      34.329  30.650  27.329  1.00  0.00     0.251 C 
ATOM      6  H   UNL A   1      32.961  30.318  25.911  1.00  0.00     0.163 HD
BRANCH   5   7
ATOM      7  C   UNL A   1      35.607  30.229  27.948  1.00  0.00     0.039 A 
ATOM      8  C   UNL A   1      35.632  29.378  29.055  1.00  0.00     0.014 A 
ATOM      9  C   UNL A   1      36.809  30.678  27.391  1.00  0.00     0.014 A 
ATOM     10  C   UNL A   1      36.838  29.108  29.696  1.00  0.00     0.010 A 
ATOM     11  C   UNL A   1      38.028  30.338  27.988  1.00  0.00     0.010 A 
ATOM     12  C   UNL A   1      38.050  29.586  29.173  1.00  0.00    -0.014 A 
BRANCH  12  13
ATOM     13  C   UNL A   1      39.325  29.274  29.873  1.00  0.00     0.031 A 
ATOM     14  C   UNL A   1      39.703  29.985  31.146  1.00  0.00     0.074 A 
ATOM     15  C   UNL A   1      40.130  28.315  29.375  1.00  0.00     0.049 A 
ATOM     16  N   UNL A   1      40.748  29.802  31.915  1.00  0.00    -0.248 NA
ATOM     17  C   UNL A   1      38.797  31.045  31.615  1.00  0.00     0.031 C 
ATOM     18  C   UNL A   1      39.881  27.565  28.141  1.00  0.00     0.029 A 
ATOM     19  N   UNL A   1      41.304  27.790  29.851  1.00  0.00    -0.354 N 
ATOM     20  C   UNL A   1      40.639  30.734  32.940  1.00  0.00     0.074 A 
ATOM     21  C   UNL A   1      39.438  31.500  32.683  1.00  0.00     0.031 C 
ATOM     22  C   UNL A   1      40.843  26.643  27.986  1.00  0.00     0.029 A 
ATOM     23  C   UNL A   1      41.803  26.769  29.078  1.00  0.00     0.049 A 
ATOM     24  H   UNL A   1      41.748  28.115  30.668  1.00  0.00     0.167 HD
ATOM     25  C   UNL A   1      41.460  30.928  34.002  1.00  0.00     0.037 A 
ATOM     26  C   UNL A   1      42.909  26.015  29.229  1.00  0.00     0.037 A 
ATOM     27  C   UNL A   1      42.642  30.148  34.267  1.00  0.00     0.049 A 
ATOM     28  C   UNL A   1      43.801  26.249  30.415  1.00  0.00     0.074 A 
ATOM     29  C   UNL A   1      43.512  30.239  35.340  1.00  0.00     0.029 A 
ATOM     30  N   UNL A   1      43.123  29.135  33.450  1.00  0.00    -0.354 N 
ATOM     31  N   UNL A   1      43.660  27.109  31.395  1.00  0.00    -0.248 NA
ATOM     32  C   UNL A   1      45.000  25.408  30.517  1.00  0.00     0.031 C 
ATOM     33  C   UNL A   1      44.541  29.309  35.151  1.00  0.00     0.029 A 
ATOM     34  C   UNL A   1      44.287  28.606  33.984  1.00  0.00     0.049 A 
ATOM     35  H   UNL A   1      42.700  28.837  32.612  1.00  0.00     0.167 HD
ATOM     36  C   UNL A   1      44.738  26.895  32.245  1.00  0.00     0.074 A 
ATOM     37  C   UNL A   1      45.517  25.819  31.667  1.00  0.00     0.031 C 
ATOM     38  C   UNL A   1      45.050  27.529  33.402  1.00  0.00     0.037 A 
BRANCH  25  39
ATOM     39  C   UNL A   1      41.117  32.047  34.950  1.00  0.00     0.058 A 
ATOM     40  C   UNL A   1      40.234  31.864  36.026  1.00  0.00     0.135 A 
ATOM     41  C   UNL A   1      41.697  33.316  34.790  1.00  0.00     0.135 A 
ATOM     42  F   UNL A   1      39.640  30.675  36.219  1.00  0.00    -0.206 F 
ATOM     43  C   UNL A   1      39.909  32.909  36.886  1.00  0.00     0.059 A 
ATOM     44  C   UNL A   1      41.406  34.369  35.653  1.00  0.00     0.059 A 
ATOM     45  F   UNL A   1      42.551  33.546  33.780  1.00  0.00    -0.206 F 
ATOM     46  C   UNL A   1      40.495  34.160  36.687  1.00  0.00     0.060 A 
BRANCH  46  47
ATOM     47  S   UNL A   1      40.044  35.513  37.795  1.00  0.00     0.124 S 
ATOM     48  O   UNL A   1      38.799  35.013  38.370  1.00  0.00    -0.237 OA
ATOM     49  O   UNL A   1      41.184  35.567  38.705  1.00  0.00    -0.237 OA
ATOM     50  O   UNL A   1      39.908  36.656  36.898  1.00  0.00    -0.744 OA
ENDBRANCH  46  47
ENDBRANCH  25  39
BRANCH  26  51
ATOM     51  C   UNL A   1      43.213  24.950  28.239  1.00  0.00     0.058 A 
ATOM     52  C   UNL A   1      42.863  23.615  28.488  1.00  0.00     0.135 A 
ATOM     53  C   UNL A   1      43.821  25.250  27.010  1.00  0.00     0.135 A 
ATOM     54  F   UNL A   1      42.283  23.280  29.651  1.00  0.00    -0.206 F 
ATOM     55  C   UNL A   1      43.112  22.612  27.558  1.00  0.00     0.059 A 
ATOM     56  C   UNL A   1      44.058  24.268  26.055  1.00  0.00     0.059 A 
ATOM     57  F   UNL A   1      44.159  26.515  26.718  1.00  0.00    -0.206 F 
ATOM     58  C   UNL A   1      43.706  22.950  26.341  1.00  0.00     0.060 A 
BRANCH  58  59
ATOM     59  S   UNL A   1      43.965  21.652  25.113  1.00  0.00     0.124 S 
ATOM     60  O   UNL A   1      43.739  22.377  23.868  1.00  0.00    -0.237 OA
ATOM     61  O   UNL A   1      45.343  21.250  25.377  1.00  0.00    -0.237 OA
ATOM     62  O   UNL A   1      42.954  20.657  25.458  1.00  0.00    -0.744 OA
ENDBRANCH  58  59
ENDBRANCH  26  51
BRANCH  38  63
ATOM     63  C   UNL A   1      46.265  27.047  34.143  1.00  0.00     0.058 A 
ATOM     64  C   UNL A   1      47.534  27.609  33.932  1.00  0.00     0.135 A 
ATOM     65  C   UNL A   1      46.151  26.024  35.099  1.00  0.00     0.135 A 
ATOM     66  F   UNL A   1      47.698  28.584  33.024  1.00  0.00    -0.206 F 
ATOM     67  C   UNL A   1      48.653  27.155  34.622  1.00  0.00     0.059 A 
ATOM     68  C   UNL A   1      47.252  25.571  35.819  1.00  0.00     0.059 A 
ATOM     69  F   UNL A   1      44.958  25.460  35.347  1.00  0.00    -0.206 F 
ATOM     70  C   UNL A   1      48.502  26.133  35.562  1.00  0.00     0.060 A 
BRANCH  70  71
ATOM     71  S   UNL A   1      49.957  25.562  36.466  1.00  0.00     0.124 S 
ATOM     72  O   UNL A   1      50.781  26.767  36.486  1.00  0.00    -0.237 OA
ATOM     73  O   UNL A   1      49.392  25.158  37.749  1.00  0.00    -0.237 OA
ATOM     74  O   UNL A   1      50.462  24.469  35.639  1.00  0.00    -0.744 OA
ENDBRANCH  70  71
ENDBRANCH  38  63
ENDBRANCH  12  13
ENDBRANCH   5   7
ENDBRANCH   2   3
ENDBRANCH   1   2
BRANCH   1  75
ATOM     75  C   UNL A   1      32.427  26.667  25.707  1.00  0.00     0.117 C 
BRANCH  75  76
ATOM     76  N   UNL A   1      31.554  25.853  26.533  1.00  0.00    -0.354 N 
ATOM     77  C   UNL A   1      31.268  24.518  26.418  1.00  0.00     0.249 C 
ATOM     78  H   UNL A   1      31.109  26.321  27.275  1.00  0.00     0.163 HD
ATOM     79  O   UNL A   1      30.450  24.028  27.198  1.00  0.00    -0.272 OA
BRANCH  77  80
ATOM     80  C   UNL A   1      31.977  23.704  25.324  1.00  0.00     0.207 C 
ATOM     81  C   UNL A   1      31.226  22.448  24.896  1.00  0.00     0.045 C 
ATOM     82  O   UNL A   1      33.264  23.272  25.810  1.00  0.00    -0.363 OA
ATOM     83  C   UNL A   1      32.333  21.441  24.689  1.00  0.00     0.037 C 
ATOM     84  C   UNL A   1      33.304  21.834  25.785  1.00  0.00     0.138 C 
BRANCH  84  85
ATOM     85  C   UNL A   1      34.745  21.385  25.546  1.00  0.00     0.148 C 
BRANCH  85  86
ATOM     86  N   UNL A   1      35.294  21.840  24.277  1.00  0.00    -0.349 N 
ATOM     87  C   UNL A   1      36.486  22.444  23.974  1.00  0.00     0.251 C 
ATOM     88  H   UNL A   1      34.706  21.688  23.503  1.00  0.00     0.163 HD
ATOM     89  O   UNL A   1      36.703  22.798  22.817  1.00  0.00    -0.269 OA
BRANCH  87  90
ATOM     90  C   UNL A   1      37.500  22.709  25.016  1.00  0.00     0.043 A 
ATOM     91  C   UNL A   1      37.537  23.909  25.734  1.00  0.00     0.014 A 
ATOM     92  C   UNL A   1      38.403  21.685  25.322  1.00  0.00     0.060 A 
ATOM     93  C   UNL A   1      38.530  24.117  26.694  1.00  0.00     0.005 A 
ATOM     94  C   UNL A   1      39.373  21.896  26.293  1.00  0.00     0.116 A 
ATOM     95  C   UNL A   1      39.456  23.110  26.971  1.00  0.00     0.046 A 
BRANCH  94  96
ATOM     96  O   UNL A   1      40.239  20.877  26.559  1.00  0.00    -0.508 OA
ATOM     97  H   UNL A   1      41.163  21.021  26.508  1.00  0.00     0.293 HD
ENDBRANCH  94  96
ENDBRANCH  87  90
ENDBRANCH  85  86
ENDBRANCH  84  85
ENDBRANCH  77  80
ENDBRANCH  75  76
ENDBRANCH   1  75
TORSDOF 17
ENDMDL
MODEL 3
REMARK VINA RESULT:     -12.3      6.232     12.738
REMARK SMILES O=C(NCCCNC(=O)[C@@H]1CC[C@@H](CNC(=O)c2cccc(O)c2)O1)c1ccc(-c2c3nc(c(-c4c(F)cc(S(=O)(=O)[O-])cc4F)c4ccc([nH]4)c(-c4c(F)cc(S(=O)(=O)[O-])cc4F)c4nc(c(-c5c(F)cc(S(=O)(=O)[O-])cc5F)c5ccc2[nH]5)C=C4)C=C3)cc1
REMARK SMILES IDX 5 1 4 2 3 3 1 4 2 5 26 7 27 8 91 9 28 10 90 11 29 12 30 13
REMARK SMILES IDX 31 14 84 15 32 16 89 17 83 18 85 19 33 20 88 21 82 22 81 23
REMARK SMILES IDX 34 25 68 26 47 27 67 28 48 29 51 30 66 31 86 32 49 33 50 34
REMARK SMILES IDX 65 36 87 37 52 38 35 39 36 40 45 41 37 42 38 43 44 44 46 45
REMARK SMILES IDX 39 46 40 47 41 48 42 49 43 50 69 51 70 52 79 53 71 54 72 55
REMARK SMILES IDX 78 56 80 57 73 58 74 59 75 60 76 61 77 62 53 63 54 64 63 65
REMARK SMILES IDX 55 66 56 67 62 68 64 69 57 70 58 71 59 72 60 73 61 74 6 75
REMARK SMILES IDX 7 76 8 77 9 79 10 80 11 81 25 82 12 83 13 84 14 85 15 86
REMARK SMILES IDX 16 87 17 89 18 90 19 91 24 92 20 93 22 94 21 95 23 96
REMARK H PARENT 3 6 85 24 51 35 7 78 15 88 23 97
REMARK Flexibility Score: inf
ROOT
ATOM      1  C   UNL A   1      34.466  33.275  27.952  1.00  0.00     0.042 C 
ENDROOT
BRANCH   1   2
ATOM      2  C   UNL A   1      34.594  32.109  28.929  1.00  0.00     0.118 C 
BRANCH   2   3
ATOM      3  N   UNL A   1      34.093  30.852  28.387  1.00  0.00    -0.352 N 
ATOM      4  O   UNL A   1      34.152  28.813  27.446  1.00  0.00    -0.269 OA
ATOM      5  C   UNL A   1      34.763  29.708  28.026  1.00  0.00     0.251 C 
ATOM      6  H   UNL A   1      33.117  30.818  28.259  1.00  0.00     0.163 HD
BRANCH   5   7
ATOM      7  C   UNL A   1      36.210  29.556  28.303  1.00  0.00     0.039 A 
ATOM      8  C   UNL A   1      37.170  29.852  27.334  1.00  0.00     0.014 A 
ATOM      9  C   UNL A   1      36.614  29.129  29.572  1.00  0.00     0.014 A 
ATOM     10  C   UNL A   1      38.511  29.571  27.577  1.00  0.00     0.010 A 
ATOM     11  C   UNL A   1      37.971  28.926  29.843  1.00  0.00     0.010 A 
ATOM     12  C   UNL A   1      38.929  29.103  28.833  1.00  0.00    -0.014 A 
BRANCH  12  13
ATOM     13  C   UNL A   1      40.370  28.821  29.069  1.00  0.00     0.031 A 
ATOM     14  C   UNL A   1      40.981  27.508  28.650  1.00  0.00     0.074 A 
ATOM     15  C   UNL A   1      41.143  29.771  29.631  1.00  0.00     0.049 A 
ATOM     16  N   UNL A   1      42.228  27.115  28.731  1.00  0.00    -0.248 NA
ATOM     17  C   UNL A   1      40.075  26.503  28.075  1.00  0.00     0.031 C 
ATOM     18  C   UNL A   1      40.666  31.078  30.093  1.00  0.00     0.029 A 
ATOM     19  N   UNL A   1      42.489  29.799  29.891  1.00  0.00    -0.354 N 
ATOM     20  C   UNL A   1      42.253  25.815  28.241  1.00  0.00     0.074 A 
ATOM     21  C   UNL A   1      40.891  25.474  27.889  1.00  0.00     0.031 C 
ATOM     22  C   UNL A   1      41.710  31.797  30.530  1.00  0.00     0.029 A 
ATOM     23  C   UNL A   1      42.921  30.988  30.427  1.00  0.00     0.049 A 
ATOM     24  H   UNL A   1      43.088  29.039  29.710  1.00  0.00     0.167 HD
ATOM     25  C   UNL A   1      43.314  24.983  28.092  1.00  0.00     0.037 A 
ATOM     26  C   UNL A   1      44.152  31.387  30.797  1.00  0.00     0.037 A 
ATOM     27  C   UNL A   1      44.672  25.335  28.423  1.00  0.00     0.049 A 
ATOM     28  C   UNL A   1      45.312  30.449  30.620  1.00  0.00     0.074 A 
ATOM     29  C   UNL A   1      45.821  24.578  28.265  1.00  0.00     0.029 A 
ATOM     30  N   UNL A   1      45.065  26.542  28.982  1.00  0.00    -0.354 N 
ATOM     31  N   UNL A   1      45.322  29.236  30.119  1.00  0.00    -0.248 NA
ATOM     32  C   UNL A   1      46.628  30.932  31.056  1.00  0.00     0.031 C 
ATOM     33  C   UNL A   1      46.903  25.312  28.766  1.00  0.00     0.029 A 
ATOM     34  C   UNL A   1      46.435  26.546  29.193  1.00  0.00     0.049 A 
ATOM     35  H   UNL A   1      44.459  27.288  29.198  1.00  0.00     0.167 HD
ATOM     36  C   UNL A   1      46.648  28.822  30.153  1.00  0.00     0.074 A 
ATOM     37  C   UNL A   1      47.411  29.916  30.718  1.00  0.00     0.031 C 
ATOM     38  C   UNL A   1      47.184  27.644  29.749  1.00  0.00     0.037 A 
BRANCH  25  39
ATOM     39  C   UNL A   1      43.044  23.599  27.565  1.00  0.00     0.058 A 
ATOM     40  C   UNL A   1      43.179  23.284  26.203  1.00  0.00     0.135 A 
ATOM     41  C   UNL A   1      42.665  22.568  28.439  1.00  0.00     0.135 A 
ATOM     42  F   UNL A   1      43.527  24.234  25.320  1.00  0.00    -0.206 F 
ATOM     43  C   UNL A   1      42.910  22.006  25.722  1.00  0.00     0.059 A 
ATOM     44  C   UNL A   1      42.415  21.276  27.984  1.00  0.00     0.059 A 
ATOM     45  F   UNL A   1      42.525  22.813  29.752  1.00  0.00    -0.206 F 
ATOM     46  C   UNL A   1      42.521  21.010  26.620  1.00  0.00     0.060 A 
BRANCH  46  47
ATOM     47  S   UNL A   1      42.150  19.364  25.978  1.00  0.00     0.124 S 
ATOM     48  O   UNL A   1      42.520  18.522  27.112  1.00  0.00    -0.237 OA
ATOM     49  O   UNL A   1      40.721  19.451  25.695  1.00  0.00    -0.237 OA
ATOM     50  O   UNL A   1      43.013  19.253  24.806  1.00  0.00    -0.744 OA
ENDBRANCH  46  47
ENDBRANCH  25  39
BRANCH  26  51
ATOM     51  C   UNL A   1      44.349  32.753  31.346  1.00  0.00     0.058 A 
ATOM     52  C   UNL A   1      44.623  33.836  30.498  1.00  0.00     0.135 A 
ATOM     53  C   UNL A   1      44.227  33.011  32.720  1.00  0.00     0.135 A 
ATOM     54  F   UNL A   1      44.753  33.638  29.177  1.00  0.00    -0.206 F 
ATOM     55  C   UNL A   1      44.779  35.126  30.993  1.00  0.00     0.059 A 
ATOM     56  C   UNL A   1      44.354  34.296  33.235  1.00  0.00     0.059 A 
ATOM     57  F   UNL A   1      43.949  32.010  33.569  1.00  0.00    -0.206 F 
ATOM     58  C   UNL A   1      44.637  35.347  32.364  1.00  0.00     0.060 A 
BRANCH  58  59
ATOM     59  S   UNL A   1      44.774  37.036  32.989  1.00  0.00     0.124 S 
ATOM     60  O   UNL A   1      44.280  37.809  31.856  1.00  0.00    -0.237 OA
ATOM     61  O   UNL A   1      43.908  36.999  34.164  1.00  0.00    -0.237 OA
ATOM     62  O   UNL A   1      46.199  37.172  33.275  1.00  0.00    -0.744 OA
ENDBRANCH  58  59
ENDBRANCH  26  51
BRANCH  38  63
ATOM     63  C   UNL A   1      48.675  27.493  29.864  1.00  0.00     0.058 A 
ATOM     64  C   UNL A   1      49.284  27.027  31.039  1.00  0.00     0.135 A 
ATOM     65  C   UNL A   1      49.503  27.795  28.771  1.00  0.00     0.135 A 
ATOM     66  F   UNL A   1      48.539  26.731  32.115  1.00  0.00    -0.206 F 
ATOM     67  C   UNL A   1      50.666  26.892  31.136  1.00  0.00     0.059 A 
ATOM     68  C   UNL A   1      50.884  27.644  28.837  1.00  0.00     0.059 A 
ATOM     69  F   UNL A   1      48.969  28.236  27.619  1.00  0.00    -0.206 F 
ATOM     70  C   UNL A   1      51.458  27.205  30.030  1.00  0.00     0.060 A 
BRANCH  70  71
ATOM     71  S   UNL A   1      53.248  27.010  30.158  1.00  0.00     0.124 S 
ATOM     72  O   UNL A   1      53.353  25.817  30.993  1.00  0.00    -0.237 OA
ATOM     73  O   UNL A   1      53.648  26.846  28.765  1.00  0.00    -0.237 OA
ATOM     74  O   UNL A   1      53.680  28.256  30.786  1.00  0.00    -0.744 OA
ENDBRANCH  70  71
ENDBRANCH  38  63
ENDBRANCH  12  13
ENDBRANCH   5   7
ENDBRANCH   2   3
ENDBRANCH   1   2
BRANCH   1  75
ATOM     75  C   UNL A   1      33.118  33.988  28.003  1.00  0.00     0.117 C 
BRANCH  75  76
ATOM     76  N   UNL A   1      33.268  35.425  28.143  1.00  0.00    -0.354 N 
ATOM     77  C   UNL A   1      33.231  36.182  29.285  1.00  0.00     0.249 C 
ATOM     78  H   UNL A   1      33.418  35.923  27.307  1.00  0.00     0.163 HD
ATOM     79  O   UNL A   1      33.328  37.405  29.176  1.00  0.00    -0.272 OA
BRANCH  77  80
ATOM     80  C   UNL A   1      33.070  35.468  30.636  1.00  0.00     0.207 C 
ATOM     81  C   UNL A   1      32.330  36.288  31.689  1.00  0.00     0.045 C 
ATOM     82  O   UNL A   1      34.372  35.174  31.180  1.00  0.00    -0.363 OA
ATOM     83  C   UNL A   1      33.076  35.963  32.962  1.00  0.00     0.037 C 
ATOM     84  C   UNL A   1      34.498  35.836  32.451  1.00  0.00     0.138 C 
BRANCH  84  85
ATOM     85  C   UNL A   1      35.422  35.011  33.346  1.00  0.00     0.148 C 
BRANCH  85  86
ATOM     86  N   UNL A   1      35.436  33.593  33.019  1.00  0.00    -0.349 N 
ATOM     87  C   UNL A   1      36.281  32.856  32.232  1.00  0.00     0.251 C 
ATOM     88  H   UNL A   1      34.711  33.073  33.435  1.00  0.00     0.163 HD
ATOM     89  O   UNL A   1      36.051  31.662  32.054  1.00  0.00    -0.269 OA
BRANCH  87  90
ATOM     90  C   UNL A   1      37.446  33.476  31.565  1.00  0.00     0.043 A 
ATOM     91  C   UNL A   1      37.437  33.813  30.207  1.00  0.00     0.014 A 
ATOM     92  C   UNL A   1      38.559  33.787  32.353  1.00  0.00     0.060 A 
ATOM     93  C   UNL A   1      38.572  34.378  29.622  1.00  0.00     0.005 A 
ATOM     94  C   UNL A   1      39.675  34.368  31.763  1.00  0.00     0.116 A 
ATOM     95  C   UNL A   1      39.698  34.650  30.400  1.00  0.00     0.046 A 
BRANCH  94  96
ATOM     96  O   UNL A   1      40.742  34.650  32.563  1.00  0.00    -0.508 OA
ATOM     97  H   UNL A   1      41.613  34.578  32.226  1.00  0.00     0.293 HD
ENDBRANCH  94  96
ENDBRANCH  87  90
ENDBRANCH  85  86
ENDBRANCH  84  85
ENDBRANCH  77  80
ENDBRANCH  75  76
ENDBRANCH   1  75
TORSDOF 17
ENDMDL
