MODEL 1
REMARK VINA RESULT:     -11.3      0.000      0.000
REMARK SMILES CC[NH2+][C@@]1(C(=O)NCCCNC(=O)c2ccc(-c3c4nc(c(-c5c(F)cc(S(=O)(=O)[O-])cc5F)c5ccc([nH]5)c(-c5c(F)cc(S(=O)(=O)[O-])cc5F)c5nc(c(-c6c(F)cc(S(=O)(=O)[O-])cc6F)c6ccc3[nH]6)C=C5)C=C4)cc2)CC[C@@H]([N@@H+](C)Cc2nccn2C)C1
REMARK SMILES IDX 9 1 8 2 7 3 5 4 6 5 4 7 80 8 92 9 81 10 82 11 3 12 2 15 1 16
REMARK SMILES IDX 83 17 84 18 85 20 86 21 87 22 90 23 88 24 89 25 91 26 10 27
REMARK SMILES IDX 11 28 12 29 13 31 14 32 15 33 79 34 16 35 78 36 17 37 18 38
REMARK SMILES IDX 19 39 72 40 20 41 77 42 71 43 73 44 21 45 76 46 70 47 69 48
REMARK SMILES IDX 22 50 56 51 35 52 55 53 36 54 39 55 54 56 74 57 37 58 38 59
REMARK SMILES IDX 53 61 75 62 40 63 23 64 24 65 33 66 25 67 26 68 32 69 34 70
REMARK SMILES IDX 27 71 28 72 29 73 30 74 31 75 57 76 58 77 67 78 59 79 60 80
REMARK SMILES IDX 66 81 68 82 61 83 62 84 63 85 64 86 65 87 41 88 42 89 51 90
REMARK SMILES IDX 43 91 44 92 50 93 52 94 45 95 46 96 47 97 48 98 49 99
REMARK H PARENT 7 6 3 13 3 14 83 19 11 30 73 49 39 60
REMARK Flexibility Score: inf
ROOT
ATOM      1  C   UNL A   1      38.804  22.633  26.320  1.00  0.00     0.042 C 
ENDROOT
BRANCH   1   2
ATOM      2  C   UNL A   1      37.534  23.332  25.871  1.00  0.00     0.118 C 
BRANCH   2   3
ATOM      3  N   UNL A   1      37.403  23.323  24.442  1.00  0.00    -0.351 N 
ATOM      4  C   UNL A   1      36.332  23.200  23.621  1.00  0.00     0.281 C 
ATOM      5  O   UNL A   1      36.647  22.983  22.441  1.00  0.00    -0.268 OA
ATOM      6  H   UNL A   1      38.258  23.425  23.965  1.00  0.00     0.163 HD
BRANCH   4   7
ATOM      7  C   UNL A   1      34.812  23.330  24.073  1.00  0.00     0.181 C 
ATOM      8  C   UNL A   1      33.771  23.484  22.951  1.00  0.00     0.085 C 
ATOM      9  C   UNL A   1      34.564  24.553  24.986  1.00  0.00     0.144 C 
ATOM     10  C   UNL A   1      33.358  24.953  22.885  1.00  0.00     0.072 C 
ATOM     11  C   UNL A   1      33.986  25.658  24.090  1.00  0.00     0.191 C 
BRANCH   7  12
ATOM     12  N   UNL A   1      34.496  22.114  24.888  1.00  0.00    -0.334 N 
ATOM     13  H   UNL A   1      34.411  21.320  24.253  1.00  0.00     0.347 HD
ATOM     14  H   UNL A   1      35.257  22.012  25.560  1.00  0.00     0.347 HD
BRANCH  12  15
ATOM     15  C   UNL A   1      33.265  22.205  25.671  1.00  0.00     0.257 C 
ATOM     16  C   UNL A   1      32.381  21.011  25.346  1.00  0.00     0.071 C 
ENDBRANCH  12  15
ENDBRANCH   7  12
BRANCH  11  17
ATOM     17  N   UNL A   1      33.204  26.698  24.772  1.00  0.00    -0.328 N 
ATOM     18  C   UNL A   1      31.777  26.571  24.522  1.00  0.00     0.333 C 
ATOM     19  H   UNL A   1      33.536  27.541  24.303  1.00  0.00     0.348 HD
BRANCH  17  20
ATOM     20  C   UNL A   1      33.553  27.074  26.159  1.00  0.00     0.338 C 
BRANCH  20  21
ATOM     21  C   UNL A   1      33.152  28.444  26.648  1.00  0.00     0.164 A 
ATOM     22  N   UNL A   1      31.914  28.923  26.597  1.00  0.00    -0.236 NA
ATOM     23  N   UNL A   1      34.004  29.422  27.117  1.00  0.00    -0.333 N 
ATOM     24  C   UNL A   1      32.012  30.266  26.854  1.00  0.00     0.131 A 
ATOM     25  C   UNL A   1      33.308  30.604  27.150  1.00  0.00     0.107 A 
ATOM     26  C   UNL A   1      35.393  29.308  27.484  1.00  0.00     0.151 C 
ENDBRANCH  20  21
ENDBRANCH  17  20
ENDBRANCH  11  17
ENDBRANCH   4   7
ENDBRANCH   2   3
ENDBRANCH   1   2
BRANCH   1  27
ATOM     27  C   UNL A   1      39.718  23.602  27.034  1.00  0.00     0.118 C 
BRANCH  27  28
ATOM     28  N   UNL A   1      40.664  24.218  26.107  1.00  0.00    -0.352 N 
ATOM     29  C   UNL A   1      41.158  25.494  26.087  1.00  0.00     0.251 C 
ATOM     30  H   UNL A   1      40.993  23.629  25.390  1.00  0.00     0.163 HD
ATOM     31  O   UNL A   1      41.758  25.898  25.093  1.00  0.00    -0.269 OA
BRANCH  29  32
ATOM     32  C   UNL A   1      40.952  26.368  27.254  1.00  0.00     0.039 A 
ATOM     33  C   UNL A   1      39.998  26.020  28.212  1.00  0.00     0.014 A 
ATOM     34  C   UNL A   1      41.707  27.534  27.401  1.00  0.00     0.014 A 
ATOM     35  C   UNL A   1      39.826  26.836  29.328  1.00  0.00     0.010 A 
ATOM     36  C   UNL A   1      41.645  28.252  28.579  1.00  0.00     0.010 A 
ATOM     37  C   UNL A   1      40.662  27.948  29.525  1.00  0.00    -0.014 A 
BRANCH  37  38
ATOM     38  C   UNL A   1      40.467  28.875  30.661  1.00  0.00     0.031 A 
ATOM     39  C   UNL A   1      41.328  28.721  31.889  1.00  0.00     0.074 A 
ATOM     40  C   UNL A   1      39.495  29.805  30.605  1.00  0.00     0.049 A 
ATOM     41  N   UNL A   1      41.281  29.376  33.018  1.00  0.00    -0.248 NA
ATOM     42  C   UNL A   1      42.349  27.656  31.863  1.00  0.00     0.031 C 
ATOM     43  C   UNL A   1      38.566  29.996  29.489  1.00  0.00     0.029 A 
ATOM     44  N   UNL A   1      39.129  30.764  31.510  1.00  0.00    -0.354 N 
ATOM     45  C   UNL A   1      42.243  28.790  33.833  1.00  0.00     0.074 A 
ATOM     46  C   UNL A   1      42.796  27.672  33.107  1.00  0.00     0.031 C 
ATOM     47  C   UNL A   1      37.764  31.039  29.759  1.00  0.00     0.029 A 
ATOM     48  C   UNL A   1      38.095  31.562  31.080  1.00  0.00     0.049 A 
ATOM     49  H   UNL A   1      39.564  30.873  32.386  1.00  0.00     0.167 HD
ATOM     50  C   UNL A   1      42.661  29.176  35.060  1.00  0.00     0.037 A 
ATOM     51  C   UNL A   1      37.490  32.598  31.689  1.00  0.00     0.037 A 
ATOM     52  C   UNL A   1      42.130  30.321  35.748  1.00  0.00     0.049 A 
ATOM     53  C   UNL A   1      37.985  33.024  33.045  1.00  0.00     0.074 A 
ATOM     54  C   UNL A   1      42.510  30.842  36.970  1.00  0.00     0.029 A 
ATOM     55  N   UNL A   1      41.108  31.126  35.265  1.00  0.00    -0.354 N 
ATOM     56  N   UNL A   1      38.937  32.496  33.779  1.00  0.00    -0.248 NA
ATOM     57  C   UNL A   1      37.336  34.193  33.648  1.00  0.00     0.031 C 
ATOM     58  C   UNL A   1      41.685  31.937  37.248  1.00  0.00     0.029 A 
ATOM     59  C   UNL A   1      40.835  32.136  36.170  1.00  0.00     0.049 A 
ATOM     60  H   UNL A   1      40.646  30.997  34.405  1.00  0.00     0.167 HD
ATOM     61  C   UNL A   1      39.029  33.295  34.914  1.00  0.00     0.074 A 
ATOM     62  C   UNL A   1      38.040  34.344  34.762  1.00  0.00     0.031 C 
ATOM     63  C   UNL A   1      39.856  33.177  35.983  1.00  0.00     0.037 A 
BRANCH  50  64
ATOM     64  C   UNL A   1      43.746  28.367  35.717  1.00  0.00     0.058 A 
ATOM     65  C   UNL A   1      45.109  28.635  35.494  1.00  0.00     0.135 A 
ATOM     66  C   UNL A   1      43.425  27.318  36.593  1.00  0.00     0.135 A 
ATOM     67  F   UNL A   1      45.477  29.611  34.648  1.00  0.00    -0.206 F 
ATOM     68  C   UNL A   1      46.109  27.874  36.089  1.00  0.00     0.059 A 
ATOM     69  C   UNL A   1      44.411  26.565  37.227  1.00  0.00     0.059 A 
ATOM     70  F   UNL A   1      42.141  27.012  36.839  1.00  0.00    -0.206 F 
ATOM     71  C   UNL A   1      45.750  26.842  36.956  1.00  0.00     0.060 A 
BRANCH  71  72
ATOM     72  S   UNL A   1      47.061  25.874  37.731  1.00  0.00     0.124 S 
ATOM     73  O   UNL A   1      48.214  26.750  37.551  1.00  0.00    -0.237 OA
ATOM     74  O   UNL A   1      46.578  25.739  39.102  1.00  0.00    -0.237 OA
ATOM     75  O   UNL A   1      47.081  24.641  36.952  1.00  0.00    -0.744 OA
ENDBRANCH  71  72
ENDBRANCH  50  64
BRANCH  51  76
ATOM     76  C   UNL A   1      36.390  33.327  31.002  1.00  0.00     0.058 A 
ATOM     77  C   UNL A   1      36.651  34.154  29.899  1.00  0.00     0.135 A 
ATOM     78  C   UNL A   1      35.057  33.200  31.422  1.00  0.00     0.135 A 
ATOM     79  F   UNL A   1      37.908  34.306  29.457  1.00  0.00    -0.206 F 
ATOM     80  C   UNL A   1      35.635  34.850  29.254  1.00  0.00     0.059 A 
ATOM     81  C   UNL A   1      34.020  33.865  30.775  1.00  0.00     0.059 A 
ATOM     82  F   UNL A   1      34.750  32.402  32.457  1.00  0.00    -0.206 F 
ATOM     83  C   UNL A   1      34.321  34.699  29.699  1.00  0.00     0.060 A 
BRANCH  83  84
ATOM     84  S   UNL A   1      33.006  35.579  28.829  1.00  0.00     0.124 S 
ATOM     85  O   UNL A   1      33.764  36.572  28.078  1.00  0.00    -0.237 OA
ATOM     86  O   UNL A   1      32.392  34.514  28.044  1.00  0.00    -0.237 OA
ATOM     87  O   UNL A   1      32.179  36.103  29.913  1.00  0.00    -0.744 OA
ENDBRANCH  83  84
ENDBRANCH  51  76
BRANCH  63  88
ATOM     88  C   UNL A   1      39.772  34.243  37.040  1.00  0.00     0.058 A 
ATOM     89  C   UNL A   1      39.073  34.047  38.240  1.00  0.00     0.135 A 
ATOM     90  C   UNL A   1      40.447  35.462  36.861  1.00  0.00     0.135 A 
ATOM     91  F   UNL A   1      38.411  32.901  38.458  1.00  0.00    -0.206 F 
ATOM     92  C   UNL A   1      39.015  35.039  39.213  1.00  0.00     0.059 A 
ATOM     93  C   UNL A   1      40.431  36.454  37.835  1.00  0.00     0.059 A 
ATOM     94  F   UNL A   1      41.144  35.693  35.737  1.00  0.00    -0.206 F 
ATOM     95  C   UNL A   1      39.697  36.239  39.001  1.00  0.00     0.060 A 
BRANCH  95  96
ATOM     96  S   UNL A   1      39.629  37.510  40.279  1.00  0.00     0.124 S 
ATOM     97  O   UNL A   1      41.045  37.802  40.476  1.00  0.00    -0.237 OA
ATOM     98  O   UNL A   1      38.848  38.560  39.634  1.00  0.00    -0.237 OA
ATOM     99  O   UNL A   1      38.967  36.837  41.393  1.00  0.00    -0.744 OA
ENDBRANCH  95  96
ENDBRANCH  63  88
ENDBRANCH  37  38
ENDBRANCH  29  32
ENDBRANCH  27  28
ENDBRANCH   1  27
TORSDOF 18
ENDMDL
MODEL 2
REMARK VINA RESULT:     -11.3      3.368      4.491
REMARK SMILES CC[NH2+][C@@]1(C(=O)NCCCNC(=O)c2ccc(-c3c4nc(c(-c5c(F)cc(S(=O)(=O)[O-])cc5F)c5ccc([nH]5)c(-c5c(F)cc(S(=O)(=O)[O-])cc5F)c5nc(c(-c6c(F)cc(S(=O)(=O)[O-])cc6F)c6ccc3[nH]6)C=C5)C=C4)cc2)CC[C@@H]([N@@H+](C)Cc2nccn2C)C1
REMARK SMILES IDX 9 1 8 2 7 3 5 4 6 5 4 7 80 8 92 9 81 10 82 11 3 12 2 15 1 16
REMARK SMILES IDX 83 17 84 18 85 20 86 21 87 22 90 23 88 24 89 25 91 26 10 27
REMARK SMILES IDX 11 28 12 29 13 31 14 32 15 33 79 34 16 35 78 36 17 37 18 38
REMARK SMILES IDX 19 39 72 40 20 41 77 42 71 43 73 44 21 45 76 46 70 47 69 48
REMARK SMILES IDX 22 50 56 51 35 52 55 53 36 54 39 55 54 56 74 57 37 58 38 59
REMARK SMILES IDX 53 61 75 62 40 63 23 64 24 65 33 66 25 67 26 68 32 69 34 70
REMARK SMILES IDX 27 71 28 72 29 73 30 74 31 75 57 76 58 77 67 78 59 79 60 80
REMARK SMILES IDX 66 81 68 82 61 83 62 84 63 85 64 86 65 87 41 88 42 89 51 90
REMARK SMILES IDX 43 91 44 92 50 93 52 94 45 95 46 96 47 97 48 98 49 99
REMARK H PARENT 7 6 3 13 3 14 83 19 11 30 73 49 39 60
REMARK Flexibility Score: inf
ROOT
ATOM      1  C   UNL A   1      35.493  23.449  25.857  1.00  0.00     0.042 C 
ENDROOT
BRANCH   1   2
ATOM      2  C   UNL A   1      34.404  24.466  25.571  1.00  0.00     0.118 C 
BRANCH   2   3
ATOM      3  N   UNL A   1      34.333  24.785  24.174  1.00  0.00    -0.351 N 
ATOM      4  C   UNL A   1      33.594  25.680  23.475  1.00  0.00     0.281 C 
ATOM      5  O   UNL A   1      33.626  25.484  22.250  1.00  0.00    -0.268 OA
ATOM      6  H   UNL A   1      34.939  24.247  23.614  1.00  0.00     0.163 HD
BRANCH   4   7
ATOM      7  C   UNL A   1      32.769  26.882  24.110  1.00  0.00     0.181 C 
ATOM      8  C   UNL A   1      31.627  26.503  25.069  1.00  0.00     0.085 C 
ATOM      9  C   UNL A   1      32.083  27.766  23.042  1.00  0.00     0.144 C 
ATOM     10  C   UNL A   1      30.306  26.649  24.317  1.00  0.00     0.072 C 
ATOM     11  C   UNL A   1      30.618  27.310  22.973  1.00  0.00     0.191 C 
BRANCH   7  12
ATOM     12  N   UNL A   1      33.754  27.756  24.823  1.00  0.00    -0.334 N 
ATOM     13  H   UNL A   1      34.646  27.262  24.862  1.00  0.00     0.347 HD
ATOM     14  H   UNL A   1      33.800  28.628  24.295  1.00  0.00     0.347 HD
BRANCH  12  15
ATOM     15  C   UNL A   1      33.376  28.120  26.188  1.00  0.00     0.257 C 
ATOM     16  C   UNL A   1      34.417  29.074  26.753  1.00  0.00     0.071 C 
ENDBRANCH  12  15
ENDBRANCH   7  12
BRANCH  11  17
ATOM     17  N   UNL A   1      29.662  28.292  22.441  1.00  0.00    -0.328 N 
ATOM     18  C   UNL A   1      28.413  28.307  23.188  1.00  0.00     0.333 C 
ATOM     19  H   UNL A   1      29.475  27.911  21.514  1.00  0.00     0.348 HD
BRANCH  17  20
ATOM     20  C   UNL A   1      30.147  29.628  22.031  1.00  0.00     0.338 C 
BRANCH  20  21
ATOM     21  C   UNL A   1      29.125  30.685  21.697  1.00  0.00     0.164 A 
ATOM     22  N   UNL A   1      28.518  30.792  20.520  1.00  0.00    -0.236 NA
ATOM     23  N   UNL A   1      28.749  31.738  22.504  1.00  0.00    -0.333 N 
ATOM     24  C   UNL A   1      27.903  32.016  20.515  1.00  0.00     0.131 A 
ATOM     25  C   UNL A   1      28.060  32.636  21.729  1.00  0.00     0.107 A 
ATOM     26  C   UNL A   1      29.028  31.946  23.902  1.00  0.00     0.151 C 
ENDBRANCH  20  21
ENDBRANCH  17  20
ENDBRANCH  11  17
ENDBRANCH   4   7
ENDBRANCH   2   3
ENDBRANCH   1   2
BRANCH   1  27
ATOM     27  C   UNL A   1      36.852  24.018  25.519  1.00  0.00     0.118 C 
BRANCH  27  28
ATOM     28  N   UNL A   1      37.896  23.004  25.649  1.00  0.00    -0.352 N 
ATOM     29  C   UNL A   1      39.162  23.118  26.156  1.00  0.00     0.251 C 
ATOM     30  H   UNL A   1      37.654  22.108  25.321  1.00  0.00     0.163 HD
ATOM     31  O   UNL A   1      39.977  22.218  25.963  1.00  0.00    -0.269 OA
BRANCH  29  32
ATOM     32  C   UNL A   1      39.531  24.324  26.916  1.00  0.00     0.039 A 
ATOM     33  C   UNL A   1      40.258  25.336  26.286  1.00  0.00     0.014 A 
ATOM     34  C   UNL A   1      39.154  24.455  28.254  1.00  0.00     0.014 A 
ATOM     35  C   UNL A   1      40.581  26.487  27.001  1.00  0.00     0.010 A 
ATOM     36  C   UNL A   1      39.339  25.657  28.909  1.00  0.00     0.010 A 
ATOM     37  C   UNL A   1      40.107  26.660  28.312  1.00  0.00    -0.014 A 
BRANCH  37  38
ATOM     38  C   UNL A   1      40.485  27.836  29.126  1.00  0.00     0.031 A 
ATOM     39  C   UNL A   1      41.819  27.842  29.828  1.00  0.00     0.074 A 
ATOM     40  C   UNL A   1      39.618  28.855  29.271  1.00  0.00     0.049 A 
ATOM     41  N   UNL A   1      42.320  28.733  30.641  1.00  0.00    -0.248 NA
ATOM     42  C   UNL A   1      42.689  26.668  29.627  1.00  0.00     0.031 C 
ATOM     43  C   UNL A   1      38.276  28.919  28.686  1.00  0.00     0.029 A 
ATOM     44  N   UNL A   1      39.737  30.033  29.957  1.00  0.00    -0.354 N 
ATOM     45  C   UNL A   1      43.542  28.216  31.059  1.00  0.00     0.074 A 
ATOM     46  C   UNL A   1      43.668  26.899  30.484  1.00  0.00     0.031 C 
ATOM     47  C   UNL A   1      37.715  30.096  29.003  1.00  0.00     0.029 A 
ATOM     48  C   UNL A   1      38.637  30.850  29.845  1.00  0.00     0.049 A 
ATOM     49  H   UNL A   1      40.535  30.274  30.481  1.00  0.00     0.167 HD
ATOM     50  C   UNL A   1      44.494  28.806  31.818  1.00  0.00     0.037 A 
ATOM     51  C   UNL A   1      38.408  32.070  30.364  1.00  0.00     0.037 A 
ATOM     52  C   UNL A   1      44.370  30.137  32.343  1.00  0.00     0.049 A 
ATOM     53  C   UNL A   1      39.490  32.715  31.189  1.00  0.00     0.074 A 
ATOM     54  C   UNL A   1      45.289  30.861  33.079  1.00  0.00     0.029 A 
ATOM     55  N   UNL A   1      43.255  30.948  32.179  1.00  0.00    -0.354 N 
ATOM     56  N   UNL A   1      40.666  32.238  31.526  1.00  0.00    -0.248 NA
ATOM     57  C   UNL A   1      39.222  34.068  31.688  1.00  0.00     0.031 C 
ATOM     58  C   UNL A   1      44.711  32.094  33.399  1.00  0.00     0.029 A 
ATOM     59  C   UNL A   1      43.458  32.162  32.809  1.00  0.00     0.049 A 
ATOM     60  H   UNL A   1      42.441  30.695  31.685  1.00  0.00     0.167 HD
ATOM     61  C   UNL A   1      41.295  33.250  32.243  1.00  0.00     0.074 A 
ATOM     62  C   UNL A   1      40.369  34.365  32.283  1.00  0.00     0.031 C 
ATOM     63  C   UNL A   1      42.525  33.261  32.815  1.00  0.00     0.037 A 
BRANCH  50  64
ATOM     64  C   UNL A   1      45.746  28.021  32.103  1.00  0.00     0.058 A 
ATOM     65  C   UNL A   1      45.873  27.219  33.251  1.00  0.00     0.135 A 
ATOM     66  C   UNL A   1      46.830  28.058  31.212  1.00  0.00     0.135 A 
ATOM     67  F   UNL A   1      44.878  27.162  34.150  1.00  0.00    -0.206 F 
ATOM     68  C   UNL A   1      47.038  26.508  33.520  1.00  0.00     0.059 A 
ATOM     69  C   UNL A   1      47.994  27.327  31.444  1.00  0.00     0.059 A 
ATOM     70  F   UNL A   1      46.770  28.811  30.102  1.00  0.00    -0.206 F 
ATOM     71  C   UNL A   1      48.092  26.567  32.608  1.00  0.00     0.060 A 
BRANCH  71  72
ATOM     72  S   UNL A   1      49.591  25.627  32.966  1.00  0.00     0.124 S 
ATOM     73  O   UNL A   1      49.039  24.412  33.555  1.00  0.00    -0.237 OA
ATOM     74  O   UNL A   1      50.185  25.475  31.641  1.00  0.00    -0.237 OA
ATOM     75  O   UNL A   1      50.325  26.492  33.883  1.00  0.00    -0.744 OA
ENDBRANCH  71  72
ENDBRANCH  50  64
BRANCH  51  76
ATOM     76  C   UNL A   1      37.128  32.772  30.081  1.00  0.00     0.058 A 
ATOM     77  C   UNL A   1      37.015  33.661  29.002  1.00  0.00     0.135 A 
ATOM     78  C   UNL A   1      35.987  32.557  30.871  1.00  0.00     0.135 A 
ATOM     79  F   UNL A   1      38.076  33.899  28.216  1.00  0.00    -0.206 F 
ATOM     80  C   UNL A   1      35.829  34.334  28.732  1.00  0.00     0.059 A 
ATOM     81  C   UNL A   1      34.781  33.197  30.603  1.00  0.00     0.059 A 
ATOM     82  F   UNL A   1      36.034  31.697  31.900  1.00  0.00    -0.206 F 
ATOM     83  C   UNL A   1      34.715  34.094  29.538  1.00  0.00     0.060 A 
BRANCH  83  84
ATOM     84  S   UNL A   1      33.169  34.945  29.154  1.00  0.00     0.124 S 
ATOM     85  O   UNL A   1      32.525  34.986  30.461  1.00  0.00    -0.237 OA
ATOM     86  O   UNL A   1      33.645  36.222  28.634  1.00  0.00    -0.237 OA
ATOM     87  O   UNL A   1      32.541  34.070  28.168  1.00  0.00    -0.744 OA
ENDBRANCH  83  84
ENDBRANCH  51  76
BRANCH  63  88
ATOM     88  C   UNL A   1      42.966  34.537  33.475  1.00  0.00     0.058 A 
ATOM     89  C   UNL A   1      42.806  34.757  34.851  1.00  0.00     0.135 A 
ATOM     90  C   UNL A   1      43.605  35.533  32.718  1.00  0.00     0.135 A 
ATOM     91  F   UNL A   1      42.200  33.837  35.618  1.00  0.00    -0.206 F 
ATOM     92  C   UNL A   1      43.231  35.939  35.449  1.00  0.00     0.059 A 
ATOM     93  C   UNL A   1      44.068  36.707  33.301  1.00  0.00     0.059 A 
ATOM     94  F   UNL A   1      43.798  35.364  31.400  1.00  0.00    -0.206 F 
ATOM     95  C   UNL A   1      43.861  36.908  34.665  1.00  0.00     0.060 A 
BRANCH  95  96
ATOM     96  S   UNL A   1      44.424  38.428  35.457  1.00  0.00     0.124 S 
ATOM     97  O   UNL A   1      43.772  39.443  34.636  1.00  0.00    -0.237 OA
ATOM     98  O   UNL A   1      43.909  38.282  36.815  1.00  0.00    -0.237 OA
ATOM     99  O   UNL A   1      45.877  38.358  35.332  1.00  0.00    -0.744 OA
ENDBRANCH  95  96
ENDBRANCH  63  88
ENDBRANCH  37  38
ENDBRANCH  29  32
ENDBRANCH  27  28
ENDBRANCH   1  27
TORSDOF 18
ENDMDL
MODEL 3
REMARK VINA RESULT:     -11.3      6.335      8.603
REMARK SMILES CC[NH2+][C@@]1(C(=O)NCCCNC(=O)c2ccc(-c3c4nc(c(-c5c(F)cc(S(=O)(=O)[O-])cc5F)c5ccc([nH]5)c(-c5c(F)cc(S(=O)(=O)[O-])cc5F)c5nc(c(-c6c(F)cc(S(=O)(=O)[O-])cc6F)c6ccc3[nH]6)C=C5)C=C4)cc2)CC[C@@H]([N@@H+](C)Cc2nccn2C)C1
REMARK SMILES IDX 9 1 8 2 7 3 5 4 6 5 4 7 80 8 92 9 81 10 82 11 3 12 2 15 1 16
REMARK SMILES IDX 83 17 84 18 85 20 86 21 87 22 90 23 88 24 89 25 91 26 10 27
REMARK SMILES IDX 11 28 12 29 13 31 14 32 15 33 79 34 16 35 78 36 17 37 18 38
REMARK SMILES IDX 19 39 72 40 20 41 77 42 71 43 73 44 21 45 76 46 70 47 69 48
REMARK SMILES IDX 22 50 56 51 35 52 55 53 36 54 39 55 54 56 74 57 37 58 38 59
REMARK SMILES IDX 53 61 75 62 40 63 23 64 24 65 33 66 25 67 26 68 32 69 34 70
REMARK SMILES IDX 27 71 28 72 29 73 30 74 31 75 57 76 58 77 67 78 59 79 60 80
REMARK SMILES IDX 66 81 68 82 61 83 62 84 63 85 64 86 65 87 41 88 42 89 51 90
REMARK SMILES IDX 43 91 44 92 50 93 52 94 45 95 46 96 47 97 48 98 49 99
REMARK H PARENT 7 6 3 13 3 14 83 19 11 30 73 49 39 60
REMARK Flexibility Score: inf
ROOT
ATOM      1  C   UNL A   1      38.338  19.672  25.011  1.00  0.00     0.042 C 
ENDROOT
BRANCH   1   2
ATOM      2  C   UNL A   1      37.097  20.545  25.044  1.00  0.00     0.118 C 
BRANCH   2   3
ATOM      3  N   UNL A   1      37.218  21.669  24.160  1.00  0.00    -0.351 N 
ATOM      4  C   UNL A   1      36.325  22.585  23.714  1.00  0.00     0.281 C 
ATOM      5  O   UNL A   1      36.752  23.254  22.760  1.00  0.00    -0.268 OA
ATOM      6  H   UNL A   1      38.129  21.800  23.809  1.00  0.00     0.163 HD
BRANCH   4   7
ATOM      7  C   UNL A   1      34.878  22.826  24.327  1.00  0.00     0.181 C 
ATOM      8  C   UNL A   1      33.830  21.728  24.074  1.00  0.00     0.085 C 
ATOM      9  C   UNL A   1      34.208  24.113  23.789  1.00  0.00     0.144 C 
ATOM     10  C   UNL A   1      32.897  22.208  22.964  1.00  0.00     0.072 C 
ATOM     11  C   UNL A   1      33.241  23.672  22.681  1.00  0.00     0.191 C 
BRANCH   7  12
ATOM     12  N   UNL A   1      35.057  23.020  25.801  1.00  0.00    -0.334 N 
ATOM     13  H   UNL A   1      36.046  22.897  26.019  1.00  0.00     0.347 HD
ATOM     14  H   UNL A   1      34.712  23.956  26.012  1.00  0.00     0.347 HD
BRANCH  12  15
ATOM     15  C   UNL A   1      34.289  22.099  26.638  1.00  0.00     0.257 C 
ATOM     16  C   UNL A   1      33.275  22.892  27.448  1.00  0.00     0.071 C 
ENDBRANCH  12  15
ENDBRANCH   7  12
BRANCH  11  17
ATOM     17  N   UNL A   1      32.141  24.599  22.380  1.00  0.00    -0.328 N 
ATOM     18  C   UNL A   1      30.985  24.382  23.236  1.00  0.00     0.333 C 
ATOM     19  H   UNL A   1      31.893  24.318  21.431  1.00  0.00     0.348 HD
BRANCH  17  20
ATOM     20  C   UNL A   1      32.445  26.021  22.108  1.00  0.00     0.338 C 
BRANCH  20  21
ATOM     21  C   UNL A   1      31.557  27.071  22.729  1.00  0.00     0.164 A 
ATOM     22  N   UNL A   1      30.516  27.625  22.118  1.00  0.00    -0.236 NA
ATOM     23  N   UNL A   1      31.745  27.675  23.954  1.00  0.00    -0.333 N 
ATOM     24  C   UNL A   1      30.159  28.710  22.876  1.00  0.00     0.131 A 
ATOM     25  C   UNL A   1      30.931  28.778  24.008  1.00  0.00     0.107 A 
ATOM     26  C   UNL A   1      32.642  27.298  25.017  1.00  0.00     0.151 C 
ENDBRANCH  20  21
ENDBRANCH  17  20
ENDBRANCH  11  17
ENDBRANCH   4   7
ENDBRANCH   2   3
ENDBRANCH   1   2
BRANCH   1  27
ATOM     27  C   UNL A   1      39.444  20.294  25.831  1.00  0.00     0.118 C 
BRANCH  27  28
ATOM     28  N   UNL A   1      40.506  19.328  26.104  1.00  0.00    -0.352 N 
ATOM     29  C   UNL A   1      41.839  19.540  26.328  1.00  0.00     0.251 C 
ATOM     30  H   UNL A   1      40.221  18.387  26.130  1.00  0.00     0.163 HD
ATOM     31  O   UNL A   1      42.619  18.590  26.302  1.00  0.00    -0.269 OA
BRANCH  29  32
ATOM     32  C   UNL A   1      42.322  20.908  26.583  1.00  0.00     0.039 A 
ATOM     33  C   UNL A   1      42.529  21.328  27.898  1.00  0.00     0.014 A 
ATOM     34  C   UNL A   1      42.573  21.775  25.517  1.00  0.00     0.014 A 
ATOM     35  C   UNL A   1      43.011  22.614  28.133  1.00  0.00     0.010 A 
ATOM     36  C   UNL A   1      43.197  22.986  25.746  1.00  0.00     0.010 A 
ATOM     37  C   UNL A   1      43.365  23.443  27.055  1.00  0.00    -0.014 A 
BRANCH  37  38
ATOM     38  C   UNL A   1      43.817  24.836  27.263  1.00  0.00     0.031 A 
ATOM     39  C   UNL A   1      45.267  25.177  27.033  1.00  0.00     0.074 A 
ATOM     40  C   UNL A   1      42.945  25.763  27.701  1.00  0.00     0.049 A 
ATOM     41  N   UNL A   1      45.888  26.312  27.219  1.00  0.00    -0.248 NA
ATOM     42  C   UNL A   1      46.149  24.086  26.576  1.00  0.00     0.031 C 
ATOM     43  C   UNL A   1      41.534  25.522  28.015  1.00  0.00     0.029 A 
ATOM     44  N   UNL A   1      43.119  27.096  27.958  1.00  0.00    -0.354 N 
ATOM     45  C   UNL A   1      47.224  26.061  26.925  1.00  0.00     0.074 A 
ATOM     46  C   UNL A   1      47.342  24.652  26.636  1.00  0.00     0.031 C 
ATOM     47  C   UNL A   1      40.962  26.679  28.381  1.00  0.00     0.029 A 
ATOM     48  C   UNL A   1      41.971  27.732  28.368  1.00  0.00     0.049 A 
ATOM     49  H   UNL A   1      43.984  27.556  27.860  1.00  0.00     0.167 HD
ATOM     50  C   UNL A   1      48.254  26.936  26.858  1.00  0.00     0.037 A 
ATOM     51  C   UNL A   1      41.765  29.023  28.691  1.00  0.00     0.037 A 
ATOM     52  C   UNL A   1      48.107  28.344  27.105  1.00  0.00     0.049 A 
ATOM     53  C   UNL A   1      42.920  29.983  28.590  1.00  0.00     0.074 A 
ATOM     54  C   UNL A   1      49.063  29.338  27.015  1.00  0.00     0.029 A 
ATOM     55  N   UNL A   1      46.921  28.959  27.482  1.00  0.00    -0.354 N 
ATOM     56  N   UNL A   1      44.166  29.743  28.252  1.00  0.00    -0.248 NA
ATOM     57  C   UNL A   1      42.638  31.390  28.896  1.00  0.00     0.031 C 
ATOM     58  C   UNL A   1      48.466  30.548  27.383  1.00  0.00     0.029 A 
ATOM     59  C   UNL A   1      47.122  30.318  27.640  1.00  0.00     0.049 A 
ATOM     60  H   UNL A   1      46.062  28.495  27.616  1.00  0.00     0.167 HD
ATOM     61  C   UNL A   1      44.808  30.976  28.266  1.00  0.00     0.074 A 
ATOM     62  C   UNL A   1      43.808  31.958  28.638  1.00  0.00     0.031 C 
ATOM     63  C   UNL A   1      46.103  31.273  27.994  1.00  0.00     0.037 A 
BRANCH  50  64
ATOM     64  C   UNL A   1      49.609  26.396  26.491  1.00  0.00     0.058 A 
ATOM     65  C   UNL A   1      50.473  25.844  27.454  1.00  0.00     0.135 A 
ATOM     66  C   UNL A   1      50.048  26.414  25.158  1.00  0.00     0.135 A 
ATOM     67  F   UNL A   1      50.117  25.821  28.748  1.00  0.00    -0.206 F 
ATOM     68  C   UNL A   1      51.732  25.361  27.113  1.00  0.00     0.059 A 
ATOM     69  C   UNL A   1      51.290  25.904  24.789  1.00  0.00     0.059 A 
ATOM     70  F   UNL A   1      49.269  26.935  24.196  1.00  0.00    -0.206 F 
ATOM     71  C   UNL A   1      52.130  25.393  25.777  1.00  0.00     0.060 A 
BRANCH  71  72
ATOM     72  S   UNL A   1      53.762  24.748  25.351  1.00  0.00     0.124 S 
ATOM     73  O   UNL A   1      54.103  25.565  24.190  1.00  0.00    -0.237 OA
ATOM     74  O   UNL A   1      54.529  25.020  26.563  1.00  0.00    -0.237 OA
ATOM     75  O   UNL A   1      53.509  23.339  25.074  1.00  0.00    -0.744 OA
ENDBRANCH  71  72
ENDBRANCH  50  64
BRANCH  51  76
ATOM     76  C   UNL A   1      40.408  29.482  29.091  1.00  0.00     0.058 A 
ATOM     77  C   UNL A   1      39.407  29.697  28.133  1.00  0.00     0.135 A 
ATOM     78  C   UNL A   1      40.079  29.701  30.438  1.00  0.00     0.135 A 
ATOM     79  F   UNL A   1      39.670  29.500  26.832  1.00  0.00    -0.206 F 
ATOM     80  C   UNL A   1      38.137  30.138  28.490  1.00  0.00     0.059 A 
ATOM     81  C   UNL A   1      38.808  30.115  30.824  1.00  0.00     0.059 A 
ATOM     82  F   UNL A   1      40.994  29.486  31.398  1.00  0.00    -0.206 F 
ATOM     83  C   UNL A   1      37.847  30.344  29.840  1.00  0.00     0.060 A 
BRANCH  83  84
ATOM     84  S   UNL A   1      36.184  30.880  30.295  1.00  0.00     0.124 S 
ATOM     85  O   UNL A   1      35.937  30.085  31.492  1.00  0.00    -0.237 OA
ATOM     86  O   UNL A   1      36.371  32.311  30.505  1.00  0.00    -0.237 OA
ATOM     87  O   UNL A   1      35.385  30.525  29.125  1.00  0.00    -0.744 OA
ENDBRANCH  83  84
ENDBRANCH  51  76
BRANCH  63  88
ATOM     88  C   UNL A   1      46.498  32.724  28.024  1.00  0.00     0.058 A 
ATOM     89  C   UNL A   1      46.270  33.580  26.937  1.00  0.00     0.135 A 
ATOM     90  C   UNL A   1      47.070  33.270  29.185  1.00  0.00     0.135 A 
ATOM     91  F   UNL A   1      45.727  33.106  25.805  1.00  0.00    -0.206 F 
ATOM     92  C   UNL A   1      46.629  34.923  26.986  1.00  0.00     0.059 A 
ATOM     93  C   UNL A   1      47.407  34.616  29.267  1.00  0.00     0.059 A 
ATOM     94  F   UNL A   1      47.295  32.496  30.259  1.00  0.00    -0.206 F 
ATOM     95  C   UNL A   1      47.197  35.431  28.155  1.00  0.00     0.060 A 
BRANCH  95  96
ATOM     96  S   UNL A   1      47.642  37.178  28.212  1.00  0.00     0.124 S 
ATOM     97  O   UNL A   1      47.198  37.635  26.899  1.00  0.00    -0.237 OA
ATOM     98  O   UNL A   1      46.865  37.662  29.348  1.00  0.00    -0.237 OA
ATOM     99  O   UNL A   1      49.088  37.155  28.412  1.00  0.00    -0.744 OA
ENDBRANCH  95  96
ENDBRANCH  63  88
ENDBRANCH  37  38
ENDBRANCH  29  32
ENDBRANCH  27  28
ENDBRANCH   1  27
TORSDOF 18
ENDMDL
