MODEL 1
REMARK VINA RESULT:     -11.3      0.000      0.000
REMARK SMILES CC[C@@H]1CCCC[C@@]1(O)[C@H](F)C(=O)NCCCNC(=O)c1ccc(-c2c3nc(c(-c4c(F)cc(S(=O)(=O)[O-])cc4F)c4ccc([nH]4)c(-c4c(F)cc(S(=O)(=O)[O-])cc4F)c4nc(c(-c5c(F)cc(S(=O)(=O)[O-])cc5F)c5ccc2[nH]5)C=C4)C=C3)cc1
REMARK SMILES IDX 16 1 15 2 14 3 12 4 13 5 10 7 11 8 8 9 3 10 4 11 5 12 7 13
REMARK SMILES IDX 6 14 2 15 1 16 9 17 17 19 18 20 19 21 20 23 21 24 22 25
REMARK SMILES IDX 86 26 23 27 85 28 24 29 25 30 26 31 79 32 27 33 84 34 78 35
REMARK SMILES IDX 80 36 28 37 83 38 77 39 76 40 29 42 63 43 42 44 62 45 43 46
REMARK SMILES IDX 46 47 61 48 81 49 44 50 45 51 60 53 82 54 47 55 30 56 31 57
REMARK SMILES IDX 40 58 32 59 33 60 39 61 41 62 34 63 35 64 36 65 37 66 38 67
REMARK SMILES IDX 64 68 65 69 74 70 66 71 67 72 73 73 75 74 68 75 69 76 70 77
REMARK SMILES IDX 71 78 72 79 48 80 49 81 58 82 50 83 51 84 57 85 59 86 52 87
REMARK SMILES IDX 53 88 54 89 55 90 56 91
REMARK H PARENT 14 6 9 18 18 22 80 41 46 52
REMARK Flexibility Score: inf
ROOT
ATOM      1  C   UNL A   1      39.412  21.988  26.484  1.00  0.00     0.042 C 
ENDROOT
BRANCH   1   2
ATOM      2  C   UNL A   1      38.113  22.570  25.988  1.00  0.00     0.117 C 
BRANCH   2   3
ATOM      3  N   UNL A   1      37.817  22.444  24.587  1.00  0.00    -0.353 N 
ATOM      4  C   UNL A   1      36.736  22.997  23.943  1.00  0.00     0.257 C 
ATOM      5  O   UNL A   1      36.746  22.969  22.706  1.00  0.00    -0.272 OA
ATOM      6  H   UNL A   1      38.442  21.915  24.042  1.00  0.00     0.163 HD
BRANCH   4   7
ATOM      7  C   UNL A   1      35.524  23.559  24.727  1.00  0.00     0.287 C 
ATOM      8  F   UNL A   1      35.456  24.919  24.614  1.00  0.00    -0.234 F 
BRANCH   7   9
ATOM      9  C   UNL A   1      34.105  22.911  24.501  1.00  0.00     0.108 C 
ATOM     10  C   UNL A   1      34.117  21.409  24.967  1.00  0.00     0.024 C 
ATOM     11  C   UNL A   1      34.297  21.298  26.492  1.00  0.00     0.007 C 
ATOM     12  C   UNL A   1      33.323  22.136  27.322  1.00  0.00     0.001 C 
ATOM     13  C   UNL A   1      32.935  23.591  25.233  1.00  0.00     0.039 C 
ATOM     14  C   UNL A   1      33.010  23.517  26.760  1.00  0.00     0.003 C 
BRANCH  10  15
ATOM     15  C   UNL A   1      32.952  20.523  24.422  1.00  0.00     0.003 C 
ATOM     16  C   UNL A   1      32.784  19.103  24.949  1.00  0.00     0.004 C 
ENDBRANCH  10  15
BRANCH   9  17
ATOM     17  O   UNL A   1      33.847  22.949  23.087  1.00  0.00    -0.386 OA
ATOM     18  H   UNL A   1      33.069  22.405  22.885  1.00  0.00     0.211 HD
ENDBRANCH   9  17
ENDBRANCH   7   9
ENDBRANCH   4   7
ENDBRANCH   2   3
ENDBRANCH   1   2
BRANCH   1  19
ATOM     19  C   UNL A   1      40.375  23.015  27.045  1.00  0.00     0.118 C 
BRANCH  19  20
ATOM     20  N   UNL A   1      41.070  23.799  26.023  1.00  0.00    -0.352 N 
ATOM     21  C   UNL A   1      41.565  25.087  26.024  1.00  0.00     0.251 C 
ATOM     22  H   UNL A   1      41.211  23.316  25.177  1.00  0.00     0.163 HD
ATOM     23  O   UNL A   1      42.004  25.557  24.985  1.00  0.00    -0.269 OA
BRANCH  21  24
ATOM     24  C   UNL A   1      41.534  25.908  27.256  1.00  0.00     0.039 A 
ATOM     25  C   UNL A   1      42.584  26.794  27.518  1.00  0.00     0.014 A 
ATOM     26  C   UNL A   1      40.470  25.820  28.149  1.00  0.00     0.014 A 
ATOM     27  C   UNL A   1      42.502  27.661  28.612  1.00  0.00     0.010 A 
ATOM     28  C   UNL A   1      40.320  26.778  29.140  1.00  0.00     0.010 A 
ATOM     29  C   UNL A   1      41.339  27.703  29.397  1.00  0.00    -0.014 A 
BRANCH  29  30
ATOM     30  C   UNL A   1      41.154  28.685  30.496  1.00  0.00     0.031 A 
ATOM     31  C   UNL A   1      41.988  28.578  31.746  1.00  0.00     0.074 A 
ATOM     32  C   UNL A   1      40.157  29.589  30.424  1.00  0.00     0.049 A 
ATOM     33  N   UNL A   1      41.885  29.241  32.869  1.00  0.00    -0.248 NA
ATOM     34  C   UNL A   1      43.043  27.551  31.754  1.00  0.00     0.031 C 
ATOM     35  C   UNL A   1      39.219  29.733  29.308  1.00  0.00     0.029 A 
ATOM     36  N   UNL A   1      39.749  30.544  31.322  1.00  0.00    -0.354 N 
ATOM     37  C   UNL A   1      42.824  28.678  33.726  1.00  0.00     0.074 A 
ATOM     38  C   UNL A   1      43.442  27.580  33.016  1.00  0.00     0.031 C 
ATOM     39  C   UNL A   1      38.362  30.730  29.575  1.00  0.00     0.029 A 
ATOM     40  C   UNL A   1      38.662  31.273  30.897  1.00  0.00     0.049 A 
ATOM     41  H   UNL A   1      40.193  30.695  32.187  1.00  0.00     0.167 HD
ATOM     42  C   UNL A   1      43.164  29.057  34.982  1.00  0.00     0.037 A 
ATOM     43  C   UNL A   1      37.978  32.260  31.506  1.00  0.00     0.037 A 
ATOM     44  C   UNL A   1      42.586  30.190  35.655  1.00  0.00     0.049 A 
ATOM     45  C   UNL A   1      38.418  32.720  32.866  1.00  0.00     0.074 A 
ATOM     46  C   UNL A   1      42.933  30.733  36.879  1.00  0.00     0.029 A 
ATOM     47  N   UNL A   1      41.539  30.953  35.159  1.00  0.00    -0.354 N 
ATOM     48  N   UNL A   1      39.373  32.240  33.628  1.00  0.00    -0.248 NA
ATOM     49  C   UNL A   1      37.700  33.863  33.446  1.00  0.00     0.031 C 
ATOM     50  C   UNL A   1      42.069  31.802  37.140  1.00  0.00     0.029 A 
ATOM     51  C   UNL A   1      41.213  31.953  36.060  1.00  0.00     0.049 A 
ATOM     52  H   UNL A   1      41.094  30.806  34.294  1.00  0.00     0.167 HD
ATOM     53  C   UNL A   1      39.381  33.029  34.772  1.00  0.00     0.074 A 
ATOM     54  C   UNL A   1      38.347  34.029  34.594  1.00  0.00     0.031 C 
ATOM     55  C   UNL A   1      40.175  32.935  35.868  1.00  0.00     0.037 A 
BRANCH  42  56
ATOM     56  C   UNL A   1      44.209  28.240  35.692  1.00  0.00     0.058 A 
ATOM     57  C   UNL A   1      43.873  27.122  36.474  1.00  0.00     0.135 A 
ATOM     58  C   UNL A   1      45.565  28.593  35.609  1.00  0.00     0.135 A 
ATOM     59  F   UNL A   1      42.590  26.746  36.602  1.00  0.00    -0.206 F 
ATOM     60  C   UNL A   1      44.834  26.421  37.195  1.00  0.00     0.059 A 
ATOM     61  C   UNL A   1      46.549  27.884  36.294  1.00  0.00     0.059 A 
ATOM     62  F   UNL A   1      45.946  29.648  34.873  1.00  0.00    -0.206 F 
ATOM     63  C   UNL A   1      46.170  26.817  37.106  1.00  0.00     0.060 A 
BRANCH  63  64
ATOM     64  S   UNL A   1      47.401  25.923  38.077  1.00  0.00     0.124 S 
ATOM     65  O   UNL A   1      46.720  25.799  39.362  1.00  0.00    -0.237 OA
ATOM     66  O   UNL A   1      47.559  24.684  37.322  1.00  0.00    -0.237 OA
ATOM     67  O   UNL A   1      48.556  26.814  38.062  1.00  0.00    -0.744 OA
ENDBRANCH  63  64
ENDBRANCH  42  56
BRANCH  43  68
ATOM     68  C   UNL A   1      36.834  32.894  30.800  1.00  0.00     0.058 A 
ATOM     69  C   UNL A   1      35.512  32.582  31.149  1.00  0.00     0.135 A 
ATOM     70  C   UNL A   1      37.037  33.880  29.822  1.00  0.00     0.135 A 
ATOM     71  F   UNL A   1      35.266  31.642  32.074  1.00  0.00    -0.206 F 
ATOM     72  C   UNL A   1      34.431  33.230  30.559  1.00  0.00     0.059 A 
ATOM     73  C   UNL A   1      35.974  34.556  29.233  1.00  0.00     0.059 A 
ATOM     74  F   UNL A   1      38.286  34.227  29.469  1.00  0.00    -0.206 F 
ATOM     75  C   UNL A   1      34.673  34.225  29.610  1.00  0.00     0.060 A 
BRANCH  75  76
ATOM     76  S   UNL A   1      33.266  35.131  28.929  1.00  0.00     0.124 S 
ATOM     77  O   UNL A   1      32.497  35.430  30.131  1.00  0.00    -0.237 OA
ATOM     78  O   UNL A   1      33.918  36.270  28.288  1.00  0.00    -0.237 OA
ATOM     79  O   UNL A   1      32.660  34.170  28.013  1.00  0.00    -0.744 OA
ENDBRANCH  75  76
ENDBRANCH  43  68
BRANCH  55  80
ATOM     80  C   UNL A   1      39.968  33.949  36.957  1.00  0.00     0.058 A 
ATOM     81  C   UNL A   1      40.576  35.212  36.913  1.00  0.00     0.135 A 
ATOM     82  C   UNL A   1      39.101  33.674  38.028  1.00  0.00     0.135 A 
ATOM     83  F   UNL A   1      41.417  35.522  35.914  1.00  0.00    -0.206 F 
ATOM     84  C   UNL A   1      40.347  36.163  37.902  1.00  0.00     0.059 A 
ATOM     85  C   UNL A   1      38.839  34.618  39.014  1.00  0.00     0.059 A 
ATOM     86  F   UNL A   1      38.486  32.483  38.111  1.00  0.00    -0.206 F 
ATOM     87  C   UNL A   1      39.475  35.856  38.948  1.00  0.00     0.060 A 
BRANCH  87  88
ATOM     88  S   UNL A   1      39.157  37.111  40.206  1.00  0.00     0.124 S 
ATOM     89  O   UNL A   1      38.390  36.354  41.189  1.00  0.00    -0.237 OA
ATOM     90  O   UNL A   1      40.505  37.497  40.612  1.00  0.00    -0.237 OA
ATOM     91  O   UNL A   1      38.410  38.136  39.482  1.00  0.00    -0.744 OA
ENDBRANCH  87  88
ENDBRANCH  55  80
ENDBRANCH  29  30
ENDBRANCH  21  24
ENDBRANCH  19  20
ENDBRANCH   1  19
TORSDOF 16
ENDMDL
MODEL 2
REMARK VINA RESULT:     -11.2      6.863     12.430
REMARK SMILES CC[C@@H]1CCCC[C@@]1(O)[C@H](F)C(=O)NCCCNC(=O)c1ccc(-c2c3nc(c(-c4c(F)cc(S(=O)(=O)[O-])cc4F)c4ccc([nH]4)c(-c4c(F)cc(S(=O)(=O)[O-])cc4F)c4nc(c(-c5c(F)cc(S(=O)(=O)[O-])cc5F)c5ccc2[nH]5)C=C4)C=C3)cc1
REMARK SMILES IDX 16 1 15 2 14 3 12 4 13 5 10 7 11 8 8 9 3 10 4 11 5 12 7 13
REMARK SMILES IDX 6 14 2 15 1 16 9 17 17 19 18 20 19 21 20 23 21 24 22 25
REMARK SMILES IDX 86 26 23 27 85 28 24 29 25 30 26 31 79 32 27 33 84 34 78 35
REMARK SMILES IDX 80 36 28 37 83 38 77 39 76 40 29 42 63 43 42 44 62 45 43 46
REMARK SMILES IDX 46 47 61 48 81 49 44 50 45 51 60 53 82 54 47 55 30 56 31 57
REMARK SMILES IDX 40 58 32 59 33 60 39 61 41 62 34 63 35 64 36 65 37 66 38 67
REMARK SMILES IDX 64 68 65 69 74 70 66 71 67 72 73 73 75 74 68 75 69 76 70 77
REMARK SMILES IDX 71 78 72 79 48 80 49 81 58 82 50 83 51 84 57 85 59 86 52 87
REMARK SMILES IDX 53 88 54 89 55 90 56 91
REMARK H PARENT 14 6 9 18 18 22 80 41 46 52
REMARK Flexibility Score: inf
ROOT
ATOM      1  C   UNL A   1      34.482  31.230  27.331  1.00  0.00     0.042 C 
ENDROOT
BRANCH   1   2
ATOM      2  C   UNL A   1      34.171  29.758  27.228  1.00  0.00     0.117 C 
BRANCH   2   3
ATOM      3  N   UNL A   1      32.860  29.324  27.626  1.00  0.00    -0.353 N 
ATOM      4  C   UNL A   1      32.237  28.171  27.211  1.00  0.00     0.257 C 
ATOM      5  O   UNL A   1      31.204  27.845  27.810  1.00  0.00    -0.272 OA
ATOM      6  H   UNL A   1      32.365  29.903  28.247  1.00  0.00     0.163 HD
BRANCH   4   7
ATOM      7  C   UNL A   1      32.757  27.358  25.999  1.00  0.00     0.287 C 
ATOM      8  F   UNL A   1      33.329  26.185  26.406  1.00  0.00    -0.234 F 
BRANCH   7   9
ATOM      9  C   UNL A   1      31.792  27.111  24.777  1.00  0.00     0.108 C 
ATOM     10  C   UNL A   1      31.584  28.448  23.975  1.00  0.00     0.024 C 
ATOM     11  C   UNL A   1      32.887  28.896  23.289  1.00  0.00     0.007 C 
ATOM     12  C   UNL A   1      33.569  27.828  22.432  1.00  0.00     0.001 C 
ATOM     13  C   UNL A   1      32.257  26.054  23.761  1.00  0.00     0.039 C 
ATOM     14  C   UNL A   1      33.538  26.416  23.006  1.00  0.00     0.003 C 
BRANCH  10  15
ATOM     15  C   UNL A   1      30.348  28.479  23.023  1.00  0.00     0.003 C 
ATOM     16  C   UNL A   1      30.134  29.684  22.114  1.00  0.00     0.004 C 
ENDBRANCH  10  15
BRANCH   9  17
ATOM     17  O   UNL A   1      30.525  26.702  25.320  1.00  0.00    -0.386 OA
ATOM     18  H   UNL A   1      30.213  27.369  25.952  1.00  0.00     0.211 HD
ENDBRANCH   9  17
ENDBRANCH   7   9
ENDBRANCH   4   7
ENDBRANCH   2   3
ENDBRANCH   1   2
BRANCH   1  19
ATOM     19  C   UNL A   1      35.659  31.551  28.231  1.00  0.00     0.118 C 
BRANCH  19  20
ATOM     20  N   UNL A   1      35.524  31.032  29.592  1.00  0.00    -0.352 N 
ATOM     21  C   UNL A   1      36.410  30.380  30.424  1.00  0.00     0.251 C 
ATOM     22  H   UNL A   1      34.634  31.176  29.989  1.00  0.00     0.163 HD
ATOM     23  O   UNL A   1      36.010  29.934  31.490  1.00  0.00    -0.269 OA
BRANCH  21  24
ATOM     24  C   UNL A   1      37.822  30.186  30.022  1.00  0.00     0.039 A 
ATOM     25  C   UNL A   1      38.819  30.168  31.003  1.00  0.00     0.014 A 
ATOM     26  C   UNL A   1      38.168  30.009  28.686  1.00  0.00     0.014 A 
ATOM     27  C   UNL A   1      40.137  29.861  30.645  1.00  0.00     0.010 A 
ATOM     28  C   UNL A   1      39.438  29.559  28.355  1.00  0.00     0.010 A 
ATOM     29  C   UNL A   1      40.444  29.493  29.326  1.00  0.00    -0.014 A 
BRANCH  29  30
ATOM     30  C   UNL A   1      41.802  29.045  28.920  1.00  0.00     0.031 A 
ATOM     31  C   UNL A   1      42.922  30.047  28.818  1.00  0.00     0.074 A 
ATOM     32  C   UNL A   1      41.995  27.772  28.523  1.00  0.00     0.049 A 
ATOM     33  N   UNL A   1      44.133  29.889  28.349  1.00  0.00    -0.248 NA
ATOM     34  C   UNL A   1      42.625  31.423  29.251  1.00  0.00     0.031 C 
ATOM     35  C   UNL A   1      40.967  26.728  28.486  1.00  0.00     0.029 A 
ATOM     36  N   UNL A   1      43.120  27.143  28.051  1.00  0.00    -0.354 N 
ATOM     37  C   UNL A   1      44.719  31.150  28.385  1.00  0.00     0.074 A 
ATOM     38  C   UNL A   1      43.711  32.071  28.861  1.00  0.00     0.031 C 
ATOM     39  C   UNL A   1      41.513  25.586  28.040  1.00  0.00     0.029 A 
ATOM     40  C   UNL A   1      42.918  25.823  27.722  1.00  0.00     0.049 A 
ATOM     41  H   UNL A   1      43.990  27.593  27.959  1.00  0.00     0.167 HD
ATOM     42  C   UNL A   1      45.989  31.506  28.076  1.00  0.00     0.037 A 
ATOM     43  C   UNL A   1      43.765  24.908  27.212  1.00  0.00     0.037 A 
ATOM     44  C   UNL A   1      47.000  30.570  27.663  1.00  0.00     0.049 A 
ATOM     45  C   UNL A   1      45.190  25.300  26.951  1.00  0.00     0.074 A 
ATOM     46  C   UNL A   1      48.345  30.800  27.436  1.00  0.00     0.029 A 
ATOM     47  N   UNL A   1      46.776  29.224  27.415  1.00  0.00    -0.354 N 
ATOM     48  N   UNL A   1      45.756  26.477  27.080  1.00  0.00    -0.248 NA
ATOM     49  C   UNL A   1      46.097  24.242  26.487  1.00  0.00     0.031 C 
ATOM     50  C   UNL A   1      48.926  29.599  27.013  1.00  0.00     0.029 A 
ATOM     51  C   UNL A   1      47.953  28.612  27.018  1.00  0.00     0.049 A 
ATOM     52  H   UNL A   1      45.907  28.769  27.508  1.00  0.00     0.167 HD
ATOM     53  C   UNL A   1      47.089  26.300  26.728  1.00  0.00     0.074 A 
ATOM     54  C   UNL A   1      47.248  24.898  26.396  1.00  0.00     0.031 C 
ATOM     55  C   UNL A   1      48.090  27.215  26.686  1.00  0.00     0.037 A 
BRANCH  42  56
ATOM     56  C   UNL A   1      46.344  32.965  28.185  1.00  0.00     0.058 A 
ATOM     57  C   UNL A   1      46.898  33.509  29.355  1.00  0.00     0.135 A 
ATOM     58  C   UNL A   1      46.105  33.836  27.111  1.00  0.00     0.135 A 
ATOM     59  F   UNL A   1      47.135  32.725  30.420  1.00  0.00    -0.206 F 
ATOM     60  C   UNL A   1      47.147  34.872  29.479  1.00  0.00     0.059 A 
ATOM     61  C   UNL A   1      46.379  35.199  27.199  1.00  0.00     0.059 A 
ATOM     62  F   UNL A   1      45.582  33.372  25.965  1.00  0.00    -0.206 F 
ATOM     63  C   UNL A   1      46.874  35.711  28.398  1.00  0.00     0.060 A 
BRANCH  63  64
ATOM     64  S   UNL A   1      47.164  37.483  28.584  1.00  0.00     0.124 S 
ATOM     65  O   UNL A   1      48.011  37.759  27.428  1.00  0.00    -0.237 OA
ATOM     66  O   UNL A   1      45.813  38.031  28.524  1.00  0.00    -0.237 OA
ATOM     67  O   UNL A   1      47.821  37.583  29.883  1.00  0.00    -0.744 OA
ENDBRANCH  63  64
ENDBRANCH  42  56
BRANCH  43  68
ATOM     68  C   UNL A   1      43.278  23.526  26.963  1.00  0.00     0.058 A 
ATOM     69  C   UNL A   1      43.052  23.068  25.657  1.00  0.00     0.135 A 
ATOM     70  C   UNL A   1      43.106  22.613  28.015  1.00  0.00     0.135 A 
ATOM     71  F   UNL A   1      43.198  23.905  24.619  1.00  0.00    -0.206 F 
ATOM     72  C   UNL A   1      42.679  21.752  25.401  1.00  0.00     0.059 A 
ATOM     73  C   UNL A   1      42.754  21.287  27.783  1.00  0.00     0.059 A 
ATOM     74  F   UNL A   1      43.329  22.999  29.282  1.00  0.00    -0.206 F 
ATOM     75  C   UNL A   1      42.545  20.865  26.470  1.00  0.00     0.060 A 
BRANCH  75  76
ATOM     76  S   UNL A   1      42.165  19.134  26.117  1.00  0.00     0.124 S 
ATOM     77  O   UNL A   1      40.745  19.205  25.793  1.00  0.00    -0.237 OA
ATOM     78  O   UNL A   1      43.061  18.847  25.001  1.00  0.00    -0.237 OA
ATOM     79  O   UNL A   1      42.496  18.457  27.367  1.00  0.00    -0.744 OA
ENDBRANCH  75  76
ENDBRANCH  43  68
BRANCH  55  80
ATOM     80  C   UNL A   1      49.452  26.728  26.279  1.00  0.00     0.058 A 
ATOM     81  C   UNL A   1      49.889  26.796  24.948  1.00  0.00     0.135 A 
ATOM     82  C   UNL A   1      50.351  26.245  27.243  1.00  0.00     0.135 A 
ATOM     83  F   UNL A   1      49.066  27.244  23.988  1.00  0.00    -0.206 F 
ATOM     84  C   UNL A   1      51.167  26.383  24.582  1.00  0.00     0.059 A 
ATOM     85  C   UNL A   1      51.641  25.851  26.904  1.00  0.00     0.059 A 
ATOM     86  F   UNL A   1      49.984  26.171  28.533  1.00  0.00    -0.206 F 
ATOM     87  C   UNL A   1      52.036  25.915  25.569  1.00  0.00     0.060 A 
BRANCH  87  88
ATOM     88  S   UNL A   1      53.703  25.417  25.089  1.00  0.00     0.124 S 
ATOM     89  O   UNL A   1      54.012  26.392  24.048  1.00  0.00    -0.237 OA
ATOM     90  O   UNL A   1      54.446  25.563  26.336  1.00  0.00    -0.237 OA
ATOM     91  O   UNL A   1      53.527  24.042  24.629  1.00  0.00    -0.744 OA
ENDBRANCH  87  88
ENDBRANCH  55  80
ENDBRANCH  29  30
ENDBRANCH  21  24
ENDBRANCH  19  20
ENDBRANCH   1  19
TORSDOF 16
ENDMDL
MODEL 3
REMARK VINA RESULT:     -11.2      5.035     10.403
REMARK SMILES CC[C@@H]1CCCC[C@@]1(O)[C@H](F)C(=O)NCCCNC(=O)c1ccc(-c2c3nc(c(-c4c(F)cc(S(=O)(=O)[O-])cc4F)c4ccc([nH]4)c(-c4c(F)cc(S(=O)(=O)[O-])cc4F)c4nc(c(-c5c(F)cc(S(=O)(=O)[O-])cc5F)c5ccc2[nH]5)C=C4)C=C3)cc1
REMARK SMILES IDX 16 1 15 2 14 3 12 4 13 5 10 7 11 8 8 9 3 10 4 11 5 12 7 13
REMARK SMILES IDX 6 14 2 15 1 16 9 17 17 19 18 20 19 21 20 23 21 24 22 25
REMARK SMILES IDX 86 26 23 27 85 28 24 29 25 30 26 31 79 32 27 33 84 34 78 35
REMARK SMILES IDX 80 36 28 37 83 38 77 39 76 40 29 42 63 43 42 44 62 45 43 46
REMARK SMILES IDX 46 47 61 48 81 49 44 50 45 51 60 53 82 54 47 55 30 56 31 57
REMARK SMILES IDX 40 58 32 59 33 60 39 61 41 62 34 63 35 64 36 65 37 66 38 67
REMARK SMILES IDX 64 68 65 69 74 70 66 71 67 72 73 73 75 74 68 75 69 76 70 77
REMARK SMILES IDX 71 78 72 79 48 80 49 81 58 82 50 83 51 84 57 85 59 86 52 87
REMARK SMILES IDX 53 88 54 89 55 90 56 91
REMARK H PARENT 14 6 9 18 18 22 80 41 46 52
REMARK Flexibility Score: inf
ROOT
ATOM      1  C   UNL A   1      34.052  28.218  25.702  1.00  0.00     0.042 C 
ENDROOT
BRANCH   1   2
ATOM      2  C   UNL A   1      33.072  27.884  24.606  1.00  0.00     0.117 C 
BRANCH   2   3
ATOM      3  N   UNL A   1      33.597  27.656  23.288  1.00  0.00    -0.353 N 
ATOM      4  C   UNL A   1      33.275  26.601  22.467  1.00  0.00     0.257 C 
ATOM      5  O   UNL A   1      33.653  26.670  21.291  1.00  0.00    -0.272 OA
ATOM      6  H   UNL A   1      34.245  28.311  22.944  1.00  0.00     0.163 HD
BRANCH   4   7
ATOM      7  C   UNL A   1      32.541  25.348  23.007  1.00  0.00     0.287 C 
ATOM      8  F   UNL A   1      31.301  25.227  22.444  1.00  0.00    -0.234 F 
BRANCH   7   9
ATOM      9  C   UNL A   1      33.293  23.962  22.997  1.00  0.00     0.108 C 
ATOM     10  C   UNL A   1      34.649  24.079  23.785  1.00  0.00     0.024 C 
ATOM     11  C   UNL A   1      34.404  24.318  25.287  1.00  0.00     0.007 C 
ATOM     12  C   UNL A   1      33.451  23.325  25.954  1.00  0.00     0.001 C 
ATOM     13  C   UNL A   1      32.525  22.781  23.613  1.00  0.00     0.039 C 
ATOM     14  C   UNL A   1      32.249  22.912  25.113  1.00  0.00     0.003 C 
BRANCH  10  15
ATOM     15  C   UNL A   1      35.692  22.951  23.507  1.00  0.00     0.003 C 
ATOM     16  C   UNL A   1      37.029  22.972  24.240  1.00  0.00     0.004 C 
ENDBRANCH  10  15
BRANCH   9  17
ATOM     17  O   UNL A   1      33.588  23.655  21.624  1.00  0.00    -0.386 OA
ATOM     18  H   UNL A   1      32.985  24.148  21.046  1.00  0.00     0.211 HD
ENDBRANCH   9  17
ENDBRANCH   7   9
ENDBRANCH   4   7
ENDBRANCH   2   3
ENDBRANCH   1   2
BRANCH   1  19
ATOM     19  C   UNL A   1      33.411  28.435  27.059  1.00  0.00     0.118 C 
BRANCH  19  20
ATOM     20  N   UNL A   1      33.429  29.828  27.507  1.00  0.00    -0.352 N 
ATOM     21  C   UNL A   1      34.408  30.593  28.106  1.00  0.00     0.251 C 
ATOM     22  H   UNL A   1      32.585  30.310  27.348  1.00  0.00     0.163 HD
ATOM     23  O   UNL A   1      34.129  31.717  28.498  1.00  0.00    -0.269 OA
BRANCH  21  24
ATOM     24  C   UNL A   1      35.771  30.053  28.309  1.00  0.00     0.039 A 
ATOM     25  C   UNL A   1      36.685  30.079  27.251  1.00  0.00     0.014 A 
ATOM     26  C   UNL A   1      36.159  29.534  29.541  1.00  0.00     0.014 A 
ATOM     27  C   UNL A   1      38.010  29.687  27.470  1.00  0.00     0.010 A 
ATOM     28  C   UNL A   1      37.501  29.290  29.795  1.00  0.00     0.010 A 
ATOM     29  C   UNL A   1      38.443  29.348  28.762  1.00  0.00    -0.014 A 
BRANCH  29  30
ATOM     30  C   UNL A   1      39.863  29.039  29.070  1.00  0.00     0.031 A 
ATOM     31  C   UNL A   1      40.768  30.120  29.602  1.00  0.00     0.074 A 
ATOM     32  C   UNL A   1      40.368  27.830  28.756  1.00  0.00     0.049 A 
ATOM     33  N   UNL A   1      42.061  30.095  29.799  1.00  0.00    -0.248 NA
ATOM     34  C   UNL A   1      40.145  31.420  29.901  1.00  0.00     0.031 C 
ATOM     35  C   UNL A   1      39.617  26.728  28.149  1.00  0.00     0.029 A 
ATOM     36  N   UNL A   1      41.641  27.331  28.881  1.00  0.00    -0.354 N 
ATOM     37  C   UNL A   1      42.408  31.382  30.194  1.00  0.00     0.074 A 
ATOM     38  C   UNL A   1      41.201  32.178  30.147  1.00  0.00     0.031 C 
ATOM     39  C   UNL A   1      40.435  25.678  27.976  1.00  0.00     0.029 A 
ATOM     40  C   UNL A   1      41.777  26.042  28.423  1.00  0.00     0.049 A 
ATOM     41  H   UNL A   1      42.386  27.848  29.264  1.00  0.00     0.167 HD
ATOM     42  C   UNL A   1      43.615  31.854  30.587  1.00  0.00     0.037 A 
ATOM     43  C   UNL A   1      42.860  25.244  28.359  1.00  0.00     0.037 A 
ATOM     44  C   UNL A   1      44.795  31.038  30.688  1.00  0.00     0.049 A 
ATOM     45  C   UNL A   1      44.174  25.758  28.874  1.00  0.00     0.074 A 
ATOM     46  C   UNL A   1      46.040  31.382  31.182  1.00  0.00     0.029 A 
ATOM     47  N   UNL A   1      44.874  29.712  30.287  1.00  0.00    -0.354 N 
ATOM     48  N   UNL A   1      44.467  26.952  29.335  1.00  0.00    -0.248 NA
ATOM     49  C   UNL A   1      45.303  24.818  28.872  1.00  0.00     0.031 C 
ATOM     50  C   UNL A   1      46.883  30.274  31.044  1.00  0.00     0.029 A 
ATOM     51  C   UNL A   1      46.153  29.227  30.504  1.00  0.00     0.049 A 
ATOM     52  H   UNL A   1      44.130  29.192  29.905  1.00  0.00     0.167 HD
ATOM     53  C   UNL A   1      45.809  26.903  29.692  1.00  0.00     0.074 A 
ATOM     54  C   UNL A   1      46.266  25.557  29.409  1.00  0.00     0.031 C 
ATOM     55  C   UNL A   1      46.590  27.884  30.210  1.00  0.00     0.037 A 
BRANCH  42  56
ATOM     56  C   UNL A   1      43.705  33.315  30.939  1.00  0.00     0.058 A 
ATOM     57  C   UNL A   1      44.026  34.292  29.982  1.00  0.00     0.135 A 
ATOM     58  C   UNL A   1      43.489  33.743  32.259  1.00  0.00     0.135 A 
ATOM     59  F   UNL A   1      44.257  33.939  28.707  1.00  0.00    -0.206 F 
ATOM     60  C   UNL A   1      44.189  35.629  30.330  1.00  0.00     0.059 A 
ATOM     61  C   UNL A   1      43.612  35.081  32.624  1.00  0.00     0.059 A 
ATOM     62  F   UNL A   1      43.174  32.855  33.215  1.00  0.00    -0.206 F 
ATOM     63  C   UNL A   1      43.990  36.012  31.658  1.00  0.00     0.060 A 
BRANCH  63  64
ATOM     64  S   UNL A   1      44.243  37.742  32.104  1.00  0.00     0.124 S 
ATOM     65  O   UNL A   1      43.400  37.860  33.290  1.00  0.00    -0.237 OA
ATOM     66  O   UNL A   1      45.682  37.798  32.344  1.00  0.00    -0.237 OA
ATOM     67  O   UNL A   1      43.778  38.468  30.927  1.00  0.00    -0.744 OA
ENDBRANCH  63  64
ENDBRANCH  42  56
BRANCH  43  68
ATOM     68  C   UNL A   1      42.718  23.865  27.823  1.00  0.00     0.058 A 
ATOM     69  C   UNL A   1      42.557  22.772  28.687  1.00  0.00     0.135 A 
ATOM     70  C   UNL A   1      42.659  23.623  26.442  1.00  0.00     0.135 A 
ATOM     71  F   UNL A   1      42.611  22.953  30.015  1.00  0.00    -0.206 F 
ATOM     72  C   UNL A   1      42.335  21.487  28.201  1.00  0.00     0.059 A 
ATOM     73  C   UNL A   1      42.419  22.351  25.933  1.00  0.00     0.059 A 
ATOM     74  F   UNL A   1      42.789  24.641  25.576  1.00  0.00    -0.206 F 
ATOM     75  C   UNL A   1      42.256  21.288  26.821  1.00  0.00     0.060 A 
BRANCH  75  76
ATOM     76  S   UNL A   1      41.863  19.635  26.206  1.00  0.00     0.124 S 
ATOM     77  O   UNL A   1      42.278  18.798  27.325  1.00  0.00    -0.237 OA
ATOM     78  O   UNL A   1      40.424  19.729  25.977  1.00  0.00    -0.237 OA
ATOM     79  O   UNL A   1      42.676  19.526  24.998  1.00  0.00    -0.744 OA
ENDBRANCH  75  76
ENDBRANCH  43  68
BRANCH  55  80
ATOM     80  C   UNL A   1      48.019  27.537  30.518  1.00  0.00     0.058 A 
ATOM     81  C   UNL A   1      49.028  27.648  29.550  1.00  0.00     0.135 A 
ATOM     82  C   UNL A   1      48.391  27.147  31.814  1.00  0.00     0.135 A 
ATOM     83  F   UNL A   1      48.723  28.010  28.294  1.00  0.00    -0.206 F 
ATOM     84  C   UNL A   1      50.357  27.365  29.851  1.00  0.00     0.059 A 
ATOM     85  C   UNL A   1      49.717  26.884  32.144  1.00  0.00     0.059 A 
ATOM     86  F   UNL A   1      47.465  27.036  32.780  1.00  0.00    -0.206 F 
ATOM     87  C   UNL A   1      50.691  26.986  31.153  1.00  0.00     0.060 A 
BRANCH  87  88
ATOM     88  S   UNL A   1      52.423  26.658  31.541  1.00  0.00     0.124 S 
ATOM     89  O   UNL A   1      52.492  25.210  31.375  1.00  0.00    -0.237 OA
ATOM     90  O   UNL A   1      53.125  27.447  30.533  1.00  0.00    -0.237 OA
ATOM     91  O   UNL A   1      52.560  27.140  32.913  1.00  0.00    -0.744 OA
ENDBRANCH  87  88
ENDBRANCH  55  80
ENDBRANCH  29  30
ENDBRANCH  21  24
ENDBRANCH  19  20
ENDBRANCH   1  19
TORSDOF 16
ENDMDL
