MODEL 1
REMARK VINA RESULT:     -11.7      0.000      0.000
REMARK SMILES C[C@H]1CC[C@@](C(=O)NCCCNC(=O)c2ccc(-c3c4nc(c(-c5c(F)cc(S(=O)(=O)[O-])cc5F)c5ccc([nH]5)c(-c5c(F)cc(S(=O)(=O)[O-])cc5F)c5nc(c(-c6c(F)cc(S(=O)(=O)[O-])cc6F)c6ccc3[nH]6)C=C5)C=C4)cc2)(C2CCCCC2)C1
REMARK SMILES IDX 11 1 10 2 9 3 8 4 6 5 7 6 5 8 1 9 2 10 3 11 87 12 4 13 81 14
REMARK SMILES IDX 82 15 86 16 83 17 85 18 84 19 12 20 13 21 14 23 15 24 16 25
REMARK SMILES IDX 80 26 17 27 79 28 18 29 19 30 20 31 73 32 21 33 78 34 72 35
REMARK SMILES IDX 74 36 22 37 77 38 71 39 70 40 23 42 57 43 36 44 56 45 37 46
REMARK SMILES IDX 40 47 55 48 75 49 38 50 39 51 54 53 76 54 41 55 24 56 25 57
REMARK SMILES IDX 34 58 26 59 27 60 33 61 35 62 28 63 29 64 30 65 31 66 32 67
REMARK SMILES IDX 58 68 59 69 68 70 60 71 61 72 67 73 69 74 62 75 63 76 64 77
REMARK SMILES IDX 65 78 66 79 42 80 43 81 52 82 44 83 45 84 51 85 53 86 46 87
REMARK SMILES IDX 47 88 48 89 49 90 50 91
REMARK H PARENT 8 7 12 22 74 41 40 52
REMARK Flexibility Score: inf
ROOT
ATOM      1  C   UNL A   1      33.589  28.407  27.059  1.00  0.00     0.118 C 
ENDROOT
BRANCH   1   2
ATOM      2  C   UNL A   1      33.596  28.283  25.547  1.00  0.00     0.042 C 
BRANCH   2   3
ATOM      3  C   UNL A   1      33.141  26.923  25.053  1.00  0.00     0.117 C 
BRANCH   3   4
ATOM      4  N   UNL A   1      33.482  26.669  23.667  1.00  0.00    -0.356 N 
ATOM      5  C   UNL A   1      33.717  25.532  22.964  1.00  0.00     0.226 C 
ATOM      6  O   UNL A   1      33.759  25.692  21.737  1.00  0.00    -0.274 OA
ATOM      7  H   UNL A   1      33.560  27.488  23.126  1.00  0.00     0.163 HD
BRANCH   5   8
ATOM      8  C   UNL A   1      33.814  24.108  23.593  1.00  0.00     0.052 C 
ATOM      9  C   UNL A   1      31.872  21.066  22.300  1.00  0.00     0.007 C 
ATOM     10  C   UNL A   1      32.097  22.480  22.827  1.00  0.00    -0.013 C 
ATOM     11  C   UNL A   1      32.030  22.582  24.347  1.00  0.00     0.004 C 
ATOM     12  C   UNL A   1      33.453  23.090  22.466  1.00  0.00     0.020 C 
ATOM     13  C   UNL A   1      32.806  23.841  24.733  1.00  0.00     0.017 C 
BRANCH   8  14
ATOM     14  C   UNL A   1      35.306  23.892  24.108  1.00  0.00     0.004 C 
ATOM     15  C   UNL A   1      35.442  24.101  25.643  1.00  0.00     0.005 C 
ATOM     16  C   UNL A   1      35.913  22.515  23.737  1.00  0.00     0.005 C 
ATOM     17  C   UNL A   1      36.881  23.932  26.131  1.00  0.00     0.000 C 
ATOM     18  C   UNL A   1      37.347  22.353  24.242  1.00  0.00     0.000 C 
ATOM     19  C   UNL A   1      37.440  22.570  25.745  1.00  0.00     0.000 C 
ENDBRANCH   8  14
ENDBRANCH   5   8
ENDBRANCH   3   4
ENDBRANCH   2   3
ENDBRANCH   1   2
BRANCH   1  20
ATOM     20  N   UNL A   1      33.577  29.797  27.508  1.00  0.00    -0.352 N 
ATOM     21  C   UNL A   1      34.531  30.536  28.171  1.00  0.00     0.251 C 
ATOM     22  H   UNL A   1      32.748  30.286  27.302  1.00  0.00     0.163 HD
ATOM     23  O   UNL A   1      34.234  31.627  28.639  1.00  0.00    -0.269 OA
BRANCH  21  24
ATOM     24  C   UNL A   1      35.900  30.000  28.342  1.00  0.00     0.039 A 
ATOM     25  C   UNL A   1      36.808  30.073  27.280  1.00  0.00     0.014 A 
ATOM     26  C   UNL A   1      36.291  29.427  29.550  1.00  0.00     0.014 A 
ATOM     27  C   UNL A   1      38.131  29.660  27.468  1.00  0.00     0.010 A 
ATOM     28  C   UNL A   1      37.629  29.132  29.773  1.00  0.00     0.010 A 
ATOM     29  C   UNL A   1      38.564  29.236  28.734  1.00  0.00    -0.014 A 
BRANCH  29  30
ATOM     30  C   UNL A   1      39.974  28.857  29.018  1.00  0.00     0.031 A 
ATOM     31  C   UNL A   1      40.918  29.900  29.560  1.00  0.00     0.074 A 
ATOM     32  C   UNL A   1      40.432  27.637  28.677  1.00  0.00     0.049 A 
ATOM     33  N   UNL A   1      42.220  29.864  29.663  1.00  0.00    -0.248 NA
ATOM     34  C   UNL A   1      40.318  31.173  29.996  1.00  0.00     0.031 C 
ATOM     35  C   UNL A   1      39.628  26.553  28.107  1.00  0.00     0.029 A 
ATOM     36  N   UNL A   1      41.699  27.110  28.733  1.00  0.00    -0.354 N 
ATOM     37  C   UNL A   1      42.596  31.122  30.123  1.00  0.00     0.074 A 
ATOM     38  C   UNL A   1      41.391  31.911  30.240  1.00  0.00     0.031 C 
ATOM     39  C   UNL A   1      40.416  25.487  27.887  1.00  0.00     0.029 A 
ATOM     40  C   UNL A   1      41.788  25.826  28.246  1.00  0.00     0.049 A 
ATOM     41  H   UNL A   1      42.472  27.605  29.090  1.00  0.00     0.167 HD
ATOM     42  C   UNL A   1      43.833  31.570  30.438  1.00  0.00     0.037 A 
ATOM     43  C   UNL A   1      42.859  25.022  28.091  1.00  0.00     0.037 A 
ATOM     44  C   UNL A   1      45.015  30.753  30.390  1.00  0.00     0.049 A 
ATOM     45  C   UNL A   1      44.220  25.532  28.484  1.00  0.00     0.074 A 
ATOM     46  C   UNL A   1      46.303  31.084  30.769  1.00  0.00     0.029 A 
ATOM     47  N   UNL A   1      45.049  29.438  29.953  1.00  0.00    -0.354 N 
ATOM     48  N   UNL A   1      44.552  26.709  28.957  1.00  0.00    -0.248 NA
ATOM     49  C   UNL A   1      45.352  24.608  28.322  1.00  0.00     0.031 C 
ATOM     50  C   UNL A   1      47.124  29.978  30.531  1.00  0.00     0.029 A 
ATOM     51  C   UNL A   1      46.338  28.944  30.045  1.00  0.00     0.049 A 
ATOM     52  H   UNL A   1      44.271  28.931  29.624  1.00  0.00     0.167 HD
ATOM     53  C   UNL A   1      45.921  26.651  29.191  1.00  0.00     0.074 A 
ATOM     54  C   UNL A   1      46.358  25.328  28.801  1.00  0.00     0.031 C 
ATOM     55  C   UNL A   1      46.742  27.608  29.691  1.00  0.00     0.037 A 
BRANCH  42  56
ATOM     56  C   UNL A   1      43.974  33.002  30.874  1.00  0.00     0.058 A 
ATOM     57  C   UNL A   1      43.895  33.374  32.225  1.00  0.00     0.135 A 
ATOM     58  C   UNL A   1      44.238  34.009  29.932  1.00  0.00     0.135 A 
ATOM     59  F   UNL A   1      43.627  32.455  33.167  1.00  0.00    -0.206 F 
ATOM     60  C   UNL A   1      44.048  34.697  32.625  1.00  0.00     0.059 A 
ATOM     61  C   UNL A   1      44.424  35.336  30.312  1.00  0.00     0.059 A 
ATOM     62  F   UNL A   1      44.322  33.709  28.626  1.00  0.00    -0.206 F 
ATOM     63  C   UNL A   1      44.313  35.671  31.660  1.00  0.00     0.060 A 
BRANCH  63  64
ATOM     64  S   UNL A   1      44.529  37.381  32.198  1.00  0.00     0.124 S 
ATOM     65  O   UNL A   1      43.587  37.455  33.310  1.00  0.00    -0.237 OA
ATOM     66  O   UNL A   1      45.942  37.419  32.562  1.00  0.00    -0.237 OA
ATOM     67  O   UNL A   1      44.167  38.157  31.017  1.00  0.00    -0.744 OA
ENDBRANCH  63  64
ENDBRANCH  42  56
BRANCH  43  68
ATOM     68  C   UNL A   1      42.688  23.641  27.564  1.00  0.00     0.058 A 
ATOM     69  C   UNL A   1      42.496  22.561  28.438  1.00  0.00     0.135 A 
ATOM     70  C   UNL A   1      42.712  23.370  26.187  1.00  0.00     0.135 A 
ATOM     71  F   UNL A   1      42.470  22.769  29.764  1.00  0.00    -0.206 F 
ATOM     72  C   UNL A   1      42.354  21.259  27.971  1.00  0.00     0.059 A 
ATOM     73  C   UNL A   1      42.548  22.079  25.694  1.00  0.00     0.059 A 
ATOM     74  F   UNL A   1      42.873  24.370  25.307  1.00  0.00    -0.206 F 
ATOM     75  C   UNL A   1      42.383  21.027  26.596  1.00  0.00     0.060 A 
BRANCH  75  76
ATOM     76  S   UNL A   1      42.166  19.337  25.997  1.00  0.00     0.124 S 
ATOM     77  O   UNL A   1      42.645  18.560  27.135  1.00  0.00    -0.237 OA
ATOM     78  O   UNL A   1      40.729  19.282  25.745  1.00  0.00    -0.237 OA
ATOM     79  O   UNL A   1      43.005  19.294  24.804  1.00  0.00    -0.744 OA
ENDBRANCH  75  76
ENDBRANCH  43  68
BRANCH  55  80
ATOM     80  C   UNL A   1      48.181  27.250  29.918  1.00  0.00     0.058 A 
ATOM     81  C   UNL A   1      49.178  27.570  28.986  1.00  0.00     0.135 A 
ATOM     82  C   UNL A   1      48.577  26.681  31.140  1.00  0.00     0.135 A 
ATOM     83  F   UNL A   1      48.849  28.108  27.801  1.00  0.00    -0.206 F 
ATOM     84  C   UNL A   1      50.522  27.340  29.259  1.00  0.00     0.059 A 
ATOM     85  C   UNL A   1      49.916  26.464  31.443  1.00  0.00     0.059 A 
ATOM     86  F   UNL A   1      47.658  26.366  32.068  1.00  0.00    -0.206 F 
ATOM     87  C   UNL A   1      50.882  26.796  30.494  1.00  0.00     0.060 A 
BRANCH  87  88
ATOM     88  S   UNL A   1      52.635  26.582  30.870  1.00  0.00     0.124 S 
ATOM     89  O   UNL A   1      52.599  25.478  31.823  1.00  0.00    -0.237 OA
ATOM     90  O   UNL A   1      53.199  26.270  29.560  1.00  0.00    -0.237 OA
ATOM     91  O   UNL A   1      53.025  27.876  31.420  1.00  0.00    -0.744 OA
ENDBRANCH  87  88
ENDBRANCH  55  80
ENDBRANCH  29  30
ENDBRANCH  21  24
ENDBRANCH   1  20
TORSDOF 14
ENDMDL
MODEL 2
REMARK VINA RESULT:     -11.5      3.365      9.546
REMARK SMILES C[C@H]1CC[C@@](C(=O)NCCCNC(=O)c2ccc(-c3c4nc(c(-c5c(F)cc(S(=O)(=O)[O-])cc5F)c5ccc([nH]5)c(-c5c(F)cc(S(=O)(=O)[O-])cc5F)c5nc(c(-c6c(F)cc(S(=O)(=O)[O-])cc6F)c6ccc3[nH]6)C=C5)C=C4)cc2)(C2CCCCC2)C1
REMARK SMILES IDX 11 1 10 2 9 3 8 4 6 5 7 6 5 8 1 9 2 10 3 11 87 12 4 13 81 14
REMARK SMILES IDX 82 15 86 16 83 17 85 18 84 19 12 20 13 21 14 23 15 24 16 25
REMARK SMILES IDX 80 26 17 27 79 28 18 29 19 30 20 31 73 32 21 33 78 34 72 35
REMARK SMILES IDX 74 36 22 37 77 38 71 39 70 40 23 42 57 43 36 44 56 45 37 46
REMARK SMILES IDX 40 47 55 48 75 49 38 50 39 51 54 53 76 54 41 55 24 56 25 57
REMARK SMILES IDX 34 58 26 59 27 60 33 61 35 62 28 63 29 64 30 65 31 66 32 67
REMARK SMILES IDX 58 68 59 69 68 70 60 71 61 72 67 73 69 74 62 75 63 76 64 77
REMARK SMILES IDX 65 78 66 79 42 80 43 81 52 82 44 83 45 84 51 85 53 86 46 87
REMARK SMILES IDX 47 88 48 89 49 90 50 91
REMARK H PARENT 8 7 12 22 74 41 40 52
REMARK Flexibility Score: inf
ROOT
ATOM      1  C   UNL A   1      36.982  23.708  25.141  1.00  0.00     0.118 C 
ENDROOT
BRANCH   1   2
ATOM      2  C   UNL A   1      35.752  23.408  25.978  1.00  0.00     0.042 C 
BRANCH   2   3
ATOM      3  C   UNL A   1      34.504  24.114  25.486  1.00  0.00     0.117 C 
BRANCH   3   4
ATOM      4  N   UNL A   1      33.373  23.978  26.383  1.00  0.00    -0.356 N 
ATOM      5  C   UNL A   1      32.210  24.666  26.520  1.00  0.00     0.226 C 
ATOM      6  O   UNL A   1      31.378  24.116  27.254  1.00  0.00    -0.274 OA
ATOM      7  H   UNL A   1      33.469  23.237  27.025  1.00  0.00     0.163 HD
BRANCH   5   8
ATOM      8  C   UNL A   1      31.861  25.974  25.747  1.00  0.00     0.052 C 
ATOM      9  C   UNL A   1      28.578  26.518  23.843  1.00  0.00     0.007 C 
ATOM     10  C   UNL A   1      29.882  25.837  24.247  1.00  0.00    -0.013 C 
ATOM     11  C   UNL A   1      31.086  26.288  23.428  1.00  0.00     0.004 C 
ATOM     12  C   UNL A   1      30.304  26.070  25.699  1.00  0.00     0.020 C 
ATOM     13  C   UNL A   1      32.324  25.991  24.273  1.00  0.00     0.017 C 
BRANCH   8  14
ATOM     14  C   UNL A   1      32.490  27.204  26.542  1.00  0.00     0.004 C 
ATOM     15  C   UNL A   1      33.924  27.557  26.053  1.00  0.00     0.005 C 
ATOM     16  C   UNL A   1      31.623  28.489  26.513  1.00  0.00     0.005 C 
ATOM     17  C   UNL A   1      34.541  28.712  26.842  1.00  0.00     0.000 C 
ATOM     18  C   UNL A   1      32.258  29.639  27.294  1.00  0.00     0.000 C 
ATOM     19  C   UNL A   1      33.660  29.951  26.791  1.00  0.00     0.000 C 
ENDBRANCH   8  14
ENDBRANCH   5   8
ENDBRANCH   3   4
ENDBRANCH   2   3
ENDBRANCH   1   2
BRANCH   1  20
ATOM     20  N   UNL A   1      38.097  22.815  25.443  1.00  0.00    -0.352 N 
ATOM     21  C   UNL A   1      39.285  23.049  26.099  1.00  0.00     0.251 C 
ATOM     22  H   UNL A   1      37.980  21.891  25.123  1.00  0.00     0.163 HD
ATOM     23  O   UNL A   1      40.175  22.210  26.059  1.00  0.00    -0.269 OA
BRANCH  21  24
ATOM     24  C   UNL A   1      39.494  24.322  26.824  1.00  0.00     0.039 A 
ATOM     25  C   UNL A   1      38.939  24.491  28.097  1.00  0.00     0.014 A 
ATOM     26  C   UNL A   1      40.240  25.350  26.251  1.00  0.00     0.014 A 
ATOM     27  C   UNL A   1      39.218  25.652  28.827  1.00  0.00     0.010 A 
ATOM     28  C   UNL A   1      40.615  26.442  27.021  1.00  0.00     0.010 A 
ATOM     29  C   UNL A   1      40.102  26.612  28.315  1.00  0.00    -0.014 A 
BRANCH  29  30
ATOM     30  C   UNL A   1      40.499  27.829  29.073  1.00  0.00     0.031 A 
ATOM     31  C   UNL A   1      41.803  27.829  29.828  1.00  0.00     0.074 A 
ATOM     32  C   UNL A   1      39.647  28.866  29.187  1.00  0.00     0.049 A 
ATOM     33  N   UNL A   1      42.239  28.671  30.727  1.00  0.00    -0.248 NA
ATOM     34  C   UNL A   1      42.716  26.701  29.573  1.00  0.00     0.031 C 
ATOM     35  C   UNL A   1      38.338  28.971  28.537  1.00  0.00     0.029 A 
ATOM     36  N   UNL A   1      39.743  30.026  29.917  1.00  0.00    -0.354 N 
ATOM     37  C   UNL A   1      43.445  28.147  31.180  1.00  0.00     0.074 A 
ATOM     38  C   UNL A   1      43.654  26.895  30.488  1.00  0.00     0.031 C 
ATOM     39  C   UNL A   1      37.766  30.136  28.881  1.00  0.00     0.029 A 
ATOM     40  C   UNL A   1      38.637  30.838  29.817  1.00  0.00     0.049 A 
ATOM     41  H   UNL A   1      40.532  30.255  30.461  1.00  0.00     0.167 HD
ATOM     42  C   UNL A   1      44.310  28.674  32.078  1.00  0.00     0.037 A 
ATOM     43  C   UNL A   1      38.352  32.007  30.426  1.00  0.00     0.037 A 
ATOM     44  C   UNL A   1      44.130  29.955  32.704  1.00  0.00     0.049 A 
ATOM     45  C   UNL A   1      39.348  32.590  31.393  1.00  0.00     0.074 A 
ATOM     46  C   UNL A   1      44.987  30.619  33.563  1.00  0.00     0.029 A 
ATOM     47  N   UNL A   1      43.026  30.774  32.524  1.00  0.00    -0.354 N 
ATOM     48  N   UNL A   1      40.503  32.102  31.777  1.00  0.00    -0.248 NA
ATOM     49  C   UNL A   1      39.004  33.879  32.010  1.00  0.00     0.031 C 
ATOM     50  C   UNL A   1      44.386  31.827  33.928  1.00  0.00     0.029 A 
ATOM     51  C   UNL A   1      43.175  31.934  33.261  1.00  0.00     0.049 A 
ATOM     52  H   UNL A   1      42.250  30.560  31.956  1.00  0.00     0.167 HD
ATOM     53  C   UNL A   1      41.043  33.045  32.645  1.00  0.00     0.074 A 
ATOM     54  C   UNL A   1      40.087  34.128  32.736  1.00  0.00     0.031 C 
ATOM     55  C   UNL A   1      42.228  33.019  33.302  1.00  0.00     0.037 A 
BRANCH  42  56
ATOM     56  C   UNL A   1      45.535  27.875  32.430  1.00  0.00     0.058 A 
ATOM     57  C   UNL A   1      46.741  28.025  31.730  1.00  0.00     0.135 A 
ATOM     58  C   UNL A   1      45.513  26.980  33.512  1.00  0.00     0.135 A 
ATOM     59  F   UNL A   1      46.814  28.854  30.675  1.00  0.00    -0.206 F 
ATOM     60  C   UNL A   1      47.877  27.300  32.073  1.00  0.00     0.059 A 
ATOM     61  C   UNL A   1      46.645  26.264  33.892  1.00  0.00     0.059 A 
ATOM     62  F   UNL A   1      44.384  26.795  34.215  1.00  0.00    -0.206 F 
ATOM     63  C   UNL A   1      47.818  26.422  33.157  1.00  0.00     0.060 A 
BRANCH  63  64
ATOM     64  S   UNL A   1      49.307  25.503  33.603  1.00  0.00     0.124 S 
ATOM     65  O   UNL A   1      48.765  24.167  33.828  1.00  0.00    -0.237 OA
ATOM     66  O   UNL A   1      50.138  25.656  32.412  1.00  0.00    -0.237 OA
ATOM     67  O   UNL A   1      49.790  26.194  34.794  1.00  0.00    -0.744 OA
ENDBRANCH  63  64
ENDBRANCH  42  56
BRANCH  43  68
ATOM     68  C   UNL A   1      37.082  32.719  30.121  1.00  0.00     0.058 A 
ATOM     69  C   UNL A   1      37.009  33.625  29.053  1.00  0.00     0.135 A 
ATOM     70  C   UNL A   1      35.921  32.513  30.882  1.00  0.00     0.135 A 
ATOM     71  F   UNL A   1      38.094  33.859  28.298  1.00  0.00    -0.206 F 
ATOM     72  C   UNL A   1      35.839  34.318  28.762  1.00  0.00     0.059 A 
ATOM     73  C   UNL A   1      34.732  33.177  30.596  1.00  0.00     0.059 A 
ATOM     74  F   UNL A   1      35.931  31.642  31.903  1.00  0.00    -0.206 F 
ATOM     75  C   UNL A   1      34.705  34.088  29.540  1.00  0.00     0.060 A 
BRANCH  75  76
ATOM     76  S   UNL A   1      33.181  34.969  29.133  1.00  0.00     0.124 S 
ATOM     77  O   UNL A   1      32.490  34.965  30.418  1.00  0.00    -0.237 OA
ATOM     78  O   UNL A   1      33.684  36.262  28.682  1.00  0.00    -0.237 OA
ATOM     79  O   UNL A   1      32.584  34.139  28.091  1.00  0.00    -0.744 OA
ENDBRANCH  75  76
ENDBRANCH  43  68
BRANCH  55  80
ATOM     80  C   UNL A   1      42.604  34.218  34.122  1.00  0.00     0.058 A 
ATOM     81  C   UNL A   1      42.308  34.300  35.490  1.00  0.00     0.135 A 
ATOM     82  C   UNL A   1      43.370  35.246  33.549  1.00  0.00     0.135 A 
ATOM     83  F   UNL A   1      41.573  33.346  36.082  1.00  0.00    -0.206 F 
ATOM     84  C   UNL A   1      42.763  35.362  36.265  1.00  0.00     0.059 A 
ATOM     85  C   UNL A   1      43.855  36.304  34.308  1.00  0.00     0.059 A 
ATOM     86  F   UNL A   1      43.685  35.207  32.244  1.00  0.00    -0.206 F 
ATOM     87  C   UNL A   1      43.545  36.354  35.667  1.00  0.00     0.060 A 
BRANCH  87  88
ATOM     88  S   UNL A   1      44.201  37.681  36.701  1.00  0.00     0.124 S 
ATOM     89  O   UNL A   1      45.527  37.171  37.027  1.00  0.00    -0.237 OA
ATOM     90  O   UNL A   1      44.166  38.827  35.798  1.00  0.00    -0.237 OA
ATOM     91  O   UNL A   1      43.258  37.741  37.815  1.00  0.00    -0.744 OA
ENDBRANCH  87  88
ENDBRANCH  55  80
ENDBRANCH  29  30
ENDBRANCH  21  24
ENDBRANCH   1  20
TORSDOF 14
ENDMDL
MODEL 3
REMARK VINA RESULT:     -11.5      0.957      2.009
REMARK SMILES C[C@H]1CC[C@@](C(=O)NCCCNC(=O)c2ccc(-c3c4nc(c(-c5c(F)cc(S(=O)(=O)[O-])cc5F)c5ccc([nH]5)c(-c5c(F)cc(S(=O)(=O)[O-])cc5F)c5nc(c(-c6c(F)cc(S(=O)(=O)[O-])cc6F)c6ccc3[nH]6)C=C5)C=C4)cc2)(C2CCCCC2)C1
REMARK SMILES IDX 11 1 10 2 9 3 8 4 6 5 7 6 5 8 1 9 2 10 3 11 87 12 4 13 81 14
REMARK SMILES IDX 82 15 86 16 83 17 85 18 84 19 12 20 13 21 14 23 15 24 16 25
REMARK SMILES IDX 80 26 17 27 79 28 18 29 19 30 20 31 73 32 21 33 78 34 72 35
REMARK SMILES IDX 74 36 22 37 77 38 71 39 70 40 23 42 57 43 36 44 56 45 37 46
REMARK SMILES IDX 40 47 55 48 75 49 38 50 39 51 54 53 76 54 41 55 24 56 25 57
REMARK SMILES IDX 34 58 26 59 27 60 33 61 35 62 28 63 29 64 30 65 31 66 32 67
REMARK SMILES IDX 58 68 59 69 68 70 60 71 61 72 67 73 69 74 62 75 63 76 64 77
REMARK SMILES IDX 65 78 66 79 42 80 43 81 52 82 44 83 45 84 51 85 53 86 46 87
REMARK SMILES IDX 47 88 48 89 49 90 50 91
REMARK H PARENT 8 7 12 22 74 41 40 52
REMARK Flexibility Score: inf
ROOT
ATOM      1  C   UNL A   1      33.527  28.361  27.170  1.00  0.00     0.118 C 
ENDROOT
BRANCH   1   2
ATOM      2  C   UNL A   1      33.784  28.165  25.687  1.00  0.00     0.042 C 
BRANCH   2   3
ATOM      3  C   UNL A   1      33.966  26.711  25.296  1.00  0.00     0.117 C 
BRANCH   3   4
ATOM      4  N   UNL A   1      33.023  25.819  25.942  1.00  0.00    -0.356 N 
ATOM      5  C   UNL A   1      32.966  24.469  26.076  1.00  0.00     0.226 C 
ATOM      6  O   UNL A   1      32.125  24.074  26.893  1.00  0.00    -0.274 OA
ATOM      7  H   UNL A   1      32.270  26.287  26.369  1.00  0.00     0.163 HD
BRANCH   5   8
ATOM      8  C   UNL A   1      33.937  23.471  25.374  1.00  0.00     0.052 C 
ATOM      9  C   UNL A   1      37.703  23.305  26.071  1.00  0.00     0.007 C 
ATOM     10  C   UNL A   1      36.361  23.925  25.697  1.00  0.00    -0.013 C 
ATOM     11  C   UNL A   1      36.066  23.885  24.202  1.00  0.00     0.004 C 
ATOM     12  C   UNL A   1      35.144  23.257  26.341  1.00  0.00     0.020 C 
ATOM     13  C   UNL A   1      34.548  23.990  24.054  1.00  0.00     0.017 C 
BRANCH   8  14
ATOM     14  C   UNL A   1      33.151  22.107  25.124  1.00  0.00     0.004 C 
ATOM     15  C   UNL A   1      32.994  21.780  23.612  1.00  0.00     0.005 C 
ATOM     16  C   UNL A   1      33.770  20.877  25.838  1.00  0.00     0.005 C 
ATOM     17  C   UNL A   1      32.207  20.491  23.371  1.00  0.00     0.000 C 
ATOM     18  C   UNL A   1      32.981  19.594  25.579  1.00  0.00     0.000 C 
ATOM     19  C   UNL A   1      32.843  19.311  24.089  1.00  0.00     0.000 C 
ENDBRANCH   8  14
ENDBRANCH   5   8
ENDBRANCH   3   4
ENDBRANCH   2   3
ENDBRANCH   1   2
BRANCH   1  20
ATOM     20  N   UNL A   1      33.523  29.770  27.557  1.00  0.00    -0.352 N 
ATOM     21  C   UNL A   1      34.487  30.535  28.175  1.00  0.00     0.251 C 
ATOM     22  H   UNL A   1      32.693  30.252  27.340  1.00  0.00     0.163 HD
ATOM     23  O   UNL A   1      34.199  31.647  28.597  1.00  0.00    -0.269 OA
BRANCH  21  24
ATOM     24  C   UNL A   1      35.858  30.003  28.351  1.00  0.00     0.039 A 
ATOM     25  C   UNL A   1      36.776  30.098  27.300  1.00  0.00     0.014 A 
ATOM     26  C   UNL A   1      36.239  29.414  29.554  1.00  0.00     0.014 A 
ATOM     27  C   UNL A   1      38.099  29.689  27.496  1.00  0.00     0.010 A 
ATOM     28  C   UNL A   1      37.576  29.122  29.787  1.00  0.00     0.010 A 
ATOM     29  C   UNL A   1      38.522  29.247  28.759  1.00  0.00    -0.014 A 
BRANCH  29  30
ATOM     30  C   UNL A   1      39.930  28.872  29.052  1.00  0.00     0.031 A 
ATOM     31  C   UNL A   1      40.865  29.913  29.611  1.00  0.00     0.074 A 
ATOM     32  C   UNL A   1      40.396  27.656  28.705  1.00  0.00     0.049 A 
ATOM     33  N   UNL A   1      42.167  29.881  29.725  1.00  0.00    -0.248 NA
ATOM     34  C   UNL A   1      40.257  31.181  30.052  1.00  0.00     0.031 C 
ATOM     35  C   UNL A   1      39.601  26.573  28.119  1.00  0.00     0.029 A 
ATOM     36  N   UNL A   1      41.665  27.133  28.768  1.00  0.00    -0.354 N 
ATOM     37  C   UNL A   1      42.534  31.136  30.198  1.00  0.00     0.074 A 
ATOM     38  C   UNL A   1      41.325  31.921  30.311  1.00  0.00     0.031 C 
ATOM     39  C   UNL A   1      40.394  25.512  27.898  1.00  0.00     0.029 A 
ATOM     40  C   UNL A   1      41.762  25.853  28.271  1.00  0.00     0.049 A 
ATOM     41  H   UNL A   1      42.432  27.628  29.135  1.00  0.00     0.167 HD
ATOM     42  C   UNL A   1      43.767  31.587  30.527  1.00  0.00     0.037 A 
ATOM     43  C   UNL A   1      42.838  25.054  28.118  1.00  0.00     0.037 A 
ATOM     44  C   UNL A   1      44.953  30.775  30.483  1.00  0.00     0.049 A 
ATOM     45  C   UNL A   1      44.193  25.566  28.527  1.00  0.00     0.074 A 
ATOM     46  C   UNL A   1      46.236  31.107  30.876  1.00  0.00     0.029 A 
ATOM     47  N   UNL A   1      44.995  29.463  30.035  1.00  0.00    -0.354 N 
ATOM     48  N   UNL A   1      44.516  26.741  29.013  1.00  0.00    -0.248 NA
ATOM     49  C   UNL A   1      45.330  24.648  28.367  1.00  0.00     0.031 C 
ATOM     50  C   UNL A   1      47.063  30.006  30.636  1.00  0.00     0.029 A 
ATOM     51  C   UNL A   1      46.285  28.974  30.134  1.00  0.00     0.049 A 
ATOM     52  H   UNL A   1      44.222  28.957  29.696  1.00  0.00     0.167 HD
ATOM     53  C   UNL A   1      45.884  26.686  29.258  1.00  0.00     0.074 A 
ATOM     54  C   UNL A   1      46.330  25.368  28.861  1.00  0.00     0.031 C 
ATOM     55  C   UNL A   1      46.697  27.642  29.772  1.00  0.00     0.037 A 
BRANCH  42  56
ATOM     56  C   UNL A   1      43.899  33.016  30.977  1.00  0.00     0.058 A 
ATOM     57  C   UNL A   1      43.872  33.369  32.335  1.00  0.00     0.135 A 
ATOM     58  C   UNL A   1      44.101  34.040  30.038  1.00  0.00     0.135 A 
ATOM     59  F   UNL A   1      43.665  32.432  33.274  1.00  0.00    -0.206 F 
ATOM     60  C   UNL A   1      44.017  34.690  32.746  1.00  0.00     0.059 A 
ATOM     61  C   UNL A   1      44.277  35.365  30.427  1.00  0.00     0.059 A 
ATOM     62  F   UNL A   1      44.133  33.759  28.725  1.00  0.00    -0.206 F 
ATOM     63  C   UNL A   1      44.219  35.680  31.784  1.00  0.00     0.060 A 
BRANCH  63  64
ATOM     64  S   UNL A   1      44.425  37.387  32.335  1.00  0.00     0.124 S 
ATOM     65  O   UNL A   1      45.794  37.366  32.839  1.00  0.00    -0.237 OA
ATOM     66  O   UNL A   1      44.216  38.142  31.102  1.00  0.00    -0.237 OA
ATOM     67  O   UNL A   1      43.386  37.545  33.347  1.00  0.00    -0.744 OA
ENDBRANCH  63  64
ENDBRANCH  42  56
BRANCH  43  68
ATOM     68  C   UNL A   1      42.676  23.678  27.578  1.00  0.00     0.058 A 
ATOM     69  C   UNL A   1      42.461  22.593  28.441  1.00  0.00     0.135 A 
ATOM     70  C   UNL A   1      42.732  23.415  26.201  1.00  0.00     0.135 A 
ATOM     71  F   UNL A   1      42.405  22.792  29.767  1.00  0.00    -0.206 F 
ATOM     72  C   UNL A   1      42.329  21.294  27.962  1.00  0.00     0.059 A 
ATOM     73  C   UNL A   1      42.578  22.128  25.695  1.00  0.00     0.059 A 
ATOM     74  F   UNL A   1      42.916  24.420  25.331  1.00  0.00    -0.206 F 
ATOM     75  C   UNL A   1      42.389  21.071  26.586  1.00  0.00     0.060 A 
BRANCH  75  76
ATOM     76  S   UNL A   1      42.182  19.385  25.972  1.00  0.00     0.124 S 
ATOM     77  O   UNL A   1      40.738  19.321  25.774  1.00  0.00    -0.237 OA
ATOM     78  O   UNL A   1      42.993  19.398  24.758  1.00  0.00    -0.237 OA
ATOM     79  O   UNL A   1      42.708  18.566  27.059  1.00  0.00    -0.744 OA
ENDBRANCH  75  76
ENDBRANCH  43  68
BRANCH  55  80
ATOM     80  C   UNL A   1      48.136  27.287  30.009  1.00  0.00     0.058 A 
ATOM     81  C   UNL A   1      49.136  27.599  29.078  1.00  0.00     0.135 A 
ATOM     82  C   UNL A   1      48.526  26.731  31.238  1.00  0.00     0.135 A 
ATOM     83  F   UNL A   1      48.811  28.125  27.887  1.00  0.00    -0.206 F 
ATOM     84  C   UNL A   1      50.479  27.372  29.359  1.00  0.00     0.059 A 
ATOM     85  C   UNL A   1      49.864  26.518  31.549  1.00  0.00     0.059 A 
ATOM     86  F   UNL A   1      47.604  26.424  32.165  1.00  0.00    -0.206 F 
ATOM     87  C   UNL A   1      50.834  26.841  30.600  1.00  0.00     0.060 A 
BRANCH  87  88
ATOM     88  S   UNL A   1      52.586  26.632  30.985  1.00  0.00     0.124 S 
ATOM     89  O   UNL A   1      52.550  25.514  31.921  1.00  0.00    -0.237 OA
ATOM     90  O   UNL A   1      53.162  26.345  29.675  1.00  0.00    -0.237 OA
ATOM     91  O   UNL A   1      52.964  27.920  31.559  1.00  0.00    -0.744 OA
ENDBRANCH  87  88
ENDBRANCH  55  80
ENDBRANCH  29  30
ENDBRANCH  21  24
ENDBRANCH   1  20
TORSDOF 14
ENDMDL
