MODEL 1
REMARK VINA RESULT:     -11.8      0.000      0.000
REMARK SMILES C[C@H]1CCC[C@H](C(C)(C)C(=O)NCCCNC(=O)c2ccc(-c3c4nc(c(-c5c(F)cc(S(=O)(=O)[O-])cc5F)c5ccc([nH]5)c(-c5c(F)cc(S(=O)(=O)[O-])cc5F)c5nc(c(-c6c(F)cc(S(=O)(=O)[O-])cc6F)c6ccc3[nH]6)C=C5)C=C4)cc2)C1
REMARK SMILES IDX 15 1 14 2 13 3 12 4 10 5 11 6 7 8 8 9 9 10 6 11 1 12 2 13
REMARK SMILES IDX 3 14 85 15 4 16 5 17 16 18 17 19 18 21 19 22 20 23 84 24
REMARK SMILES IDX 21 25 83 26 22 27 23 28 24 29 77 30 25 31 82 32 76 33 78 34
REMARK SMILES IDX 26 35 81 36 75 37 74 38 27 40 61 41 40 42 60 43 41 44 44 45
REMARK SMILES IDX 59 46 79 47 42 48 43 49 58 51 80 52 45 53 28 54 29 55 38 56
REMARK SMILES IDX 30 57 31 58 37 59 39 60 32 61 33 62 34 63 35 64 36 65 62 66
REMARK SMILES IDX 63 67 72 68 64 69 65 70 71 71 73 72 66 73 67 74 68 75 69 76
REMARK SMILES IDX 70 77 46 78 47 79 56 80 48 81 49 82 55 83 57 84 50 85 51 86
REMARK SMILES IDX 52 87 53 88 54 89
REMARK H PARENT 12 7 16 20 78 39 44 50
REMARK Flexibility Score: inf
ROOT
ATOM      1  C   UNL A   1      40.062  23.176  27.111  1.00  0.00     0.118 C 
ENDROOT
BRANCH   1   2
ATOM      2  C   UNL A   1      38.814  22.536  26.503  1.00  0.00     0.042 C 
BRANCH   2   3
ATOM      3  C   UNL A   1      37.768  23.537  26.022  1.00  0.00     0.117 C 
BRANCH   3   4
ATOM      4  N   UNL A   1      37.504  23.384  24.606  1.00  0.00    -0.356 N 
ATOM      5  C   UNL A   1      36.392  23.247  23.847  1.00  0.00     0.225 C 
ATOM      6  O   UNL A   1      36.648  22.932  22.686  1.00  0.00    -0.275 OA
ATOM      7  H   UNL A   1      38.329  23.378  24.069  1.00  0.00     0.163 HD
BRANCH   5   8
ATOM      8  C   UNL A   1      34.956  23.507  24.356  1.00  0.00     0.046 C 
ATOM      9  C   UNL A   1      34.098  23.914  23.133  1.00  0.00     0.022 C 
ATOM     10  C   UNL A   1      34.959  24.663  25.379  1.00  0.00     0.022 C 
BRANCH   8  11
ATOM     11  C   UNL A   1      34.240  22.251  25.041  1.00  0.00     0.004 C 
ATOM     12  C   UNL A   1      30.599  22.906  26.333  1.00  0.00     0.007 C 
ATOM     13  C   UNL A   1      32.125  23.029  26.303  1.00  0.00    -0.014 C 
ATOM     14  C   UNL A   1      32.719  22.543  27.632  1.00  0.00     0.003 C 
ATOM     15  C   UNL A   1      32.698  22.256  25.118  1.00  0.00     0.008 C 
ATOM     16  C   UNL A   1      34.236  22.353  27.647  1.00  0.00     0.001 C 
ATOM     17  C   UNL A   1      34.813  21.733  26.378  1.00  0.00     0.005 C 
ENDBRANCH   8  11
ENDBRANCH   5   8
ENDBRANCH   3   4
ENDBRANCH   2   3
ENDBRANCH   1   2
BRANCH   1  18
ATOM     18  N   UNL A   1      40.875  23.875  26.124  1.00  0.00    -0.352 N 
ATOM     19  C   UNL A   1      41.333  25.166  26.109  1.00  0.00     0.251 C 
ATOM     20  H   UNL A   1      41.136  23.334  25.345  1.00  0.00     0.163 HD
ATOM     21  O   UNL A   1      41.831  25.618  25.073  1.00  0.00    -0.269 OA
BRANCH  19  22
ATOM     22  C   UNL A   1      41.218  26.021  27.306  1.00  0.00     0.039 A 
ATOM     23  C   UNL A   1      42.226  26.951  27.572  1.00  0.00     0.014 A 
ATOM     24  C   UNL A   1      40.134  25.894  28.179  1.00  0.00     0.014 A 
ATOM     25  C   UNL A   1      42.111  27.801  28.674  1.00  0.00     0.010 A 
ATOM     26  C   UNL A   1      39.980  26.796  29.229  1.00  0.00     0.010 A 
ATOM     27  C   UNL A   1      40.968  27.756  29.489  1.00  0.00    -0.014 A 
BRANCH  27  28
ATOM     28  C   UNL A   1      40.790  28.713  30.612  1.00  0.00     0.031 A 
ATOM     29  C   UNL A   1      41.630  28.591  31.855  1.00  0.00     0.074 A 
ATOM     30  C   UNL A   1      39.829  29.655  30.532  1.00  0.00     0.049 A 
ATOM     31  N   UNL A   1      41.584  29.302  32.953  1.00  0.00    -0.248 NA
ATOM     32  C   UNL A   1      42.632  27.514  31.879  1.00  0.00     0.031 C 
ATOM     33  C   UNL A   1      38.911  29.834  29.403  1.00  0.00     0.029 A 
ATOM     34  N   UNL A   1      39.456  30.632  31.419  1.00  0.00    -0.354 N 
ATOM     35  C   UNL A   1      42.538  28.750  33.801  1.00  0.00     0.074 A 
ATOM     36  C   UNL A   1      43.108  27.614  33.113  1.00  0.00     0.031 C 
ATOM     37  C   UNL A   1      38.102  30.874  29.656  1.00  0.00     0.029 A 
ATOM     38  C   UNL A   1      38.416  31.414  30.974  1.00  0.00     0.049 A 
ATOM     39  H   UNL A   1      39.893  30.764  32.291  1.00  0.00     0.167 HD
ATOM     40  C   UNL A   1      42.920  29.168  35.033  1.00  0.00     0.037 A 
ATOM     41  C   UNL A   1      37.783  32.447  31.563  1.00  0.00     0.037 A 
ATOM     42  C   UNL A   1      42.367  30.317  35.701  1.00  0.00     0.049 A 
ATOM     43  C   UNL A   1      38.236  32.903  32.922  1.00  0.00     0.074 A 
ATOM     44  C   UNL A   1      42.730  30.862  36.919  1.00  0.00     0.029 A 
ATOM     45  N   UNL A   1      41.331  31.098  35.207  1.00  0.00    -0.354 N 
ATOM     46  N   UNL A   1      39.188  32.412  33.681  1.00  0.00    -0.248 NA
ATOM     47  C   UNL A   1      37.537  34.057  33.503  1.00  0.00     0.031 C 
ATOM     48  C   UNL A   1      41.887  31.948  37.183  1.00  0.00     0.029 A 
ATOM     49  C   UNL A   1      41.030  32.109  36.106  1.00  0.00     0.049 A 
ATOM     50  H   UNL A   1      40.878  30.956  34.346  1.00  0.00     0.167 HD
ATOM     51  C   UNL A   1      39.216  33.210  34.819  1.00  0.00     0.074 A 
ATOM     52  C   UNL A   1      38.199  34.226  34.640  1.00  0.00     0.031 C 
ATOM     53  C   UNL A   1      40.012  33.112  35.912  1.00  0.00     0.037 A 
BRANCH  40  54
ATOM     54  C   UNL A   1      43.995  28.380  35.733  1.00  0.00     0.058 A 
ATOM     55  C   UNL A   1      43.683  27.333  36.616  1.00  0.00     0.135 A 
ATOM     56  C   UNL A   1      45.351  28.652  35.495  1.00  0.00     0.135 A 
ATOM     57  F   UNL A   1      42.403  27.040  36.892  1.00  0.00    -0.206 F 
ATOM     58  C   UNL A   1      44.676  26.604  37.260  1.00  0.00     0.059 A 
ATOM     59  C   UNL A   1      46.363  27.916  36.106  1.00  0.00     0.059 A 
ATOM     60  F   UNL A   1      45.707  29.641  34.659  1.00  0.00    -0.206 F 
ATOM     61  C   UNL A   1      46.015  26.904  37.000  1.00  0.00     0.060 A 
BRANCH  61  62
ATOM     62  S   UNL A   1      47.293  25.945  37.841  1.00  0.00     0.124 S 
ATOM     63  O   UNL A   1      46.585  25.505  39.039  1.00  0.00    -0.237 OA
ATOM     64  O   UNL A   1      47.593  24.902  36.866  1.00  0.00    -0.237 OA
ATOM     65  O   UNL A   1      48.358  26.918  38.062  1.00  0.00    -0.744 OA
ENDBRANCH  61  62
ENDBRANCH  40  54
BRANCH  41  66
ATOM     66  C   UNL A   1      36.672  33.138  30.856  1.00  0.00     0.058 A 
ATOM     67  C   UNL A   1      35.341  32.972  31.267  1.00  0.00     0.135 A 
ATOM     68  C   UNL A   1      36.918  33.991  29.769  1.00  0.00     0.135 A 
ATOM     69  F   UNL A   1      35.054  32.162  32.298  1.00  0.00    -0.206 F 
ATOM     70  C   UNL A   1      34.292  33.613  30.617  1.00  0.00     0.059 A 
ATOM     71  C   UNL A   1      35.889  34.664  29.119  1.00  0.00     0.059 A 
ATOM     72  F   UNL A   1      38.176  34.199  29.350  1.00  0.00    -0.206 F 
ATOM     73  C   UNL A   1      34.576  34.459  29.545  1.00  0.00     0.060 A 
BRANCH  73  74
ATOM     74  S   UNL A   1      33.213  35.329  28.741  1.00  0.00     0.124 S 
ATOM     75  O   UNL A   1      33.927  36.318  27.941  1.00  0.00    -0.237 OA
ATOM     76  O   UNL A   1      32.559  34.256  27.997  1.00  0.00    -0.237 OA
ATOM     77  O   UNL A   1      32.445  35.859  29.864  1.00  0.00    -0.744 OA
ENDBRANCH  73  74
ENDBRANCH  41  66
BRANCH  53  78
ATOM     78  C   UNL A   1      39.831  34.145  36.989  1.00  0.00     0.058 A 
ATOM     79  C   UNL A   1      40.476  35.390  36.933  1.00  0.00     0.135 A 
ATOM     80  C   UNL A   1      38.973  33.899  38.074  1.00  0.00     0.135 A 
ATOM     81  F   UNL A   1      41.312  35.673  35.921  1.00  0.00    -0.206 F 
ATOM     82  C   UNL A   1      40.302  36.344  37.930  1.00  0.00     0.059 A 
ATOM     83  C   UNL A   1      38.761  34.850  39.067  1.00  0.00     0.059 A 
ATOM     84  F   UNL A   1      38.321  32.729  38.169  1.00  0.00    -0.206 F 
ATOM     85  C   UNL A   1      39.443  36.063  38.995  1.00  0.00     0.060 A 
BRANCH  85  86
ATOM     86  S   UNL A   1      39.211  37.316  40.274  1.00  0.00     0.124 S 
ATOM     87  O   UNL A   1      40.574  37.802  40.459  1.00  0.00    -0.237 OA
ATOM     88  O   UNL A   1      38.286  38.248  39.635  1.00  0.00    -0.237 OA
ATOM     89  O   UNL A   1      38.656  36.560  41.392  1.00  0.00    -0.744 OA
ENDBRANCH  85  86
ENDBRANCH  53  78
ENDBRANCH  27  28
ENDBRANCH  19  22
ENDBRANCH   1  18
TORSDOF 14
ENDMDL
MODEL 2
REMARK VINA RESULT:     -11.8      5.023     10.508
REMARK SMILES C[C@H]1CCC[C@H](C(C)(C)C(=O)NCCCNC(=O)c2ccc(-c3c4nc(c(-c5c(F)cc(S(=O)(=O)[O-])cc5F)c5ccc([nH]5)c(-c5c(F)cc(S(=O)(=O)[O-])cc5F)c5nc(c(-c6c(F)cc(S(=O)(=O)[O-])cc6F)c6ccc3[nH]6)C=C5)C=C4)cc2)C1
REMARK SMILES IDX 15 1 14 2 13 3 12 4 10 5 11 6 7 8 8 9 9 10 6 11 1 12 2 13
REMARK SMILES IDX 3 14 85 15 4 16 5 17 16 18 17 19 18 21 19 22 20 23 84 24
REMARK SMILES IDX 21 25 83 26 22 27 23 28 24 29 77 30 25 31 82 32 76 33 78 34
REMARK SMILES IDX 26 35 81 36 75 37 74 38 27 40 61 41 40 42 60 43 41 44 44 45
REMARK SMILES IDX 59 46 79 47 42 48 43 49 58 51 80 52 45 53 28 54 29 55 38 56
REMARK SMILES IDX 30 57 31 58 37 59 39 60 32 61 33 62 34 63 35 64 36 65 62 66
REMARK SMILES IDX 63 67 72 68 64 69 65 70 71 71 73 72 66 73 67 74 68 75 69 76
REMARK SMILES IDX 70 77 46 78 47 79 56 80 48 81 49 82 55 83 57 84 50 85 51 86
REMARK SMILES IDX 52 87 53 88 54 89
REMARK H PARENT 12 7 16 20 78 39 44 50
REMARK Flexibility Score: inf
ROOT
ATOM      1  C   UNL A   1      33.763  28.366  26.932  1.00  0.00     0.118 C 
ENDROOT
BRANCH   1   2
ATOM      2  C   UNL A   1      33.806  28.256  25.408  1.00  0.00     0.042 C 
BRANCH   2   3
ATOM      3  C   UNL A   1      32.644  27.472  24.804  1.00  0.00     0.117 C 
BRANCH   3   4
ATOM      4  N   UNL A   1      33.013  26.877  23.535  1.00  0.00    -0.356 N 
ATOM      5  C   UNL A   1      33.582  25.710  23.153  1.00  0.00     0.225 C 
ATOM      6  O   UNL A   1      33.906  25.708  21.967  1.00  0.00    -0.275 OA
ATOM      7  H   UNL A   1      32.799  27.459  22.771  1.00  0.00     0.163 HD
BRANCH   5   8
ATOM      8  C   UNL A   1      33.761  24.486  24.080  1.00  0.00     0.046 C 
ATOM      9  C   UNL A   1      32.380  24.173  24.706  1.00  0.00     0.022 C 
ATOM     10  C   UNL A   1      34.763  24.818  25.206  1.00  0.00     0.022 C 
BRANCH   8  11
ATOM     11  C   UNL A   1      34.266  23.153  23.354  1.00  0.00     0.004 C 
ATOM     12  C   UNL A   1      33.419  19.814  25.223  1.00  0.00     0.007 C 
ATOM     13  C   UNL A   1      34.116  21.158  24.988  1.00  0.00    -0.014 C 
ATOM     14  C   UNL A   1      35.636  20.955  24.907  1.00  0.00     0.003 C 
ATOM     15  C   UNL A   1      33.573  21.825  23.727  1.00  0.00     0.008 C 
ATOM     16  C   UNL A   1      36.436  22.158  24.407  1.00  0.00     0.001 C 
ATOM     17  C   UNL A   1      35.789  22.919  23.253  1.00  0.00     0.005 C 
ENDBRANCH   8  11
ENDBRANCH   5   8
ENDBRANCH   3   4
ENDBRANCH   2   3
ENDBRANCH   1   2
BRANCH   1  18
ATOM     18  N   UNL A   1      33.657  29.744  27.395  1.00  0.00    -0.352 N 
ATOM     19  C   UNL A   1      34.539  30.507  28.112  1.00  0.00     0.251 C 
ATOM     20  H   UNL A   1      32.817  30.197  27.155  1.00  0.00     0.163 HD
ATOM     21  O   UNL A   1      34.162  31.586  28.581  1.00  0.00    -0.269 OA
BRANCH  19  22
ATOM     22  C   UNL A   1      35.921  30.045  28.344  1.00  0.00     0.039 A 
ATOM     23  C   UNL A   1      36.849  30.142  27.305  1.00  0.00     0.014 A 
ATOM     24  C   UNL A   1      36.300  29.496  29.573  1.00  0.00     0.014 A 
ATOM     25  C   UNL A   1      38.173  29.753  27.521  1.00  0.00     0.010 A 
ATOM     26  C   UNL A   1      37.636  29.187  29.812  1.00  0.00     0.010 A 
ATOM     27  C   UNL A   1      38.586  29.309  28.787  1.00  0.00    -0.014 A 
BRANCH  27  28
ATOM     28  C   UNL A   1      40.009  28.977  29.057  1.00  0.00     0.031 A 
ATOM     29  C   UNL A   1      40.931  30.008  29.650  1.00  0.00     0.074 A 
ATOM     30  C   UNL A   1      40.483  27.764  28.709  1.00  0.00     0.049 A 
ATOM     31  N   UNL A   1      42.210  29.918  29.911  1.00  0.00    -0.248 NA
ATOM     32  C   UNL A   1      40.346  31.321  29.968  1.00  0.00     0.031 C 
ATOM     33  C   UNL A   1      39.701  26.701  28.071  1.00  0.00     0.029 A 
ATOM     34  N   UNL A   1      41.736  27.221  28.834  1.00  0.00    -0.354 N 
ATOM     35  C   UNL A   1      42.585  31.161  30.407  1.00  0.00     0.074 A 
ATOM     36  C   UNL A   1      41.411  32.005  30.361  1.00  0.00     0.031 C 
ATOM     37  C   UNL A   1      40.485  25.628  27.887  1.00  0.00     0.029 A 
ATOM     38  C   UNL A   1      41.832  25.935  28.357  1.00  0.00     0.049 A 
ATOM     39  H   UNL A   1      42.496  27.707  29.230  1.00  0.00     0.167 HD
ATOM     40  C   UNL A   1      43.792  31.557  30.880  1.00  0.00     0.037 A 
ATOM     41  C   UNL A   1      42.885  25.098  28.303  1.00  0.00     0.037 A 
ATOM     42  C   UNL A   1      44.949  30.702  30.948  1.00  0.00     0.049 A 
ATOM     43  C   UNL A   1      44.210  25.553  28.850  1.00  0.00     0.074 A 
ATOM     44  C   UNL A   1      46.198  30.986  31.470  1.00  0.00     0.029 A 
ATOM     45  N   UNL A   1      44.999  29.397  30.478  1.00  0.00    -0.354 N 
ATOM     46  N   UNL A   1      44.528  26.710  29.380  1.00  0.00    -0.248 NA
ATOM     47  C   UNL A   1      45.316  24.588  28.800  1.00  0.00     0.031 C 
ATOM     48  C   UNL A   1      47.017  29.867  31.279  1.00  0.00     0.029 A 
ATOM     49  C   UNL A   1      46.264  28.869  30.681  1.00  0.00     0.049 A 
ATOM     50  H   UNL A   1      44.247  28.918  30.062  1.00  0.00     0.167 HD
ATOM     51  C   UNL A   1      45.866  26.605  29.745  1.00  0.00     0.074 A 
ATOM     52  C   UNL A   1      46.290  25.265  29.393  1.00  0.00     0.031 C 
ATOM     53  C   UNL A   1      46.669  27.533  30.322  1.00  0.00     0.037 A 
BRANCH  40  54
ATOM     54  C   UNL A   1      43.918  32.974  31.369  1.00  0.00     0.058 A 
ATOM     55  C   UNL A   1      44.318  34.015  30.515  1.00  0.00     0.135 A 
ATOM     56  C   UNL A   1      43.604  33.304  32.697  1.00  0.00     0.135 A 
ATOM     57  F   UNL A   1      44.644  33.755  29.239  1.00  0.00    -0.206 F 
ATOM     58  C   UNL A   1      44.431  35.325  30.966  1.00  0.00     0.059 A 
ATOM     59  C   UNL A   1      43.682  34.614  33.164  1.00  0.00     0.059 A 
ATOM     60  F   UNL A   1      43.215  32.350  33.558  1.00  0.00    -0.206 F 
ATOM     61  C   UNL A   1      44.112  35.615  32.294  1.00  0.00     0.060 A 
BRANCH  61  62
ATOM     62  S   UNL A   1      44.260  37.321  32.864  1.00  0.00     0.124 S 
ATOM     63  O   UNL A   1      44.053  38.062  31.624  1.00  0.00    -0.237 OA
ATOM     64  O   UNL A   1      43.185  37.418  33.845  1.00  0.00    -0.237 OA
ATOM     65  O   UNL A   1      45.612  37.381  33.413  1.00  0.00    -0.744 OA
ENDBRANCH  61  62
ENDBRANCH  40  54
BRANCH  41  66
ATOM     66  C   UNL A   1      42.721  23.733  27.734  1.00  0.00     0.058 A 
ATOM     67  C   UNL A   1      42.450  22.634  28.562  1.00  0.00     0.135 A 
ATOM     68  C   UNL A   1      42.812  23.504  26.352  1.00  0.00     0.135 A 
ATOM     69  F   UNL A   1      42.358  22.803  29.890  1.00  0.00    -0.206 F 
ATOM     70  C   UNL A   1      42.292  21.353  28.045  1.00  0.00     0.059 A 
ATOM     71  C   UNL A   1      42.632  22.236  25.808  1.00  0.00     0.059 A 
ATOM     72  F   UNL A   1      43.050  24.526  25.515  1.00  0.00    -0.206 F 
ATOM     73  C   UNL A   1      42.382  21.164  26.665  1.00  0.00     0.060 A 
BRANCH  73  74
ATOM     74  S   UNL A   1      42.122  19.507  25.997  1.00  0.00     0.124 S 
ATOM     75  O   UNL A   1      42.942  19.544  24.792  1.00  0.00    -0.237 OA
ATOM     76  O   UNL A   1      42.615  18.658  27.079  1.00  0.00    -0.237 OA
ATOM     77  O   UNL A   1      40.680  19.455  25.781  1.00  0.00    -0.744 OA
ENDBRANCH  73  74
ENDBRANCH  41  66
BRANCH  53  78
ATOM     78  C   UNL A   1      48.083  27.122  30.629  1.00  0.00     0.058 A 
ATOM     79  C   UNL A   1      49.132  27.361  29.729  1.00  0.00     0.135 A 
ATOM     80  C   UNL A   1      48.396  26.511  31.854  1.00  0.00     0.135 A 
ATOM     81  F   UNL A   1      48.886  27.936  28.540  1.00  0.00    -0.206 F 
ATOM     82  C   UNL A   1      50.439  26.982  30.019  1.00  0.00     0.059 A 
ATOM     83  C   UNL A   1      49.700  26.149  32.177  1.00  0.00     0.059 A 
ATOM     84  F   UNL A   1      47.431  26.270  32.756  1.00  0.00    -0.206 F 
ATOM     85  C   UNL A   1      50.712  26.375  31.246  1.00  0.00     0.060 A 
BRANCH  85  86
ATOM     86  S   UNL A   1      52.414  25.903  31.619  1.00  0.00     0.124 S 
ATOM     87  O   UNL A   1      52.770  26.873  32.648  1.00  0.00    -0.237 OA
ATOM     88  O   UNL A   1      52.265  24.523  32.071  1.00  0.00    -0.237 OA
ATOM     89  O   UNL A   1      53.098  26.065  30.339  1.00  0.00    -0.744 OA
ENDBRANCH  85  86
ENDBRANCH  53  78
ENDBRANCH  27  28
ENDBRANCH  19  22
ENDBRANCH   1  18
TORSDOF 14
ENDMDL
MODEL 3
REMARK VINA RESULT:     -11.8      6.941     12.504
REMARK SMILES C[C@H]1CCC[C@H](C(C)(C)C(=O)NCCCNC(=O)c2ccc(-c3c4nc(c(-c5c(F)cc(S(=O)(=O)[O-])cc5F)c5ccc([nH]5)c(-c5c(F)cc(S(=O)(=O)[O-])cc5F)c5nc(c(-c6c(F)cc(S(=O)(=O)[O-])cc6F)c6ccc3[nH]6)C=C5)C=C4)cc2)C1
REMARK SMILES IDX 15 1 14 2 13 3 12 4 10 5 11 6 7 8 8 9 9 10 6 11 1 12 2 13
REMARK SMILES IDX 3 14 85 15 4 16 5 17 16 18 17 19 18 21 19 22 20 23 84 24
REMARK SMILES IDX 21 25 83 26 22 27 23 28 24 29 77 30 25 31 82 32 76 33 78 34
REMARK SMILES IDX 26 35 81 36 75 37 74 38 27 40 61 41 40 42 60 43 41 44 44 45
REMARK SMILES IDX 59 46 79 47 42 48 43 49 58 51 80 52 45 53 28 54 29 55 38 56
REMARK SMILES IDX 30 57 31 58 37 59 39 60 32 61 33 62 34 63 35 64 36 65 62 66
REMARK SMILES IDX 63 67 72 68 64 69 65 70 71 71 73 72 66 73 67 74 68 75 69 76
REMARK SMILES IDX 70 77 46 78 47 79 56 80 48 81 49 82 55 83 57 84 50 85 51 86
REMARK SMILES IDX 52 87 53 88 54 89
REMARK H PARENT 12 7 16 20 78 39 44 50
REMARK Flexibility Score: inf
ROOT
ATOM      1  C   UNL A   1      35.645  31.207  28.027  1.00  0.00     0.118 C 
ENDROOT
BRANCH   1   2
ATOM      2  C   UNL A   1      34.485  30.569  27.264  1.00  0.00     0.042 C 
BRANCH   2   3
ATOM      3  C   UNL A   1      34.408  29.051  27.397  1.00  0.00     0.117 C 
BRANCH   3   4
ATOM      4  N   UNL A   1      33.103  28.628  27.865  1.00  0.00    -0.356 N 
ATOM      5  C   UNL A   1      32.060  27.960  27.321  1.00  0.00     0.225 C 
ATOM      6  O   UNL A   1      31.052  28.004  28.024  1.00  0.00    -0.275 OA
ATOM      7  H   UNL A   1      32.937  28.888  28.799  1.00  0.00     0.163 HD
BRANCH   5   8
ATOM      8  C   UNL A   1      32.128  27.179  25.989  1.00  0.00     0.046 C 
ATOM      9  C   UNL A   1      30.750  26.505  25.777  1.00  0.00     0.022 C 
ATOM     10  C   UNL A   1      33.217  26.088  26.071  1.00  0.00     0.022 C 
BRANCH   8  11
ATOM     11  C   UNL A   1      32.425  28.070  24.694  1.00  0.00     0.004 C 
ATOM     12  C   UNL A   1      29.434  30.289  23.473  1.00  0.00     0.007 C 
ATOM     13  C   UNL A   1      30.210  28.995  23.741  1.00  0.00    -0.014 C 
ATOM     14  C   UNL A   1      30.439  28.237  22.425  1.00  0.00     0.003 C 
ATOM     15  C   UNL A   1      31.528  29.301  24.447  1.00  0.00     0.008 C 
ATOM     16  C   UNL A   1      31.429  27.073  22.499  1.00  0.00     0.001 C 
ATOM     17  C   UNL A   1      32.664  27.339  23.354  1.00  0.00     0.005 C 
ENDBRANCH   8  11
ENDBRANCH   5   8
ENDBRANCH   3   4
ENDBRANCH   2   3
ENDBRANCH   1   2
BRANCH   1  18
ATOM     18  N   UNL A   1      35.524  31.052  29.471  1.00  0.00    -0.352 N 
ATOM     19  C   UNL A   1      36.329  30.392  30.361  1.00  0.00     0.251 C 
ATOM     20  H   UNL A   1      34.738  31.490  29.870  1.00  0.00     0.163 HD
ATOM     21  O   UNL A   1      35.929  30.206  31.515  1.00  0.00    -0.269 OA
BRANCH  19  22
ATOM     22  C   UNL A   1      37.652  29.887  29.949  1.00  0.00     0.039 A 
ATOM     23  C   UNL A   1      37.966  29.841  28.589  1.00  0.00     0.014 A 
ATOM     24  C   UNL A   1      38.577  29.437  30.896  1.00  0.00     0.014 A 
ATOM     25  C   UNL A   1      39.230  29.411  28.183  1.00  0.00     0.010 A 
ATOM     26  C   UNL A   1      39.864  29.086  30.497  1.00  0.00     0.010 A 
ATOM     27  C   UNL A   1      40.203  29.066  29.136  1.00  0.00    -0.014 A 
BRANCH  27  28
ATOM     28  C   UNL A   1      41.581  28.692  28.724  1.00  0.00     0.031 A 
ATOM     29  C   UNL A   1      42.665  29.735  28.660  1.00  0.00     0.074 A 
ATOM     30  C   UNL A   1      41.838  27.423  28.349  1.00  0.00     0.049 A 
ATOM     31  N   UNL A   1      43.910  29.608  28.278  1.00  0.00    -0.248 NA
ATOM     32  C   UNL A   1      42.295  31.105  29.049  1.00  0.00     0.031 C 
ATOM     33  C   UNL A   1      40.855  26.337  28.311  1.00  0.00     0.029 A 
ATOM     34  N   UNL A   1      42.999  26.833  27.921  1.00  0.00    -0.354 N 
ATOM     35  C   UNL A   1      44.466  30.878  28.367  1.00  0.00     0.074 A 
ATOM     36  C   UNL A   1      43.410  31.773  28.787  1.00  0.00     0.031 C 
ATOM     37  C   UNL A   1      41.462  25.210  27.909  1.00  0.00     0.029 A 
ATOM     38  C   UNL A   1      42.864  25.497  27.626  1.00  0.00     0.049 A 
ATOM     39  H   UNL A   1      43.851  27.320  27.833  1.00  0.00     0.167 HD
ATOM     40  C   UNL A   1      45.747  31.261  28.143  1.00  0.00     0.037 A 
ATOM     41  C   UNL A   1      43.766  24.604  27.177  1.00  0.00     0.037 A 
ATOM     42  C   UNL A   1      46.800  30.360  27.752  1.00  0.00     0.049 A 
ATOM     43  C   UNL A   1      45.185  25.048  26.952  1.00  0.00     0.074 A 
ATOM     44  C   UNL A   1      48.142  30.635  27.564  1.00  0.00     0.029 A 
ATOM     45  N   UNL A   1      46.628  29.008  27.488  1.00  0.00    -0.354 N 
ATOM     46  N   UNL A   1      45.709  26.240  27.109  1.00  0.00    -0.248 NA
ATOM     47  C   UNL A   1      46.137  24.026  26.497  1.00  0.00     0.031 C 
ATOM     48  C   UNL A   1      48.776  29.459  27.145  1.00  0.00     0.029 A 
ATOM     49  C   UNL A   1      47.837  28.440  27.120  1.00  0.00     0.049 A 
ATOM     50  H   UNL A   1      45.774  28.524  27.553  1.00  0.00     0.167 HD
ATOM     51  C   UNL A   1      47.057  26.107  26.792  1.00  0.00     0.074 A 
ATOM     52  C   UNL A   1      47.269  24.714  26.453  1.00  0.00     0.031 C 
ATOM     53  C   UNL A   1      48.030  27.051  26.784  1.00  0.00     0.037 A 
BRANCH  40  54
ATOM     54  C   UNL A   1      46.080  32.717  28.324  1.00  0.00     0.058 A 
ATOM     55  C   UNL A   1      45.943  33.640  27.274  1.00  0.00     0.135 A 
ATOM     56  C   UNL A   1      46.511  33.204  29.569  1.00  0.00     0.135 A 
ATOM     57  F   UNL A   1      45.549  33.228  26.059  1.00  0.00    -0.206 F 
ATOM     58  C   UNL A   1      46.248  34.986  27.443  1.00  0.00     0.059 A 
ATOM     59  C   UNL A   1      46.795  34.552  29.768  1.00  0.00     0.059 A 
ATOM     60  F   UNL A   1      46.660  32.367  30.608  1.00  0.00    -0.206 F 
ATOM     61  C   UNL A   1      46.675  35.433  28.695  1.00  0.00     0.060 A 
BRANCH  61  62
ATOM     62  S   UNL A   1      47.065  37.184  28.898  1.00  0.00     0.124 S 
ATOM     63  O   UNL A   1      46.725  37.713  27.581  1.00  0.00    -0.237 OA
ATOM     64  O   UNL A   1      46.174  37.577  29.986  1.00  0.00    -0.237 OA
ATOM     65  O   UNL A   1      48.487  37.181  29.227  1.00  0.00    -0.744 OA
ENDBRANCH  61  62
ENDBRANCH  40  54
BRANCH  41  66
ATOM     66  C   UNL A   1      43.360  23.193  26.938  1.00  0.00     0.058 A 
ATOM     67  C   UNL A   1      43.125  22.719  25.639  1.00  0.00     0.135 A 
ATOM     68  C   UNL A   1      43.216  22.286  28.000  1.00  0.00     0.135 A 
ATOM     69  F   UNL A   1      43.245  23.549  24.592  1.00  0.00    -0.206 F 
ATOM     70  C   UNL A   1      42.747  21.403  25.400  1.00  0.00     0.059 A 
ATOM     71  C   UNL A   1      42.863  20.958  27.785  1.00  0.00     0.059 A 
ATOM     72  F   UNL A   1      43.448  22.685  29.261  1.00  0.00    -0.206 F 
ATOM     73  C   UNL A   1      42.620  20.528  26.480  1.00  0.00     0.060 A 
BRANCH  73  74
ATOM     74  S   UNL A   1      42.180  18.807  26.156  1.00  0.00     0.124 S 
ATOM     75  O   UNL A   1      40.797  18.936  25.714  1.00  0.00    -0.237 OA
ATOM     76  O   UNL A   1      43.147  18.431  25.128  1.00  0.00    -0.237 OA
ATOM     77  O   UNL A   1      42.373  18.162  27.451  1.00  0.00    -0.744 OA
ENDBRANCH  73  74
ENDBRANCH  41  66
BRANCH  53  78
ATOM     78  C   UNL A   1      49.418  26.603  26.419  1.00  0.00     0.058 A 
ATOM     79  C   UNL A   1      49.926  26.760  25.120  1.00  0.00     0.135 A 
ATOM     80  C   UNL A   1      50.263  26.042  27.390  1.00  0.00     0.135 A 
ATOM     81  F   UNL A   1      49.157  27.285  24.152  1.00  0.00    -0.206 F 
ATOM     82  C   UNL A   1      51.212  26.347  24.788  1.00  0.00     0.059 A 
ATOM     83  C   UNL A   1      51.563  25.648  27.088  1.00  0.00     0.059 A 
ATOM     84  F   UNL A   1      49.831  25.882  28.651  1.00  0.00    -0.206 F 
ATOM     85  C   UNL A   1      52.022  25.791  25.780  1.00  0.00     0.060 A 
BRANCH  85  86
ATOM     86  S   UNL A   1      53.696  25.275  25.341  1.00  0.00     0.124 S 
ATOM     87  O   UNL A   1      53.598  23.825  25.464  1.00  0.00    -0.237 OA
ATOM     88  O   UNL A   1      53.837  25.789  23.982  1.00  0.00    -0.237 OA
ATOM     89  O   UNL A   1      54.527  25.936  26.343  1.00  0.00    -0.744 OA
ENDBRANCH  85  86
ENDBRANCH  53  78
ENDBRANCH  27  28
ENDBRANCH  19  22
ENDBRANCH   1  18
TORSDOF 14
ENDMDL
