MODEL 1
REMARK VINA RESULT:     -11.9      0.000      0.000
REMARK SMILES Cc1ccc(NS(=O)(=O)N2CCCC[C@@H]2C(=O)NCCCNC(=O)c2ccc(-c3c4nc(c(-c5c(F)cc(S(=O)(=O)[O-])cc5F)c5ccc([nH]5)c(-c5c(F)cc(S(=O)(=O)[O-])cc5F)c5nc(c(-c6c(F)cc(S(=O)(=O)[O-])cc6F)c6ccc3[nH]6)C=C5)C=C4)cc2)c(C)n1
REMARK SMILES IDX 20 1 19 2 18 3 16 4 17 5 15 7 10 8 11 9 12 10 14 11 13 12
REMARK SMILES IDX 7 13 8 14 9 15 6 16 5 18 1 19 2 20 3 21 93 22 4 23 91 24
REMARK SMILES IDX 92 25 21 26 22 27 23 28 24 30 25 31 26 32 90 33 27 34 89 35
REMARK SMILES IDX 28 36 29 37 30 38 83 39 31 40 88 41 82 42 84 43 32 44 87 45
REMARK SMILES IDX 81 46 80 47 33 49 67 50 46 51 66 52 47 53 50 54 65 55 85 56
REMARK SMILES IDX 48 57 49 58 64 60 86 61 51 62 34 63 35 64 44 65 36 66 37 67
REMARK SMILES IDX 43 68 45 69 38 70 39 71 40 72 41 73 42 74 68 75 69 76 78 77
REMARK SMILES IDX 70 78 71 79 77 80 79 81 72 82 73 83 74 84 75 85 76 86 52 87
REMARK SMILES IDX 53 88 62 89 54 90 55 91 61 92 63 93 56 94 57 95 58 96 59 97
REMARK SMILES IDX 60 98
REMARK H PARENT 18 6 6 17 22 29 84 48 50 59
REMARK Flexibility Score: inf
ROOT
ATOM      1  C   UNL A   1      33.186  28.521  25.170  1.00  0.00     0.042 C 
ENDROOT
BRANCH   1   2
ATOM      2  C   UNL A   1      34.003  28.155  23.926  1.00  0.00     0.117 C 
BRANCH   2   3
ATOM      3  N   UNL A   1      33.291  27.283  23.000  1.00  0.00    -0.355 N 
ATOM      4  C   UNL A   1      32.339  26.325  23.126  1.00  0.00     0.238 C 
ATOM      5  O   UNL A   1      31.827  25.977  22.051  1.00  0.00    -0.273 OA
ATOM      6  H   UNL A   1      33.565  27.422  22.065  1.00  0.00     0.163 HD
BRANCH   4   7
ATOM      7  C   UNL A   1      31.883  25.662  24.433  1.00  0.00     0.163 C 
ATOM      8  N   UNL A   1      32.221  24.201  24.634  1.00  0.00    -0.172 NA
ATOM      9  C   UNL A   1      31.835  23.745  26.010  1.00  0.00     0.105 C 
ATOM     10  C   UNL A   1      30.344  23.944  26.237  1.00  0.00     0.017 C 
ATOM     11  C   UNL A   1      30.405  25.942  24.749  1.00  0.00     0.030 C 
ATOM     12  C   UNL A   1      29.988  25.417  26.120  1.00  0.00     0.004 C 
BRANCH   8  13
ATOM     13  S   UNL A   1      33.835  23.769  24.291  1.00  0.00     0.302 S 
ATOM     14  O   UNL A   1      34.732  24.776  24.809  1.00  0.00    -0.189 OA
ATOM     15  O   UNL A   1      33.919  23.406  22.898  1.00  0.00    -0.189 OA
BRANCH  13  16
ATOM     16  N   UNL A   1      34.045  22.399  25.185  1.00  0.00    -0.269 N 
ATOM     17  H   UNL A   1      34.097  22.524  26.159  1.00  0.00     0.181 HD
BRANCH  16  18
ATOM     18  C   UNL A   1      34.160  21.044  24.716  1.00  0.00     0.071 A 
ATOM     19  C   UNL A   1      33.659  16.819  24.685  1.00  0.00     0.067 C 
ATOM     20  C   UNL A   1      33.826  18.291  24.477  1.00  0.00     0.038 A 
ATOM     21  C   UNL A   1      32.748  19.114  24.217  1.00  0.00     0.026 A 
ATOM     22  N   UNL A   1      35.050  18.792  24.724  1.00  0.00    -0.256 NA
ATOM     23  C   UNL A   1      32.918  20.491  24.356  1.00  0.00     0.030 A 
ATOM     24  C   UNL A   1      35.232  20.143  24.810  1.00  0.00     0.062 A 
ATOM     25  C   UNL A   1      36.669  20.461  25.048  1.00  0.00     0.069 C 
ENDBRANCH  16  18
ENDBRANCH  13  16
ENDBRANCH   8  13
ENDBRANCH   4   7
ENDBRANCH   2   3
ENDBRANCH   1   2
BRANCH   1  26
ATOM     26  C   UNL A   1      33.969  28.619  26.481  1.00  0.00     0.118 C 
BRANCH  26  27
ATOM     27  N   UNL A   1      33.773  29.855  27.225  1.00  0.00    -0.352 N 
ATOM     28  C   UNL A   1      34.595  30.558  28.074  1.00  0.00     0.251 C 
ATOM     29  H   UNL A   1      32.886  30.262  27.097  1.00  0.00     0.163 HD
ATOM     30  O   UNL A   1      34.162  31.567  28.628  1.00  0.00    -0.269 OA
BRANCH  28  31
ATOM     31  C   UNL A   1      35.974  30.113  28.367  1.00  0.00     0.039 A 
ATOM     32  C   UNL A   1      36.290  29.672  29.661  1.00  0.00     0.014 A 
ATOM     33  C   UNL A   1      36.977  30.204  27.407  1.00  0.00     0.014 A 
ATOM     34  C   UNL A   1      37.594  29.268  29.969  1.00  0.00     0.010 A 
ATOM     35  C   UNL A   1      38.248  29.723  27.685  1.00  0.00     0.010 A 
ATOM     36  C   UNL A   1      38.578  29.270  28.973  1.00  0.00    -0.014 A 
BRANCH  36  37
ATOM     37  C   UNL A   1      39.993  28.898  29.222  1.00  0.00     0.031 A 
ATOM     38  C   UNL A   1      40.958  29.985  29.614  1.00  0.00     0.074 A 
ATOM     39  C   UNL A   1      40.431  27.659  28.935  1.00  0.00     0.049 A 
ATOM     40  N   UNL A   1      42.262  30.002  29.553  1.00  0.00    -0.248 NA
ATOM     41  C   UNL A   1      40.361  31.251  30.079  1.00  0.00     0.031 C 
ATOM     42  C   UNL A   1      39.592  26.534  28.517  1.00  0.00     0.029 A 
ATOM     43  N   UNL A   1      41.706  27.152  28.899  1.00  0.00    -0.354 N 
ATOM     44  C   UNL A   1      42.638  31.296  29.898  1.00  0.00     0.074 A 
ATOM     45  C   UNL A   1      41.424  32.039  30.154  1.00  0.00     0.031 C 
ATOM     46  C   UNL A   1      40.375  25.478  28.242  1.00  0.00     0.029 A 
ATOM     47  C   UNL A   1      41.771  25.864  28.419  1.00  0.00     0.049 A 
ATOM     48  H   UNL A   1      42.497  27.661  29.189  1.00  0.00     0.167 HD
ATOM     49  C   UNL A   1      43.886  31.812  29.995  1.00  0.00     0.037 A 
ATOM     50  C   UNL A   1      42.839  25.099  28.120  1.00  0.00     0.037 A 
ATOM     51  C   UNL A   1      45.082  31.030  29.815  1.00  0.00     0.049 A 
ATOM     52  C   UNL A   1      44.218  25.668  28.318  1.00  0.00     0.074 A 
ATOM     53  C   UNL A   1      46.398  31.416  29.989  1.00  0.00     0.029 A 
ATOM     54  N   UNL A   1      45.100  29.694  29.440  1.00  0.00    -0.354 N 
ATOM     55  N   UNL A   1      44.564  26.882  28.679  1.00  0.00    -0.248 NA
ATOM     56  C   UNL A   1      45.354  24.767  28.073  1.00  0.00     0.031 C 
ATOM     57  C   UNL A   1      47.215  30.320  29.694  1.00  0.00     0.029 A 
ATOM     58  C   UNL A   1      46.406  29.242  29.373  1.00  0.00     0.049 A 
ATOM     59  H   UNL A   1      44.303  29.150  29.249  1.00  0.00     0.167 HD
ATOM     60  C   UNL A   1      45.953  26.884  28.724  1.00  0.00     0.074 A 
ATOM     61  C   UNL A   1      46.384  25.548  28.368  1.00  0.00     0.031 C 
ATOM     62  C   UNL A   1      46.800  27.899  29.029  1.00  0.00     0.037 A 
BRANCH  49  63
ATOM     63  C   UNL A   1      44.026  33.275  30.311  1.00  0.00     0.058 A 
ATOM     64  C   UNL A   1      44.016  34.257  29.308  1.00  0.00     0.135 A 
ATOM     65  C   UNL A   1      44.131  33.706  31.644  1.00  0.00     0.135 A 
ATOM     66  F   UNL A   1      43.936  33.901  28.016  1.00  0.00    -0.206 F 
ATOM     67  C   UNL A   1      44.131  35.610  29.610  1.00  0.00     0.059 A 
ATOM     68  C   UNL A   1      44.219  35.057  31.972  1.00  0.00     0.059 A 
ATOM     69  F   UNL A   1      44.149  32.812  32.646  1.00  0.00    -0.206 F 
ATOM     70  C   UNL A   1      44.231  36.000  30.947  1.00  0.00     0.060 A 
BRANCH  70  71
ATOM     71  S   UNL A   1      44.357  37.761  31.325  1.00  0.00     0.124 S 
ATOM     72  O   UNL A   1      43.643  38.352  30.198  1.00  0.00    -0.237 OA
ATOM     73  O   UNL A   1      43.684  37.853  32.618  1.00  0.00    -0.237 OA
ATOM     74  O   UNL A   1      45.796  38.001  31.352  1.00  0.00    -0.744 OA
ENDBRANCH  70  71
ENDBRANCH  49  63
BRANCH  50  75
ATOM     75  C   UNL A   1      42.648  23.719  27.602  1.00  0.00     0.058 A 
ATOM     76  C   UNL A   1      42.505  22.635  28.481  1.00  0.00     0.135 A 
ATOM     77  C   UNL A   1      42.585  23.454  26.225  1.00  0.00     0.135 A 
ATOM     78  F   UNL A   1      42.563  22.837  29.806  1.00  0.00    -0.206 F 
ATOM     79  C   UNL A   1      42.327  21.337  28.017  1.00  0.00     0.059 A 
ATOM     80  C   UNL A   1      42.384  22.166  25.736  1.00  0.00     0.059 A 
ATOM     81  F   UNL A   1      42.696  24.457  25.340  1.00  0.00    -0.206 F 
ATOM     82  C   UNL A   1      42.265  21.112  26.640  1.00  0.00     0.060 A 
BRANCH  82  83
ATOM     83  S   UNL A   1      41.980  19.429  26.048  1.00  0.00     0.124 S 
ATOM     84  O   UNL A   1      42.375  18.639  27.209  1.00  0.00    -0.237 OA
ATOM     85  O   UNL A   1      40.553  19.446  25.744  1.00  0.00    -0.237 OA
ATOM     86  O   UNL A   1      42.860  19.331  24.886  1.00  0.00    -0.744 OA
ENDBRANCH  82  83
ENDBRANCH  50  75
BRANCH  62  87
ATOM     87  C   UNL A   1      48.269  27.593  29.026  1.00  0.00     0.058 A 
ATOM     88  C   UNL A   1      49.045  27.730  27.865  1.00  0.00     0.135 A 
ATOM     89  C   UNL A   1      48.917  27.213  30.212  1.00  0.00     0.135 A 
ATOM     90  F   UNL A   1      48.468  28.084  26.706  1.00  0.00    -0.206 F 
ATOM     91  C   UNL A   1      50.412  27.484  27.876  1.00  0.00     0.059 A 
ATOM     92  C   UNL A   1      50.287  26.985  30.251  1.00  0.00     0.059 A 
ATOM     93  F   UNL A   1      48.218  27.079  31.351  1.00  0.00    -0.206 F 
ATOM     94  C   UNL A   1      51.025  27.113  29.075  1.00  0.00     0.060 A 
BRANCH  94  95
ATOM     95  S   UNL A   1      52.808  26.832  29.086  1.00  0.00     0.124 S 
ATOM     96  O   UNL A   1      52.976  25.970  27.921  1.00  0.00    -0.237 OA
ATOM     97  O   UNL A   1      53.341  28.185  28.956  1.00  0.00    -0.237 OA
ATOM     98  O   UNL A   1      53.042  26.195  30.379  1.00  0.00    -0.744 OA
ENDBRANCH  94  95
ENDBRANCH  62  87
ENDBRANCH  36  37
ENDBRANCH  28  31
ENDBRANCH  26  27
ENDBRANCH   1  26
TORSDOF 16
ENDMDL
MODEL 2
REMARK VINA RESULT:     -11.9      2.134      2.997
REMARK SMILES Cc1ccc(NS(=O)(=O)N2CCCC[C@@H]2C(=O)NCCCNC(=O)c2ccc(-c3c4nc(c(-c5c(F)cc(S(=O)(=O)[O-])cc5F)c5ccc([nH]5)c(-c5c(F)cc(S(=O)(=O)[O-])cc5F)c5nc(c(-c6c(F)cc(S(=O)(=O)[O-])cc6F)c6ccc3[nH]6)C=C5)C=C4)cc2)c(C)n1
REMARK SMILES IDX 20 1 19 2 18 3 16 4 17 5 15 7 10 8 11 9 12 10 14 11 13 12
REMARK SMILES IDX 7 13 8 14 9 15 6 16 5 18 1 19 2 20 3 21 93 22 4 23 91 24
REMARK SMILES IDX 92 25 21 26 22 27 23 28 24 30 25 31 26 32 90 33 27 34 89 35
REMARK SMILES IDX 28 36 29 37 30 38 83 39 31 40 88 41 82 42 84 43 32 44 87 45
REMARK SMILES IDX 81 46 80 47 33 49 67 50 46 51 66 52 47 53 50 54 65 55 85 56
REMARK SMILES IDX 48 57 49 58 64 60 86 61 51 62 34 63 35 64 44 65 36 66 37 67
REMARK SMILES IDX 43 68 45 69 38 70 39 71 40 72 41 73 42 74 68 75 69 76 78 77
REMARK SMILES IDX 70 78 71 79 77 80 79 81 72 82 73 83 74 84 75 85 76 86 52 87
REMARK SMILES IDX 53 88 62 89 54 90 55 91 61 92 63 93 56 94 57 95 58 96 59 97
REMARK SMILES IDX 60 98
REMARK H PARENT 18 6 6 17 22 29 84 48 50 59
REMARK Flexibility Score: inf
ROOT
ATOM      1  C   UNL A   1      33.842  28.779  26.831  1.00  0.00     0.042 C 
ENDROOT
BRANCH   1   2
ATOM      2  C   UNL A   1      32.991  29.749  26.002  1.00  0.00     0.117 C 
BRANCH   2   3
ATOM      3  N   UNL A   1      33.102  29.535  24.565  1.00  0.00    -0.355 N 
ATOM      4  C   UNL A   1      32.501  28.711  23.670  1.00  0.00     0.238 C 
ATOM      5  O   UNL A   1      32.717  29.009  22.486  1.00  0.00    -0.273 OA
ATOM      6  H   UNL A   1      33.768  30.127  24.146  1.00  0.00     0.163 HD
BRANCH   4   7
ATOM      7  C   UNL A   1      31.632  27.489  23.999  1.00  0.00     0.163 C 
ATOM      8  N   UNL A   1      31.957  26.188  23.301  1.00  0.00    -0.172 NA
ATOM      9  C   UNL A   1      31.115  25.067  23.834  1.00  0.00     0.105 C 
ATOM     10  C   UNL A   1      29.637  25.375  23.642  1.00  0.00     0.017 C 
ATOM     11  C   UNL A   1      30.129  27.802  23.926  1.00  0.00     0.030 C 
ATOM     12  C   UNL A   1      29.263  26.639  24.401  1.00  0.00     0.004 C 
BRANCH   8  13
ATOM     13  S   UNL A   1      33.606  25.749  23.301  1.00  0.00     0.302 S 
ATOM     14  O   UNL A   1      34.277  26.368  24.421  1.00  0.00    -0.189 OA
ATOM     15  O   UNL A   1      34.128  25.953  21.972  1.00  0.00    -0.189 OA
BRANCH  13  16
ATOM     16  N   UNL A   1      33.552  24.125  23.580  1.00  0.00    -0.269 N 
ATOM     17  H   UNL A   1      32.757  23.655  23.242  1.00  0.00     0.181 HD
BRANCH  16  18
ATOM     18  C   UNL A   1      34.525  23.309  24.258  1.00  0.00     0.071 A 
ATOM     19  C   UNL A   1      37.264  20.111  24.863  1.00  0.00     0.067 C 
ATOM     20  C   UNL A   1      36.437  21.354  24.774  1.00  0.00     0.038 A 
ATOM     21  C   UNL A   1      36.753  22.375  23.900  1.00  0.00     0.026 A 
ATOM     22  N   UNL A   1      35.281  21.351  25.464  1.00  0.00    -0.256 NA
ATOM     23  C   UNL A   1      35.784  23.340  23.632  1.00  0.00     0.030 A 
ATOM     24  C   UNL A   1      34.350  22.325  25.243  1.00  0.00     0.062 A 
ATOM     25  C   UNL A   1      33.178  22.139  26.145  1.00  0.00     0.069 C 
ENDBRANCH  16  18
ENDBRANCH  13  16
ENDBRANCH   8  13
ENDBRANCH   4   7
ENDBRANCH   2   3
ENDBRANCH   1   2
BRANCH   1  26
ATOM     26  C   UNL A   1      35.195  29.312  27.306  1.00  0.00     0.118 C 
BRANCH  26  27
ATOM     27  N   UNL A   1      35.148  30.128  28.511  1.00  0.00    -0.352 N 
ATOM     28  C   UNL A   1      36.121  30.499  29.409  1.00  0.00     0.251 C 
ATOM     29  H   UNL A   1      34.253  30.478  28.721  1.00  0.00     0.163 HD
ATOM     30  O   UNL A   1      35.804  31.164  30.394  1.00  0.00    -0.269 OA
BRANCH  28  31
ATOM     31  C   UNL A   1      37.531  30.088  29.242  1.00  0.00     0.039 A 
ATOM     32  C   UNL A   1      38.067  29.991  27.950  1.00  0.00     0.014 A 
ATOM     33  C   UNL A   1      38.304  29.716  30.337  1.00  0.00     0.014 A 
ATOM     34  C   UNL A   1      39.392  29.581  27.765  1.00  0.00     0.010 A 
ATOM     35  C   UNL A   1      39.642  29.392  30.163  1.00  0.00     0.010 A 
ATOM     36  C   UNL A   1      40.196  29.300  28.876  1.00  0.00    -0.014 A 
BRANCH  36  37
ATOM     37  C   UNL A   1      41.596  28.820  28.771  1.00  0.00     0.031 A 
ATOM     38  C   UNL A   1      42.702  29.841  28.776  1.00  0.00     0.074 A 
ATOM     39  C   UNL A   1      41.854  27.526  28.505  1.00  0.00     0.049 A 
ATOM     40  N   UNL A   1      43.936  29.732  28.364  1.00  0.00    -0.248 NA
ATOM     41  C   UNL A   1      42.344  31.189  29.252  1.00  0.00     0.031 C 
ATOM     42  C   UNL A   1      40.858  26.454  28.446  1.00  0.00     0.029 A 
ATOM     43  N   UNL A   1      43.032  26.902  28.180  1.00  0.00    -0.354 N 
ATOM     44  C   UNL A   1      44.479  31.009  28.461  1.00  0.00     0.074 A 
ATOM     45  C   UNL A   1      43.435  31.879  28.957  1.00  0.00     0.031 C 
ATOM     46  C   UNL A   1      41.463  25.312  28.080  1.00  0.00     0.029 A 
ATOM     47  C   UNL A   1      42.876  25.579  27.834  1.00  0.00     0.049 A 
ATOM     48  H   UNL A   1      43.905  27.357  28.192  1.00  0.00     0.167 HD
ATOM     49  C   UNL A   1      45.736  31.414  28.164  1.00  0.00     0.037 A 
ATOM     50  C   UNL A   1      43.766  24.698  27.338  1.00  0.00     0.037 A 
ATOM     51  C   UNL A   1      46.781  30.513  27.750  1.00  0.00     0.049 A 
ATOM     52  C   UNL A   1      45.180  25.151  27.098  1.00  0.00     0.074 A 
ATOM     53  C   UNL A   1      48.116  30.789  27.522  1.00  0.00     0.029 A 
ATOM     54  N   UNL A   1      46.605  29.155  27.522  1.00  0.00    -0.354 N 
ATOM     55  N   UNL A   1      45.693  26.353  27.226  1.00  0.00    -0.248 NA
ATOM     56  C   UNL A   1      46.141  24.133  26.650  1.00  0.00     0.031 C 
ATOM     57  C   UNL A   1      48.745  29.602  27.132  1.00  0.00     0.029 A 
ATOM     58  C   UNL A   1      47.808  28.581  27.153  1.00  0.00     0.049 A 
ATOM     59  H   UNL A   1      45.752  28.673  27.610  1.00  0.00     0.167 HD
ATOM     60  C   UNL A   1      47.037  26.231  26.895  1.00  0.00     0.074 A 
ATOM     61  C   UNL A   1      47.263  24.836  26.575  1.00  0.00     0.031 C 
ATOM     62  C   UNL A   1      48.001  27.184  26.855  1.00  0.00     0.037 A 
BRANCH  49  63
ATOM     63  C   UNL A   1      46.056  32.878  28.279  1.00  0.00     0.058 A 
ATOM     64  C   UNL A   1      45.903  33.760  27.198  1.00  0.00     0.135 A 
ATOM     65  C   UNL A   1      46.485  33.417  29.504  1.00  0.00     0.135 A 
ATOM     66  F   UNL A   1      45.513  33.297  26.000  1.00  0.00    -0.206 F 
ATOM     67  C   UNL A   1      46.186  35.117  27.317  1.00  0.00     0.059 A 
ATOM     68  C   UNL A   1      46.747  34.777  29.654  1.00  0.00     0.059 A 
ATOM     69  F   UNL A   1      46.652  32.621  30.572  1.00  0.00    -0.206 F 
ATOM     70  C   UNL A   1      46.607  35.616  28.551  1.00  0.00     0.060 A 
BRANCH  70  71
ATOM     71  S   UNL A   1      46.950  37.383  28.696  1.00  0.00     0.124 S 
ATOM     72  O   UNL A   1      47.989  37.394  29.721  1.00  0.00    -0.237 OA
ATOM     73  O   UNL A   1      47.388  37.728  27.347  1.00  0.00    -0.237 OA
ATOM     74  O   UNL A   1      45.666  37.947  29.099  1.00  0.00    -0.744 OA
ENDBRANCH  70  71
ENDBRANCH  49  63
BRANCH  50  75
ATOM     75  C   UNL A   1      43.346  23.304  27.035  1.00  0.00     0.058 A 
ATOM     76  C   UNL A   1      43.166  22.879  25.710  1.00  0.00     0.135 A 
ATOM     77  C   UNL A   1      43.133  22.364  28.056  1.00  0.00     0.135 A 
ATOM     78  F   UNL A   1      43.353  23.743  24.701  1.00  0.00    -0.206 F 
ATOM     79  C   UNL A   1      42.772  21.581  25.406  1.00  0.00     0.059 A 
ATOM     80  C   UNL A   1      42.761  21.051  27.776  1.00  0.00     0.059 A 
ATOM     81  F   UNL A   1      43.309  22.712  29.340  1.00  0.00    -0.206 F 
ATOM     82  C   UNL A   1      42.573  20.672  26.448  1.00  0.00     0.060 A 
BRANCH  82  83
ATOM     83  S   UNL A   1      42.113  18.973  26.040  1.00  0.00     0.124 S 
ATOM     84  O   UNL A   1      42.498  18.266  27.257  1.00  0.00    -0.237 OA
ATOM     85  O   UNL A   1      40.679  19.092  25.798  1.00  0.00    -0.237 OA
ATOM     86  O   UNL A   1      42.919  18.684  24.858  1.00  0.00    -0.744 OA
ENDBRANCH  82  83
ENDBRANCH  50  75
BRANCH  62  87
ATOM     87  C   UNL A   1      49.388  26.744  26.487  1.00  0.00     0.058 A 
ATOM     88  C   UNL A   1      50.245  26.156  27.428  1.00  0.00     0.135 A 
ATOM     89  C   UNL A   1      49.841  26.861  25.163  1.00  0.00     0.135 A 
ATOM     90  F   UNL A   1      49.858  26.029  28.708  1.00  0.00    -0.206 F 
ATOM     91  C   UNL A   1      51.513  25.712  27.074  1.00  0.00     0.059 A 
ATOM     92  C   UNL A   1      51.096  26.403  24.781  1.00  0.00     0.059 A 
ATOM     93  F   UNL A   1      49.052  27.407  24.224  1.00  0.00    -0.206 F 
ATOM     94  C   UNL A   1      51.930  25.839  25.747  1.00  0.00     0.060 A 
BRANCH  94  95
ATOM     95  S   UNL A   1      53.566  25.227  25.289  1.00  0.00     0.124 S 
ATOM     96  O   UNL A   1      53.695  25.730  23.926  1.00  0.00    -0.237 OA
ATOM     97  O   UNL A   1      54.428  25.859  26.284  1.00  0.00    -0.237 OA
ATOM     98  O   UNL A   1      53.432  23.778  25.417  1.00  0.00    -0.744 OA
ENDBRANCH  94  95
ENDBRANCH  62  87
ENDBRANCH  36  37
ENDBRANCH  28  31
ENDBRANCH  26  27
ENDBRANCH   1  26
TORSDOF 16
ENDMDL
MODEL 3
REMARK VINA RESULT:     -11.9      1.349      2.505
REMARK SMILES Cc1ccc(NS(=O)(=O)N2CCCC[C@@H]2C(=O)NCCCNC(=O)c2ccc(-c3c4nc(c(-c5c(F)cc(S(=O)(=O)[O-])cc5F)c5ccc([nH]5)c(-c5c(F)cc(S(=O)(=O)[O-])cc5F)c5nc(c(-c6c(F)cc(S(=O)(=O)[O-])cc6F)c6ccc3[nH]6)C=C5)C=C4)cc2)c(C)n1
REMARK SMILES IDX 20 1 19 2 18 3 16 4 17 5 15 7 10 8 11 9 12 10 14 11 13 12
REMARK SMILES IDX 7 13 8 14 9 15 6 16 5 18 1 19 2 20 3 21 93 22 4 23 91 24
REMARK SMILES IDX 92 25 21 26 22 27 23 28 24 30 25 31 26 32 90 33 27 34 89 35
REMARK SMILES IDX 28 36 29 37 30 38 83 39 31 40 88 41 82 42 84 43 32 44 87 45
REMARK SMILES IDX 81 46 80 47 33 49 67 50 46 51 66 52 47 53 50 54 65 55 85 56
REMARK SMILES IDX 48 57 49 58 64 60 86 61 51 62 34 63 35 64 44 65 36 66 37 67
REMARK SMILES IDX 43 68 45 69 38 70 39 71 40 72 41 73 42 74 68 75 69 76 78 77
REMARK SMILES IDX 70 78 71 79 77 80 79 81 72 82 73 83 74 84 75 85 76 86 52 87
REMARK SMILES IDX 53 88 62 89 54 90 55 91 61 92 63 93 56 94 57 95 58 96 59 97
REMARK SMILES IDX 60 98
REMARK H PARENT 18 6 6 17 22 29 84 48 50 59
REMARK Flexibility Score: inf
ROOT
ATOM      1  C   UNL A   1      32.724  28.151  26.410  1.00  0.00     0.042 C 
ENDROOT
BRANCH   1   2
ATOM      2  C   UNL A   1      31.951  26.990  27.048  1.00  0.00     0.117 C 
BRANCH   2   3
ATOM      3  N   UNL A   1      30.683  26.705  26.388  1.00  0.00    -0.355 N 
ATOM      4  C   UNL A   1      30.318  26.313  25.142  1.00  0.00     0.238 C 
ATOM      5  O   UNL A   1      29.135  25.954  25.052  1.00  0.00    -0.273 OA
ATOM      6  H   UNL A   1      29.911  26.826  26.987  1.00  0.00     0.163 HD
BRANCH   4   7
ATOM      7  C   UNL A   1      31.213  26.298  23.895  1.00  0.00     0.163 C 
ATOM      8  N   UNL A   1      32.419  25.385  23.907  1.00  0.00    -0.172 NA
ATOM      9  C   UNL A   1      33.102  25.380  22.572  1.00  0.00     0.105 C 
ATOM     10  C   UNL A   1      33.550  26.786  22.199  1.00  0.00     0.017 C 
ATOM     11  C   UNL A   1      31.589  27.712  23.425  1.00  0.00     0.030 C 
ATOM     12  C   UNL A   1      32.347  27.709  22.101  1.00  0.00     0.004 C 
BRANCH   8  13
ATOM     13  S   UNL A   1      32.124  23.789  24.434  1.00  0.00     0.302 S 
ATOM     14  O   UNL A   1      31.055  23.207  23.657  1.00  0.00    -0.189 OA
ATOM     15  O   UNL A   1      32.019  23.800  25.872  1.00  0.00    -0.189 OA
BRANCH  13  16
ATOM     16  N   UNL A   1      33.521  23.008  24.035  1.00  0.00    -0.269 N 
ATOM     17  H   UNL A   1      33.585  22.688  23.108  1.00  0.00     0.181 HD
BRANCH  16  18
ATOM     18  C   UNL A   1      34.657  22.739  24.876  1.00  0.00     0.071 A 
ATOM     19  C   UNL A   1      38.738  22.560  26.063  1.00  0.00     0.067 C 
ATOM     20  C   UNL A   1      37.260  22.658  25.857  1.00  0.00     0.038 A 
ATOM     21  C   UNL A   1      36.616  23.876  25.790  1.00  0.00     0.026 A 
ATOM     22  N   UNL A   1      36.621  21.507  25.573  1.00  0.00    -0.256 NA
ATOM     23  C   UNL A   1      35.318  23.912  25.280  1.00  0.00     0.030 A 
ATOM     24  C   UNL A   1      35.332  21.533  25.124  1.00  0.00     0.062 A 
ATOM     25  C   UNL A   1      34.824  20.147  24.916  1.00  0.00     0.069 C 
ENDBRANCH  16  18
ENDBRANCH  13  16
ENDBRANCH   8  13
ENDBRANCH   4   7
ENDBRANCH   2   3
ENDBRANCH   1   2
BRANCH   1  26
ATOM     26  C   UNL A   1      34.000  28.584  27.133  1.00  0.00     0.118 C 
BRANCH  26  27
ATOM     27  N   UNL A   1      33.899  29.835  27.869  1.00  0.00    -0.352 N 
ATOM     28  C   UNL A   1      34.819  30.551  28.600  1.00  0.00     0.251 C 
ATOM     29  H   UNL A   1      33.005  30.246  27.838  1.00  0.00     0.163 HD
ATOM     30  O   UNL A   1      34.457  31.574  29.179  1.00  0.00    -0.269 OA
BRANCH  28  31
ATOM     31  C   UNL A   1      36.220  30.103  28.737  1.00  0.00     0.039 A 
ATOM     32  C   UNL A   1      36.678  29.662  29.988  1.00  0.00     0.014 A 
ATOM     33  C   UNL A   1      37.110  30.191  27.671  1.00  0.00     0.014 A 
ATOM     34  C   UNL A   1      38.008  29.255  30.149  1.00  0.00     0.010 A 
ATOM     35  C   UNL A   1      38.404  29.708  27.806  1.00  0.00     0.010 A 
ATOM     36  C   UNL A   1      38.875  29.256  29.049  1.00  0.00    -0.014 A 
BRANCH  36  37
ATOM     37  C   UNL A   1      40.307  28.881  29.138  1.00  0.00     0.031 A 
ATOM     38  C   UNL A   1      41.318  29.974  29.365  1.00  0.00     0.074 A 
ATOM     39  C   UNL A   1      40.702  27.626  28.851  1.00  0.00     0.049 A 
ATOM     40  N   UNL A   1      42.604  29.976  29.144  1.00  0.00    -0.248 NA
ATOM     41  C   UNL A   1      40.788  31.262  29.847  1.00  0.00     0.031 C 
ATOM     42  C   UNL A   1      39.813  26.494  28.585  1.00  0.00     0.029 A 
ATOM     43  N   UNL A   1      41.961  27.107  28.681  1.00  0.00    -0.354 N 
ATOM     44  C   UNL A   1      43.025  31.279  29.388  1.00  0.00     0.074 A 
ATOM     45  C   UNL A   1      41.855  32.043  29.759  1.00  0.00     0.031 C 
ATOM     46  C   UNL A   1      40.552  25.421  28.260  1.00  0.00     0.029 A 
ATOM     47  C   UNL A   1      41.962  25.800  28.250  1.00  0.00     0.049 A 
ATOM     48  H   UNL A   1      42.784  27.620  28.851  1.00  0.00     0.167 HD
ATOM     49  C   UNL A   1      44.278  31.787  29.310  1.00  0.00     0.037 A 
ATOM     50  C   UNL A   1      42.982  25.014  27.854  1.00  0.00     0.037 A 
ATOM     51  C   UNL A   1      45.439  30.988  29.018  1.00  0.00     0.049 A 
ATOM     52  C   UNL A   1      44.377  25.578  27.859  1.00  0.00     0.074 A 
ATOM     53  C   UNL A   1      46.769  31.369  29.014  1.00  0.00     0.029 A 
ATOM     54  N   UNL A   1      45.406  29.638  28.698  1.00  0.00    -0.354 N 
ATOM     55  N   UNL A   1      44.769  26.802  28.125  1.00  0.00    -0.248 NA
ATOM     56  C   UNL A   1      45.470  24.658  27.515  1.00  0.00     0.031 C 
ATOM     57  C   UNL A   1      47.539  30.254  28.667  1.00  0.00     0.029 A 
ATOM     58  C   UNL A   1      46.692  29.171  28.492  1.00  0.00     0.049 A 
ATOM     59  H   UNL A   1      44.589  29.093  28.629  1.00  0.00     0.167 HD
ATOM     60  C   UNL A   1      46.154  26.794  28.000  1.00  0.00     0.074 A 
ATOM     61  C   UNL A   1      46.532  25.440  27.649  1.00  0.00     0.031 C 
ATOM     62  C   UNL A   1      47.035  27.812  28.157  1.00  0.00     0.037 A 
BRANCH  49  63
ATOM     63  C   UNL A   1      44.462  33.260  29.546  1.00  0.00     0.058 A 
ATOM     64  C   UNL A   1      44.247  34.208  28.534  1.00  0.00     0.135 A 
ATOM     65  C   UNL A   1      44.820  33.736  30.819  1.00  0.00     0.135 A 
ATOM     66  F   UNL A   1      43.920  33.810  27.294  1.00  0.00    -0.206 F 
ATOM     67  C   UNL A   1      44.405  35.571  28.765  1.00  0.00     0.059 A 
ATOM     68  C   UNL A   1      44.956  35.097  31.081  1.00  0.00     0.059 A 
ATOM     69  F   UNL A   1      45.042  32.875  31.826  1.00  0.00    -0.206 F 
ATOM     70  C   UNL A   1      44.759  36.006  30.044  1.00  0.00     0.060 A 
BRANCH  70  71
ATOM     71  S   UNL A   1      44.938  37.779  30.334  1.00  0.00     0.124 S 
ATOM     72  O   UNL A   1      46.231  37.833  31.008  1.00  0.00    -0.237 OA
ATOM     73  O   UNL A   1      44.907  38.323  28.979  1.00  0.00    -0.237 OA
ATOM     74  O   UNL A   1      43.783  38.107  31.164  1.00  0.00    -0.744 OA
ENDBRANCH  70  71
ENDBRANCH  49  63
BRANCH  50  75
ATOM     75  C   UNL A   1      42.722  23.616  27.421  1.00  0.00     0.058 A 
ATOM     76  C   UNL A   1      42.673  23.283  26.059  1.00  0.00     0.135 A 
ATOM     77  C   UNL A   1      42.535  22.582  28.352  1.00  0.00     0.135 A 
ATOM     78  F   UNL A   1      42.840  24.238  25.131  1.00  0.00    -0.206 F 
ATOM     79  C   UNL A   1      42.429  21.982  25.633  1.00  0.00     0.059 A 
ATOM     80  C   UNL A   1      42.313  21.267  27.950  1.00  0.00     0.059 A 
ATOM     81  F   UNL A   1      42.592  22.842  29.667  1.00  0.00    -0.206 F 
ATOM     82  C   UNL A   1      42.252  20.979  26.588  1.00  0.00     0.060 A 
BRANCH  82  83
ATOM     83  S   UNL A   1      41.989  19.282  26.025  1.00  0.00     0.124 S 
ATOM     84  O   UNL A   1      42.927  19.194  24.912  1.00  0.00    -0.237 OA
ATOM     85  O   UNL A   1      42.334  18.507  27.213  1.00  0.00    -0.237 OA
ATOM     86  O   UNL A   1      40.574  19.266  25.664  1.00  0.00    -0.744 OA
ENDBRANCH  82  83
ENDBRANCH  50  75
BRANCH  62  87
ATOM     87  C   UNL A   1      48.492  27.492  27.987  1.00  0.00     0.058 A 
ATOM     88  C   UNL A   1      49.287  27.093  29.072  1.00  0.00     0.135 A 
ATOM     89  C   UNL A   1      49.082  27.530  26.714  1.00  0.00     0.135 A 
ATOM     90  F   UNL A   1      48.768  27.048  30.309  1.00  0.00    -0.206 F 
ATOM     91  C   UNL A   1      50.625  26.758  28.902  1.00  0.00     0.059 A 
ATOM     92  C   UNL A   1      50.412  27.177  26.518  1.00  0.00     0.059 A 
ATOM     93  F   UNL A   1      48.358  27.895  25.643  1.00  0.00    -0.206 F 
ATOM     94  C   UNL A   1      51.179  26.802  27.621  1.00  0.00     0.060 A 
BRANCH  94  95
ATOM     95  S   UNL A   1      52.908  26.331  27.407  1.00  0.00     0.124 S 
ATOM     96  O   UNL A   1      52.778  25.030  26.758  1.00  0.00    -0.237 OA
ATOM     97  O   UNL A   1      53.427  27.409  26.570  1.00  0.00    -0.237 OA
ATOM     98  O   UNL A   1      53.423  26.304  28.773  1.00  0.00    -0.744 OA
ENDBRANCH  94  95
ENDBRANCH  62  87
ENDBRANCH  36  37
ENDBRANCH  28  31
ENDBRANCH  26  27
ENDBRANCH   1  26
TORSDOF 16
ENDMDL
