MODEL 1
REMARK VINA RESULT:     -12.0      0.000      0.000
REMARK SMILES C[C@@H](NC(=O)[C@@H]([NH3+])CC(=O)NCCCNC(=O)c1ccc(-c2c3nc(c(-c4c(F)cc(S(=O)(=O)[O-])cc4F)c4ccc([nH]4)c(-c4c(F)cc(S(=O)(=O)[O-])cc4F)c4nc(c(-c5c(F)cc(S(=O)(=O)[O-])cc5F)c5ccc2[nH]5)C=C4)C=C3)cc1)C(=O)NC1C(C)(C)SC1(C)C
REMARK SMILES IDX 12 1 11 2 9 3 10 4 8 6 6 7 4 8 3 9 5 11 2 12 1 13 84 14
REMARK SMILES IDX 85 15 86 16 87 18 88 19 92 20 89 21 90 22 91 23 93 24 94 25
REMARK SMILES IDX 7 26 13 30 14 31 15 32 16 33 17 35 18 36 19 37 83 38 20 39
REMARK SMILES IDX 82 40 21 41 22 42 23 43 76 44 24 45 81 46 75 47 77 48 25 49
REMARK SMILES IDX 80 50 74 51 73 52 26 54 60 55 39 56 59 57 40 58 43 59 58 60
REMARK SMILES IDX 78 61 41 62 42 63 57 65 79 66 44 67 27 68 28 69 37 70 29 71
REMARK SMILES IDX 30 72 36 73 38 74 31 75 32 76 33 77 34 78 35 79 61 80 62 81
REMARK SMILES IDX 71 82 63 83 64 84 70 85 72 86 65 87 66 88 67 89 68 90 69 91
REMARK SMILES IDX 45 92 46 93 55 94 47 95 48 96 54 97 56 98 49 99 50 100
REMARK SMILES IDX 51 101 52 102 53 103
REMARK H PARENT 11 5 3 10 86 17 7 27 7 28 7 29 15 34 77 53 43 64
REMARK Flexibility Score: inf
ROOT
ATOM      1  C   UNL A   1      38.805  21.702  25.832  1.00  0.00     0.117 C 
ENDROOT
BRANCH   1   2
ATOM      2  N   UNL A   1      37.888  22.794  26.093  1.00  0.00    -0.356 N 
ATOM      3  C   UNL A   1      36.679  23.047  25.522  1.00  0.00     0.226 C 
ATOM      4  O   UNL A   1      36.092  24.091  25.808  1.00  0.00    -0.275 OA
ATOM      5  H   UNL A   1      38.180  23.440  26.775  1.00  0.00     0.163 HD
BRANCH   3   6
ATOM      6  C   UNL A   1      36.094  22.059  24.545  1.00  0.00     0.175 C 
BRANCH   6   7
ATOM      7  C   UNL A   1      35.184  21.082  25.273  1.00  0.00     0.280 C 
BRANCH   7   8
ATOM      8  C   UNL A   1      33.659  21.180  24.991  1.00  0.00     0.279 C 
ATOM      9  N   UNL A   1      32.783  22.008  25.612  1.00  0.00    -0.339 N 
ATOM     10  H   UNL A   1      31.858  21.939  25.282  1.00  0.00     0.164 HD
ATOM     11  O   UNL A   1      33.177  20.520  24.062  1.00  0.00    -0.268 OA
BRANCH   9  12
ATOM     12  C   UNL A   1      32.969  22.980  26.679  1.00  0.00     0.168 C 
ATOM     13  C   UNL A   1      33.538  22.320  27.936  1.00  0.00     0.041 C 
BRANCH  12  14
ATOM     14  C   UNL A   1      31.667  23.720  27.006  1.00  0.00     0.242 C 
ATOM     15  O   UNL A   1      30.651  23.093  27.317  1.00  0.00    -0.273 OA
ATOM     16  N   UNL A   1      31.571  25.086  26.872  1.00  0.00    -0.349 N 
ATOM     17  H   UNL A   1      30.919  25.522  27.466  1.00  0.00     0.163 HD
BRANCH  16  18
ATOM     18  C   UNL A   1      32.313  26.000  25.958  1.00  0.00     0.113 C 
ATOM     19  C   UNL A   1      31.434  26.307  24.683  1.00  0.00     0.032 C 
ATOM     20  C   UNL A   1      32.490  27.538  26.353  1.00  0.00     0.032 C 
ATOM     21  C   UNL A   1      31.872  25.475  23.481  1.00  0.00     0.025 C 
ATOM     22  C   UNL A   1      29.912  26.287  24.836  1.00  0.00     0.025 C 
ATOM     23  S   UNL A   1      32.059  28.011  24.609  1.00  0.00    -0.145 SA
ATOM     24  C   UNL A   1      31.545  28.228  27.338  1.00  0.00     0.025 C 
ATOM     25  C   UNL A   1      33.932  27.987  26.626  1.00  0.00     0.025 C 
ENDBRANCH  16  18
ENDBRANCH  12  14
ENDBRANCH   9  12
ENDBRANCH   7   8
BRANCH   7  26
ATOM     26  N   UNL A   1      35.658  19.708  25.017  1.00  0.00    -0.347 N 
ATOM     27  H   UNL A   1      36.557  19.743  24.535  1.00  0.00     0.345 HD
ATOM     28  H   UNL A   1      34.979  19.218  24.434  1.00  0.00     0.345 HD
ATOM     29  H   UNL A   1      35.765  19.215  25.902  1.00  0.00     0.345 HD
ENDBRANCH   7  26
ENDBRANCH   6   7
ENDBRANCH   3   6
ENDBRANCH   1   2
BRANCH   1  30
ATOM     30  C   UNL A   1      40.014  21.778  26.748  1.00  0.00     0.042 C 
BRANCH  30  31
ATOM     31  C   UNL A   1      40.400  23.179  27.166  1.00  0.00     0.118 C 
BRANCH  31  32
ATOM     32  N   UNL A   1      41.175  23.862  26.148  1.00  0.00    -0.352 N 
ATOM     33  C   UNL A   1      41.540  25.177  26.064  1.00  0.00     0.251 C 
ATOM     34  H   UNL A   1      41.485  23.293  25.407  1.00  0.00     0.163 HD
ATOM     35  O   UNL A   1      42.018  25.591  25.003  1.00  0.00    -0.269 OA
BRANCH  33  36
ATOM     36  C   UNL A   1      41.354  26.098  27.207  1.00  0.00     0.039 A 
ATOM     37  C   UNL A   1      40.268  25.892  28.060  1.00  0.00     0.014 A 
ATOM     38  C   UNL A   1      42.212  27.180  27.427  1.00  0.00     0.014 A 
ATOM     39  C   UNL A   1      40.063  26.748  29.143  1.00  0.00     0.010 A 
ATOM     40  C   UNL A   1      42.075  27.960  28.569  1.00  0.00     0.010 A 
ATOM     41  C   UNL A   1      40.980  27.776  29.420  1.00  0.00    -0.014 A 
BRANCH  41  42
ATOM     42  C   UNL A   1      40.777  28.696  30.567  1.00  0.00     0.031 A 
ATOM     43  C   UNL A   1      41.633  28.560  31.799  1.00  0.00     0.074 A 
ATOM     44  C   UNL A   1      39.803  29.625  30.509  1.00  0.00     0.049 A 
ATOM     45  N   UNL A   1      41.593  29.246  32.911  1.00  0.00    -0.248 NA
ATOM     46  C   UNL A   1      42.649  27.493  31.794  1.00  0.00     0.031 C 
ATOM     47  C   UNL A   1      38.876  29.810  29.390  1.00  0.00     0.029 A 
ATOM     48  N   UNL A   1      39.429  30.587  31.411  1.00  0.00    -0.354 N 
ATOM     49  C   UNL A   1      42.559  28.685  33.738  1.00  0.00     0.074 A 
ATOM     50  C   UNL A   1      43.126  27.563  33.027  1.00  0.00     0.031 C 
ATOM     51  C   UNL A   1      38.064  30.846  29.658  1.00  0.00     0.029 A 
ATOM     52  C   UNL A   1      38.386  31.372  30.980  1.00  0.00     0.049 A 
ATOM     53  H   UNL A   1      39.866  30.705  32.286  1.00  0.00     0.167 HD
ATOM     54  C   UNL A   1      42.960  29.089  34.967  1.00  0.00     0.037 A 
ATOM     55  C   UNL A   1      37.760  32.399  31.585  1.00  0.00     0.037 A 
ATOM     56  C   UNL A   1      42.411  30.229  35.652  1.00  0.00     0.049 A 
ATOM     57  C   UNL A   1      38.232  32.837  32.944  1.00  0.00     0.074 A 
ATOM     58  C   UNL A   1      42.785  30.763  36.872  1.00  0.00     0.029 A 
ATOM     59  N   UNL A   1      41.370  31.012  35.174  1.00  0.00    -0.354 N 
ATOM     60  N   UNL A   1      39.195  32.338  33.683  1.00  0.00    -0.248 NA
ATOM     61  C   UNL A   1      37.540  33.984  33.549  1.00  0.00     0.031 C 
ATOM     62  C   UNL A   1      41.939  31.840  37.154  1.00  0.00     0.029 A 
ATOM     63  C   UNL A   1      41.074  32.013  36.084  1.00  0.00     0.049 A 
ATOM     64  H   UNL A   1      40.909  30.876  34.314  1.00  0.00     0.167 HD
ATOM     65  C   UNL A   1      39.243  33.126  34.828  1.00  0.00     0.074 A 
ATOM     66  C   UNL A   1      38.222  34.143  34.676  1.00  0.00     0.031 C 
ATOM     67  C   UNL A   1      40.056  33.019  35.909  1.00  0.00     0.037 A 
BRANCH  54  68
ATOM     68  C   UNL A   1      44.050  28.299  35.642  1.00  0.00     0.058 A 
ATOM     69  C   UNL A   1      43.761  27.245  36.525  1.00  0.00     0.135 A 
ATOM     70  C   UNL A   1      45.402  28.578  35.382  1.00  0.00     0.135 A 
ATOM     71  F   UNL A   1      42.488  26.943  36.824  1.00  0.00    -0.206 F 
ATOM     72  C   UNL A   1      44.770  26.518  37.149  1.00  0.00     0.059 A 
ATOM     73  C   UNL A   1      46.428  27.844  35.971  1.00  0.00     0.059 A 
ATOM     74  F   UNL A   1      45.737  29.575  34.549  1.00  0.00    -0.206 F 
ATOM     75  C   UNL A   1      46.102  26.825  36.865  1.00  0.00     0.060 A 
BRANCH  75  76
ATOM     76  S   UNL A   1      47.398  25.867  37.677  1.00  0.00     0.124 S 
ATOM     77  O   UNL A   1      47.488  24.700  36.806  1.00  0.00    -0.237 OA
ATOM     78  O   UNL A   1      48.535  26.781  37.631  1.00  0.00    -0.237 OA
ATOM     79  O   UNL A   1      46.853  25.616  39.007  1.00  0.00    -0.744 OA
ENDBRANCH  75  76
ENDBRANCH  54  68
BRANCH  55  80
ATOM     80  C   UNL A   1      36.643  33.098  30.896  1.00  0.00     0.058 A 
ATOM     81  C   UNL A   1      35.315  32.928  31.315  1.00  0.00     0.135 A 
ATOM     82  C   UNL A   1      36.880  33.967  29.818  1.00  0.00     0.135 A 
ATOM     83  F   UNL A   1      35.036  32.107  32.339  1.00  0.00    -0.206 F 
ATOM     84  C   UNL A   1      34.260  33.576  30.680  1.00  0.00     0.059 A 
ATOM     85  C   UNL A   1      35.846  34.648  29.185  1.00  0.00     0.059 A 
ATOM     86  F   UNL A   1      38.135  34.181  29.391  1.00  0.00    -0.206 F 
ATOM     87  C   UNL A   1      34.537  34.437  29.616  1.00  0.00     0.060 A 
BRANCH  87  88
ATOM     88  S   UNL A   1      33.165  35.309  28.831  1.00  0.00     0.124 S 
ATOM     89  O   UNL A   1      32.417  35.785  29.989  1.00  0.00    -0.237 OA
ATOM     90  O   UNL A   1      33.857  36.332  28.053  1.00  0.00    -0.237 OA
ATOM     91  O   UNL A   1      32.513  34.268  28.043  1.00  0.00    -0.744 OA
ENDBRANCH  87  88
ENDBRANCH  55  80
BRANCH  67  92
ATOM     92  C   UNL A   1      39.899  34.047  36.994  1.00  0.00     0.058 A 
ATOM     93  C   UNL A   1      40.584  35.271  36.957  1.00  0.00     0.135 A 
ATOM     94  C   UNL A   1      39.014  33.822  38.062  1.00  0.00     0.135 A 
ATOM     95  F   UNL A   1      41.445  35.534  35.960  1.00  0.00    -0.206 F 
ATOM     96  C   UNL A   1      40.421  36.224  37.955  1.00  0.00     0.059 A 
ATOM     97  C   UNL A   1      38.812  34.774  39.055  1.00  0.00     0.059 A 
ATOM     98  F   UNL A   1      38.325  32.673  38.138  1.00  0.00    -0.206 F 
ATOM     99  C   UNL A   1      39.531  35.967  39.001  1.00  0.00     0.060 A 
BRANCH  99 100
ATOM    100  S   UNL A   1      39.309  37.223  40.277  1.00  0.00     0.124 S 
ATOM    101  O   UNL A   1      38.516  38.223  39.570  1.00  0.00    -0.237 OA
ATOM    102  O   UNL A   1      38.612  36.486  41.325  1.00  0.00    -0.237 OA
ATOM    103  O   UNL A   1      40.676  37.621  40.602  1.00  0.00    -0.744 OA
ENDBRANCH  99 100
ENDBRANCH  67  92
ENDBRANCH  41  42
ENDBRANCH  33  36
ENDBRANCH  31  32
ENDBRANCH  30  31
ENDBRANCH   1  30
TORSDOF 19
ENDMDL
MODEL 2
REMARK VINA RESULT:     -11.8      6.404     11.960
REMARK SMILES C[C@@H](NC(=O)[C@@H]([NH3+])CC(=O)NCCCNC(=O)c1ccc(-c2c3nc(c(-c4c(F)cc(S(=O)(=O)[O-])cc4F)c4ccc([nH]4)c(-c4c(F)cc(S(=O)(=O)[O-])cc4F)c4nc(c(-c5c(F)cc(S(=O)(=O)[O-])cc5F)c5ccc2[nH]5)C=C4)C=C3)cc1)C(=O)NC1C(C)(C)SC1(C)C
REMARK SMILES IDX 12 1 11 2 9 3 10 4 8 6 6 7 4 8 3 9 5 11 2 12 1 13 84 14
REMARK SMILES IDX 85 15 86 16 87 18 88 19 92 20 89 21 90 22 91 23 93 24 94 25
REMARK SMILES IDX 7 26 13 30 14 31 15 32 16 33 17 35 18 36 19 37 83 38 20 39
REMARK SMILES IDX 82 40 21 41 22 42 23 43 76 44 24 45 81 46 75 47 77 48 25 49
REMARK SMILES IDX 80 50 74 51 73 52 26 54 60 55 39 56 59 57 40 58 43 59 58 60
REMARK SMILES IDX 78 61 41 62 42 63 57 65 79 66 44 67 27 68 28 69 37 70 29 71
REMARK SMILES IDX 30 72 36 73 38 74 31 75 32 76 33 77 34 78 35 79 61 80 62 81
REMARK SMILES IDX 71 82 63 83 64 84 70 85 72 86 65 87 66 88 67 89 68 90 69 91
REMARK SMILES IDX 45 92 46 93 55 94 47 95 48 96 54 97 56 98 49 99 50 100
REMARK SMILES IDX 51 101 52 102 53 103
REMARK H PARENT 11 5 3 10 86 17 7 27 7 28 7 29 15 34 77 53 43 64
REMARK Flexibility Score: inf
ROOT
ATOM      1  C   UNL A   1      33.145  29.970  26.798  1.00  0.00     0.117 C 
ENDROOT
BRANCH   1   2
ATOM      2  N   UNL A   1      33.364  29.761  25.381  1.00  0.00    -0.356 N 
ATOM      3  C   UNL A   1      33.688  28.612  24.728  1.00  0.00     0.226 C 
ATOM      4  O   UNL A   1      33.933  28.661  23.523  1.00  0.00    -0.275 OA
ATOM      5  H   UNL A   1      33.264  30.559  24.813  1.00  0.00     0.163 HD
BRANCH   3   6
ATOM      6  C   UNL A   1      33.757  27.314  25.492  1.00  0.00     0.175 C 
BRANCH   6   7
ATOM      7  C   UNL A   1      32.497  26.498  25.248  1.00  0.00     0.280 C 
BRANCH   7   8
ATOM      8  C   UNL A   1      31.629  26.136  26.484  1.00  0.00     0.279 C 
ATOM      9  N   UNL A   1      31.311  24.884  26.898  1.00  0.00    -0.339 N 
ATOM     10  H   UNL A   1      30.766  24.855  27.717  1.00  0.00     0.164 HD
ATOM     11  O   UNL A   1      31.249  27.041  27.237  1.00  0.00    -0.268 OA
BRANCH   9  12
ATOM     12  C   UNL A   1      31.632  23.577  26.344  1.00  0.00     0.168 C 
ATOM     13  C   UNL A   1      30.397  22.675  26.300  1.00  0.00     0.041 C 
BRANCH  12  14
ATOM     14  C   UNL A   1      32.765  22.894  27.118  1.00  0.00     0.242 C 
ATOM     15  O   UNL A   1      32.642  22.649  28.321  1.00  0.00    -0.273 OA
ATOM     16  N   UNL A   1      33.974  22.625  26.521  1.00  0.00    -0.349 N 
ATOM     17  H   UNL A   1      34.464  21.855  26.891  1.00  0.00     0.163 HD
BRANCH  16  18
ATOM     18  C   UNL A   1      34.650  23.328  25.394  1.00  0.00     0.113 C 
ATOM     19  C   UNL A   1      36.127  22.790  25.240  1.00  0.00     0.032 C 
ATOM     20  C   UNL A   1      34.241  22.984  23.889  1.00  0.00     0.032 C 
ATOM     21  C   UNL A   1      37.144  23.745  25.858  1.00  0.00     0.025 C 
ATOM     22  C   UNL A   1      36.413  21.345  25.652  1.00  0.00     0.025 C 
ATOM     23  S   UNL A   1      36.040  22.948  23.432  1.00  0.00    -0.145 SA
ATOM     24  C   UNL A   1      33.574  21.658  23.522  1.00  0.00     0.025 C 
ATOM     25  C   UNL A   1      33.574  24.125  23.110  1.00  0.00     0.025 C 
ENDBRANCH  16  18
ENDBRANCH  12  14
ENDBRANCH   9  12
ENDBRANCH   7   8
BRANCH   7  26
ATOM     26  N   UNL A   1      31.672  27.188  24.237  1.00  0.00    -0.347 N 
ATOM     27  H   UNL A   1      30.914  26.573  23.939  1.00  0.00     0.345 HD
ATOM     28  H   UNL A   1      32.251  27.427  23.431  1.00  0.00     0.345 HD
ATOM     29  H   UNL A   1      31.281  28.039  24.639  1.00  0.00     0.345 HD
ENDBRANCH   7  26
ENDBRANCH   6   7
ENDBRANCH   3   6
ENDBRANCH   1   2
BRANCH   1  30
ATOM     30  C   UNL A   1      34.211  30.879  27.384  1.00  0.00     0.042 C 
BRANCH  30  31
ATOM     31  C   UNL A   1      35.289  30.163  28.167  1.00  0.00     0.118 C 
BRANCH  31  32
ATOM     32  N   UNL A   1      35.400  30.654  29.526  1.00  0.00    -0.352 N 
ATOM     33  C   UNL A   1      36.458  30.604  30.390  1.00  0.00     0.251 C 
ATOM     34  H   UNL A   1      34.591  31.091  29.880  1.00  0.00     0.163 HD
ATOM     35  O   UNL A   1      36.267  30.891  31.576  1.00  0.00    -0.269 OA
BRANCH  33  36
ATOM     36  C   UNL A   1      37.803  30.196  29.929  1.00  0.00     0.039 A 
ATOM     37  C   UNL A   1      38.759  29.848  30.887  1.00  0.00     0.014 A 
ATOM     38  C   UNL A   1      38.146  30.188  28.574  1.00  0.00     0.014 A 
ATOM     39  C   UNL A   1      40.039  29.466  30.483  1.00  0.00     0.010 A 
ATOM     40  C   UNL A   1      39.381  29.696  28.168  1.00  0.00     0.010 A 
ATOM     41  C   UNL A   1      40.353  29.364  29.117  1.00  0.00    -0.014 A 
BRANCH  41  42
ATOM     42  C   UNL A   1      41.709  28.960  28.670  1.00  0.00     0.031 A 
ATOM     43  C   UNL A   1      42.813  29.983  28.600  1.00  0.00     0.074 A 
ATOM     44  C   UNL A   1      41.933  27.685  28.296  1.00  0.00     0.049 A 
ATOM     45  N   UNL A   1      44.052  29.835  28.210  1.00  0.00    -0.248 NA
ATOM     46  C   UNL A   1      42.473  31.362  28.991  1.00  0.00     0.031 C 
ATOM     47  C   UNL A   1      40.926  26.622  28.267  1.00  0.00     0.029 A 
ATOM     48  N   UNL A   1      43.078  27.067  27.866  1.00  0.00    -0.354 N 
ATOM     49  C   UNL A   1      44.629  31.097  28.292  1.00  0.00     0.074 A 
ATOM     50  C   UNL A   1      43.591  32.012  28.707  1.00  0.00     0.031 C 
ATOM     51  C   UNL A   1      41.506  25.476  27.878  1.00  0.00     0.029 A 
ATOM     52  C   UNL A   1      42.914  25.729  27.592  1.00  0.00     0.049 A 
ATOM     53  H   UNL A   1      43.939  27.535  27.764  1.00  0.00     0.167 HD
ATOM     54  C   UNL A   1      45.916  31.455  28.073  1.00  0.00     0.037 A 
ATOM     55  C   UNL A   1      43.799  24.813  27.156  1.00  0.00     0.037 A 
ATOM     56  C   UNL A   1      46.950  30.529  27.693  1.00  0.00     0.049 A 
ATOM     57  C   UNL A   1      45.226  25.233  26.931  1.00  0.00     0.074 A 
ATOM     58  C   UNL A   1      48.298  30.773  27.504  1.00  0.00     0.029 A 
ATOM     59  N   UNL A   1      46.748  29.179  27.443  1.00  0.00    -0.354 N 
ATOM     60  N   UNL A   1      45.771  26.418  27.081  1.00  0.00    -0.248 NA
ATOM     61  C   UNL A   1      46.163  24.190  26.489  1.00  0.00     0.031 C 
ATOM     62  C   UNL A   1      48.904  29.581  27.095  1.00  0.00     0.029 A 
ATOM     63  C   UNL A   1      47.944  28.581  27.083  1.00  0.00     0.049 A 
ATOM     64  H   UNL A   1      45.883  28.715  27.513  1.00  0.00     0.167 HD
ATOM     65  C   UNL A   1      47.118  26.258  26.776  1.00  0.00     0.074 A 
ATOM     66  C   UNL A   1      47.308  24.859  26.450  1.00  0.00     0.031 C 
ATOM     67  C   UNL A   1      48.110  27.183  26.767  1.00  0.00     0.037 A 
BRANCH  54  68
ATOM     68  C   UNL A   1      46.278  32.906  28.249  1.00  0.00     0.058 A 
ATOM     69  C   UNL A   1      46.709  33.417  29.484  1.00  0.00     0.135 A 
ATOM     70  C   UNL A   1      46.223  33.794  27.161  1.00  0.00     0.135 A 
ATOM     71  F   UNL A   1      46.765  32.619  30.563  1.00  0.00    -0.206 F 
ATOM     72  C   UNL A   1      47.041  34.758  29.645  1.00  0.00     0.059 A 
ATOM     73  C   UNL A   1      46.580  35.134  27.291  1.00  0.00     0.059 A 
ATOM     74  F   UNL A   1      45.817  33.362  25.957  1.00  0.00    -0.206 F 
ATOM     75  C   UNL A   1      46.974  35.610  28.540  1.00  0.00     0.060 A 
BRANCH  75  76
ATOM     76  S   UNL A   1      47.415  37.345  28.764  1.00  0.00     0.124 S 
ATOM     77  O   UNL A   1      46.690  37.676  29.986  1.00  0.00    -0.237 OA
ATOM     78  O   UNL A   1      48.869  37.284  28.886  1.00  0.00    -0.237 OA
ATOM     79  O   UNL A   1      46.918  37.982  27.548  1.00  0.00    -0.744 OA
ENDBRANCH  75  76
ENDBRANCH  54  68
BRANCH  55  80
ATOM     80  C   UNL A   1      43.366  23.408  26.935  1.00  0.00     0.058 A 
ATOM     81  C   UNL A   1      43.171  22.907  25.638  1.00  0.00     0.135 A 
ATOM     82  C   UNL A   1      43.158  22.530  28.011  1.00  0.00     0.135 A 
ATOM     83  F   UNL A   1      43.354  23.707  24.577  1.00  0.00    -0.206 F 
ATOM     84  C   UNL A   1      42.766  21.594  25.417  1.00  0.00     0.059 A 
ATOM     85  C   UNL A   1      42.782  21.206  27.814  1.00  0.00     0.059 A 
ATOM     86  F   UNL A   1      43.352  22.954  29.270  1.00  0.00    -0.206 F 
ATOM     87  C   UNL A   1      42.577  20.751  26.512  1.00  0.00     0.060 A 
BRANCH  87  88
ATOM     88  S   UNL A   1      42.098  19.036  26.209  1.00  0.00     0.124 S 
ATOM     89  O   UNL A   1      42.334  18.429  27.514  1.00  0.00    -0.237 OA
ATOM     90  O   UNL A   1      40.700  19.174  25.813  1.00  0.00    -0.237 OA
ATOM     91  O   UNL A   1      43.005  18.617  25.145  1.00  0.00    -0.744 OA
ENDBRANCH  87  88
ENDBRANCH  55  80
BRANCH  67  92
ATOM     92  C   UNL A   1      49.494  26.707  26.426  1.00  0.00     0.058 A 
ATOM     93  C   UNL A   1      50.297  26.040  27.364  1.00  0.00     0.135 A 
ATOM     94  C   UNL A   1      50.004  26.879  25.128  1.00  0.00     0.135 A 
ATOM     95  F   UNL A   1      49.859  25.854  28.619  1.00  0.00    -0.206 F 
ATOM     96  C   UNL A   1      51.570  25.587  27.037  1.00  0.00     0.059 A 
ATOM     97  C   UNL A   1      51.262  26.406  24.770  1.00  0.00     0.059 A 
ATOM     98  F   UNL A   1      49.272  27.499  24.191  1.00  0.00    -0.206 F 
ATOM     99  C   UNL A   1      52.044  25.773  25.735  1.00  0.00     0.060 A 
BRANCH  99 100
ATOM    100  S   UNL A   1      53.687  25.157  25.317  1.00  0.00     0.124 S 
ATOM    101  O   UNL A   1      53.839  25.634  23.946  1.00  0.00    -0.237 OA
ATOM    102  O   UNL A   1      54.530  25.812  26.312  1.00  0.00    -0.237 OA
ATOM    103  O   UNL A   1      53.557  23.711  25.469  1.00  0.00    -0.744 OA
ENDBRANCH  99 100
ENDBRANCH  67  92
ENDBRANCH  41  42
ENDBRANCH  33  36
ENDBRANCH  31  32
ENDBRANCH  30  31
ENDBRANCH   1  30
TORSDOF 19
ENDMDL
MODEL 3
REMARK VINA RESULT:     -11.6      6.510     12.047
REMARK SMILES C[C@@H](NC(=O)[C@@H]([NH3+])CC(=O)NCCCNC(=O)c1ccc(-c2c3nc(c(-c4c(F)cc(S(=O)(=O)[O-])cc4F)c4ccc([nH]4)c(-c4c(F)cc(S(=O)(=O)[O-])cc4F)c4nc(c(-c5c(F)cc(S(=O)(=O)[O-])cc5F)c5ccc2[nH]5)C=C4)C=C3)cc1)C(=O)NC1C(C)(C)SC1(C)C
REMARK SMILES IDX 12 1 11 2 9 3 10 4 8 6 6 7 4 8 3 9 5 11 2 12 1 13 84 14
REMARK SMILES IDX 85 15 86 16 87 18 88 19 92 20 89 21 90 22 91 23 93 24 94 25
REMARK SMILES IDX 7 26 13 30 14 31 15 32 16 33 17 35 18 36 19 37 83 38 20 39
REMARK SMILES IDX 82 40 21 41 22 42 23 43 76 44 24 45 81 46 75 47 77 48 25 49
REMARK SMILES IDX 80 50 74 51 73 52 26 54 60 55 39 56 59 57 40 58 43 59 58 60
REMARK SMILES IDX 78 61 41 62 42 63 57 65 79 66 44 67 27 68 28 69 37 70 29 71
REMARK SMILES IDX 30 72 36 73 38 74 31 75 32 76 33 77 34 78 35 79 61 80 62 81
REMARK SMILES IDX 71 82 63 83 64 84 70 85 72 86 65 87 66 88 67 89 68 90 69 91
REMARK SMILES IDX 45 92 46 93 55 94 47 95 48 96 54 97 56 98 49 99 50 100
REMARK SMILES IDX 51 101 52 102 53 103
REMARK H PARENT 11 5 3 10 86 17 7 27 7 28 7 29 15 34 77 53 43 64
REMARK Flexibility Score: inf
ROOT
ATOM      1  C   UNL A   1      33.574  30.634  26.921  1.00  0.00     0.117 C 
ENDROOT
BRANCH   1   2
ATOM      2  N   UNL A   1      32.689  29.759  27.665  1.00  0.00    -0.356 N 
ATOM      3  C   UNL A   1      31.939  28.719  27.211  1.00  0.00     0.226 C 
ATOM      4  O   UNL A   1      31.168  28.157  27.989  1.00  0.00    -0.275 OA
ATOM      5  H   UNL A   1      32.623  29.943  28.629  1.00  0.00     0.163 HD
BRANCH   3   6
ATOM      6  C   UNL A   1      32.054  28.289  25.771  1.00  0.00     0.175 C 
BRANCH   6   7
ATOM      7  C   UNL A   1      30.973  27.271  25.443  1.00  0.00     0.280 C 
BRANCH   7   8
ATOM      8  C   UNL A   1      30.586  27.096  23.948  1.00  0.00     0.279 C 
ATOM      9  N   UNL A   1      31.443  26.877  22.921  1.00  0.00    -0.339 N 
ATOM     10  H   UNL A   1      31.007  26.773  22.045  1.00  0.00     0.164 HD
ATOM     11  O   UNL A   1      29.388  27.060  23.639  1.00  0.00    -0.268 OA
BRANCH   9  12
ATOM     12  C   UNL A   1      32.894  26.768  22.885  1.00  0.00     0.168 C 
ATOM     13  C   UNL A   1      33.533  28.052  22.352  1.00  0.00     0.041 C 
BRANCH  12  14
ATOM     14  C   UNL A   1      33.354  25.560  22.061  1.00  0.00     0.242 C 
ATOM     15  O   UNL A   1      33.254  25.567  20.831  1.00  0.00    -0.273 OA
ATOM     16  N   UNL A   1      33.797  24.409  22.670  1.00  0.00    -0.349 N 
ATOM     17  H   UNL A   1      34.442  23.880  22.148  1.00  0.00     0.163 HD
BRANCH  16  18
ATOM     18  C   UNL A   1      33.445  23.850  24.005  1.00  0.00     0.113 C 
ATOM     19  C   UNL A   1      32.402  22.677  23.833  1.00  0.00     0.032 C 
ATOM     20  C   UNL A   1      34.506  22.951  24.790  1.00  0.00     0.032 C 
ATOM     21  C   UNL A   1      30.979  23.134  24.145  1.00  0.00     0.025 C 
ATOM     22  C   UNL A   1      32.442  21.862  22.539  1.00  0.00     0.025 C 
ATOM     23  S   UNL A   1      33.148  21.755  25.208  1.00  0.00    -0.145 SA
ATOM     24  C   UNL A   1      35.642  22.230  24.063  1.00  0.00     0.025 C 
ATOM     25  C   UNL A   1      35.035  23.548  26.101  1.00  0.00     0.025 C 
ENDBRANCH  16  18
ENDBRANCH  12  14
ENDBRANCH   9  12
ENDBRANCH   7   8
BRANCH   7  26
ATOM     26  N   UNL A   1      31.355  25.967  26.021  1.00  0.00    -0.347 N 
ATOM     27  H   UNL A   1      30.953  25.879  26.954  1.00  0.00     0.345 HD
ATOM     28  H   UNL A   1      32.372  25.908  26.082  1.00  0.00     0.345 HD
ATOM     29  H   UNL A   1      31.006  25.216  25.427  1.00  0.00     0.345 HD
ENDBRANCH   7  26
ENDBRANCH   6   7
ENDBRANCH   3   6
ENDBRANCH   1   2
BRANCH   1  30
ATOM     30  C   UNL A   1      34.279  31.609  27.848  1.00  0.00     0.042 C 
BRANCH  30  31
ATOM     31  C   UNL A   1      35.608  31.122  28.381  1.00  0.00     0.118 C 
BRANCH  31  32
ATOM     32  N   UNL A   1      35.581  30.911  29.815  1.00  0.00    -0.352 N 
ATOM     33  C   UNL A   1      36.492  30.293  30.625  1.00  0.00     0.251 C 
ATOM     34  H   UNL A   1      34.787  31.269  30.275  1.00  0.00     0.163 HD
ATOM     35  O   UNL A   1      36.170  30.035  31.789  1.00  0.00    -0.269 OA
BRANCH  33  36
ATOM     36  C   UNL A   1      37.832  29.918  30.123  1.00  0.00     0.039 A 
ATOM     37  C   UNL A   1      38.821  29.579  31.050  1.00  0.00     0.014 A 
ATOM     38  C   UNL A   1      38.137  29.932  28.759  1.00  0.00     0.014 A 
ATOM     39  C   UNL A   1      40.096  29.227  30.607  1.00  0.00     0.010 A 
ATOM     40  C   UNL A   1      39.371  29.470  28.313  1.00  0.00     0.010 A 
ATOM     41  C   UNL A   1      40.375  29.147  29.232  1.00  0.00    -0.014 A 
BRANCH  41  42
ATOM     42  C   UNL A   1      41.726  28.776  28.743  1.00  0.00     0.031 A 
ATOM     43  C   UNL A   1      42.807  29.821  28.657  1.00  0.00     0.074 A 
ATOM     44  C   UNL A   1      41.965  27.510  28.347  1.00  0.00     0.049 A 
ATOM     45  N   UNL A   1      44.038  29.703  28.231  1.00  0.00    -0.248 NA
ATOM     46  C   UNL A   1      42.451  31.188  29.074  1.00  0.00     0.031 C 
ATOM     47  C   UNL A   1      40.978  26.428  28.332  1.00  0.00     0.029 A 
ATOM     48  N   UNL A   1      43.110  26.920  27.879  1.00  0.00    -0.354 N 
ATOM     49  C   UNL A   1      44.592  30.975  28.314  1.00  0.00     0.074 A 
ATOM     50  C   UNL A   1      43.547  31.864  28.769  1.00  0.00     0.031 C 
ATOM     51  C   UNL A   1      41.570  25.298  27.912  1.00  0.00     0.029 A 
ATOM     52  C   UNL A   1      42.964  25.583  27.591  1.00  0.00     0.049 A 
ATOM     53  H   UNL A   1      43.958  27.407  27.759  1.00  0.00     0.167 HD
ATOM     54  C   UNL A   1      45.865  31.362  28.065  1.00  0.00     0.037 A 
ATOM     55  C   UNL A   1      43.855  24.691  27.120  1.00  0.00     0.037 A 
ATOM     56  C   UNL A   1      46.906  30.461  27.645  1.00  0.00     0.049 A 
ATOM     57  C   UNL A   1      45.267  25.141  26.862  1.00  0.00     0.074 A 
ATOM     58  C   UNL A   1      48.244  30.734  27.423  1.00  0.00     0.029 A 
ATOM     59  N   UNL A   1      46.725  29.110  27.384  1.00  0.00    -0.354 N 
ATOM     60  N   UNL A   1      45.792  26.335  27.012  1.00  0.00    -0.248 NA
ATOM     61  C   UNL A   1      46.211  24.123  26.381  1.00  0.00     0.031 C 
ATOM     62  C   UNL A   1      48.862  29.560  26.982  1.00  0.00     0.029 A 
ATOM     63  C   UNL A   1      47.921  28.541  26.984  1.00  0.00     0.049 A 
ATOM     64  H   UNL A   1      45.870  28.628  27.471  1.00  0.00     0.167 HD
ATOM     65  C   UNL A   1      47.134  26.206  26.669  1.00  0.00     0.074 A 
ATOM     66  C   UNL A   1      47.341  24.815  26.320  1.00  0.00     0.031 C 
ATOM     67  C   UNL A   1      48.106  27.151  26.645  1.00  0.00     0.037 A 
BRANCH  54  68
ATOM     68  C   UNL A   1      46.204  32.817  28.249  1.00  0.00     0.058 A 
ATOM     69  C   UNL A   1      46.652  33.322  29.481  1.00  0.00     0.135 A 
ATOM     70  C   UNL A   1      46.107  33.716  27.174  1.00  0.00     0.135 A 
ATOM     71  F   UNL A   1      46.748  32.514  30.549  1.00  0.00    -0.206 F 
ATOM     72  C   UNL A   1      46.962  34.668  29.650  1.00  0.00     0.059 A 
ATOM     73  C   UNL A   1      46.441  35.061  27.311  1.00  0.00     0.059 A 
ATOM     74  F   UNL A   1      45.681  33.290  25.974  1.00  0.00    -0.206 F 
ATOM     75  C   UNL A   1      46.854  35.530  28.557  1.00  0.00     0.060 A 
BRANCH  75  76
ATOM     76  S   UNL A   1      47.266  37.271  28.791  1.00  0.00     0.124 S 
ATOM     77  O   UNL A   1      48.640  37.314  28.299  1.00  0.00    -0.237 OA
ATOM     78  O   UNL A   1      46.273  37.942  27.957  1.00  0.00    -0.237 OA
ATOM     79  O   UNL A   1      47.109  37.469  30.228  1.00  0.00    -0.744 OA
ENDBRANCH  75  76
ENDBRANCH  54  68
BRANCH  55  80
ATOM     80  C   UNL A   1      43.444  23.280  26.892  1.00  0.00     0.058 A 
ATOM     81  C   UNL A   1      43.241  22.402  27.969  1.00  0.00     0.135 A 
ATOM     82  C   UNL A   1      43.225  22.784  25.597  1.00  0.00     0.135 A 
ATOM     83  F   UNL A   1      43.439  22.828  29.225  1.00  0.00    -0.206 F 
ATOM     84  C   UNL A   1      42.855  21.081  27.770  1.00  0.00     0.059 A 
ATOM     85  C   UNL A   1      42.812  21.475  25.374  1.00  0.00     0.059 A 
ATOM     86  F   UNL A   1      43.386  23.588  24.534  1.00  0.00    -0.206 F 
ATOM     87  C   UNL A   1      42.641  20.627  26.467  1.00  0.00     0.060 A 
BRANCH  87  88
ATOM     88  S   UNL A   1      42.095  18.922  26.225  1.00  0.00     0.124 S 
ATOM     89  O   UNL A   1      43.053  18.444  25.235  1.00  0.00    -0.237 OA
ATOM     90  O   UNL A   1      42.231  18.363  27.567  1.00  0.00    -0.237 OA
ATOM     91  O   UNL A   1      40.722  19.074  25.753  1.00  0.00    -0.744 OA
ENDBRANCH  87  88
ENDBRANCH  55  80
BRANCH  67  92
ATOM     92  C   UNL A   1      49.489  26.706  26.261  1.00  0.00     0.058 A 
ATOM     93  C   UNL A   1      49.964  26.818  24.946  1.00  0.00     0.135 A 
ATOM     94  C   UNL A   1      50.369  26.204  27.236  1.00  0.00     0.135 A 
ATOM     95  F   UNL A   1      49.162  27.287  23.975  1.00  0.00    -0.206 F 
ATOM     96  C   UNL A   1      51.251  26.420  24.601  1.00  0.00     0.059 A 
ATOM     97  C   UNL A   1      51.670  25.830  26.921  1.00  0.00     0.059 A 
ATOM     98  F   UNL A   1      49.969  26.088  28.511  1.00  0.00    -0.206 F 
ATOM     99  C   UNL A   1      52.098  25.928  25.598  1.00  0.00     0.060 A 
BRANCH  99 100
ATOM    100  S   UNL A   1      53.774  25.439  25.142  1.00  0.00     0.124 S 
ATOM    101  O   UNL A   1      53.854  25.912  23.764  1.00  0.00    -0.237 OA
ATOM    102  O   UNL A   1      54.587  26.169  26.110  1.00  0.00    -0.237 OA
ATOM    103  O   UNL A   1      53.762  23.989  25.310  1.00  0.00    -0.744 OA
ENDBRANCH  99 100
ENDBRANCH  67  92
ENDBRANCH  41  42
ENDBRANCH  33  36
ENDBRANCH  31  32
ENDBRANCH  30  31
ENDBRANCH   1  30
TORSDOF 19
ENDMDL
